MODEL 1
REMARK VINA RESULT:      -4.8      0.000      0.000
REMARK  4 active torsions:
REMARK  status: ('A' for Active; 'I' for Inactive)
REMARK    1  A    between atoms: C3_3  and  C5_5 
REMARK    2  A    between atoms: C3_3  and  O8_8 
REMARK    3  A    between atoms: C5_5  and  C6_6 
REMARK    4  A    between atoms: C6_6  and  C7_7 
ROOT
HETATM    1  C1  UNL     1     -31.936   7.335   3.358  1.00 20.00     0.045 A 
HETATM    2  C2  UNL     1     -32.714   7.764   2.142  1.00 20.00     0.019 A 
HETATM    3  C3  UNL     1     -33.155   6.555   2.931  1.00 20.00     0.062 A 
HETATM    4  C4  UNL     1     -32.112   7.634   0.785  1.00 20.00     0.013 C 
ENDROOT
BRANCH   3   5
HETATM    5  C5  UNL     1     -34.400   6.614   3.751  1.00 20.00     0.047 C 
BRANCH   5   6
HETATM    6  C6  UNL     1     -34.635   5.318   4.528  1.00 20.00     0.120 C 
BRANCH   6   7
HETATM    7  C7  UNL     1     -34.458   5.507   6.019  1.00 20.00     0.388 C 
HETATM    8  F9  UNL     1     -33.744   6.619   6.293  1.00 20.00    -0.171 F 
HETATM    9  F10 UNL     1     -35.649   5.610   6.645  1.00 20.00    -0.171 F 
HETATM   10  F11 UNL     1     -33.802   4.454   6.556  1.00 20.00    -0.171 F 
ENDBRANCH   6   7
ENDBRANCH   5   6
ENDBRANCH   3   5
BRANCH   3  11
HETATM   11  O8  UNL     1     -32.902   5.263   2.356  1.00 20.00    -0.389 OA
HETATM   12  H22 UNL     1     -32.050   4.978   2.711  1.00 20.00     0.210 HD
ENDBRANCH   3  11
TORSDOF 4
ENDMDL
MODEL 2
REMARK VINA RESULT:      -4.7      1.068      1.472
REMARK  4 active torsions:
REMARK  status: ('A' for Active; 'I' for Inactive)
REMARK    1  A    between atoms: C3_3  and  C5_5 
REMARK    2  A    between atoms: C3_3  and  O8_8 
REMARK    3  A    between atoms: C5_5  and  C6_6 
REMARK    4  A    between atoms: C6_6  and  C7_7 
ROOT
HETATM    1  C1  UNL     1     -31.632   7.512   3.096  1.00 20.00     0.045 A 
HETATM    2  C2  UNL     1     -32.524   7.947   1.963  1.00 20.00     0.019 A 
HETATM    3  C3  UNL     1     -32.972   6.849   2.896  1.00 20.00     0.062 A 
HETATM    4  C4  UNL     1     -32.135   7.663   0.553  1.00 20.00     0.013 C 
ENDROOT
BRANCH   3   5
HETATM    5  C5  UNL     1     -34.077   7.100   3.867  1.00 20.00     0.047 C 
BRANCH   5   6
HETATM    6  C6  UNL     1     -33.912   6.279   5.147  1.00 20.00     0.120 C 
BRANCH   6   7
HETATM    7  C7  UNL     1     -34.860   5.100   5.195  1.00 20.00     0.388 C 
HETATM    8  F9  UNL     1     -34.252   3.963   4.799  1.00 20.00    -0.171 F 
HETATM    9  F10 UNL     1     -35.339   4.906   6.442  1.00 20.00    -0.171 F 
HETATM   10  F11 UNL     1     -35.917   5.308   4.378  1.00 20.00    -0.171 F 
ENDBRANCH   6   7
ENDBRANCH   5   6
ENDBRANCH   3   5
BRANCH   3  11
HETATM   11  O8  UNL     1     -32.936   5.501   2.397  1.00 20.00    -0.389 OA
HETATM   12  H22 UNL     1     -33.648   5.032   2.852  1.00 20.00     0.210 HD
ENDBRANCH   3  11
TORSDOF 4
ENDMDL
MODEL 3
REMARK VINA RESULT:      -4.5      9.326     10.197
REMARK  4 active torsions:
REMARK  status: ('A' for Active; 'I' for Inactive)
REMARK    1  A    between atoms: C3_3  and  C5_5 
REMARK    2  A    between atoms: C3_3  and  O8_8 
REMARK    3  A    between atoms: C5_5  and  C6_6 
REMARK    4  A    between atoms: C6_6  and  C7_7 
ROOT
HETATM    1  C1  UNL     1     -41.250   5.474  -0.831  1.00 20.00     0.045 A 
HETATM    2  C2  UNL     1     -42.677   5.407  -1.310  1.00 20.00     0.019 A 
HETATM    3  C3  UNL     1     -42.382   5.534   0.165  1.00 20.00     0.062 A 
HETATM    4  C4  UNL     1     -43.212   4.144  -1.893  1.00 20.00     0.013 C 
ENDROOT
BRANCH   3   5
HETATM    5  C5  UNL     1     -42.677   6.811   0.876  1.00 20.00     0.047 C 
BRANCH   5   6
HETATM    6  C6  UNL     1     -41.452   7.725   0.944  1.00 20.00     0.120 C 
BRANCH   6   7
HETATM    7  C7  UNL     1     -41.593   8.935   0.045  1.00 20.00     0.388 C 
HETATM    8  F9  UNL     1     -42.887   9.183  -0.247  1.00 20.00    -0.171 F 
HETATM    9  F10 UNL     1     -41.075  10.039   0.623  1.00 20.00    -0.171 F 
HETATM   10  F11 UNL     1     -40.938   8.737  -1.121  1.00 20.00    -0.171 F 
ENDBRANCH   6   7
ENDBRANCH   5   6
ENDBRANCH   3   5
BRANCH   3  11
HETATM   11  O8  UNL     1     -42.563   4.364   0.979  1.00 20.00    -0.389 OA
HETATM   12  H22 UNL     1     -43.359   4.527   1.502  1.00 20.00     0.210 HD
ENDBRANCH   3  11
TORSDOF 4
ENDMDL
MODEL 4
REMARK VINA RESULT:      -4.5      2.896      4.515
REMARK  4 active torsions:
REMARK  status: ('A' for Active; 'I' for Inactive)
REMARK    1  A    between atoms: C3_3  and  C5_5 
REMARK    2  A    between atoms: C3_3  and  O8_8 
REMARK    3  A    between atoms: C5_5  and  C6_6 
REMARK    4  A    between atoms: C6_6  and  C7_7 
ROOT
HETATM    1  C1  UNL     1     -35.324   5.860   3.723  1.00 20.00     0.045 A 
HETATM    2  C2  UNL     1     -34.338   5.967   4.857  1.00 20.00     0.019 A 
HETATM    3  C3  UNL     1     -34.076   5.014   3.716  1.00 20.00     0.062 A 
HETATM    4  C4  UNL     1     -34.704   5.476   6.215  1.00 20.00     0.013 C 
ENDROOT
BRANCH   3   5
HETATM    5  C5  UNL     1     -32.987   5.303   2.738  1.00 20.00     0.047 C 
BRANCH   5   6
HETATM    6  C6  UNL     1     -33.406   6.357   1.712  1.00 20.00     0.120 C 
BRANCH   6   7
HETATM    7  C7  UNL     1     -32.513   7.579   1.753  1.00 20.00     0.388 C 
HETATM    8  F9  UNL     1     -31.603   7.558   0.757  1.00 20.00    -0.171 F 
HETATM    9  F10 UNL     1     -33.232   8.716   1.640  1.00 20.00    -0.171 F 
HETATM   10  F11 UNL     1     -31.840   7.635   2.924  1.00 20.00    -0.171 F 
ENDBRANCH   6   7
ENDBRANCH   5   6
ENDBRANCH   3   5
BRANCH   3  11
HETATM   11  O8  UNL     1     -34.268   3.612   3.968  1.00 20.00    -0.389 OA
HETATM   12  H22 UNL     1     -33.539   3.161   3.523  1.00 20.00     0.210 HD
ENDBRANCH   3  11
TORSDOF 4
ENDMDL
MODEL 5
REMARK VINA RESULT:      -4.4     11.999     13.077
REMARK  4 active torsions:
REMARK  status: ('A' for Active; 'I' for Inactive)
REMARK    1  A    between atoms: C3_3  and  C5_5 
REMARK    2  A    between atoms: C3_3  and  O8_8 
REMARK    3  A    between atoms: C5_5  and  C6_6 
REMARK    4  A    between atoms: C6_6  and  C7_7 
ROOT
HETATM    1  C1  UNL     1     -34.508  16.490  -6.127  1.00 20.00     0.045 A 
HETATM    2  C2  UNL     1     -35.463  15.339  -6.311  1.00 20.00     0.019 A 
HETATM    3  C3  UNL     1     -34.079  15.091  -5.761  1.00 20.00     0.062 A 
HETATM    4  C4  UNL     1     -35.848  14.899  -7.682  1.00 20.00     0.013 C 
ENDROOT
BRANCH   3   5
HETATM    5  C5  UNL     1     -33.902  14.720  -4.327  1.00 20.00     0.047 C 
BRANCH   5   6
HETATM    6  C6  UNL     1     -33.217  15.830  -3.528  1.00 20.00     0.120 C 
BRANCH   6   7
HETATM    7  C7  UNL     1     -34.137  16.436  -2.490  1.00 20.00     0.388 C 
HETATM    8  F9  UNL     1     -34.983  15.514  -1.984  1.00 20.00    -0.171 F 
HETATM    9  F10 UNL     1     -33.437  16.969  -1.466  1.00 20.00    -0.171 F 
HETATM   10  F11 UNL     1     -34.883  17.423  -3.035  1.00 20.00    -0.171 F 
ENDBRANCH   6   7
ENDBRANCH   5   6
ENDBRANCH   3   5
BRANCH   3  11
HETATM   11  O8  UNL     1     -33.118  14.482  -6.639  1.00 20.00    -0.389 OA
HETATM   12  H22 UNL     1     -33.042  13.563  -6.350  1.00 20.00     0.210 HD
ENDBRANCH   3  11
TORSDOF 4
ENDMDL
MODEL 6
REMARK VINA RESULT:      -4.3      3.699      5.193
REMARK  4 active torsions:
REMARK  status: ('A' for Active; 'I' for Inactive)
REMARK    1  A    between atoms: C3_3  and  C5_5 
REMARK    2  A    between atoms: C3_3  and  O8_8 
REMARK    3  A    between atoms: C5_5  and  C6_6 
REMARK    4  A    between atoms: C6_6  and  C7_7 
ROOT
HETATM    1  C1  UNL     1     -33.244   4.647   3.254  1.00 20.00     0.045 A 
HETATM    2  C2  UNL     1     -34.500   5.386   3.637  1.00 20.00     0.019 A 
HETATM    3  C3  UNL     1     -33.328   6.140   3.059  1.00 20.00     0.062 A 
HETATM    4  C4  UNL     1     -34.882   5.518   5.072  1.00 20.00     0.013 C 
ENDROOT
BRANCH   3   5
HETATM    5  C5  UNL     1     -33.412   6.705   1.681  1.00 20.00     0.047 C 
BRANCH   5   6
HETATM    6  C6  UNL     1     -32.496   7.918   1.502  1.00 20.00     0.120 C 
BRANCH   6   7
HETATM    7  C7  UNL     1     -33.117   8.975   0.614  1.00 20.00     0.388 C 
HETATM    8  F9  UNL     1     -34.132   9.608   1.239  1.00 20.00    -0.171 F 
HETATM    9  F10 UNL     1     -32.208   9.903   0.248  1.00 20.00    -0.171 F 
HETATM   10  F11 UNL     1     -33.610   8.417  -0.514  1.00 20.00    -0.171 F 
ENDBRANCH   6   7
ENDBRANCH   5   6
ENDBRANCH   3   5
BRANCH   3  11
HETATM   11  O8  UNL     1     -32.542   6.935   3.962  1.00 20.00    -0.389 OA
HETATM   12  H22 UNL     1     -32.899   7.831   3.904  1.00 20.00     0.210 HD
ENDBRANCH   3  11
TORSDOF 4
ENDMDL
MODEL 7
REMARK VINA RESULT:      -4.1     11.414     12.546
REMARK  4 active torsions:
REMARK  status: ('A' for Active; 'I' for Inactive)
REMARK    1  A    between atoms: C3_3  and  C5_5 
REMARK    2  A    between atoms: C3_3  and  O8_8 
REMARK    3  A    between atoms: C5_5  and  C6_6 
REMARK    4  A    between atoms: C6_6  and  C7_7 
ROOT
HETATM    1  C1  UNL     1     -35.985  15.035  -5.527  1.00 20.00     0.045 A 
HETATM    2  C2  UNL     1     -36.775  15.025  -4.244  1.00 20.00     0.019 A 
HETATM    3  C3  UNL     1     -35.632  14.058  -4.434  1.00 20.00     0.062 A 
HETATM    4  C4  UNL     1     -38.193  14.567  -4.242  1.00 20.00     0.013 C 
ENDROOT
BRANCH   3   5
HETATM    5  C5  UNL     1     -34.369  14.235  -3.659  1.00 20.00     0.047 C 
BRANCH   5   6
HETATM    6  C6  UNL     1     -33.713  15.589  -3.937  1.00 20.00     0.120 C 
BRANCH   6   7
HETATM    7  C7  UNL     1     -33.809  16.523  -2.750  1.00 20.00     0.388 C 
HETATM    8  F9  UNL     1     -34.566  15.993  -1.766  1.00 20.00    -0.171 F 
HETATM    9  F10 UNL     1     -32.589  16.794  -2.239  1.00 20.00    -0.171 F 
HETATM   10  F11 UNL     1     -34.371  17.697  -3.114  1.00 20.00    -0.171 F 
ENDBRANCH   6   7
ENDBRANCH   5   6
ENDBRANCH   3   5
BRANCH   3  11
HETATM   11  O8  UNL     1     -35.964  12.683  -4.690  1.00 20.00    -0.389 OA
HETATM   12  H22 UNL     1     -35.341  12.160  -4.170  1.00 20.00     0.210 HD
ENDBRANCH   3  11
TORSDOF 4
ENDMDL
MODEL 8
REMARK VINA RESULT:      -4.1      9.592     10.444
REMARK  4 active torsions:
REMARK  status: ('A' for Active; 'I' for Inactive)
REMARK    1  A    between atoms: C3_3  and  C5_5 
REMARK    2  A    between atoms: C3_3  and  O8_8 
REMARK    3  A    between atoms: C5_5  and  C6_6 
REMARK    4  A    between atoms: C6_6  and  C7_7 
ROOT
HETATM    1  C1  UNL     1     -41.617   4.788  -1.568  1.00 20.00     0.045 A 
HETATM    2  C2  UNL     1     -42.942   4.410  -2.176  1.00 20.00     0.019 A 
HETATM    3  C3  UNL     1     -42.899   5.222  -0.904  1.00 20.00     0.062 A 
HETATM    4  C4  UNL     1     -43.385   2.988  -2.179  1.00 20.00     0.013 C 
ENDROOT
BRANCH   3   5
HETATM    5  C5  UNL     1     -43.296   6.660  -0.923  1.00 20.00     0.047 C 
BRANCH   5   6
HETATM    6  C6  UNL     1     -42.875   7.387   0.355  1.00 20.00     0.120 C 
BRANCH   6   7
HETATM    7  C7  UNL     1     -41.461   7.921   0.267  1.00 20.00     0.388 C 
HETATM    8  F9  UNL     1     -40.586   7.100   0.886  1.00 20.00    -0.171 F 
HETATM    9  F10 UNL     1     -41.068   8.061  -1.017  1.00 20.00    -0.171 F 
HETATM   10  F11 UNL     1     -41.375   9.134   0.857  1.00 20.00    -0.171 F 
ENDBRANCH   6   7
ENDBRANCH   5   6
ENDBRANCH   3   5
BRANCH   3  11
HETATM   11  O8  UNL     1     -43.230   4.547   0.322  1.00 20.00    -0.389 OA
HETATM   12  H22 UNL     1     -43.271   3.607   0.103  1.00 20.00     0.210 HD
ENDBRANCH   3  11
TORSDOF 4
ENDMDL
MODEL 9
REMARK VINA RESULT:      -4.1      9.865     10.617
REMARK  4 active torsions:
REMARK  status: ('A' for Active; 'I' for Inactive)
REMARK    1  A    between atoms: C3_3  and  C5_5 
REMARK    2  A    between atoms: C3_3  and  O8_8 
REMARK    3  A    between atoms: C5_5  and  C6_6 
REMARK    4  A    between atoms: C6_6  and  C7_7 
ROOT
HETATM    1  C1  UNL     1     -41.229   7.066   0.663  1.00 20.00     0.045 A 
HETATM    2  C2  UNL     1     -41.953   8.359   0.394  1.00 20.00     0.019 A 
HETATM    3  C3  UNL     1     -41.837   7.319  -0.693  1.00 20.00     0.062 A 
HETATM    4  C4  UNL     1     -41.196   9.641   0.332  1.00 20.00     0.013 C 
ENDROOT
BRANCH   3   5
HETATM    5  C5  UNL     1     -43.042   6.551  -1.122  1.00 20.00     0.047 C 
BRANCH   5   6
HETATM    6  C6  UNL     1     -42.938   5.070  -0.754  1.00 20.00     0.120 C 
BRANCH   6   7
HETATM    7  C7  UNL     1     -42.819   4.186  -1.977  1.00 20.00     0.388 C 
HETATM    8  F9  UNL     1     -41.528   3.964  -2.300  1.00 20.00    -0.171 F 
HETATM    9  F10 UNL     1     -43.412   2.990  -1.778  1.00 20.00    -0.171 F 
HETATM   10  F11 UNL     1     -43.415   4.767  -3.042  1.00 20.00    -0.171 F 
ENDBRANCH   6   7
ENDBRANCH   5   6
ENDBRANCH   3   5
BRANCH   3  11
HETATM   11  O8  UNL     1     -40.907   7.577  -1.759  1.00 20.00    -0.389 OA
HETATM   12  H22 UNL     1     -40.760   6.726  -2.192  1.00 20.00     0.210 HD
ENDBRANCH   3  11
TORSDOF 4
ENDMDL
