MODEL 1
REMARK VINA RESULT:      -4.1      0.000      0.000
REMARK  2 active torsions:
REMARK  status: ('A' for Active; 'I' for Inactive)
REMARK    1  A    between atoms: C4_4  and  C7_7 
REMARK    2  A    between atoms: C7_7  and  C8_8 
ROOT
HETATM    1  C1  UNL     1     -37.923  16.059  -4.072  1.00 20.00     0.034 C 
HETATM    2  C2  UNL     1     -38.872  14.900  -4.291  1.00 20.00     0.168 C 
HETATM    3  C3  UNL     1     -36.690  14.107  -4.479  1.00 20.00     0.173 C 
HETATM    4  C4  UNL     1     -36.689  15.589  -4.809  1.00 20.00     0.026 C 
HETATM    5  O9  UNL     1     -38.066  13.714  -4.371  1.00 20.00    -0.391 OA
ENDROOT
BRANCH   4   6
HETATM    6  C7  UNL     1     -35.413  16.305  -4.407  1.00 20.00     0.067 C 
HETATM    7 BR10 UNL     1     -35.877  18.137  -3.859  1.00 20.00    -0.090 Br
BRANCH   6   8
HETATM    8  C8  UNL     1     -34.571  15.623  -3.311  1.00 20.00    -0.008 C 
HETATM    9  C5  UNL     1     -34.928  16.183  -1.927  1.00 20.00     0.011 C 
HETATM   10  C6  UNL     1     -33.079  15.721  -3.530  1.00 20.00     0.011 C 
ENDBRANCH   6   8
ENDBRANCH   4   6
TORSDOF 2
ENDMDL
MODEL 2
REMARK VINA RESULT:      -3.9      1.539      1.882
REMARK  2 active torsions:
REMARK  status: ('A' for Active; 'I' for Inactive)
REMARK    1  A    between atoms: C4_4  and  C7_7 
REMARK    2  A    between atoms: C7_7  and  C8_8 
ROOT
HETATM    1  C1  UNL     1     -37.566  16.149  -4.012  1.00 20.00     0.034 C 
HETATM    2  C2  UNL     1     -38.803  15.292  -4.177  1.00 20.00     0.168 C 
HETATM    3  C3  UNL     1     -36.931  13.960  -4.566  1.00 20.00     0.173 C 
HETATM    4  C4  UNL     1     -36.560  15.402  -4.860  1.00 20.00     0.026 C 
HETATM    5  O9  UNL     1     -38.351  13.940  -4.352  1.00 20.00    -0.391 OA
ENDROOT
BRANCH   4   6
HETATM    6  C7  UNL     1     -35.114  15.738  -4.550  1.00 20.00     0.067 C 
HETATM    7 BR10 UNL     1     -34.912  15.866  -2.597  1.00 20.00    -0.090 Br
BRANCH   6   8
HETATM    8  C8  UNL     1     -34.057  14.776  -5.128  1.00 20.00    -0.008 C 
HETATM    9  C5  UNL     1     -32.764  14.833  -4.303  1.00 20.00     0.011 C 
HETATM   10  C6  UNL     1     -33.740  15.015  -6.587  1.00 20.00     0.011 C 
ENDBRANCH   6   8
ENDBRANCH   4   6
TORSDOF 2
ENDMDL
MODEL 3
REMARK VINA RESULT:      -3.9      1.647      2.033
REMARK  2 active torsions:
REMARK  status: ('A' for Active; 'I' for Inactive)
REMARK    1  A    between atoms: C4_4  and  C7_7 
REMARK    2  A    between atoms: C7_7  and  C8_8 
ROOT
HETATM    1  C1  UNL     1     -37.141  15.931  -3.726  1.00 20.00     0.034 C 
HETATM    2  C2  UNL     1     -38.266  15.277  -4.498  1.00 20.00     0.168 C 
HETATM    3  C3  UNL     1     -36.521  13.746  -4.310  1.00 20.00     0.173 C 
HETATM    4  C4  UNL     1     -35.941  15.146  -4.207  1.00 20.00     0.026 C 
HETATM    5  O9  UNL     1     -37.898  13.902  -4.684  1.00 20.00    -0.391 OA
ENDROOT
BRANCH   4   6
HETATM    6  C7  UNL     1     -34.729  15.242  -3.300  1.00 20.00     0.067 C 
HETATM    7 BR10 UNL     1     -33.138  14.722  -4.335  1.00 20.00    -0.090 Br
BRANCH   6   8
HETATM    8  C8  UNL     1     -34.496  16.608  -2.624  1.00 20.00    -0.008 C 
HETATM    9  C5  UNL     1     -33.009  16.985  -2.665  1.00 20.00     0.011 C 
HETATM   10  C6  UNL     1     -35.003  16.685  -1.202  1.00 20.00     0.011 C 
ENDBRANCH   6   8
ENDBRANCH   4   6
TORSDOF 2
ENDMDL
MODEL 4
REMARK VINA RESULT:      -3.9      1.601      1.985
REMARK  2 active torsions:
REMARK  status: ('A' for Active; 'I' for Inactive)
REMARK    1  A    between atoms: C4_4  and  C7_7 
REMARK    2  A    between atoms: C7_7  and  C8_8 
ROOT
HETATM    1  C1  UNL     1     -36.439  15.074  -4.258  1.00 20.00     0.034 C 
HETATM    2  C2  UNL     1     -36.412  13.605  -4.624  1.00 20.00     0.168 C 
HETATM    3  C3  UNL     1     -34.285  14.218  -3.895  1.00 20.00     0.173 C 
HETATM    4  C4  UNL     1     -34.985  15.458  -4.422  1.00 20.00     0.026 C 
HETATM    5  O9  UNL     1     -35.125  13.103  -4.229  1.00 20.00    -0.391 OA
ENDROOT
BRANCH   4   6
HETATM    6  C7  UNL     1     -34.594  16.735  -3.703  1.00 20.00     0.067 C 
HETATM    7 BR10 UNL     1     -36.164  17.920  -3.645  1.00 20.00    -0.090 Br
BRANCH   6   8
HETATM    8  C8  UNL     1     -34.009  16.563  -2.288  1.00 20.00    -0.008 C 
HETATM    9  C5  UNL     1     -35.098  16.763  -1.225  1.00 20.00     0.011 C 
HETATM   10  C6  UNL     1     -32.836  17.468  -1.992  1.00 20.00     0.011 C 
ENDBRANCH   6   8
ENDBRANCH   4   6
TORSDOF 2
ENDMDL
MODEL 5
REMARK VINA RESULT:      -3.8      2.490      3.662
REMARK  2 active torsions:
REMARK  status: ('A' for Active; 'I' for Inactive)
REMARK    1  A    between atoms: C4_4  and  C7_7 
REMARK    2  A    between atoms: C7_7  and  C8_8 
ROOT
HETATM    1  C1  UNL     1     -33.211  15.742  -3.670  1.00 20.00     0.034 C 
HETATM    2  C2  UNL     1     -33.746  14.493  -4.338  1.00 20.00     0.168 C 
HETATM    3  C3  UNL     1     -35.483  15.488  -3.146  1.00 20.00     0.173 C 
HETATM    4  C4  UNL     1     -34.168  15.903  -2.510  1.00 20.00     0.026 C 
HETATM    5  O9  UNL     1     -35.165  14.480  -4.118  1.00 20.00    -0.391 OA
ENDROOT
BRANCH   4   6
HETATM    6  C7  UNL     1     -34.191  17.296  -1.911  1.00 20.00     0.067 C 
HETATM    7 BR10 UNL     1     -35.326  17.261  -0.304  1.00 20.00    -0.090 Br
BRANCH   6   8
HETATM    8  C8  UNL     1     -32.819  17.911  -1.575  1.00 20.00    -0.008 C 
HETATM    9  C5  UNL     1     -32.762  18.335  -0.101  1.00 20.00     0.011 C 
HETATM   10  C6  UNL     1     -32.435  19.078  -2.455  1.00 20.00     0.011 C 
ENDBRANCH   6   8
ENDBRANCH   4   6
TORSDOF 2
ENDMDL
MODEL 6
REMARK VINA RESULT:      -3.8      3.071      4.107
REMARK  2 active torsions:
REMARK  status: ('A' for Active; 'I' for Inactive)
REMARK    1  A    between atoms: C4_4  and  C7_7 
REMARK    2  A    between atoms: C7_7  and  C8_8 
ROOT
HETATM    1  C1  UNL     1     -35.242  15.877  -2.548  1.00 20.00     0.034 C 
HETATM    2  C2  UNL     1     -34.530  16.772  -1.556  1.00 20.00     0.168 C 
HETATM    3  C3  UNL     1     -33.141  16.475  -3.403  1.00 20.00     0.173 C 
HETATM    4  C4  UNL     1     -34.080  15.285  -3.315  1.00 20.00     0.026 C 
HETATM    5  O9  UNL     1     -33.332  17.234  -2.199  1.00 20.00    -0.391 OA
ENDROOT
BRANCH   4   6
HETATM    6  C7  UNL     1     -34.458  14.702  -4.663  1.00 20.00     0.067 C 
HETATM    7 BR10 UNL     1     -36.236  13.873  -4.505  1.00 20.00    -0.090 Br
BRANCH   6   8
HETATM    8  C8  UNL     1     -34.435  15.680  -5.854  1.00 20.00    -0.008 C 
HETATM    9  C5  UNL     1     -35.849  16.193  -6.160  1.00 20.00     0.011 C 
HETATM   10  C6  UNL     1     -33.818  15.107  -7.110  1.00 20.00     0.011 C 
ENDBRANCH   6   8
ENDBRANCH   4   6
TORSDOF 2
ENDMDL
MODEL 7
REMARK VINA RESULT:      -3.8      2.832      3.404
REMARK  2 active torsions:
REMARK  status: ('A' for Active; 'I' for Inactive)
REMARK    1  A    between atoms: C4_4  and  C7_7 
REMARK    2  A    between atoms: C7_7  and  C8_8 
ROOT
HETATM    1  C1  UNL     1     -35.213  16.929  -6.426  1.00 20.00     0.034 C 
HETATM    2  C2  UNL     1     -34.429  16.726  -7.704  1.00 20.00     0.168 C 
HETATM    3  C3  UNL     1     -34.032  14.907  -6.304  1.00 20.00     0.173 C 
HETATM    4  C4  UNL     1     -34.420  16.096  -5.443  1.00 20.00     0.026 C 
HETATM    5  O9  UNL     1     -33.863  15.408  -7.639  1.00 20.00    -0.391 OA
ENDROOT
BRANCH   4   6
HETATM    6  C7  UNL     1     -35.183  15.721  -4.188  1.00 20.00     0.067 C 
HETATM    7 BR10 UNL     1     -36.020  13.962  -4.474  1.00 20.00    -0.090 Br
BRANCH   6   8
HETATM    8  C8  UNL     1     -34.370  15.712  -2.879  1.00 20.00    -0.008 C 
HETATM    9  C5  UNL     1     -35.195  16.298  -1.725  1.00 20.00     0.011 C 
HETATM   10  C6  UNL     1     -33.044  16.430  -2.972  1.00 20.00     0.011 C 
ENDBRANCH   6   8
ENDBRANCH   4   6
TORSDOF 2
ENDMDL
MODEL 8
REMARK VINA RESULT:      -3.7      2.151      3.466
REMARK  2 active torsions:
REMARK  status: ('A' for Active; 'I' for Inactive)
REMARK    1  A    between atoms: C4_4  and  C7_7 
REMARK    2  A    between atoms: C7_7  and  C8_8 
ROOT
HETATM    1  C1  UNL     1     -33.221  15.771  -3.660  1.00 20.00     0.034 C 
HETATM    2  C2  UNL     1     -33.161  14.420  -4.341  1.00 20.00     0.168 C 
HETATM    3  C3  UNL     1     -35.363  14.816  -3.690  1.00 20.00     0.173 C 
HETATM    4  C4  UNL     1     -34.446  15.620  -2.785  1.00 20.00     0.026 C 
HETATM    5  O9  UNL     1     -34.516  13.963  -4.474  1.00 20.00    -0.391 OA
ENDROOT
BRANCH   4   6
HETATM    6  C7  UNL     1     -35.043  16.934  -2.319  1.00 20.00     0.067 C 
HETATM    7 BR10 UNL     1     -36.813  17.141  -3.153  1.00 20.00    -0.090 Br
BRANCH   6   8
HETATM    8  C8  UNL     1     -35.152  17.124  -0.793  1.00 20.00    -0.008 C 
HETATM    9  C5  UNL     1     -36.478  17.805  -0.426  1.00 20.00     0.011 C 
HETATM   10  C6  UNL     1     -34.001  17.890  -0.184  1.00 20.00     0.011 C 
ENDBRANCH   6   8
ENDBRANCH   4   6
TORSDOF 2
ENDMDL
MODEL 9
REMARK VINA RESULT:      -3.7      2.945      4.343
REMARK  2 active torsions:
REMARK  status: ('A' for Active; 'I' for Inactive)
REMARK    1  A    between atoms: C4_4  and  C7_7 
REMARK    2  A    between atoms: C7_7  and  C8_8 
ROOT
HETATM    1  C1  UNL     1     -35.369  17.149  -1.073  1.00 20.00     0.034 C 
HETATM    2  C2  UNL     1     -34.367  17.840  -0.173  1.00 20.00     0.168 C 
HETATM    3  C3  UNL     1     -33.285  17.236  -2.146  1.00 20.00     0.173 C 
HETATM    4  C4  UNL     1     -34.467  16.304  -1.944  1.00 20.00     0.026 C 
HETATM    5  O9  UNL     1     -33.166  18.008  -0.941  1.00 20.00    -0.391 OA
ENDROOT
BRANCH   4   6
HETATM    6  C7  UNL     1     -35.108  15.840  -3.238  1.00 20.00     0.067 C 
HETATM    7 BR10 UNL     1     -34.629  17.113  -4.659  1.00 20.00    -0.090 Br
BRANCH   6   8
HETATM    8  C8  UNL     1     -34.773  14.402  -3.682  1.00 20.00    -0.008 C 
HETATM    9  C5  UNL     1     -33.476  14.377  -4.502  1.00 20.00     0.011 C 
HETATM   10  C6  UNL     1     -35.879  13.724  -4.457  1.00 20.00     0.011 C 
ENDBRANCH   6   8
ENDBRANCH   4   6
TORSDOF 2
ENDMDL
