MODEL 1
REMARK VINA RESULT:      -4.0      0.000      0.000
REMARK  3 active torsions:
REMARK  status: ('A' for Active; 'I' for Inactive)
REMARK    1  A    between atoms: C1_1  and  C7_7 
REMARK    2  A    between atoms: C1_1  and  C8_8 
REMARK    3  A    between atoms: C8_8  and  C9_9 
ROOT
HETATM    1  C3  UNL     1     -32.732  14.478  -4.373  1.00 20.00     0.018 C 
HETATM    2  C8  UNL     1     -34.126  14.760  -3.804  1.00 20.00     0.058 C 
ENDROOT
BRANCH   2   3
HETATM    3  C1  UNL     1     -35.154  14.409  -4.887  1.00 20.00     0.131 C 
HETATM    4  O10 UNL     1     -34.935  14.619  -6.079  1.00 20.00    -0.298 OA
BRANCH   3   5
HETATM    5  C7  UNL     1     -36.444  13.761  -4.405  1.00 20.00     0.074 C 
HETATM    6  C2  UNL     1     -37.618  14.723  -4.410  1.00 20.00     0.013 C 
ENDBRANCH   3   5
ENDBRANCH   2   3
BRANCH   2   7
HETATM    7  C9  UNL     1     -34.323  16.194  -3.209  1.00 20.00    -0.041 C 
HETATM    8  C4  UNL     1     -35.182  16.126  -1.929  1.00 20.00     0.015 C 
HETATM    9  C5  UNL     1     -34.995  17.170  -4.194  1.00 20.00     0.015 C 
HETATM   10  C6  UNL     1     -32.953  16.786  -2.815  1.00 20.00     0.015 C 
ENDBRANCH   2   7
TORSDOF 3
ENDMDL
MODEL 2
REMARK VINA RESULT:      -4.0     16.198     17.977
REMARK  3 active torsions:
REMARK  status: ('A' for Active; 'I' for Inactive)
REMARK    1  A    between atoms: C1_1  and  C7_7 
REMARK    2  A    between atoms: C1_1  and  C8_8 
REMARK    3  A    between atoms: C8_8  and  C9_9 
ROOT
HETATM    1  C3  UNL     1     -22.793  16.487   9.327  1.00 20.00     0.018 C 
HETATM    2  C8  UNL     1     -24.012  17.302   9.772  1.00 20.00     0.058 C 
ENDROOT
BRANCH   2   3
HETATM    3  C1  UNL     1     -23.927  18.677   9.098  1.00 20.00     0.131 C 
HETATM    4  O10 UNL     1     -22.854  19.261   8.952  1.00 20.00    -0.298 OA
BRANCH   3   5
HETATM    5  C7  UNL     1     -25.239  19.263   8.596  1.00 20.00     0.074 C 
HETATM    6  C2  UNL     1     -25.342  19.253   7.082  1.00 20.00     0.013 C 
ENDBRANCH   3   5
ENDBRANCH   2   3
BRANCH   2   7
HETATM    7  C9  UNL     1     -24.226  17.386  11.320  1.00 20.00    -0.041 C 
HETATM    8  C4  UNL     1     -24.661  16.012  11.872  1.00 20.00     0.015 C 
HETATM    9  C5  UNL     1     -25.282  18.431  11.728  1.00 20.00     0.015 C 
HETATM   10  C6  UNL     1     -22.896  17.761  12.008  1.00 20.00     0.015 C 
ENDBRANCH   2   7
TORSDOF 3
ENDMDL
MODEL 3
REMARK VINA RESULT:      -3.9      0.060      1.383
REMARK  3 active torsions:
REMARK  status: ('A' for Active; 'I' for Inactive)
REMARK    1  A    between atoms: C1_1  and  C7_7 
REMARK    2  A    between atoms: C1_1  and  C8_8 
REMARK    3  A    between atoms: C8_8  and  C9_9 
ROOT
HETATM    1  C3  UNL     1     -32.740  14.447  -4.373  1.00 20.00     0.018 C 
HETATM    2  C8  UNL     1     -34.121  14.758  -3.787  1.00 20.00     0.058 C 
ENDROOT
BRANCH   2   3
HETATM    3  C1  UNL     1     -35.170  14.422  -4.855  1.00 20.00     0.131 C 
HETATM    4  O10 UNL     1     -34.961  14.617  -6.051  1.00 20.00    -0.298 OA
BRANCH   3   5
HETATM    5  C7  UNL     1     -36.468  13.808  -4.353  1.00 20.00     0.074 C 
HETATM    6  C2  UNL     1     -37.648  14.755  -4.474  1.00 20.00     0.013 C 
ENDBRANCH   3   5
ENDBRANCH   2   3
BRANCH   2   7
HETATM    7  C9  UNL     1     -34.282  16.199  -3.197  1.00 20.00    -0.041 C 
HETATM    8  C4  UNL     1     -34.927  17.132  -4.244  1.00 20.00     0.015 C 
HETATM    9  C5  UNL     1     -32.947  16.821  -2.748  1.00 20.00     0.015 C 
HETATM   10  C6  UNL     1     -35.222  16.157  -1.973  1.00 20.00     0.015 C 
ENDBRANCH   2   7
TORSDOF 3
ENDMDL
MODEL 4
REMARK VINA RESULT:      -3.8      1.581      1.812
REMARK  3 active torsions:
REMARK  status: ('A' for Active; 'I' for Inactive)
REMARK    1  A    between atoms: C1_1  and  C7_7 
REMARK    2  A    between atoms: C1_1  and  C8_8 
REMARK    3  A    between atoms: C8_8  and  C9_9 
ROOT
HETATM    1  C3  UNL     1     -33.687  14.352  -4.195  1.00 20.00     0.018 C 
HETATM    2  C8  UNL     1     -35.108  14.649  -3.708  1.00 20.00     0.058 C 
ENDROOT
BRANCH   2   3
HETATM    3  C1  UNL     1     -36.082  14.204  -4.806  1.00 20.00     0.131 C 
HETATM    4  O10 UNL     1     -37.152  13.658  -4.540  1.00 20.00    -0.298 OA
BRANCH   3   5
HETATM    5  C7  UNL     1     -35.663  14.501  -6.238  1.00 20.00     0.074 C 
HETATM    6  C2  UNL     1     -36.420  15.672  -6.838  1.00 20.00     0.013 C 
ENDBRANCH   3   5
ENDBRANCH   2   3
BRANCH   2   7
HETATM    7  C9  UNL     1     -35.352  16.119  -3.228  1.00 20.00    -0.041 C 
HETATM    8  C4  UNL     1     -35.003  16.254  -1.730  1.00 20.00     0.015 C 
HETATM    9  C5  UNL     1     -36.804  16.589  -3.434  1.00 20.00     0.015 C 
HETATM   10  C6  UNL     1     -34.427  17.079  -4.006  1.00 20.00     0.015 C 
ENDBRANCH   2   7
TORSDOF 3
ENDMDL
MODEL 5
REMARK VINA RESULT:      -3.8      1.780      3.703
REMARK  3 active torsions:
REMARK  status: ('A' for Active; 'I' for Inactive)
REMARK    1  A    between atoms: C1_1  and  C7_7 
REMARK    2  A    between atoms: C1_1  and  C8_8 
REMARK    3  A    between atoms: C8_8  and  C9_9 
ROOT
HETATM    1  C3  UNL     1     -37.208  14.974  -4.596  1.00 20.00     0.018 C 
HETATM    2  C8  UNL     1     -35.923  14.409  -5.212  1.00 20.00     0.058 C 
ENDROOT
BRANCH   2   3
HETATM    3  C1  UNL     1     -34.932  14.149  -4.070  1.00 20.00     0.131 C 
HETATM    4  O10 UNL     1     -34.272  13.113  -4.010  1.00 20.00    -0.298 OA
BRANCH   3   5
HETATM    5  C7  UNL     1     -34.792  15.256  -3.036  1.00 20.00     0.074 C 
HETATM    6  C2  UNL     1     -33.440  15.943  -3.094  1.00 20.00     0.013 C 
ENDBRANCH   3   5
ENDBRANCH   2   3
BRANCH   2   7
HETATM    7  C9  UNL     1     -35.313  15.262  -6.374  1.00 20.00    -0.041 C 
HETATM    8  C4  UNL     1     -36.051  14.962  -7.696  1.00 20.00     0.015 C 
HETATM    9  C5  UNL     1     -33.810  15.005  -6.587  1.00 20.00     0.015 C 
HETATM   10  C6  UNL     1     -35.500  16.764  -6.070  1.00 20.00     0.015 C 
ENDBRANCH   2   7
TORSDOF 3
ENDMDL
MODEL 6
REMARK VINA RESULT:      -3.7      1.857      3.111
REMARK  3 active torsions:
REMARK  status: ('A' for Active; 'I' for Inactive)
REMARK    1  A    between atoms: C1_1  and  C7_7 
REMARK    2  A    between atoms: C1_1  and  C8_8 
REMARK    3  A    between atoms: C8_8  and  C9_9 
ROOT
HETATM    1  C3  UNL     1     -36.245  16.600  -4.909  1.00 20.00     0.018 C 
HETATM    2  C8  UNL     1     -34.813  16.155  -5.224  1.00 20.00     0.058 C 
ENDROOT
BRANCH   2   3
HETATM    3  C1  UNL     1     -34.889  15.043  -6.278  1.00 20.00     0.131 C 
HETATM    4  O10 UNL     1     -35.580  14.039  -6.111  1.00 20.00    -0.298 OA
BRANCH   3   5
HETATM    5  C7  UNL     1     -34.085  15.267  -7.550  1.00 20.00     0.074 C 
HETATM    6  C2  UNL     1     -33.970  16.735  -7.918  1.00 20.00     0.013 C 
ENDBRANCH   3   5
ENDBRANCH   2   3
BRANCH   2   7
HETATM    7  C9  UNL     1     -33.950  15.765  -3.978  1.00 20.00    -0.041 C 
HETATM    8  C4  UNL     1     -33.152  16.988  -3.480  1.00 20.00     0.015 C 
HETATM    9  C5  UNL     1     -32.959  14.621  -4.263  1.00 20.00     0.015 C 
HETATM   10  C6  UNL     1     -34.874  15.316  -2.826  1.00 20.00     0.015 C 
ENDBRANCH   2   7
TORSDOF 3
ENDMDL
MODEL 7
REMARK VINA RESULT:      -3.6      1.831      3.484
REMARK  3 active torsions:
REMARK  status: ('A' for Active; 'I' for Inactive)
REMARK    1  A    between atoms: C1_1  and  C7_7 
REMARK    2  A    between atoms: C1_1  and  C8_8 
REMARK    3  A    between atoms: C8_8  and  C9_9 
ROOT
HETATM    1  C3  UNL     1     -35.047  13.653  -3.954  1.00 20.00     0.018 C 
HETATM    2  C8  UNL     1     -34.167  14.820  -4.413  1.00 20.00     0.058 C 
ENDROOT
BRANCH   2   3
HETATM    3  C1  UNL     1     -33.911  15.720  -3.198  1.00 20.00     0.131 C 
HETATM    4  O10 UNL     1     -32.830  16.282  -3.025  1.00 20.00    -0.298 OA
BRANCH   3   5
HETATM    5  C7  UNL     1     -35.076  15.900  -2.236  1.00 20.00     0.074 C 
HETATM    6  C2  UNL     1     -34.839  17.013  -1.232  1.00 20.00     0.013 C 
ENDBRANCH   3   5
ENDBRANCH   2   3
BRANCH   2   7
HETATM    7  C9  UNL     1     -34.700  15.604  -5.658  1.00 20.00    -0.041 C 
HETATM    8  C4  UNL     1     -33.987  15.118  -6.938  1.00 20.00     0.015 C 
HETATM    9  C5  UNL     1     -34.505  17.127  -5.542  1.00 20.00     0.015 C 
HETATM   10  C6  UNL     1     -36.209  15.330  -5.838  1.00 20.00     0.015 C 
ENDBRANCH   2   7
TORSDOF 3
ENDMDL
MODEL 8
REMARK VINA RESULT:      -3.5      1.643      2.830
REMARK  3 active torsions:
REMARK  status: ('A' for Active; 'I' for Inactive)
REMARK    1  A    between atoms: C1_1  and  C7_7 
REMARK    2  A    between atoms: C1_1  and  C8_8 
REMARK    3  A    between atoms: C8_8  and  C9_9 
ROOT
HETATM    1  C3  UNL     1     -34.493  15.005  -3.443  1.00 20.00     0.018 C 
HETATM    2  C8  UNL     1     -35.546  15.274  -4.523  1.00 20.00     0.058 C 
ENDROOT
BRANCH   2   3
HETATM    3  C1  UNL     1     -36.515  14.085  -4.538  1.00 20.00     0.131 C 
HETATM    4  O10 UNL     1     -36.121  12.932  -4.706  1.00 20.00    -0.298 OA
BRANCH   3   5
HETATM    5  C7  UNL     1     -37.983  14.410  -4.305  1.00 20.00     0.074 C 
HETATM    6  C2  UNL     1     -38.228  15.896  -4.110  1.00 20.00     0.013 C 
ENDBRANCH   3   5
ENDBRANCH   2   3
BRANCH   2   7
HETATM    7  C9  UNL     1     -34.973  15.620  -5.938  1.00 20.00    -0.041 C 
HETATM    8  C4  UNL     1     -36.026  15.319  -7.025  1.00 20.00     0.015 C 
HETATM    9  C5  UNL     1     -33.688  14.842  -6.277  1.00 20.00     0.015 C 
HETATM   10  C6  UNL     1     -34.649  17.128  -6.013  1.00 20.00     0.015 C 
ENDBRANCH   2   7
TORSDOF 3
ENDMDL
MODEL 9
REMARK VINA RESULT:      -3.5      1.173      2.468
REMARK  3 active torsions:
REMARK  status: ('A' for Active; 'I' for Inactive)
REMARK    1  A    between atoms: C1_1  and  C7_7 
REMARK    2  A    between atoms: C1_1  and  C8_8 
REMARK    3  A    between atoms: C8_8  and  C9_9 
ROOT
HETATM    1  C3  UNL     1     -35.575  17.586  -4.610  1.00 20.00     0.018 C 
HETATM    2  C8  UNL     1     -35.181  16.146  -4.953  1.00 20.00     0.058 C 
ENDROOT
BRANCH   2   3
HETATM    3  C1  UNL     1     -36.405  15.462  -5.576  1.00 20.00     0.131 C 
HETATM    4  O10 UNL     1     -36.294  14.640  -6.484  1.00 20.00    -0.298 OA
BRANCH   3   5
HETATM    5  C7  UNL     1     -37.757  15.838  -4.988  1.00 20.00     0.074 C 
HETATM    6  C2  UNL     1     -38.415  14.684  -4.252  1.00 20.00     0.013 C 
ENDBRANCH   3   5
ENDBRANCH   2   3
BRANCH   2   7
HETATM    7  C9  UNL     1     -34.555  15.330  -3.773  1.00 20.00    -0.041 C 
HETATM    8  C4  UNL     1     -33.030  15.562  -3.717  1.00 20.00     0.015 C 
HETATM    9  C5  UNL     1     -34.812  13.815  -3.883  1.00 20.00     0.015 C 
HETATM   10  C6  UNL     1     -35.146  15.816  -2.433  1.00 20.00     0.015 C 
ENDBRANCH   2   7
TORSDOF 3
ENDMDL
