MODEL 1
REMARK VINA RESULT:      -5.2      0.000      0.000
REMARK  2 active torsions:
REMARK  status: ('A' for Active; 'I' for Inactive)
REMARK    1  A    between atoms: C3_3  and  C6_6 
REMARK    2  A    between atoms: C6_6  and  O9_9 
ROOT
HETATM    1  C2  UNL     1     -35.486   5.470   4.043  1.00 20.00     0.045 A 
HETATM    2  C5  UNL     1     -34.430   5.298   5.104  1.00 20.00     0.019 A 
HETATM    3  C6  UNL     1     -34.031   5.626   3.681  1.00 20.00     0.066 A 
HETATM    4  C8  UNL     1     -34.306   6.294   6.205  1.00 20.00     0.013 C 
ENDROOT
BRANCH   3   5
HETATM    5  C3  UNL     1     -33.440   6.964   3.245  1.00 20.00     0.024 A 
HETATM    6  C1  UNL     1     -31.978   7.293   3.396  1.00 20.00     0.012 A 
HETATM    7  C4  UNL     1     -32.567   7.101   2.024  1.00 20.00    -0.011 A 
HETATM    8  C7  UNL     1     -32.732   8.265   1.109  1.00 20.00     0.010 C 
ENDBRANCH   3   5
BRANCH   3   9
HETATM    9  O9  UNL     1     -33.476   4.506   2.954  1.00 20.00    -0.389 OA
HETATM   10  H23 UNL     1     -34.040   3.755   3.174  1.00 20.00     0.210 HD
ENDBRANCH   3   9
TORSDOF 2
ENDMDL
MODEL 2
REMARK VINA RESULT:      -4.5     11.557     12.261
REMARK  2 active torsions:
REMARK  status: ('A' for Active; 'I' for Inactive)
REMARK    1  A    between atoms: C3_3  and  C6_6 
REMARK    2  A    between atoms: C6_6  and  O9_9 
ROOT
HETATM    1  C2  UNL     1     -35.241  15.757  -5.825  1.00 20.00     0.045 A 
HETATM    2  C5  UNL     1     -35.576  14.326  -5.492  1.00 20.00     0.019 A 
HETATM    3  C6  UNL     1     -34.288  14.941  -4.990  1.00 20.00     0.066 A 
HETATM    4  C8  UNL     1     -36.709  14.018  -4.576  1.00 20.00     0.013 C 
ENDROOT
BRANCH   3   5
HETATM    5  C3  UNL     1     -34.007  15.265  -3.525  1.00 20.00     0.024 A 
HETATM    6  C1  UNL     1     -33.044  16.343  -3.102  1.00 20.00     0.012 A 
HETATM    7  C4  UNL     1     -34.520  16.517  -2.862  1.00 20.00    -0.011 A 
HETATM    8  C7  UNL     1     -35.065  16.464  -1.476  1.00 20.00     0.010 C 
ENDBRANCH   3   5
BRANCH   3   9
HETATM    9  O9  UNL     1     -33.109  14.495  -5.700  1.00 20.00    -0.389 OA
HETATM   10  H23 UNL     1     -33.437  13.938  -6.415  1.00 20.00     0.210 HD
ENDBRANCH   3   9
TORSDOF 2
ENDMDL
MODEL 3
REMARK VINA RESULT:      -4.4     11.072     12.045
REMARK  2 active torsions:
REMARK  status: ('A' for Active; 'I' for Inactive)
REMARK    1  A    between atoms: C3_3  and  C6_6 
REMARK    2  A    between atoms: C6_6  and  O9_9 
ROOT
HETATM    1  C2  UNL     1     -35.506  13.456  -4.276  1.00 20.00     0.045 A 
HETATM    2  C5  UNL     1     -36.023  14.299  -5.413  1.00 20.00     0.019 A 
HETATM    3  C6  UNL     1     -36.173  14.776  -3.985  1.00 20.00     0.066 A 
HETATM    4  C8  UNL     1     -35.070  14.942  -6.361  1.00 20.00     0.013 C 
ENDROOT
BRANCH   3   5
HETATM    5  C3  UNL     1     -35.411  15.959  -3.392  1.00 20.00     0.024 A 
HETATM    6  C1  UNL     1     -35.238  16.151  -1.909  1.00 20.00     0.012 A 
HETATM    7  C4  UNL     1     -34.049  15.811  -2.767  1.00 20.00    -0.011 A 
HETATM    8  C7  UNL     1     -32.990  16.828  -3.020  1.00 20.00     0.010 C 
ENDBRANCH   3   5
BRANCH   3   9
HETATM    9  O9  UNL     1     -37.518  14.660  -3.465  1.00 20.00    -0.389 OA
HETATM   10  H23 UNL     1     -37.885  15.550  -3.507  1.00 20.00     0.210 HD
ENDBRANCH   3   9
TORSDOF 2
ENDMDL
MODEL 4
REMARK VINA RESULT:      -4.4     11.059     11.834
REMARK  2 active torsions:
REMARK  status: ('A' for Active; 'I' for Inactive)
REMARK    1  A    between atoms: C3_3  and  C6_6 
REMARK    2  A    between atoms: C6_6  and  O9_9 
ROOT
HETATM    1  C2  UNL     1     -36.125  14.762  -5.745  1.00 20.00     0.045 A 
HETATM    2  C5  UNL     1     -36.973  14.832  -4.501  1.00 20.00     0.019 A 
HETATM    3  C6  UNL     1     -35.675  14.053  -4.493  1.00 20.00     0.066 A 
HETATM    4  C8  UNL     1     -37.121  16.120  -3.768  1.00 20.00     0.013 C 
ENDROOT
BRANCH   3   5
HETATM    5  C3  UNL     1     -34.427  14.477  -3.722  1.00 20.00     0.024 A 
HETATM    6  C1  UNL     1     -33.049  14.449  -4.330  1.00 20.00     0.012 A 
HETATM    7  C4  UNL     1     -33.702  15.766  -4.005  1.00 20.00    -0.011 A 
HETATM    8  C7  UNL     1     -33.188  16.602  -2.883  1.00 20.00     0.010 C 
ENDBRANCH   3   5
BRANCH   3   9
HETATM    9  O9  UNL     1     -35.851  12.618  -4.527  1.00 20.00    -0.389 OA
HETATM   10  H23 UNL     1     -36.390  12.445  -5.307  1.00 20.00     0.210 HD
ENDBRANCH   3   9
TORSDOF 2
ENDMDL
MODEL 5
REMARK VINA RESULT:      -4.2     11.273     12.771
REMARK  2 active torsions:
REMARK  status: ('A' for Active; 'I' for Inactive)
REMARK    1  A    between atoms: C3_3  and  C6_6 
REMARK    2  A    between atoms: C6_6  and  O9_9 
ROOT
HETATM    1  C2  UNL     1     -34.552  15.013  -3.296  1.00 20.00     0.045 A 
HETATM    2  C5  UNL     1     -33.282  15.823  -3.351  1.00 20.00     0.019 A 
HETATM    3  C6  UNL     1     -33.725  15.021  -4.556  1.00 20.00     0.066 A 
HETATM    4  C8  UNL     1     -33.343  17.311  -3.331  1.00 20.00     0.013 C 
ENDROOT
BRANCH   3   5
HETATM    5  C3  UNL     1     -34.230  15.640  -5.857  1.00 20.00     0.024 A 
HETATM    6  C1  UNL     1     -33.871  15.086  -7.211  1.00 20.00     0.012 A 
HETATM    7  C4  UNL     1     -35.286  14.983  -6.707  1.00 20.00    -0.011 A 
HETATM    8  C7  UNL     1     -36.366  15.799  -7.329  1.00 20.00     0.010 C 
ENDBRANCH   3   5
BRANCH   3   9
HETATM    9  O9  UNL     1     -32.959  13.814  -4.772  1.00 20.00    -0.389 OA
HETATM   10  H23 UNL     1     -33.568  13.089  -4.591  1.00 20.00     0.210 HD
ENDBRANCH   3   9
TORSDOF 2
ENDMDL
MODEL 6
REMARK VINA RESULT:      -4.2      0.723      3.806
REMARK  2 active torsions:
REMARK  status: ('A' for Active; 'I' for Inactive)
REMARK    1  A    between atoms: C3_3  and  C6_6 
REMARK    2  A    between atoms: C6_6  and  O9_9 
ROOT
HETATM    1  C2  UNL     1     -31.627   7.045   2.848  1.00 20.00     0.045 A 
HETATM    2  C5  UNL     1     -32.572   7.306   1.704  1.00 20.00     0.019 A 
HETATM    3  C6  UNL     1     -32.940   6.307   2.780  1.00 20.00     0.066 A 
HETATM    4  C8  UNL     1     -33.259   8.623   1.585  1.00 20.00     0.013 C 
ENDROOT
BRANCH   3   5
HETATM    5  C3  UNL     1     -34.049   6.524   3.806  1.00 20.00     0.024 A 
HETATM    6  C1  UNL     1     -35.075   5.468   4.127  1.00 20.00     0.012 A 
HETATM    7  C4  UNL     1     -34.044   5.852   5.155  1.00 20.00    -0.011 A 
HETATM    8  C7  UNL     1     -34.446   6.609   6.373  1.00 20.00     0.010 C 
ENDBRANCH   3   5
BRANCH   3   9
HETATM    9  O9  UNL     1     -32.824   4.927   2.365  1.00 20.00    -0.389 OA
HETATM   10  H23 UNL     1     -33.635   4.501   2.665  1.00 20.00     0.210 HD
ENDBRANCH   3   9
TORSDOF 2
ENDMDL
MODEL 7
REMARK VINA RESULT:      -4.2     11.285     13.358
REMARK  2 active torsions:
REMARK  status: ('A' for Active; 'I' for Inactive)
REMARK    1  A    between atoms: C3_3  and  C6_6 
REMARK    2  A    between atoms: C6_6  and  O9_9 
ROOT
HETATM    1  C2  UNL     1     -33.767  15.083  -7.275  1.00 20.00     0.045 A 
HETATM    2  C5  UNL     1     -34.919  16.036  -7.459  1.00 20.00     0.019 A 
HETATM    3  C6  UNL     1     -34.965  14.992  -6.364  1.00 20.00     0.066 A 
HETATM    4  C8  UNL     1     -34.747  17.484  -7.156  1.00 20.00     0.013 C 
ENDROOT
BRANCH   3   5
HETATM    5  C3  UNL     1     -34.881  15.309  -4.874  1.00 20.00     0.024 A 
HETATM    6  C1  UNL     1     -34.751  14.238  -3.822  1.00 20.00     0.012 A 
HETATM    7  C4  UNL     1     -33.601  15.172  -4.090  1.00 20.00    -0.011 A 
HETATM    8  C7  UNL     1     -33.222  16.203  -3.083  1.00 20.00     0.010 C 
ENDBRANCH   3   5
BRANCH   3   9
HETATM    9  O9  UNL     1     -35.845  13.880  -6.650  1.00 20.00    -0.389 OA
HETATM   10  H23 UNL     1     -36.510  13.894  -5.952  1.00 20.00     0.210 HD
ENDBRANCH   3   9
TORSDOF 2
ENDMDL
MODEL 8
REMARK VINA RESULT:      -4.1     11.161     13.272
REMARK  2 active torsions:
REMARK  status: ('A' for Active; 'I' for Inactive)
REMARK    1  A    between atoms: C3_3  and  C6_6 
REMARK    2  A    between atoms: C6_6  and  O9_9 
ROOT
HETATM    1  C2  UNL     1     -34.292  16.862  -6.622  1.00 20.00     0.045 A 
HETATM    2  C5  UNL     1     -35.185  15.849  -7.290  1.00 20.00     0.019 A 
HETATM    3  C6  UNL     1     -34.383  15.464  -6.065  1.00 20.00     0.066 A 
HETATM    4  C8  UNL     1     -36.665  16.010  -7.241  1.00 20.00     0.013 C 
ENDROOT
BRANCH   3   5
HETATM    5  C3  UNL     1     -34.996  15.171  -4.698  1.00 20.00     0.024 A 
HETATM    6  C1  UNL     1     -34.596  13.978  -3.870  1.00 20.00     0.012 A 
HETATM    7  C4  UNL     1     -34.233  15.366  -3.413  1.00 20.00    -0.011 A 
HETATM    8  C7  UNL     1     -34.903  15.964  -2.225  1.00 20.00     0.010 C 
ENDBRANCH   3   5
BRANCH   3   9
HETATM    9  O9  UNL     1     -33.234  14.634  -6.353  1.00 20.00    -0.389 OA
HETATM   10  H23 UNL     1     -32.484  15.090  -5.954  1.00 20.00     0.210 HD
ENDBRANCH   3   9
TORSDOF 2
ENDMDL
MODEL 9
REMARK VINA RESULT:      -4.0      8.932      9.806
REMARK  2 active torsions:
REMARK  status: ('A' for Active; 'I' for Inactive)
REMARK    1  A    between atoms: C3_3  and  C6_6 
REMARK    2  A    between atoms: C6_6  and  O9_9 
ROOT
HETATM    1  C2  UNL     1     -41.081   5.016  -1.185  1.00 20.00     0.045 A 
HETATM    2  C5  UNL     1     -42.539   4.635  -1.178  1.00 20.00     0.019 A 
HETATM    3  C6  UNL     1     -42.017   5.659  -0.194  1.00 20.00     0.066 A 
HETATM    4  C8  UNL     1     -43.417   5.018  -2.319  1.00 20.00     0.013 C 
ENDROOT
BRANCH   3   5
HETATM    5  C3  UNL     1     -42.358   7.146  -0.242  1.00 20.00     0.024 A 
HETATM    6  C1  UNL     1     -43.267   7.803   0.763  1.00 20.00     0.012 A 
HETATM    7  C4  UNL     1     -41.799   8.136   0.746  1.00 20.00    -0.011 A 
HETATM    8  C7  UNL     1     -41.339   9.477   0.289  1.00 20.00     0.010 C 
ENDBRANCH   3   5
BRANCH   3   9
HETATM    9  O9  UNL     1     -41.885   5.160   1.158  1.00 20.00    -0.389 OA
HETATM   10  H23 UNL     1     -42.761   5.250   1.550  1.00 20.00     0.210 HD
ENDBRANCH   3   9
TORSDOF 2
ENDMDL
