MODEL 1
REMARK VINA RESULT:      -3.9      0.000      0.000
REMARK  2 active torsions:
REMARK  status: ('A' for Active; 'I' for Inactive)
REMARK    1  A    between atoms: C5_5  and  C7_7 
REMARK    2  A    between atoms: C7_7  and  O9_9 
ROOT
HETATM    1  C2  UNL     1     -34.517  14.823  -3.699  1.00 20.00     0.045 A 
HETATM    2  C6  UNL     1     -33.207  15.552  -3.547  1.00 20.00     0.019 A 
HETATM    3  C7  UNL     1     -33.854  15.429  -4.901  1.00 20.00     0.066 A 
HETATM    4  C8  UNL     1     -33.143  16.836  -2.794  1.00 20.00     0.013 C 
ENDROOT
BRANCH   3   5
HETATM    5  C5  UNL     1     -34.495  16.612  -5.584  1.00 20.00     0.030 C 
HETATM    6  C1  UNL     1     -35.975  16.769  -5.229  1.00 20.00     0.018 C 
HETATM    7  C3  UNL     1     -36.759  15.731  -6.017  1.00 20.00     0.074 C 
HETATM    8  S10 UNL     1     -35.931  15.629  -7.625  1.00 20.00    -0.169 SA
HETATM    9  C4  UNL     1     -34.431  16.516  -7.107  1.00 20.00     0.081 C 
ENDBRANCH   3   5
BRANCH   3  10
HETATM   10  O9  UNL     1     -33.236  14.522  -5.821  1.00 20.00    -0.389 OA
HETATM   11  H24 UNL     1     -32.298  14.760  -5.843  1.00 20.00     0.210 HD
ENDBRANCH   3  10
TORSDOF 2
ENDMDL
MODEL 2
REMARK VINA RESULT:      -3.7      1.748      2.088
REMARK  2 active torsions:
REMARK  status: ('A' for Active; 'I' for Inactive)
REMARK    1  A    between atoms: C5_5  and  C7_7 
REMARK    2  A    between atoms: C7_7  and  O9_9 
ROOT
HETATM    1  C2  UNL     1     -33.097  15.632  -3.593  1.00 20.00     0.045 A 
HETATM    2  C6  UNL     1     -33.879  16.569  -2.709  1.00 20.00     0.019 A 
HETATM    3  C7  UNL     1     -33.884  16.753  -4.204  1.00 20.00     0.066 A 
HETATM    4  C8  UNL     1     -35.063  16.077  -1.951  1.00 20.00     0.013 C 
ENDROOT
BRANCH   3   5
HETATM    5  C5  UNL     1     -35.101  16.438  -5.038  1.00 20.00     0.030 C 
HETATM    6  C1  UNL     1     -35.034  15.049  -5.677  1.00 20.00     0.018 C 
HETATM    7  C3  UNL     1     -34.087  15.124  -6.864  1.00 20.00     0.074 C 
HETATM    8  S10 UNL     1     -34.374  16.755  -7.600  1.00 20.00    -0.169 SA
HETATM    9  C4  UNL     1     -35.299  17.426  -6.186  1.00 20.00     0.081 C 
ENDBRANCH   3   5
BRANCH   3  10
HETATM   10  O9  UNL     1     -33.135  17.865  -4.710  1.00 20.00    -0.389 OA
HETATM   11  H24 UNL     1     -33.571  18.130  -5.532  1.00 20.00     0.210 HD
ENDBRANCH   3  10
TORSDOF 2
ENDMDL
MODEL 3
REMARK VINA RESULT:      -3.6      2.533      3.806
REMARK  2 active torsions:
REMARK  status: ('A' for Active; 'I' for Inactive)
REMARK    1  A    between atoms: C5_5  and  C7_7 
REMARK    2  A    between atoms: C7_7  and  O9_9 
ROOT
HETATM    1  C2  UNL     1     -36.366  16.214  -4.658  1.00 20.00     0.045 A 
HETATM    2  C6  UNL     1     -35.876  14.920  -5.254  1.00 20.00     0.019 A 
HETATM    3  C7  UNL     1     -34.904  15.877  -4.617  1.00 20.00     0.066 A 
HETATM    4  C8  UNL     1     -36.252  13.617  -4.636  1.00 20.00     0.013 C 
ENDROOT
BRANCH   3   5
HETATM    5  C5  UNL     1     -34.248  15.577  -3.292  1.00 20.00     0.030 C 
HETATM    6  C1  UNL     1     -35.062  16.090  -2.102  1.00 20.00     0.018 C 
HETATM    7  C3  UNL     1     -34.856  17.593  -2.004  1.00 20.00     0.074 C 
HETATM    8  S10 UNL     1     -33.123  17.866  -2.462  1.00 20.00    -0.169 SA
HETATM    9  C4  UNL     1     -32.864  16.209  -3.165  1.00 20.00     0.081 C 
ENDBRANCH   3   5
BRANCH   3  10
HETATM   10  O9  UNL     1     -34.050  16.604  -5.509  1.00 20.00    -0.389 OA
HETATM   11  H24 UNL     1     -33.495  15.943  -5.946  1.00 20.00     0.210 HD
ENDBRANCH   3  10
TORSDOF 2
ENDMDL
MODEL 4
REMARK VINA RESULT:      -3.5      2.834      4.022
REMARK  2 active torsions:
REMARK  status: ('A' for Active; 'I' for Inactive)
REMARK    1  A    between atoms: C5_5  and  C7_7 
REMARK    2  A    between atoms: C7_7  and  O9_9 
ROOT
HETATM    1  C2  UNL     1     -35.851  16.130  -4.264  1.00 20.00     0.045 A 
HETATM    2  C6  UNL     1     -34.869  15.052  -4.642  1.00 20.00     0.019 A 
HETATM    3  C7  UNL     1     -34.396  16.297  -3.940  1.00 20.00     0.066 A 
HETATM    4  C8  UNL     1     -34.922  13.719  -3.979  1.00 20.00     0.013 C 
ENDROOT
BRANCH   3   5
HETATM    5  C5  UNL     1     -33.949  16.274  -2.499  1.00 20.00     0.030 C 
HETATM    6  C1  UNL     1     -35.097  16.537  -1.521  1.00 20.00     0.018 C 
HETATM    7  C3  UNL     1     -35.392  18.028  -1.535  1.00 20.00     0.074 C 
HETATM    8  S10 UNL     1     -33.778  18.832  -1.712  1.00 20.00    -0.169 SA
HETATM    9  C4  UNL     1     -32.883  17.325  -2.197  1.00 20.00     0.081 C 
ENDBRANCH   3   5
BRANCH   3  10
HETATM   10  O9  UNL     1     -33.662  17.236  -4.735  1.00 20.00    -0.389 OA
HETATM   11  H24 UNL     1     -33.328  17.904  -4.120  1.00 20.00     0.210 HD
ENDBRANCH   3  10
TORSDOF 2
ENDMDL
MODEL 5
REMARK VINA RESULT:      -3.4      1.652      2.016
REMARK  2 active torsions:
REMARK  status: ('A' for Active; 'I' for Inactive)
REMARK    1  A    between atoms: C5_5  and  C7_7 
REMARK    2  A    between atoms: C7_7  and  O9_9 
ROOT
HETATM    1  C2  UNL     1     -36.751  14.311  -4.297  1.00 20.00     0.045 A 
HETATM    2  C6  UNL     1     -35.251  14.230  -4.171  1.00 20.00     0.019 A 
HETATM    3  C7  UNL     1     -35.879  14.756  -5.434  1.00 20.00     0.066 A 
HETATM    4  C8  UNL     1     -34.530  15.101  -3.202  1.00 20.00     0.013 C 
ENDROOT
BRANCH   3   5
HETATM    5  C5  UNL     1     -35.824  16.219  -5.798  1.00 20.00     0.030 C 
HETATM    6  C1  UNL     1     -37.059  16.991  -5.329  1.00 20.00     0.018 C 
HETATM    7  C3  UNL     1     -38.201  16.670  -6.279  1.00 20.00     0.074 C 
HETATM    8  S10 UNL     1     -37.436  16.540  -7.917  1.00 20.00    -0.169 SA
HETATM    9  C4  UNL     1     -35.726  16.446  -7.305  1.00 20.00     0.081 C 
ENDBRANCH   3   5
BRANCH   3  10
HETATM   10  O9  UNL     1     -35.824  13.895  -6.578  1.00 20.00    -0.389 OA
HETATM   11  H24 UNL     1     -36.501  14.218  -7.190  1.00 20.00     0.210 HD
ENDBRANCH   3  10
TORSDOF 2
ENDMDL
MODEL 6
REMARK VINA RESULT:      -3.4      3.115      4.246
REMARK  2 active torsions:
REMARK  status: ('A' for Active; 'I' for Inactive)
REMARK    1  A    between atoms: C5_5  and  C7_7 
REMARK    2  A    between atoms: C7_7  and  O9_9 
ROOT
HETATM    1  C2  UNL     1     -35.545  18.549  -1.481  1.00 20.00     0.045 A 
HETATM    2  C6  UNL     1     -36.121  17.636  -0.430  1.00 20.00     0.019 A 
HETATM    3  C7  UNL     1     -35.795  17.104  -1.800  1.00 20.00     0.066 A 
HETATM    4  C8  UNL     1     -35.327  17.290   0.783  1.00 20.00     0.013 C 
ENDROOT
BRANCH   3   5
HETATM    5  C5  UNL     1     -34.623  16.184  -2.036  1.00 20.00     0.030 C 
HETATM    6  C1  UNL     1     -33.340  16.939  -2.388  1.00 20.00     0.018 C 
HETATM    7  C3  UNL     1     -33.441  17.384  -3.839  1.00 20.00     0.074 C 
HETATM    8  S10 UNL     1     -34.293  16.032  -4.693  1.00 20.00    -0.169 SA
HETATM    9  C4  UNL     1     -34.867  15.203  -3.180  1.00 20.00     0.081 C 
ENDBRANCH   3   5
BRANCH   3  10
HETATM   10  O9  UNL     1     -36.909  16.816  -2.653  1.00 20.00    -0.389 OA
HETATM   11  H24 UNL     1     -37.452  16.172  -2.176  1.00 20.00     0.210 HD
ENDBRANCH   3  10
TORSDOF 2
ENDMDL
MODEL 7
REMARK VINA RESULT:      -3.4      2.897      4.004
REMARK  2 active torsions:
REMARK  status: ('A' for Active; 'I' for Inactive)
REMARK    1  A    between atoms: C5_5  and  C7_7 
REMARK    2  A    between atoms: C7_7  and  O9_9 
ROOT
HETATM    1  C2  UNL     1     -35.160  13.926  -4.235  1.00 20.00     0.045 A 
HETATM    2  C6  UNL     1     -36.032  14.216  -5.429  1.00 20.00     0.019 A 
HETATM    3  C7  UNL     1     -36.175  15.028  -4.169  1.00 20.00     0.066 A 
HETATM    4  C8  UNL     1     -35.437  14.762  -6.681  1.00 20.00     0.013 C 
ENDROOT
BRANCH   3   5
HETATM    5  C5  UNL     1     -35.710  16.462  -4.092  1.00 20.00     0.030 C 
HETATM    6  C1  UNL     1     -34.218  16.582  -3.778  1.00 20.00     0.018 C 
HETATM    7  C3  UNL     1     -34.027  16.310  -2.294  1.00 20.00     0.074 C 
HETATM    8  S10 UNL     1     -35.472  17.048  -1.486  1.00 20.00    -0.169 SA
HETATM    9  C4  UNL     1     -36.438  17.258  -3.012  1.00 20.00     0.081 C 
ENDBRANCH   3   5
BRANCH   3  10
HETATM   10  O9  UNL     1     -37.346  14.780  -3.381  1.00 20.00    -0.389 OA
HETATM   11  H24 UNL     1     -37.031  14.580  -2.488  1.00 20.00     0.210 HD
ENDBRANCH   3  10
TORSDOF 2
ENDMDL
MODEL 8
REMARK VINA RESULT:      -3.4      2.420      3.756
REMARK  2 active torsions:
REMARK  status: ('A' for Active; 'I' for Inactive)
REMARK    1  A    between atoms: C5_5  and  C7_7 
REMARK    2  A    between atoms: C7_7  and  O9_9 
ROOT
HETATM    1  C2  UNL     1     -36.100  14.781  -5.603  1.00 20.00     0.045 A 
HETATM    2  C6  UNL     1     -36.985  14.037  -4.637  1.00 20.00     0.019 A 
HETATM    3  C7  UNL     1     -35.691  14.645  -4.166  1.00 20.00     0.066 A 
HETATM    4  C8  UNL     1     -38.319  14.585  -4.264  1.00 20.00     0.013 C 
ENDROOT
BRANCH   3   5
HETATM    5  C5  UNL     1     -35.663  15.869  -3.284  1.00 20.00     0.030 C 
HETATM    6  C1  UNL     1     -35.572  17.171  -4.083  1.00 20.00     0.018 C 
HETATM    7  C3  UNL     1     -34.136  17.329  -4.559  1.00 20.00     0.074 C 
HETATM    8  S10 UNL     1     -33.113  16.695  -3.204  1.00 20.00    -0.169 SA
HETATM    9  C4  UNL     1     -34.476  15.875  -2.324  1.00 20.00     0.081 C 
ENDBRANCH   3   5
BRANCH   3  10
HETATM   10  O9  UNL     1     -34.624  13.731  -3.883  1.00 20.00    -0.389 OA
HETATM   11  H24 UNL     1     -34.449  13.260  -4.710  1.00 20.00     0.210 HD
ENDBRANCH   3  10
TORSDOF 2
ENDMDL
MODEL 9
REMARK VINA RESULT:      -3.4      2.419      2.900
REMARK  2 active torsions:
REMARK  status: ('A' for Active; 'I' for Inactive)
REMARK    1  A    between atoms: C5_5  and  C7_7 
REMARK    2  A    between atoms: C7_7  and  O9_9 
ROOT
HETATM    1  C2  UNL     1     -35.065  15.554  -2.707  1.00 20.00     0.045 A 
HETATM    2  C6  UNL     1     -34.650  14.472  -3.669  1.00 20.00     0.019 A 
HETATM    3  C7  UNL     1     -35.931  15.232  -3.888  1.00 20.00     0.066 A 
HETATM    4  C8  UNL     1     -33.447  14.650  -4.529  1.00 20.00     0.013 C 
ENDROOT
BRANCH   3   5
HETATM    5  C5  UNL     1     -36.076  16.241  -5.000  1.00 20.00     0.030 C 
HETATM    6  C1  UNL     1     -35.790  17.672  -4.539  1.00 20.00     0.018 C 
HETATM    7  C3  UNL     1     -37.003  18.166  -3.766  1.00 20.00     0.074 C 
HETATM    8  S10 UNL     1     -38.434  17.461  -4.624  1.00 20.00    -0.169 SA
HETATM    9  C4  UNL     1     -37.480  16.259  -5.599  1.00 20.00     0.081 C 
ENDBRANCH   3   5
BRANCH   3  10
HETATM   10  O9  UNL     1     -37.146  14.521  -3.621  1.00 20.00    -0.389 OA
HETATM   11  H24 UNL     1     -37.258  13.897  -4.352  1.00 20.00     0.210 HD
ENDBRANCH   3  10
TORSDOF 2
ENDMDL
