MODEL 1
REMARK VINA RESULT:      -4.5      0.000      0.000
REMARK  2 active torsions:
REMARK  status: ('A' for Active; 'I' for Inactive)
REMARK    1  A    between atoms: C6_6  and  C9_9 
REMARK    2  A    between atoms: C8_8  and  C9_9 
ROOT
HETATM    1  C1  UNL     1     -24.664  15.524  11.622  1.00 20.00     0.027 C 
HETATM    2  C2  UNL     1     -23.917  16.290  10.531  1.00 20.00     0.008 C 
HETATM    3  C3  UNL     1     -23.530  18.130  12.316  1.00 20.00     0.032 C 
HETATM    4  C4  UNL     1     -25.756  16.332  12.332  1.00 20.00     0.167 C 
HETATM    5  C5  UNL     1     -24.984  18.597  12.261  1.00 20.00     0.168 C 
HETATM    6  C6  UNL     1     -23.013  17.422  11.054  1.00 20.00     0.006 C 
HETATM    7  O10 UNL     1     -25.911  17.632  11.774  1.00 20.00    -0.391 OA
ENDROOT
BRANCH   6   8
HETATM    8  C9  UNL     1     -22.730  18.424   9.932  1.00 20.00     0.086 C 
HETATM    9 CL11 UNL     1     -24.125  18.395   8.828  1.00 20.00    -0.125 Cl
BRANCH   8  10
HETATM   10  C8  UNL     1     -21.429  18.074   9.222  1.00 20.00     0.016 C 
HETATM   11  C7  UNL     1     -21.665  17.376   7.890  1.00 20.00     0.006 C 
ENDBRANCH   8  10
ENDBRANCH   6   8
TORSDOF 2
ENDMDL
MODEL 2
REMARK VINA RESULT:      -4.3     16.956     17.827
REMARK  2 active torsions:
REMARK  status: ('A' for Active; 'I' for Inactive)
REMARK    1  A    between atoms: C6_6  and  C9_9 
REMARK    2  A    between atoms: C8_8  and  C9_9 
ROOT
HETATM    1  C1  UNL     1     -33.236  14.689  -4.517  1.00 20.00     0.027 C 
HETATM    2  C2  UNL     1     -33.187  15.738  -3.407  1.00 20.00     0.008 C 
HETATM    3  C3  UNL     1     -35.763  15.477  -3.272  1.00 20.00     0.032 C 
HETATM    4  C4  UNL     1     -34.231  14.998  -5.642  1.00 20.00     0.167 C 
HETATM    5  C5  UNL     1     -35.986  16.235  -4.581  1.00 20.00     0.168 C 
HETATM    6  C6  UNL     1     -34.455  15.800  -2.534  1.00 20.00     0.006 C 
HETATM    7  O10 UNL     1     -34.869  16.258  -5.464  1.00 20.00    -0.391 OA
ENDROOT
BRANCH   6   8
HETATM    8  C9  UNL     1     -34.537  17.154  -1.826  1.00 20.00     0.086 C 
HETATM    9 CL11 UNL     1     -32.869  17.695  -1.519  1.00 20.00    -0.125 Cl
BRANCH   8  10
HETATM   10  C8  UNL     1     -35.346  17.035  -0.543  1.00 20.00     0.016 C 
HETATM   11  C7  UNL     1     -34.711  17.790   0.617  1.00 20.00     0.006 C 
ENDBRANCH   8  10
ENDBRANCH   6   8
TORSDOF 2
ENDMDL
MODEL 3
REMARK VINA RESULT:      -4.2     16.469     17.197
REMARK  2 active torsions:
REMARK  status: ('A' for Active; 'I' for Inactive)
REMARK    1  A    between atoms: C6_6  and  C9_9 
REMARK    2  A    between atoms: C8_8  and  C9_9 
ROOT
HETATM    1  C1  UNL     1     -33.966  14.573  -4.008  1.00 20.00     0.027 C 
HETATM    2  C2  UNL     1     -33.223  15.855  -3.638  1.00 20.00     0.008 C 
HETATM    3  C3  UNL     1     -35.136  16.280  -1.941  1.00 20.00     0.032 C 
HETATM    4  C4  UNL     1     -35.447  14.773  -4.353  1.00 20.00     0.167 C 
HETATM    5  C5  UNL     1     -36.131  16.653  -3.038  1.00 20.00     0.168 C 
HETATM    6  C6  UNL     1     -33.653  16.476  -2.296  1.00 20.00     0.006 C 
HETATM    7  O10 UNL     1     -35.823  16.145  -4.333  1.00 20.00    -0.391 OA
ENDROOT
BRANCH   6   8
HETATM    8  C9  UNL     1     -33.264  17.955  -2.254  1.00 20.00     0.086 C 
HETATM    9 CL11 UNL     1     -32.933  18.464  -3.927  1.00 20.00    -0.125 Cl
BRANCH   8  10
HETATM   10  C8  UNL     1     -32.062  18.163  -1.343  1.00 20.00     0.016 C 
HETATM   11  C7  UNL     1     -32.467  18.481   0.090  1.00 20.00     0.006 C 
ENDBRANCH   8  10
ENDBRANCH   6   8
TORSDOF 2
ENDMDL
MODEL 4
REMARK VINA RESULT:      -4.1     18.184     19.063
REMARK  2 active torsions:
REMARK  status: ('A' for Active; 'I' for Inactive)
REMARK    1  A    between atoms: C6_6  and  C9_9 
REMARK    2  A    between atoms: C8_8  and  C9_9 
ROOT
HETATM    1  C1  UNL     1     -34.703  15.826  -6.315  1.00 20.00     0.027 C 
HETATM    2  C2  UNL     1     -34.955  16.471  -4.953  1.00 20.00     0.008 C 
HETATM    3  C3  UNL     1     -34.726  14.087  -3.962  1.00 20.00     0.032 C 
HETATM    4  C4  UNL     1     -35.610  14.631  -6.630  1.00 20.00     0.167 C 
HETATM    5  C5  UNL     1     -36.089  13.650  -4.498  1.00 20.00     0.168 C 
HETATM    6  C6  UNL     1     -34.551  15.598  -3.750  1.00 20.00     0.006 C 
HETATM    7  O10 UNL     1     -36.572  14.402  -5.606  1.00 20.00    -0.391 OA
ENDROOT
BRANCH   6   8
HETATM    8  C9  UNL     1     -35.283  16.070  -2.492  1.00 20.00     0.086 C 
HETATM    9 CL11 UNL     1     -36.731  16.960  -3.022  1.00 20.00    -0.125 Cl
BRANCH   8  10
HETATM   10  C8  UNL     1     -34.365  16.929  -1.633  1.00 20.00     0.016 C 
HETATM   11  C7  UNL     1     -32.985  17.104  -2.253  1.00 20.00     0.006 C 
ENDBRANCH   8  10
ENDBRANCH   6   8
TORSDOF 2
ENDMDL
MODEL 5
REMARK VINA RESULT:      -4.1     17.160     17.921
REMARK  2 active torsions:
REMARK  status: ('A' for Active; 'I' for Inactive)
REMARK    1  A    between atoms: C6_6  and  C9_9 
REMARK    2  A    between atoms: C8_8  and  C9_9 
ROOT
HETATM    1  C1  UNL     1     -34.953  16.980  -1.013  1.00 20.00     0.027 C 
HETATM    2  C2  UNL     1     -35.438  16.143  -2.195  1.00 20.00     0.008 C 
HETATM    3  C3  UNL     1     -33.031  16.369  -3.133  1.00 20.00     0.032 C 
HETATM    4  C4  UNL     1     -34.260  18.291  -1.404  1.00 20.00     0.167 C 
HETATM    5  C5  UNL     1     -33.237  17.833  -3.520  1.00 20.00     0.168 C 
HETATM    6  C6  UNL     1     -34.310  15.522  -3.041  1.00 20.00     0.006 C 
HETATM    7  O10 UNL     1     -34.272  18.507  -2.810  1.00 20.00    -0.391 OA
ENDROOT
BRANCH   6   8
HETATM    8  C9  UNL     1     -34.837  15.161  -4.431  1.00 20.00     0.086 C 
HETATM    9 CL11 UNL     1     -36.013  13.840  -4.227  1.00 20.00    -0.125 Cl
BRANCH   8  10
HETATM   10  C8  UNL     1     -33.688  14.769  -5.350  1.00 20.00     0.016 C 
HETATM   11  C7  UNL     1     -33.983  15.075  -6.812  1.00 20.00     0.006 C 
ENDBRANCH   8  10
ENDBRANCH   6   8
TORSDOF 2
ENDMDL
MODEL 6
REMARK VINA RESULT:      -4.0     18.337     19.026
REMARK  2 active torsions:
REMARK  status: ('A' for Active; 'I' for Inactive)
REMARK    1  A    between atoms: C6_6  and  C9_9 
REMARK    2  A    between atoms: C8_8  and  C9_9 
ROOT
HETATM    1  C1  UNL     1     -38.005  16.450  -4.326  1.00 20.00     0.027 C 
HETATM    2  C2  UNL     1     -36.817  16.528  -3.368  1.00 20.00     0.008 C 
HETATM    3  C3  UNL     1     -35.592  14.948  -5.018  1.00 20.00     0.032 C 
HETATM    4  C4  UNL     1     -38.434  15.025  -4.692  1.00 20.00     0.167 C 
HETATM    5  C5  UNL     1     -36.419  13.735  -4.592  1.00 20.00     0.168 C 
HETATM    6  C6  UNL     1     -35.478  16.072  -3.976  1.00 20.00     0.006 C 
HETATM    7  O10 UNL     1     -37.677  14.040  -3.997  1.00 20.00    -0.391 OA
ENDROOT
BRANCH   6   8
HETATM    8  C9  UNL     1     -34.497  15.698  -2.862  1.00 20.00     0.086 C 
HETATM    9 CL11 UNL     1     -35.165  16.323  -1.335  1.00 20.00    -0.125 Cl
BRANCH   8  10
HETATM   10  C8  UNL     1     -33.116  16.263  -3.158  1.00 20.00     0.016 C 
HETATM   11  C7  UNL     1     -32.780  17.464  -2.284  1.00 20.00     0.006 C 
ENDBRANCH   8  10
ENDBRANCH   6   8
TORSDOF 2
ENDMDL
MODEL 7
REMARK VINA RESULT:      -4.0     16.821     17.548
REMARK  2 active torsions:
REMARK  status: ('A' for Active; 'I' for Inactive)
REMARK    1  A    between atoms: C6_6  and  C9_9 
REMARK    2  A    between atoms: C8_8  and  C9_9 
ROOT
HETATM    1  C1  UNL     1     -34.697  17.454  -0.495  1.00 20.00     0.027 C 
HETATM    2  C2  UNL     1     -35.188  16.549  -1.624  1.00 20.00     0.008 C 
HETATM    3  C3  UNL     1     -32.889  16.974  -2.744  1.00 20.00     0.032 C 
HETATM    4  C4  UNL     1     -34.160  18.813  -0.957  1.00 20.00     0.167 C 
HETATM    5  C5  UNL     1     -33.258  18.404  -3.137  1.00 20.00     0.168 C 
HETATM    6  C6  UNL     1     -34.073  16.016  -2.543  1.00 20.00     0.006 C 
HETATM    7  O10 UNL     1     -34.296  18.996  -2.362  1.00 20.00    -0.391 OA
ENDROOT
BRANCH   6   8
HETATM    8  C9  UNL     1     -34.665  15.576  -3.884  1.00 20.00     0.086 C 
HETATM    9 CL11 UNL     1     -36.214  16.430  -4.085  1.00 20.00    -0.125 Cl
BRANCH   8  10
HETATM   10  C8  UNL     1     -34.835  14.064  -3.920  1.00 20.00     0.016 C 
HETATM   11  C7  UNL     1     -36.168  13.644  -4.524  1.00 20.00     0.006 C 
ENDBRANCH   8  10
ENDBRANCH   6   8
TORSDOF 2
ENDMDL
MODEL 8
REMARK VINA RESULT:      -3.9     15.519     16.473
REMARK  2 active torsions:
REMARK  status: ('A' for Active; 'I' for Inactive)
REMARK    1  A    between atoms: C6_6  and  C9_9 
REMARK    2  A    between atoms: C8_8  and  C9_9 
ROOT
HETATM    1  C1  UNL     1     -34.473   6.499   6.201  1.00 20.00     0.027 C 
HETATM    2  C2  UNL     1     -33.385   6.906   5.208  1.00 20.00     0.008 C 
HETATM    3  C3  UNL     1     -34.760   5.617   3.426  1.00 20.00     0.032 C 
HETATM    4  C4  UNL     1     -34.788   4.999   6.221  1.00 20.00     0.167 C 
HETATM    5  C5  UNL     1     -34.353   4.255   3.986  1.00 20.00     0.168 C 
HETATM    6  C6  UNL     1     -33.793   6.773   3.728  1.00 20.00     0.006 C 
HETATM    7  O10 UNL     1     -33.939   4.260   5.349  1.00 20.00    -0.391 OA
ENDROOT
BRANCH   6   8
HETATM    8  C9  UNL     1     -32.545   6.697   2.847  1.00 20.00     0.086 C 
HETATM    9 CL11 UNL     1     -31.320   7.769   3.566  1.00 20.00    -0.125 Cl
BRANCH   8  10
HETATM   10  C8  UNL     1     -32.880   7.089   1.415  1.00 20.00     0.016 C 
HETATM   11  C7  UNL     1     -32.663   8.573   1.153  1.00 20.00     0.006 C 
ENDBRANCH   8  10
ENDBRANCH   6   8
TORSDOF 2
ENDMDL
MODEL 9
REMARK VINA RESULT:      -3.8     17.494     18.295
REMARK  2 active torsions:
REMARK  status: ('A' for Active; 'I' for Inactive)
REMARK    1  A    between atoms: C6_6  and  C9_9 
REMARK    2  A    between atoms: C8_8  and  C9_9 
ROOT
HETATM    1  C1  UNL     1     -32.953  17.102  -2.345  1.00 20.00     0.027 C 
HETATM    2  C2  UNL     1     -33.271  16.037  -3.394  1.00 20.00     0.008 C 
HETATM    3  C3  UNL     1     -35.435  17.384  -3.869  1.00 20.00     0.032 C 
HETATM    4  C4  UNL     1     -34.085  17.367  -1.345  1.00 20.00     0.167 C 
HETATM    5  C5  UNL     1     -36.096  16.928  -2.569  1.00 20.00     0.168 C 
HETATM    6  C6  UNL     1     -34.342  16.454  -4.419  1.00 20.00     0.006 C 
HETATM    7  O10 UNL     1     -35.196  16.502  -1.550  1.00 20.00    -0.391 OA
ENDROOT
BRANCH   6   8
HETATM    8  C9  UNL     1     -34.950  15.211  -5.074  1.00 20.00     0.086 C 
HETATM    9 CL11 UNL     1     -34.721  13.852  -3.948  1.00 20.00    -0.125 Cl
BRANCH   8  10
HETATM   10  C8  UNL     1     -34.302  14.952  -6.426  1.00 20.00     0.016 C 
HETATM   11  C7  UNL     1     -34.269  16.196  -7.303  1.00 20.00     0.006 C 
ENDBRANCH   8  10
ENDBRANCH   6   8
TORSDOF 2
ENDMDL
