MODEL 1
REMARK VINA RESULT:      -4.4      0.000      0.000
REMARK  3 active torsions:
REMARK  status: ('A' for Active; 'I' for Inactive)
REMARK    1  A    between atoms: C3_3  and  C6_6 
REMARK    2  A    between atoms: C3_3  and  O8_8 
REMARK    3  A    between atoms: C6_6  and  C7_7 
ROOT
HETATM    1  C1  UNL     1     -34.799   4.931   6.147  1.00 20.00     0.045 A 
HETATM    2  C2  UNL     1     -34.612   6.351   5.682  1.00 20.00     0.019 A 
HETATM    3  C3  UNL     1     -34.800   5.240   4.671  1.00 20.00     0.061 A 
HETATM    4  C4  UNL     1     -33.304   7.040   5.877  1.00 20.00     0.013 C 
ENDROOT
BRANCH   3   5
HETATM    5  C6  UNL     1     -33.685   4.752   3.807  1.00 20.00     0.038 C 
BRANCH   5   6
HETATM    6  C7  UNL     1     -33.631   5.477   2.453  1.00 20.00    -0.002 C 
HETATM    7  C5  UNL     1     -32.675   6.660   2.464  1.00 20.00     0.005 C 
ENDBRANCH   5   6
ENDBRANCH   3   5
BRANCH   3   8
HETATM    8  O8  UNL     1     -36.084   5.205   4.024  1.00 20.00    -0.389 OA
HETATM    9  H22 UNL     1     -36.732   5.388   4.716  1.00 20.00     0.210 HD
ENDBRANCH   3   8
TORSDOF 3
ENDMDL
MODEL 2
REMARK VINA RESULT:      -4.3      1.179      3.165
REMARK  3 active torsions:
REMARK  status: ('A' for Active; 'I' for Inactive)
REMARK    1  A    between atoms: C3_3  and  C6_6 
REMARK    2  A    between atoms: C3_3  and  O8_8 
REMARK    3  A    between atoms: C6_6  and  C7_7 
ROOT
HETATM    1  C1  UNL     1     -34.110   4.958   1.955  1.00 20.00     0.045 A 
HETATM    2  C2  UNL     1     -32.950   5.427   2.793  1.00 20.00     0.019 A 
HETATM    3  C3  UNL     1     -34.155   4.793   3.454  1.00 20.00     0.061 A 
HETATM    4  C4  UNL     1     -32.648   6.882   2.912  1.00 20.00     0.013 C 
ENDROOT
BRANCH   3   5
HETATM    5  C6  UNL     1     -35.129   5.583   4.261  1.00 20.00     0.038 C 
BRANCH   5   6
HETATM    6  C7  UNL     1     -34.812   5.548   5.765  1.00 20.00    -0.002 C 
HETATM    7  C5  UNL     1     -33.996   6.749   6.215  1.00 20.00     0.005 C 
ENDBRANCH   5   6
ENDBRANCH   3   5
BRANCH   3   8
HETATM    8  O8  UNL     1     -33.958   3.454   3.942  1.00 20.00    -0.389 OA
HETATM    9  H22 UNL     1     -33.967   3.522   4.906  1.00 20.00     0.210 HD
ENDBRANCH   3   8
TORSDOF 3
ENDMDL
MODEL 3
REMARK VINA RESULT:      -4.0     11.901     12.908
REMARK  3 active torsions:
REMARK  status: ('A' for Active; 'I' for Inactive)
REMARK    1  A    between atoms: C3_3  and  C6_6 
REMARK    2  A    between atoms: C3_3  and  O8_8 
REMARK    3  A    between atoms: C6_6  and  C7_7 
ROOT
HETATM    1  C1  UNL     1     -36.786  14.816  -4.779  1.00 20.00     0.045 A 
HETATM    2  C2  UNL     1     -35.932  14.352  -5.930  1.00 20.00     0.019 A 
HETATM    3  C3  UNL     1     -35.631  13.878  -4.524  1.00 20.00     0.061 A 
HETATM    4  C4  UNL     1     -35.055  15.317  -6.652  1.00 20.00     0.013 C 
ENDROOT
BRANCH   3   5
HETATM    5  C6  UNL     1     -34.440  14.353  -3.761  1.00 20.00     0.038 C 
BRANCH   5   6
HETATM    6  C7  UNL     1     -34.786  15.478  -2.773  1.00 20.00    -0.002 C 
HETATM    7  C5  UNL     1     -33.642  16.462  -2.588  1.00 20.00     0.005 C 
ENDBRANCH   5   6
ENDBRANCH   3   5
BRANCH   3   8
HETATM    8  O8  UNL     1     -35.984  12.512  -4.245  1.00 20.00    -0.389 OA
HETATM    9  H22 UNL     1     -36.569  12.543  -3.476  1.00 20.00     0.210 HD
ENDBRANCH   3   8
TORSDOF 3
ENDMDL
MODEL 4
REMARK VINA RESULT:      -3.9     12.088     12.897
REMARK  3 active torsions:
REMARK  status: ('A' for Active; 'I' for Inactive)
REMARK    1  A    between atoms: C3_3  and  C6_6 
REMARK    2  A    between atoms: C3_3  and  O8_8 
REMARK    3  A    between atoms: C6_6  and  C7_7 
ROOT
HETATM    1  C1  UNL     1     -34.051  16.426  -4.541  1.00 20.00     0.045 A 
HETATM    2  C2  UNL     1     -33.544  16.193  -3.142  1.00 20.00     0.019 A 
HETATM    3  C3  UNL     1     -33.670  15.033  -4.106  1.00 20.00     0.061 A 
HETATM    4  C4  UNL     1     -34.455  16.363  -1.975  1.00 20.00     0.013 C 
ENDROOT
BRANCH   3   5
HETATM    5  C6  UNL     1     -34.722  13.985  -3.959  1.00 20.00     0.038 C 
BRANCH   5   6
HETATM    6  C7  UNL     1     -35.852  14.138  -4.990  1.00 20.00    -0.002 C 
HETATM    7  C5  UNL     1     -37.203  14.389  -4.339  1.00 20.00     0.005 C 
ENDBRANCH   5   6
ENDBRANCH   3   5
BRANCH   3   8
HETATM    8  O8  UNL     1     -32.429  14.529  -4.633  1.00 20.00    -0.389 OA
HETATM    9  H22 UNL     1     -31.859  15.301  -4.745  1.00 20.00     0.210 HD
ENDBRANCH   3   8
TORSDOF 3
ENDMDL
MODEL 5
REMARK VINA RESULT:      -3.9      1.692      3.412
REMARK  3 active torsions:
REMARK  status: ('A' for Active; 'I' for Inactive)
REMARK    1  A    between atoms: C3_3  and  C6_6 
REMARK    2  A    between atoms: C3_3  and  O8_8 
REMARK    3  A    between atoms: C6_6  and  C7_7 
ROOT
HETATM    1  C1  UNL     1     -32.940   7.208   1.897  1.00 20.00     0.045 A 
HETATM    2  C2  UNL     1     -32.019   6.974   3.066  1.00 20.00     0.019 A 
HETATM    3  C3  UNL     1     -33.255   6.117   2.891  1.00 20.00     0.061 A 
HETATM    4  C4  UNL     1     -31.903   7.995   4.146  1.00 20.00     0.013 C 
ENDROOT
BRANCH   3   5
HETATM    5  C6  UNL     1     -34.445   6.243   3.782  1.00 20.00     0.038 C 
BRANCH   5   6
HETATM    6  C7  UNL     1     -34.756   4.938   4.533  1.00 20.00    -0.002 C 
HETATM    7  C5  UNL     1     -34.755   5.122   6.042  1.00 20.00     0.005 C 
ENDBRANCH   5   6
ENDBRANCH   3   5
BRANCH   3   8
HETATM    8  O8  UNL     1     -33.014   4.772   2.442  1.00 20.00    -0.389 OA
HETATM    9  H22 UNL     1     -33.841   4.476   2.040  1.00 20.00     0.210 HD
ENDBRANCH   3   8
TORSDOF 3
ENDMDL
MODEL 6
REMARK VINA RESULT:      -3.7     12.445     13.392
REMARK  3 active torsions:
REMARK  status: ('A' for Active; 'I' for Inactive)
REMARK    1  A    between atoms: C3_3  and  C6_6 
REMARK    2  A    between atoms: C3_3  and  O8_8 
REMARK    3  A    between atoms: C6_6  and  C7_7 
ROOT
HETATM    1  C1  UNL     1     -35.047  14.407  -4.823  1.00 20.00     0.045 A 
HETATM    2  C2  UNL     1     -34.240  15.081  -5.902  1.00 20.00     0.019 A 
HETATM    3  C3  UNL     1     -33.600  14.749  -4.571  1.00 20.00     0.061 A 
HETATM    4  C4  UNL     1     -34.551  16.480  -6.311  1.00 20.00     0.013 C 
ENDROOT
BRANCH   3   5
HETATM    5  C6  UNL     1     -33.246  15.800  -3.573  1.00 20.00     0.038 C 
BRANCH   5   6
HETATM    6  C7  UNL     1     -34.306  15.942  -2.469  1.00 20.00    -0.002 C 
HETATM    7  C5  UNL     1     -34.105  17.193  -1.628  1.00 20.00     0.005 C 
ENDBRANCH   5   6
ENDBRANCH   3   5
BRANCH   3   8
HETATM    8  O8  UNL     1     -32.683  13.641  -4.586  1.00 20.00    -0.389 OA
HETATM    9  H22 UNL     1     -32.592  13.362  -3.666  1.00 20.00     0.210 HD
ENDBRANCH   3   8
TORSDOF 3
ENDMDL
MODEL 7
REMARK VINA RESULT:      -3.7      9.176      9.925
REMARK  3 active torsions:
REMARK  status: ('A' for Active; 'I' for Inactive)
REMARK    1  A    between atoms: C3_3  and  C6_6 
REMARK    2  A    between atoms: C3_3  and  O8_8 
REMARK    3  A    between atoms: C6_6  and  C7_7 
ROOT
HETATM    1  C1  UNL     1     -41.332   6.919  -1.139  1.00 20.00     0.045 A 
HETATM    2  C2  UNL     1     -41.486   6.272   0.212  1.00 20.00     0.019 A 
HETATM    3  C3  UNL     1     -41.508   5.424  -1.041  1.00 20.00     0.061 A 
HETATM    4  C4  UNL     1     -42.707   6.520   1.030  1.00 20.00     0.013 C 
ENDROOT
BRANCH   3   5
HETATM    5  C6  UNL     1     -42.758   4.786  -1.550  1.00 20.00     0.038 C 
BRANCH   5   6
HETATM    6  C7  UNL     1     -42.478   3.708  -2.609  1.00 20.00    -0.002 C 
HETATM    7  C5  UNL     1     -43.410   2.514  -2.484  1.00 20.00     0.005 C 
ENDBRANCH   5   6
ENDBRANCH   3   5
BRANCH   3   8
HETATM    8  O8  UNL     1     -40.326   4.638  -1.276  1.00 20.00    -0.389 OA
HETATM    9  H22 UNL     1     -39.977   4.936  -2.126  1.00 20.00     0.210 HD
ENDBRANCH   3   8
TORSDOF 3
ENDMDL
MODEL 8
REMARK VINA RESULT:      -3.6     11.975     13.012
REMARK  3 active torsions:
REMARK  status: ('A' for Active; 'I' for Inactive)
REMARK    1  A    between atoms: C3_3  and  C6_6 
REMARK    2  A    between atoms: C3_3  and  O8_8 
REMARK    3  A    between atoms: C6_6  and  C7_7 
ROOT
HETATM    1  C1  UNL     1     -34.718  14.804  -5.067  1.00 20.00     0.045 A 
HETATM    2  C2  UNL     1     -34.606  14.566  -3.583  1.00 20.00     0.019 A 
HETATM    3  C3  UNL     1     -35.802  14.041  -4.348  1.00 20.00     0.061 A 
HETATM    4  C4  UNL     1     -34.707  15.707  -2.629  1.00 20.00     0.013 C 
ENDROOT
BRANCH   3   5
HETATM    5  C6  UNL     1     -37.163  14.636  -4.205  1.00 20.00     0.038 C 
BRANCH   5   6
HETATM    6  C7  UNL     1     -37.452  15.703  -5.273  1.00 20.00    -0.002 C 
HETATM    7  C5  UNL     1     -38.232  16.885  -4.719  1.00 20.00     0.005 C 
ENDBRANCH   5   6
ENDBRANCH   3   5
BRANCH   3   8
HETATM    8  O8  UNL     1     -35.818  12.619  -4.568  1.00 20.00    -0.389 OA
HETATM    9  H22 UNL     1     -35.971  12.220  -3.701  1.00 20.00     0.210 HD
ENDBRANCH   3   8
TORSDOF 3
ENDMDL
MODEL 9
REMARK VINA RESULT:      -3.6     12.444     13.481
REMARK  3 active torsions:
REMARK  status: ('A' for Active; 'I' for Inactive)
REMARK    1  A    between atoms: C3_3  and  C6_6 
REMARK    2  A    between atoms: C3_3  and  O8_8 
REMARK    3  A    between atoms: C6_6  and  C7_7 
ROOT
HETATM    1  C1  UNL     1     -33.395  16.830  -3.985  1.00 20.00     0.045 A 
HETATM    2  C2  UNL     1     -33.715  15.896  -2.846  1.00 20.00     0.019 A 
HETATM    3  C3  UNL     1     -33.493  15.346  -4.238  1.00 20.00     0.061 A 
HETATM    4  C4  UNL     1     -35.060  15.927  -2.205  1.00 20.00     0.013 C 
ENDROOT
BRANCH   3   5
HETATM    5  C6  UNL     1     -34.608  14.804  -5.068  1.00 20.00     0.038 C 
BRANCH   5   6
HETATM    6  C7  UNL     1     -34.851  15.634  -6.339  1.00 20.00    -0.002 C 
HETATM    7  C5  UNL     1     -33.921  15.242  -7.476  1.00 20.00     0.005 C 
ENDBRANCH   5   6
ENDBRANCH   3   5
BRANCH   3   8
HETATM    8  O8  UNL     1     -32.243  14.661  -4.439  1.00 20.00    -0.389 OA
HETATM    9  H22 UNL     1     -32.428  13.956  -5.073  1.00 20.00     0.210 HD
ENDBRANCH   3   8
TORSDOF 3
ENDMDL
