MODEL 1
REMARK VINA RESULT:      -3.7      0.000      0.000
REMARK  4 active torsions:
REMARK  status: ('A' for Active; 'I' for Inactive)
REMARK    1  A    between atoms: C6_6  and  C7_7 
REMARK    2  A    between atoms: C6_6  and  C9_9 
REMARK    3  A    between atoms: C8_8  and  C10_10 
REMARK    4  A    between atoms: C9_9  and  C10_10 
ROOT
HETATM    1  C5  UNL     1     -33.736  15.063  -6.820  1.00 20.00     0.011 C 
HETATM    2  C9  UNL     1     -34.548  15.314  -5.538  1.00 20.00     0.001 C 
ENDROOT
BRANCH   2   3
HETATM    3  C6  UNL     1     -33.798  14.805  -4.282  1.00 20.00     0.009 C 
BRANCH   3   4
HETATM    4  C7  UNL     1     -33.652  15.819  -3.128  1.00 20.00    -0.022 C 
HETATM    5  C1  UNL     1     -34.913  15.914  -2.267  1.00 20.00     0.009 C 
HETATM    6  C2  UNL     1     -33.315  17.202  -3.698  1.00 20.00     0.009 C 
ENDBRANCH   3   4
ENDBRANCH   2   3
BRANCH   2   7
HETATM    7  C10 UNL     1     -35.989  14.731  -5.662  1.00 20.00     0.089 C 
HETATM    8 CL11 UNL     1     -36.206  13.373  -4.493  1.00 20.00    -0.124 Cl
BRANCH   7   9
HETATM    9  C8  UNL     1     -37.148  15.756  -5.505  1.00 20.00    -0.004 C 
HETATM   10  C3  UNL     1     -36.637  17.194  -5.349  1.00 20.00     0.011 C 
HETATM   11  C4  UNL     1     -38.036  15.429  -4.292  1.00 20.00     0.011 C 
ENDBRANCH   7   9
ENDBRANCH   2   7
TORSDOF 4
ENDMDL
MODEL 2
REMARK VINA RESULT:      -3.6      1.231      2.852
REMARK  4 active torsions:
REMARK  status: ('A' for Active; 'I' for Inactive)
REMARK    1  A    between atoms: C6_6  and  C7_7 
REMARK    2  A    between atoms: C6_6  and  C9_9 
REMARK    3  A    between atoms: C8_8  and  C10_10 
REMARK    4  A    between atoms: C9_9  and  C10_10 
ROOT
HETATM    1  C5  UNL     1     -35.497  15.909  -2.628  1.00 20.00     0.011 C 
HETATM    2  C9  UNL     1     -34.276  15.203  -3.243  1.00 20.00     0.001 C 
ENDROOT
BRANCH   2   3
HETATM    3  C6  UNL     1     -33.050  16.146  -3.311  1.00 20.00     0.009 C 
BRANCH   3   4
HETATM    4  C7  UNL     1     -33.289  17.599  -2.847  1.00 20.00    -0.022 C 
HETATM    5  C1  UNL     1     -33.020  18.619  -3.954  1.00 20.00     0.009 C 
HETATM    6  C2  UNL     1     -32.397  17.905  -1.639  1.00 20.00     0.009 C 
ENDBRANCH   3   4
ENDBRANCH   2   3
BRANCH   2   7
HETATM    7  C10 UNL     1     -34.630  14.567  -4.622  1.00 20.00     0.089 C 
HETATM    8 CL11 UNL     1     -36.142  13.592  -4.479  1.00 20.00    -0.124 Cl
BRANCH   7   9
HETATM    9  C8  UNL     1     -34.751  15.561  -5.812  1.00 20.00    -0.004 C 
HETATM   10  C3  UNL     1     -36.200  15.724  -6.291  1.00 20.00     0.011 C 
HETATM   11  C4  UNL     1     -33.896  15.120  -7.012  1.00 20.00     0.011 C 
ENDBRANCH   7   9
ENDBRANCH   2   7
TORSDOF 4
ENDMDL
MODEL 3
REMARK VINA RESULT:      -3.6      2.031      3.590
REMARK  4 active torsions:
REMARK  status: ('A' for Active; 'I' for Inactive)
REMARK    1  A    between atoms: C6_6  and  C7_7 
REMARK    2  A    between atoms: C6_6  and  C9_9 
REMARK    3  A    between atoms: C8_8  and  C10_10 
REMARK    4  A    between atoms: C9_9  and  C10_10 
ROOT
HETATM    1  C5  UNL     1     -35.232  16.912  -1.085  1.00 20.00     0.011 C 
HETATM    2  C9  UNL     1     -34.457  16.100  -2.136  1.00 20.00     0.001 C 
ENDROOT
BRANCH   2   3
HETATM    3  C6  UNL     1     -33.130  16.797  -2.526  1.00 20.00     0.009 C 
BRANCH   3   4
HETATM    4  C7  UNL     1     -32.924  18.219  -1.963  1.00 20.00    -0.022 C 
HETATM    5  C1  UNL     1     -32.666  19.252  -3.061  1.00 20.00     0.009 C 
HETATM    6  C2  UNL     1     -31.752  18.216  -0.976  1.00 20.00     0.009 C 
ENDBRANCH   3   4
ENDBRANCH   2   3
BRANCH   2   7
HETATM    7  C10 UNL     1     -35.356  15.773  -3.368  1.00 20.00     0.089 C 
HETATM    8 CL11 UNL     1     -35.452  17.209  -4.458  1.00 20.00    -0.124 Cl
BRANCH   7   9
HETATM    9  C8  UNL     1     -34.947  14.515  -4.186  1.00 20.00    -0.004 C 
HETATM   10  C3  UNL     1     -34.199  14.875  -5.476  1.00 20.00     0.011 C 
HETATM   11  C4  UNL     1     -36.169  13.660  -4.563  1.00 20.00     0.011 C 
ENDBRANCH   7   9
ENDBRANCH   2   7
TORSDOF 4
ENDMDL
MODEL 4
REMARK VINA RESULT:      -3.5      1.162      1.820
REMARK  4 active torsions:
REMARK  status: ('A' for Active; 'I' for Inactive)
REMARK    1  A    between atoms: C6_6  and  C7_7 
REMARK    2  A    between atoms: C6_6  and  C9_9 
REMARK    3  A    between atoms: C8_8  and  C10_10 
REMARK    4  A    between atoms: C9_9  and  C10_10 
ROOT
HETATM    1  C5  UNL     1     -32.871  14.394  -4.446  1.00 20.00     0.011 C 
HETATM    2  C9  UNL     1     -34.117  15.287  -4.337  1.00 20.00     0.001 C 
ENDROOT
BRANCH   2   3
HETATM    3  C6  UNL     1     -34.593  15.421  -2.869  1.00 20.00     0.009 C 
BRANCH   3   4
HETATM    4  C7  UNL     1     -34.517  16.839  -2.263  1.00 20.00    -0.022 C 
HETATM    5  C1  UNL     1     -33.077  17.316  -2.067  1.00 20.00     0.009 C 
HETATM    6  C2  UNL     1     -35.252  16.862  -0.918  1.00 20.00     0.009 C 
ENDBRANCH   3   4
ENDBRANCH   2   3
BRANCH   2   7
HETATM    7  C10 UNL     1     -35.245  14.800  -5.298  1.00 20.00     0.089 C 
HETATM    8 CL11 UNL     1     -36.291  13.593  -4.457  1.00 20.00    -0.124 Cl
BRANCH   7   9
HETATM    9  C8  UNL     1     -36.125  15.917  -5.927  1.00 20.00    -0.004 C 
HETATM   10  C3  UNL     1     -35.402  17.269  -5.981  1.00 20.00     0.011 C 
HETATM   11  C4  UNL     1     -37.441  16.107  -5.154  1.00 20.00     0.011 C 
ENDBRANCH   7   9
ENDBRANCH   2   7
TORSDOF 4
ENDMDL
MODEL 5
REMARK VINA RESULT:      -3.5      1.679      3.647
REMARK  4 active torsions:
REMARK  status: ('A' for Active; 'I' for Inactive)
REMARK    1  A    between atoms: C6_6  and  C7_7 
REMARK    2  A    between atoms: C6_6  and  C9_9 
REMARK    3  A    between atoms: C8_8  and  C10_10 
REMARK    4  A    between atoms: C9_9  and  C10_10 
ROOT
HETATM    1  C5  UNL     1     -36.395  13.586  -4.623  1.00 20.00     0.011 C 
HETATM    2  C9  UNL     1     -35.542  14.865  -4.595  1.00 20.00     0.001 C 
ENDROOT
BRANCH   2   3
HETATM    3  C6  UNL     1     -35.012  15.225  -6.004  1.00 20.00     0.009 C 
BRANCH   3   4
HETATM    4  C7  UNL     1     -35.372  16.635  -6.520  1.00 20.00    -0.022 C 
HETATM    5  C1  UNL     1     -34.406  17.708  -6.016  1.00 20.00     0.009 C 
HETATM    6  C2  UNL     1     -36.800  16.989  -6.094  1.00 20.00     0.009 C 
ENDBRANCH   3   4
ENDBRANCH   2   3
BRANCH   2   7
HETATM    7  C10 UNL     1     -34.409  14.762  -3.529  1.00 20.00     0.089 C 
HETATM    8 CL11 UNL     1     -32.804  14.645  -4.346  1.00 20.00    -0.124 Cl
BRANCH   7   9
HETATM    9  C8  UNL     1     -34.379  15.895  -2.463  1.00 20.00    -0.004 C 
HETATM   10  C3  UNL     1     -35.641  16.765  -2.502  1.00 20.00     0.011 C 
HETATM   11  C4  UNL     1     -33.158  16.812  -2.642  1.00 20.00     0.011 C 
ENDBRANCH   7   9
ENDBRANCH   2   7
TORSDOF 4
ENDMDL
MODEL 6
REMARK VINA RESULT:      -3.5     10.657     11.988
REMARK  4 active torsions:
REMARK  status: ('A' for Active; 'I' for Inactive)
REMARK    1  A    between atoms: C6_6  and  C7_7 
REMARK    2  A    between atoms: C6_6  and  C9_9 
REMARK    3  A    between atoms: C8_8  and  C10_10 
REMARK    4  A    between atoms: C9_9  and  C10_10 
ROOT
HETATM    1  C5  UNL     1     -32.954   4.870   1.967  1.00 20.00     0.011 C 
HETATM    2  C9  UNL     1     -33.261   6.299   2.446  1.00 20.00     0.001 C 
ENDROOT
BRANCH   2   3
HETATM    3  C6  UNL     1     -32.445   7.350   1.655  1.00 20.00     0.009 C 
BRANCH   3   4
HETATM    4  C7  UNL     1     -33.269   8.384   0.858  1.00 20.00    -0.022 C 
HETATM    5  C1  UNL     1     -33.117   8.214  -0.655  1.00 20.00     0.009 C 
HETATM    6  C2  UNL     1     -32.843   9.801   1.260  1.00 20.00     0.009 C 
ENDBRANCH   3   4
ENDBRANCH   2   3
BRANCH   2   7
HETATM    7  C10 UNL     1     -33.081   6.426   3.989  1.00 20.00     0.089 C 
HETATM    8 CL11 UNL     1     -32.076   7.875   4.373  1.00 20.00    -0.124 Cl
BRANCH   7   9
HETATM    9  C8  UNL     1     -34.394   6.457   4.822  1.00 20.00    -0.004 C 
HETATM   10  C3  UNL     1     -34.132   6.687   6.316  1.00 20.00     0.011 C 
HETATM   11  C4  UNL     1     -35.195   5.153   4.671  1.00 20.00     0.011 C 
ENDBRANCH   7   9
ENDBRANCH   2   7
TORSDOF 4
ENDMDL
MODEL 7
REMARK VINA RESULT:      -3.5      2.879      5.018
REMARK  4 active torsions:
REMARK  status: ('A' for Active; 'I' for Inactive)
REMARK    1  A    between atoms: C6_6  and  C7_7 
REMARK    2  A    between atoms: C6_6  and  C9_9 
REMARK    3  A    between atoms: C8_8  and  C10_10 
REMARK    4  A    between atoms: C9_9  and  C10_10 
ROOT
HETATM    1  C5  UNL     1     -33.688  17.984  -3.843  1.00 20.00     0.011 C 
HETATM    2  C9  UNL     1     -33.514  17.235  -2.511  1.00 20.00     0.001 C 
ENDROOT
BRANCH   2   3
HETATM    3  C6  UNL     1     -34.109  15.807  -2.581  1.00 20.00     0.009 C 
BRANCH   3   4
HETATM    4  C7  UNL     1     -34.283  15.218  -3.997  1.00 20.00    -0.022 C 
HETATM    5  C1  UNL     1     -35.480  14.270  -4.095  1.00 20.00     0.009 C 
HETATM    6  C2  UNL     1     -33.006  14.475  -4.406  1.00 20.00     0.009 C 
ENDBRANCH   3   4
ENDBRANCH   2   3
BRANCH   2   7
HETATM    7  C10 UNL     1     -34.076  18.069  -1.320  1.00 20.00     0.089 C 
HETATM    8 CL11 UNL     1     -35.218  17.062  -0.349  1.00 20.00    -0.124 Cl
BRANCH   7   9
HETATM    9  C8  UNL     1     -33.012  18.712  -0.385  1.00 20.00    -0.004 C 
HETATM   10  C3  UNL     1     -31.585  18.276  -0.738  1.00 20.00     0.011 C 
HETATM   11  C4  UNL     1     -33.268  18.367   1.092  1.00 20.00     0.011 C 
ENDBRANCH   7   9
ENDBRANCH   2   7
TORSDOF 4
ENDMDL
MODEL 8
REMARK VINA RESULT:      -3.5      1.291      3.701
REMARK  4 active torsions:
REMARK  status: ('A' for Active; 'I' for Inactive)
REMARK    1  A    between atoms: C6_6  and  C7_7 
REMARK    2  A    between atoms: C6_6  and  C9_9 
REMARK    3  A    between atoms: C8_8  and  C10_10 
REMARK    4  A    between atoms: C9_9  and  C10_10 
ROOT
HETATM    1  C5  UNL     1     -37.857  14.670  -4.289  1.00 20.00     0.011 C 
HETATM    2  C9  UNL     1     -36.440  15.135  -4.666  1.00 20.00     0.001 C 
ENDROOT
BRANCH   2   3
HETATM    3  C6  UNL     1     -35.945  14.453  -5.965  1.00 20.00     0.009 C 
BRANCH   3   4
HETATM    4  C7  UNL     1     -35.311  15.387  -7.018  1.00 20.00    -0.022 C 
HETATM    5  C1  UNL     1     -33.811  15.145  -7.189  1.00 20.00     0.009 C 
HETATM    6  C2  UNL     1     -35.554  16.847  -6.622  1.00 20.00     0.009 C 
ENDBRANCH   3   4
ENDBRANCH   2   3
BRANCH   2   7
HETATM    7  C10 UNL     1     -35.453  14.956  -3.472  1.00 20.00     0.089 C 
HETATM    8 CL11 UNL     1     -34.224  13.697  -3.874  1.00 20.00    -0.124 Cl
BRANCH   7   9
HETATM    9  C8  UNL     1     -34.744  16.251  -2.983  1.00 20.00    -0.004 C 
HETATM   10  C3  UNL     1     -33.221  16.186  -3.164  1.00 20.00     0.011 C 
HETATM   11  C4  UNL     1     -35.038  16.536  -1.500  1.00 20.00     0.011 C 
ENDBRANCH   7   9
ENDBRANCH   2   7
TORSDOF 4
ENDMDL
MODEL 9
REMARK VINA RESULT:      -3.5      1.816      2.784
REMARK  4 active torsions:
REMARK  status: ('A' for Active; 'I' for Inactive)
REMARK    1  A    between atoms: C6_6  and  C7_7 
REMARK    2  A    between atoms: C6_6  and  C9_9 
REMARK    3  A    between atoms: C8_8  and  C10_10 
REMARK    4  A    between atoms: C9_9  and  C10_10 
ROOT
HETATM    1  C5  UNL     1     -36.206  13.596  -4.555  1.00 20.00     0.011 C 
HETATM    2  C9  UNL     1     -35.512  14.967  -4.509  1.00 20.00     0.001 C 
ENDROOT
BRANCH   2   3
HETATM    3  C6  UNL     1     -35.489  15.544  -3.072  1.00 20.00     0.009 C 
BRANCH   3   4
HETATM    4  C7  UNL     1     -34.107  15.980  -2.542  1.00 20.00    -0.022 C 
HETATM    5  C1  UNL     1     -34.048  17.473  -2.218  1.00 20.00     0.009 C 
HETATM    6  C2  UNL     1     -33.028  15.636  -3.575  1.00 20.00     0.009 C 
ENDBRANCH   3   4
ENDBRANCH   2   3
BRANCH   2   7
HETATM    7  C10 UNL     1     -36.135  15.949  -5.547  1.00 20.00     0.089 C 
HETATM    8 CL11 UNL     1     -36.820  17.387  -4.700  1.00 20.00    -0.124 Cl
BRANCH   7   9
HETATM    9  C8  UNL     1     -35.189  16.410  -6.693  1.00 20.00    -0.004 C 
HETATM   10  C3  UNL     1     -34.172  15.328  -7.081  1.00 20.00     0.011 C 
HETATM   11  C4  UNL     1     -34.414  17.683  -6.314  1.00 20.00     0.011 C 
ENDBRANCH   7   9
ENDBRANCH   2   7
TORSDOF 4
ENDMDL
