MODEL 1
REMARK VINA RESULT:      -4.6      0.000      0.000
REMARK  2 active torsions:
REMARK  status: ('A' for Active; 'I' for Inactive)
REMARK    1  A    between atoms: C4_4  and  C7_7 
REMARK    2  A    between atoms: C7_7  and  C8_8 
ROOT
HETATM    1  C1  UNL     1     -25.412  19.260   8.481  1.00 20.00     0.034 C 
HETATM    2  C2  UNL     1     -25.162  19.124   6.994  1.00 20.00     0.168 C 
HETATM    3  C3  UNL     1     -23.312  18.277   8.127  1.00 20.00     0.173 C 
HETATM    4  C4  UNL     1     -24.520  18.174   9.042  1.00 20.00     0.026 C 
HETATM    5  O9  UNL     1     -23.810  18.669   6.839  1.00 20.00    -0.391 OA
ENDROOT
BRANCH   4   6
HETATM    6  C7  UNL     1     -24.189  18.339  10.513  1.00 20.00     0.067 C 
HETATM    7 BR10 UNL     1     -25.863  18.675  11.491  1.00 20.00    -0.090 Br
BRANCH   6   8
HETATM    8  C8  UNL     1     -23.419  17.176  11.168  1.00 20.00    -0.008 C 
HETATM    9  C5  UNL     1     -24.385  16.071  11.614  1.00 20.00     0.011 C 
HETATM   10  C6  UNL     1     -22.548  17.591  12.332  1.00 20.00     0.011 C 
ENDBRANCH   6   8
ENDBRANCH   4   6
TORSDOF 2
ENDMDL
MODEL 2
REMARK VINA RESULT:      -4.3     16.233     17.937
REMARK  2 active torsions:
REMARK  status: ('A' for Active; 'I' for Inactive)
REMARK    1  A    between atoms: C4_4  and  C7_7 
REMARK    2  A    between atoms: C7_7  and  C8_8 
ROOT
HETATM    1  C1  UNL     1     -37.142  15.927  -4.161  1.00 20.00     0.034 C 
HETATM    2  C2  UNL     1     -38.272  14.927  -4.285  1.00 20.00     0.168 C 
HETATM    3  C3  UNL     1     -36.256  13.766  -4.374  1.00 20.00     0.173 C 
HETATM    4  C4  UNL     1     -36.026  15.062  -3.615  1.00 20.00     0.026 C 
HETATM    5  O9  UNL     1     -37.673  13.655  -4.571  1.00 20.00    -0.391 OA
ENDROOT
BRANCH   4   6
HETATM    6  C7  UNL     1     -34.639  15.644  -3.804  1.00 20.00     0.067 C 
HETATM    7 BR10 UNL     1     -34.752  17.098  -5.126  1.00 20.00    -0.090 Br
BRANCH   6   8
HETATM    8  C8  UNL     1     -33.936  16.145  -2.527  1.00 20.00    -0.008 C 
HETATM    9  C5  UNL     1     -34.966  16.548  -1.465  1.00 20.00     0.011 C 
HETATM   10  C6  UNL     1     -32.974  17.288  -2.762  1.00 20.00     0.011 C 
ENDBRANCH   6   8
ENDBRANCH   4   6
TORSDOF 2
ENDMDL
MODEL 3
REMARK VINA RESULT:      -4.2     17.248     18.688
REMARK  2 active torsions:
REMARK  status: ('A' for Active; 'I' for Inactive)
REMARK    1  A    between atoms: C4_4  and  C7_7 
REMARK    2  A    between atoms: C7_7  and  C8_8 
ROOT
HETATM    1  C1  UNL     1     -37.552  16.137  -4.261  1.00 20.00     0.034 C 
HETATM    2  C2  UNL     1     -38.733  15.193  -4.178  1.00 20.00     0.168 C 
HETATM    3  C3  UNL     1     -36.799  13.922  -4.437  1.00 20.00     0.173 C 
HETATM    4  C4  UNL     1     -36.417  15.248  -3.800  1.00 20.00     0.026 C 
HETATM    5  O9  UNL     1     -38.234  13.876  -4.450  1.00 20.00    -0.391 OA
ENDROOT
BRANCH   4   6
HETATM    6  C7  UNL     1     -35.039  15.742  -4.197  1.00 20.00     0.067 C 
HETATM    7 BR10 UNL     1     -34.069  16.251  -2.563  1.00 20.00    -0.090 Br
BRANCH   6   8
HETATM    8  C8  UNL     1     -34.187  14.769  -5.036  1.00 20.00    -0.008 C 
HETATM    9  C5  UNL     1     -32.812  14.559  -4.390  1.00 20.00     0.011 C 
HETATM   10  C6  UNL     1     -34.013  15.190  -6.478  1.00 20.00     0.011 C 
ENDBRANCH   6   8
ENDBRANCH   4   6
TORSDOF 2
ENDMDL
MODEL 4
REMARK VINA RESULT:      -4.1     15.911     17.659
REMARK  2 active torsions:
REMARK  status: ('A' for Active; 'I' for Inactive)
REMARK    1  A    between atoms: C4_4  and  C7_7 
REMARK    2  A    between atoms: C7_7  and  C8_8 
ROOT
HETATM    1  C1  UNL     1     -35.092  14.280  -3.929  1.00 20.00     0.034 C 
HETATM    2  C2  UNL     1     -35.983  13.231  -4.561  1.00 20.00     0.168 C 
HETATM    3  C3  UNL     1     -37.279  15.110  -4.098  1.00 20.00     0.173 C 
HETATM    4  C4  UNL     1     -35.836  15.555  -4.263  1.00 20.00     0.026 C 
HETATM    5  O9  UNL     1     -37.327  13.730  -4.491  1.00 20.00    -0.391 OA
ENDROOT
BRANCH   4   6
HETATM    6  C7  UNL     1     -35.458  16.740  -3.395  1.00 20.00     0.067 C 
HETATM    7 BR10 UNL     1     -37.112  17.627  -2.803  1.00 20.00    -0.090 Br
BRANCH   6   8
HETATM    8  C8  UNL     1     -34.561  16.430  -2.180  1.00 20.00    -0.008 C 
HETATM    9  C5  UNL     1     -35.246  16.864  -0.877  1.00 20.00     0.011 C 
HETATM   10  C6  UNL     1     -33.183  17.046  -2.260  1.00 20.00     0.011 C 
ENDBRANCH   6   8
ENDBRANCH   4   6
TORSDOF 2
ENDMDL
MODEL 5
REMARK VINA RESULT:      -4.0     14.195     16.211
REMARK  2 active torsions:
REMARK  status: ('A' for Active; 'I' for Inactive)
REMARK    1  A    between atoms: C4_4  and  C7_7 
REMARK    2  A    between atoms: C7_7  and  C8_8 
ROOT
HETATM    1  C1  UNL     1     -35.648  15.180  -3.452  1.00 20.00     0.034 C 
HETATM    2  C2  UNL     1     -35.255  13.911  -4.179  1.00 20.00     0.168 C 
HETATM    3  C3  UNL     1     -33.353  15.233  -3.934  1.00 20.00     0.173 C 
HETATM    4  C4  UNL     1     -34.332  15.597  -2.831  1.00 20.00     0.026 C 
HETATM    5  O9  UNL     1     -33.887  14.071  -4.585  1.00 20.00    -0.391 OA
ENDROOT
BRANCH   4   6
HETATM    6  C7  UNL     1     -34.274  17.056  -2.419  1.00 20.00     0.067 C 
HETATM    7 BR10 UNL     1     -35.152  17.240  -0.667  1.00 20.00    -0.090 Br
BRANCH   6   8
HETATM    8  C8  UNL     1     -32.871  17.691  -2.376  1.00 20.00    -0.008 C 
HETATM    9  C5  UNL     1     -32.521  18.133  -0.949  1.00 20.00     0.011 C 
HETATM   10  C6  UNL     1     -32.691  18.853  -3.326  1.00 20.00     0.011 C 
ENDBRANCH   6   8
ENDBRANCH   4   6
TORSDOF 2
ENDMDL
MODEL 6
REMARK VINA RESULT:      -3.9     15.772     17.631
REMARK  2 active torsions:
REMARK  status: ('A' for Active; 'I' for Inactive)
REMARK    1  A    between atoms: C4_4  and  C7_7 
REMARK    2  A    between atoms: C7_7  and  C8_8 
ROOT
HETATM    1  C1  UNL     1     -36.537  16.370  -4.348  1.00 20.00     0.034 C 
HETATM    2  C2  UNL     1     -37.597  15.703  -5.200  1.00 20.00     0.168 C 
HETATM    3  C3  UNL     1     -36.103  14.069  -4.478  1.00 20.00     0.173 C 
HETATM    4  C4  UNL     1     -36.068  15.219  -3.485  1.00 20.00     0.026 C 
HETATM    5  O9  UNL     1     -37.192  14.337  -5.373  1.00 20.00    -0.391 OA
ENDROOT
BRANCH   4   6
HETATM    6  C7  UNL     1     -34.710  15.434  -2.846  1.00 20.00     0.067 C 
HETATM    7 BR10 UNL     1     -33.324  15.017  -4.179  1.00 20.00    -0.090 Br
BRANCH   6   8
HETATM    8  C8  UNL     1     -34.460  16.831  -2.244  1.00 20.00    -0.008 C 
HETATM    9  C5  UNL     1     -32.960  17.156  -2.235  1.00 20.00     0.011 C 
HETATM   10  C6  UNL     1     -35.028  17.014  -0.855  1.00 20.00     0.011 C 
ENDBRANCH   6   8
ENDBRANCH   4   6
TORSDOF 2
ENDMDL
MODEL 7
REMARK VINA RESULT:      -3.9     15.439     17.404
REMARK  2 active torsions:
REMARK  status: ('A' for Active; 'I' for Inactive)
REMARK    1  A    between atoms: C4_4  and  C7_7 
REMARK    2  A    between atoms: C7_7  and  C8_8 
ROOT
HETATM    1  C1  UNL     1     -36.485  15.397  -4.307  1.00 20.00     0.034 C 
HETATM    2  C2  UNL     1     -37.041  13.999  -4.479  1.00 20.00     0.168 C 
HETATM    3  C3  UNL     1     -34.764  13.831  -4.021  1.00 20.00     0.173 C 
HETATM    4  C4  UNL     1     -35.271  15.140  -3.441  1.00 20.00     0.026 C 
HETATM    5  O9  UNL     1     -35.921  13.101  -4.452  1.00 20.00    -0.391 OA
ENDROOT
BRANCH   4   6
HETATM    6  C7  UNL     1     -34.245  16.257  -3.463  1.00 20.00     0.067 C 
HETATM    7 BR10 UNL     1     -34.442  17.248  -5.151  1.00 20.00    -0.090 Br
BRANCH   6   8
HETATM    8  C8  UNL     1     -34.283  17.233  -2.270  1.00 20.00    -0.008 C 
HETATM    9  C5  UNL     1     -32.861  17.570  -1.801  1.00 20.00     0.011 C 
HETATM   10  C6  UNL     1     -35.102  16.743  -1.098  1.00 20.00     0.011 C 
ENDBRANCH   6   8
ENDBRANCH   4   6
TORSDOF 2
ENDMDL
MODEL 8
REMARK VINA RESULT:      -3.9     15.583     17.843
REMARK  2 active torsions:
REMARK  status: ('A' for Active; 'I' for Inactive)
REMARK    1  A    between atoms: C4_4  and  C7_7 
REMARK    2  A    between atoms: C7_7  and  C8_8 
ROOT
HETATM    1  C1  UNL     1     -33.181  16.560  -3.500  1.00 20.00     0.034 C 
HETATM    2  C2  UNL     1     -33.315  17.113  -2.096  1.00 20.00     0.168 C 
HETATM    3  C3  UNL     1     -35.129  15.712  -2.507  1.00 20.00     0.173 C 
HETATM    4  C4  UNL     1     -33.981  15.279  -3.402  1.00 20.00     0.026 C 
HETATM    5  O9  UNL     1     -34.595  16.690  -1.603  1.00 20.00    -0.391 OA
ENDROOT
BRANCH   4   6
HETATM    6  C7  UNL     1     -34.425  14.720  -4.740  1.00 20.00     0.067 C 
HETATM    7 BR10 UNL     1     -36.193  13.889  -4.508  1.00 20.00    -0.090 Br
BRANCH   6   8
HETATM    8  C8  UNL     1     -34.460  15.719  -5.913  1.00 20.00    -0.008 C 
HETATM    9  C5  UNL     1     -35.891  16.218  -6.155  1.00 20.00     0.011 C 
HETATM   10  C6  UNL     1     -33.885  15.178  -7.201  1.00 20.00     0.011 C 
ENDBRANCH   6   8
ENDBRANCH   4   6
TORSDOF 2
ENDMDL
MODEL 9
REMARK VINA RESULT:      -3.8     18.333     19.284
REMARK  2 active torsions:
REMARK  status: ('A' for Active; 'I' for Inactive)
REMARK    1  A    between atoms: C4_4  and  C7_7 
REMARK    2  A    between atoms: C7_7  and  C8_8 
ROOT
HETATM    1  C1  UNL     1     -37.328  15.979  -4.619  1.00 20.00     0.034 C 
HETATM    2  C2  UNL     1     -38.381  14.950  -4.262  1.00 20.00     0.168 C 
HETATM    3  C3  UNL     1     -36.354  13.846  -4.570  1.00 20.00     0.173 C 
HETATM    4  C4  UNL     1     -36.058  15.284  -4.178  1.00 20.00     0.026 C 
HETATM    5  O9  UNL     1     -37.767  13.661  -4.403  1.00 20.00    -0.391 OA
ENDROOT
BRANCH   4   6
HETATM    6  C7  UNL     1     -34.795  15.841  -4.804  1.00 20.00     0.067 C 
HETATM    7 BR10 UNL     1     -33.305  14.627  -4.381  1.00 20.00    -0.090 Br
BRANCH   6   8
HETATM    8  C8  UNL     1     -34.850  16.101  -6.322  1.00 20.00    -0.008 C 
HETATM    9  C5  UNL     1     -33.919  15.137  -7.070  1.00 20.00     0.011 C 
HETATM   10  C6  UNL     1     -34.529  17.526  -6.715  1.00 20.00     0.011 C 
ENDBRANCH   6   8
ENDBRANCH   4   6
TORSDOF 2
ENDMDL
