MODEL 1
REMARK VINA RESULT:      -4.6      0.000      0.000
REMARK  2 active torsions:
REMARK  status: ('A' for Active; 'I' for Inactive)
REMARK    1  A    between atoms: C3_3  and  C6_6 
REMARK    2  A    between atoms: C6_6  and  O9_9 
ROOT
HETATM    1  C2  UNL     1     -22.397  18.736   8.978  1.00 20.00     0.045 A 
HETATM    2  C5  UNL     1     -23.428  18.251   7.992  1.00 20.00     0.019 A 
HETATM    3  C6  UNL     1     -23.188  17.486   9.275  1.00 20.00     0.066 A 
HETATM    4  C8  UNL     1     -24.673  19.037   7.764  1.00 20.00     0.013 C 
ENDROOT
BRANCH   3   5
HETATM    5  C3  UNL     1     -24.189  17.411  10.426  1.00 20.00     0.024 A 
HETATM    6  C1  UNL     1     -24.290  16.217  11.339  1.00 20.00     0.012 A 
HETATM    7  C4  UNL     1     -23.822  17.540  11.886  1.00 20.00    -0.011 A 
HETATM    8  C7  UNL     1     -22.411  17.710  12.332  1.00 20.00     0.010 C 
ENDBRANCH   3   5
BRANCH   3   9
HETATM    9  O9  UNL     1     -22.447  16.258   9.098  1.00 20.00    -0.389 OA
HETATM   10  H23 UNL     1     -22.947  15.749   8.449  1.00 20.00     0.210 HD
ENDBRANCH   3   9
TORSDOF 2
ENDMDL
MODEL 2
REMARK VINA RESULT:      -4.0     15.568     16.309
REMARK  2 active torsions:
REMARK  status: ('A' for Active; 'I' for Inactive)
REMARK    1  A    between atoms: C3_3  and  C6_6 
REMARK    2  A    between atoms: C6_6  and  O9_9 
ROOT
HETATM    1  C2  UNL     1     -31.893   7.250   3.235  1.00 20.00     0.045 A 
HETATM    2  C5  UNL     1     -32.445   7.277   1.833  1.00 20.00     0.019 A 
HETATM    3  C6  UNL     1     -33.010   6.312   2.852  1.00 20.00     0.066 A 
HETATM    4  C8  UNL     1     -33.216   8.459   1.355  1.00 20.00     0.013 C 
ENDROOT
BRANCH   3   5
HETATM    5  C3  UNL     1     -34.409   6.424   3.453  1.00 20.00     0.024 A 
HETATM    6  C1  UNL     1     -35.066   5.294   4.201  1.00 20.00     0.012 A 
HETATM    7  C4  UNL     1     -34.696   6.559   4.930  1.00 20.00    -0.011 A 
HETATM    8  C7  UNL     1     -33.608   6.547   5.948  1.00 20.00     0.010 C 
ENDBRANCH   3   5
BRANCH   3   9
HETATM    9  O9  UNL     1     -32.594   4.941   2.657  1.00 20.00    -0.389 OA
HETATM   10  H23 UNL     1     -32.800   4.492   3.485  1.00 20.00     0.210 HD
ENDBRANCH   3   9
TORSDOF 2
ENDMDL
MODEL 3
REMARK VINA RESULT:      -3.9      1.863      3.639
REMARK  2 active torsions:
REMARK  status: ('A' for Active; 'I' for Inactive)
REMARK    1  A    between atoms: C3_3  and  C6_6 
REMARK    2  A    between atoms: C6_6  and  O9_9 
ROOT
HETATM    1  C2  UNL     1     -24.828  16.779  11.924  1.00 20.00     0.045 A 
HETATM    2  C5  UNL     1     -25.396  18.120  12.310  1.00 20.00     0.019 A 
HETATM    3  C6  UNL     1     -24.283  18.033  11.289  1.00 20.00     0.066 A 
HETATM    4  C8  UNL     1     -26.790  18.481  11.926  1.00 20.00     0.013 C 
ENDROOT
BRANCH   3   5
HETATM    5  C3  UNL     1     -24.459  18.336   9.803  1.00 20.00     0.024 A 
HETATM    6  C1  UNL     1     -23.542  19.261   9.047  1.00 20.00     0.012 A 
HETATM    7  C4  UNL     1     -23.568  17.793   8.709  1.00 20.00    -0.011 A 
HETATM    8  C7  UNL     1     -22.389  16.934   9.008  1.00 20.00     0.010 C 
ENDBRANCH   3   5
BRANCH   3   9
HETATM    9  O9  UNL     1     -22.990  18.440  11.792  1.00 20.00    -0.389 OA
HETATM   10  H23 UNL     1     -22.457  17.637  11.808  1.00 20.00     0.210 HD
ENDBRANCH   3   9
TORSDOF 2
ENDMDL
MODEL 4
REMARK VINA RESULT:      -3.9      1.813      2.082
REMARK  2 active torsions:
REMARK  status: ('A' for Active; 'I' for Inactive)
REMARK    1  A    between atoms: C3_3  and  C6_6 
REMARK    2  A    between atoms: C6_6  and  O9_9 
ROOT
HETATM    1  C2  UNL     1     -22.497  18.790   9.596  1.00 20.00     0.045 A 
HETATM    2  C5  UNL     1     -21.661  17.598   9.208  1.00 20.00     0.019 A 
HETATM    3  C6  UNL     1     -22.578  17.523  10.409  1.00 20.00     0.066 A 
HETATM    4  C8  UNL     1     -21.951  16.858   7.948  1.00 20.00     0.013 C 
ENDROOT
BRANCH   3   5
HETATM    5  C3  UNL     1     -23.845  16.673  10.467  1.00 20.00     0.024 A 
HETATM    6  C1  UNL     1     -24.231  15.870  11.681  1.00 20.00     0.012 A 
HETATM    7  C4  UNL     1     -25.082  17.036  11.254  1.00 20.00    -0.011 A 
HETATM    8  C7  UNL     1     -25.148  18.264  12.095  1.00 20.00     0.010 C 
ENDBRANCH   3   5
BRANCH   3   9
HETATM    9  O9  UNL     1     -21.891  17.587  11.679  1.00 20.00    -0.389 OA
HETATM   10  H23 UNL     1     -21.583  16.689  11.849  1.00 20.00     0.210 HD
ENDBRANCH   3   9
TORSDOF 2
ENDMDL
MODEL 5
REMARK VINA RESULT:      -3.9     16.556     18.637
REMARK  2 active torsions:
REMARK  status: ('A' for Active; 'I' for Inactive)
REMARK    1  A    between atoms: C3_3  and  C6_6 
REMARK    2  A    between atoms: C6_6  and  O9_9 
ROOT
HETATM    1  C2  UNL     1     -34.388  15.318  -3.091  1.00 20.00     0.045 A 
HETATM    2  C5  UNL     1     -33.081  16.052  -3.240  1.00 20.00     0.019 A 
HETATM    3  C6  UNL     1     -33.622  15.227  -4.388  1.00 20.00     0.066 A 
HETATM    4  C8  UNL     1     -33.059  17.541  -3.282  1.00 20.00     0.013 C 
ENDROOT
BRANCH   3   5
HETATM    5  C3  UNL     1     -34.155  15.819  -5.690  1.00 20.00     0.024 A 
HETATM    6  C1  UNL     1     -34.014  15.122  -7.018  1.00 20.00     0.012 A 
HETATM    7  C4  UNL     1     -35.381  15.318  -6.417  1.00 20.00    -0.011 A 
HETATM    8  C7  UNL     1     -36.161  14.146  -5.931  1.00 20.00     0.010 C 
ENDBRANCH   3   5
BRANCH   3   9
HETATM    9  O9  UNL     1     -32.934  13.971  -4.585  1.00 20.00    -0.389 OA
HETATM   10  H23 UNL     1     -32.817  13.602  -3.702  1.00 20.00     0.210 HD
ENDBRANCH   3   9
TORSDOF 2
ENDMDL
MODEL 6
REMARK VINA RESULT:      -3.9     17.279     19.138
REMARK  2 active torsions:
REMARK  status: ('A' for Active; 'I' for Inactive)
REMARK    1  A    between atoms: C3_3  and  C6_6 
REMARK    2  A    between atoms: C6_6  and  O9_9 
ROOT
HETATM    1  C2  UNL     1     -34.180  16.539  -6.567  1.00 20.00     0.045 A 
HETATM    2  C5  UNL     1     -34.612  15.397  -7.450  1.00 20.00     0.019 A 
HETATM    3  C6  UNL     1     -34.228  15.138  -6.009  1.00 20.00     0.066 A 
HETATM    4  C8  UNL     1     -36.023  15.306  -7.918  1.00 20.00     0.013 C 
ENDROOT
BRANCH   3   5
HETATM    5  C3  UNL     1     -35.217  14.730  -4.920  1.00 20.00     0.024 A 
HETATM    6  C1  UNL     1     -34.910  13.666  -3.900  1.00 20.00     0.012 A 
HETATM    7  C4  UNL     1     -35.080  15.096  -3.461  1.00 20.00    -0.011 A 
HETATM    8  C7  UNL     1     -33.912  15.867  -2.949  1.00 20.00     0.010 C 
ENDBRANCH   3   5
BRANCH   3   9
HETATM    9  O9  UNL     1     -32.933  14.517  -5.848  1.00 20.00    -0.389 OA
HETATM   10  H23 UNL     1     -32.855  14.329  -4.906  1.00 20.00     0.210 HD
ENDBRANCH   3   9
TORSDOF 2
ENDMDL
MODEL 7
REMARK VINA RESULT:      -3.8     23.157     24.254
REMARK  2 active torsions:
REMARK  status: ('A' for Active; 'I' for Inactive)
REMARK    1  A    between atoms: C3_3  and  C6_6 
REMARK    2  A    between atoms: C6_6  and  O9_9 
ROOT
HETATM    1  C2  UNL     1     -43.361   7.492   0.522  1.00 20.00     0.045 A 
HETATM    2  C5  UNL     1     -42.015   8.082   0.850  1.00 20.00     0.019 A 
HETATM    3  C6  UNL     1     -42.118   6.655   0.359  1.00 20.00     0.066 A 
HETATM    4  C8  UNL     1     -41.446   9.167   0.003  1.00 20.00     0.013 C 
ENDROOT
BRANCH   3   5
HETATM    5  C3  UNL     1     -41.628   6.182  -1.007  1.00 20.00     0.024 A 
HETATM    6  C1  UNL     1     -40.890   4.884  -1.202  1.00 20.00     0.012 A 
HETATM    7  C4  UNL     1     -42.260   5.063  -1.801  1.00 20.00    -0.011 A 
HETATM    8  C7  UNL     1     -43.415   4.280  -1.277  1.00 20.00     0.010 C 
ENDBRANCH   3   5
BRANCH   3   9
HETATM    9  O9  UNL     1     -41.931   5.662   1.394  1.00 20.00    -0.389 OA
HETATM   10  H23 UNL     1     -42.211   6.089   2.211  1.00 20.00     0.210 HD
ENDBRANCH   3   9
TORSDOF 2
ENDMDL
MODEL 8
REMARK VINA RESULT:      -3.7      1.699      2.400
REMARK  2 active torsions:
REMARK  status: ('A' for Active; 'I' for Inactive)
REMARK    1  A    between atoms: C3_3  and  C6_6 
REMARK    2  A    between atoms: C6_6  and  O9_9 
ROOT
HETATM    1  C2  UNL     1     -23.150  16.641   9.306  1.00 20.00     0.045 A 
HETATM    2  C5  UNL     1     -22.594  17.999   8.963  1.00 20.00     0.019 A 
HETATM    3  C6  UNL     1     -23.863  17.883   9.779  1.00 20.00     0.066 A 
HETATM    4  C8  UNL     1     -21.310  18.456   9.565  1.00 20.00     0.013 C 
ENDROOT
BRANCH   3   5
HETATM    5  C3  UNL     1     -23.966  18.248  11.257  1.00 20.00     0.024 A 
HETATM    6  C1  UNL     1     -25.280  18.538  11.934  1.00 20.00     0.012 A 
HETATM    7  C4  UNL     1     -24.487  17.322  12.332  1.00 20.00    -0.011 A 
HETATM    8  C7  UNL     1     -24.997  15.958  12.017  1.00 20.00     0.010 C 
ENDBRANCH   3   5
BRANCH   3   9
HETATM    9  O9  UNL     1     -25.067  18.194   9.042  1.00 20.00    -0.389 OA
HETATM   10  H23 UNL     1     -25.078  17.580   8.299  1.00 20.00     0.210 HD
ENDBRANCH   3   9
TORSDOF 2
ENDMDL
MODEL 9
REMARK VINA RESULT:      -3.7     16.816     18.717
REMARK  2 active torsions:
REMARK  status: ('A' for Active; 'I' for Inactive)
REMARK    1  A    between atoms: C3_3  and  C6_6 
REMARK    2  A    between atoms: C6_6  and  O9_9 
ROOT
HETATM    1  C2  UNL     1     -34.750  15.602  -2.533  1.00 20.00     0.045 A 
HETATM    2  C5  UNL     1     -33.445  15.945  -3.204  1.00 20.00     0.019 A 
HETATM    3  C6  UNL     1     -34.483  15.126  -3.939  1.00 20.00     0.066 A 
HETATM    4  C8  UNL     1     -33.145  17.355  -3.579  1.00 20.00     0.013 C 
ENDROOT
BRANCH   3   5
HETATM    5  C3  UNL     1     -35.284  15.633  -5.135  1.00 20.00     0.024 A 
HETATM    6  C1  UNL     1     -35.740  14.730  -6.251  1.00 20.00     0.012 A 
HETATM    7  C4  UNL     1     -36.757  15.376  -5.349  1.00 20.00    -0.011 A 
HETATM    8  C7  UNL     1     -37.556  14.545  -4.405  1.00 20.00     0.010 C 
ENDBRANCH   3   5
BRANCH   3   9
HETATM    9  O9  UNL     1     -34.161  13.720  -4.039  1.00 20.00    -0.389 OA
HETATM   10  H23 UNL     1     -33.732  13.496  -3.205  1.00 20.00     0.210 HD
ENDBRANCH   3   9
TORSDOF 2
ENDMDL
