MODEL 1
REMARK VINA RESULT:      -4.0      0.000      0.000
REMARK  3 active torsions:
REMARK  status: ('A' for Active; 'I' for Inactive)
REMARK    1  A    between atoms: C1_1  and  C8_8 
REMARK    2  A    between atoms: C1_1  and  C9_9 
REMARK    3  A    between atoms: C9_9  and  C10_10 
ROOT
HETATM    1  C4  UNL     1     -33.167  14.458  -4.399  1.00 20.00     0.018 C 
HETATM    2  C9  UNL     1     -34.105  15.541  -4.945  1.00 20.00     0.059 C 
ENDROOT
BRANCH   2   3
HETATM    3  C1  UNL     1     -34.055  16.737  -3.984  1.00 20.00     0.134 C 
HETATM    4  O11 UNL     1     -34.276  17.885  -4.374  1.00 20.00    -0.297 OA
BRANCH   3   5
HETATM    5  C8  UNL     1     -33.758  16.435  -2.515  1.00 20.00     0.048 C 
HETATM    6  C2  UNL     1     -35.065  16.372  -1.735  1.00 20.00     0.017 C 
HETATM    7  C3  UNL     1     -32.818  17.480  -1.921  1.00 20.00     0.017 C 
ENDBRANCH   3   5
ENDBRANCH   2   3
BRANCH   2   8
HETATM    8  C10 UNL     1     -35.563  15.061  -5.246  1.00 20.00    -0.041 C 
HETATM    9  C5  UNL     1     -35.900  13.834  -4.372  1.00 20.00     0.015 C 
HETATM   10  C6  UNL     1     -35.685  14.623  -6.721  1.00 20.00     0.015 C 
HETATM   11  C7  UNL     1     -36.624  16.145  -4.974  1.00 20.00     0.015 C 
ENDBRANCH   2   8
TORSDOF 3
ENDMDL
MODEL 2
REMARK VINA RESULT:      -3.9      1.689      2.278
REMARK  3 active torsions:
REMARK  status: ('A' for Active; 'I' for Inactive)
REMARK    1  A    between atoms: C1_1  and  C8_8 
REMARK    2  A    between atoms: C1_1  and  C9_9 
REMARK    3  A    between atoms: C9_9  and  C10_10 
ROOT
HETATM    1  C4  UNL     1     -33.738  15.046  -6.775  1.00 20.00     0.018 C 
HETATM    2  C9  UNL     1     -34.457  15.715  -5.597  1.00 20.00     0.059 C 
ENDROOT
BRANCH   2   3
HETATM    3  C1  UNL     1     -34.093  14.941  -4.322  1.00 20.00     0.134 C 
HETATM    4  O11 UNL     1     -34.066  13.709  -4.303  1.00 20.00    -0.297 OA
BRANCH   3   5
HETATM    5  C8  UNL     1     -33.728  15.768  -3.090  1.00 20.00     0.048 C 
HETATM    6  C2  UNL     1     -34.960  15.940  -2.209  1.00 20.00     0.017 C 
HETATM    7  C3  UNL     1     -33.151  17.122  -3.491  1.00 20.00     0.017 C 
ENDBRANCH   3   5
ENDBRANCH   2   3
BRANCH   2   8
HETATM    8  C10 UNL     1     -35.999  15.896  -5.782  1.00 20.00    -0.041 C 
HETATM    9  C5  UNL     1     -36.356  15.836  -7.283  1.00 20.00     0.015 C 
HETATM   10  C6  UNL     1     -36.438  17.281  -5.260  1.00 20.00     0.015 C 
HETATM   11  C7  UNL     1     -36.826  14.821  -5.053  1.00 20.00     0.015 C 
ENDBRANCH   2   8
TORSDOF 3
ENDMDL
MODEL 3
REMARK VINA RESULT:      -3.9      1.116      3.663
REMARK  3 active torsions:
REMARK  status: ('A' for Active; 'I' for Inactive)
REMARK    1  A    between atoms: C1_1  and  C8_8 
REMARK    2  A    between atoms: C1_1  and  C9_9 
REMARK    3  A    between atoms: C9_9  and  C10_10 
ROOT
HETATM    1  C4  UNL     1     -32.681  14.760  -4.263  1.00 20.00     0.018 C 
HETATM    2  C9  UNL     1     -34.119  15.235  -4.023  1.00 20.00     0.059 C 
ENDROOT
BRANCH   2   3
HETATM    3  C1  UNL     1     -34.785  15.435  -5.391  1.00 20.00     0.134 C 
HETATM    4  O11 UNL     1     -34.231  16.070  -6.290  1.00 20.00    -0.297 OA
BRANCH   3   5
HETATM    5  C8  UNL     1     -36.148  14.776  -5.602  1.00 20.00     0.048 C 
HETATM    6  C2  UNL     1     -37.233  15.845  -5.622  1.00 20.00     0.017 C 
HETATM    7  C3  UNL     1     -36.426  13.737  -4.518  1.00 20.00     0.017 C 
ENDBRANCH   3   5
ENDBRANCH   2   3
BRANCH   2   8
HETATM    8  C10 UNL     1     -34.255  16.484  -3.090  1.00 20.00    -0.041 C 
HETATM    9  C5  UNL     1     -32.866  16.883  -2.546  1.00 20.00     0.015 C 
HETATM   10  C6  UNL     1     -35.145  16.145  -1.875  1.00 20.00     0.015 C 
HETATM   11  C7  UNL     1     -34.856  17.708  -3.804  1.00 20.00     0.015 C 
ENDBRANCH   2   8
TORSDOF 3
ENDMDL
MODEL 4
REMARK VINA RESULT:      -3.9      1.545      2.078
REMARK  3 active torsions:
REMARK  status: ('A' for Active; 'I' for Inactive)
REMARK    1  A    between atoms: C1_1  and  C8_8 
REMARK    2  A    between atoms: C1_1  and  C9_9 
REMARK    3  A    between atoms: C9_9  and  C10_10 
ROOT
HETATM    1  C4  UNL     1     -36.256  13.726  -4.733  1.00 20.00     0.018 C 
HETATM    2  C9  UNL     1     -35.248  14.881  -4.676  1.00 20.00     0.059 C 
ENDROOT
BRANCH   2   3
HETATM    3  C1  UNL     1     -35.619  15.772  -3.483  1.00 20.00     0.134 C 
HETATM    4  O11 UNL     1     -36.699  16.364  -3.434  1.00 20.00    -0.297 OA
BRANCH   3   5
HETATM    5  C8  UNL     1     -34.606  15.860  -2.342  1.00 20.00     0.048 C 
HETATM    6  C2  UNL     1     -35.143  16.784  -1.255  1.00 20.00     0.017 C 
HETATM    7  C3  UNL     1     -33.251  16.345  -2.849  1.00 20.00     0.017 C 
ENDBRANCH   3   5
ENDBRANCH   2   3
BRANCH   2   8
HETATM    8  C10 UNL     1     -35.086  15.682  -6.010  1.00 20.00    -0.041 C 
HETATM    9  C5  UNL     1     -36.392  15.601  -6.830  1.00 20.00     0.015 C 
HETATM   10  C6  UNL     1     -33.964  15.061  -6.870  1.00 20.00     0.015 C 
HETATM   11  C7  UNL     1     -34.757  17.169  -5.785  1.00 20.00     0.015 C 
ENDBRANCH   2   8
TORSDOF 3
ENDMDL
MODEL 5
REMARK VINA RESULT:      -3.8      1.944      3.977
REMARK  3 active torsions:
REMARK  status: ('A' for Active; 'I' for Inactive)
REMARK    1  A    between atoms: C1_1  and  C8_8 
REMARK    2  A    between atoms: C1_1  and  C9_9 
REMARK    3  A    between atoms: C9_9  and  C10_10 
ROOT
HETATM    1  C4  UNL     1     -36.982  16.716  -4.048  1.00 20.00     0.018 C 
HETATM    2  C9  UNL     1     -35.592  16.375  -4.598  1.00 20.00     0.059 C 
ENDROOT
BRANCH   2   3
HETATM    3  C1  UNL     1     -35.780  15.611  -5.915  1.00 20.00     0.134 C 
HETATM    4  O11 UNL     1     -36.608  14.704  -6.020  1.00 20.00    -0.297 OA
BRANCH   3   5
HETATM    5  C8  UNL     1     -34.923  16.052  -7.102  1.00 20.00     0.048 C 
HETATM    6  C2  UNL     1     -33.762  15.081  -7.281  1.00 20.00     0.017 C 
HETATM    7  C3  UNL     1     -34.415  17.479  -6.909  1.00 20.00     0.017 C 
ENDBRANCH   3   5
ENDBRANCH   2   3
BRANCH   2   8
HETATM    8  C10 UNL     1     -34.647  15.638  -3.593  1.00 20.00    -0.041 C 
HETATM    9  C5  UNL     1     -35.107  15.912  -2.145  1.00 20.00     0.015 C 
HETATM   10  C6  UNL     1     -33.205  16.174  -3.728  1.00 20.00     0.015 C 
HETATM   11  C7  UNL     1     -34.617  14.112  -3.802  1.00 20.00     0.015 C 
ENDBRANCH   2   8
TORSDOF 3
ENDMDL
MODEL 6
REMARK VINA RESULT:      -3.8      0.741      2.049
REMARK  3 active torsions:
REMARK  status: ('A' for Active; 'I' for Inactive)
REMARK    1  A    between atoms: C1_1  and  C8_8 
REMARK    2  A    between atoms: C1_1  and  C9_9 
REMARK    3  A    between atoms: C9_9  and  C10_10 
ROOT
HETATM    1  C4  UNL     1     -36.215  17.076  -5.076  1.00 20.00     0.018 C 
HETATM    2  C9  UNL     1     -35.403  16.140  -4.172  1.00 20.00     0.059 C 
ENDROOT
BRANCH   2   3
HETATM    3  C1  UNL     1     -34.214  16.936  -3.616  1.00 20.00     0.134 C 
HETATM    4  O11 UNL     1     -33.602  17.748  -4.312  1.00 20.00    -0.297 OA
BRANCH   3   5
HETATM    5  C8  UNL     1     -33.849  16.704  -2.150  1.00 20.00     0.048 C 
HETATM    6  C2  UNL     1     -35.117  16.695  -1.305  1.00 20.00     0.017 C 
HETATM    7  C3  UNL     1     -32.871  17.766  -1.655  1.00 20.00     0.017 C 
ENDBRANCH   3   5
ENDBRANCH   2   3
BRANCH   2   8
HETATM    8  C10 UNL     1     -34.978  14.788  -4.834  1.00 20.00    -0.041 C 
HETATM    9  C5  UNL     1     -34.986  14.934  -6.371  1.00 20.00     0.015 C 
HETATM   10  C6  UNL     1     -35.988  13.678  -4.471  1.00 20.00     0.015 C 
HETATM   11  C7  UNL     1     -33.574  14.323  -4.407  1.00 20.00     0.015 C 
ENDBRANCH   2   8
TORSDOF 3
ENDMDL
MODEL 7
REMARK VINA RESULT:      -3.7      1.299      3.834
REMARK  3 active torsions:
REMARK  status: ('A' for Active; 'I' for Inactive)
REMARK    1  A    between atoms: C1_1  and  C8_8 
REMARK    2  A    between atoms: C1_1  and  C9_9 
REMARK    3  A    between atoms: C9_9  and  C10_10 
ROOT
HETATM    1  C4  UNL     1     -34.745  18.297  -4.992  1.00 20.00     0.018 C 
HETATM    2  C9  UNL     1     -34.723  16.779  -4.781  1.00 20.00     0.059 C 
ENDROOT
BRANCH   2   3
HETATM    3  C1  UNL     1     -36.177  16.287  -4.747  1.00 20.00     0.134 C 
HETATM    4  O11 UNL     1     -37.052  16.907  -4.141  1.00 20.00    -0.297 OA
BRANCH   3   5
HETATM    5  C8  UNL     1     -36.497  15.014  -5.532  1.00 20.00     0.048 C 
HETATM    6  C2  UNL     1     -36.498  13.820  -4.586  1.00 20.00     0.017 C 
HETATM    7  C3  UNL     1     -35.501  14.809  -6.670  1.00 20.00     0.017 C 
ENDBRANCH   3   5
ENDBRANCH   2   3
BRANCH   2   8
HETATM    8  C10 UNL     1     -33.886  16.294  -3.553  1.00 20.00    -0.041 C 
HETATM    9  C5  UNL     1     -32.933  17.419  -3.093  1.00 20.00     0.015 C 
HETATM   10  C6  UNL     1     -33.012  15.084  -3.948  1.00 20.00     0.015 C 
HETATM   11  C7  UNL     1     -34.757  15.888  -2.350  1.00 20.00     0.015 C 
ENDBRANCH   2   8
TORSDOF 3
ENDMDL
MODEL 8
REMARK VINA RESULT:      -3.7      1.800      2.930
REMARK  3 active torsions:
REMARK  status: ('A' for Active; 'I' for Inactive)
REMARK    1  A    between atoms: C1_1  and  C8_8 
REMARK    2  A    between atoms: C1_1  and  C9_9 
REMARK    3  A    between atoms: C9_9  and  C10_10 
ROOT
HETATM    1  C4  UNL     1     -37.018  16.200  -4.873  1.00 20.00     0.018 C 
HETATM    2  C9  UNL     1     -35.963  15.206  -5.376  1.00 20.00     0.059 C 
ENDROOT
BRANCH   2   3
HETATM    3  C1  UNL     1     -35.042  14.860  -4.197  1.00 20.00     0.134 C 
HETATM    4  O11 UNL     1     -34.720  13.696  -3.954  1.00 20.00    -0.297 OA
BRANCH   3   5
HETATM    5  C8  UNL     1     -34.511  16.028  -3.366  1.00 20.00     0.048 C 
HETATM    6  C2  UNL     1     -32.988  15.985  -3.343  1.00 20.00     0.017 C 
HETATM    7  C3  UNL     1     -35.080  15.994  -1.950  1.00 20.00     0.017 C 
ENDBRANCH   3   5
ENDBRANCH   2   3
BRANCH   2   8
HETATM    8  C10 UNL     1     -35.179  15.663  -6.650  1.00 20.00    -0.041 C 
HETATM    9  C5  UNL     1     -34.936  17.187  -6.595  1.00 20.00     0.015 C 
HETATM   10  C6  UNL     1     -36.012  15.375  -7.918  1.00 20.00     0.015 C 
HETATM   11  C7  UNL     1     -33.813  14.968  -6.800  1.00 20.00     0.015 C 
ENDBRANCH   2   8
TORSDOF 3
ENDMDL
MODEL 9
REMARK VINA RESULT:      -3.6      1.954      3.955
REMARK  3 active torsions:
REMARK  status: ('A' for Active; 'I' for Inactive)
REMARK    1  A    between atoms: C1_1  and  C8_8 
REMARK    2  A    between atoms: C1_1  and  C9_9 
REMARK    3  A    between atoms: C9_9  and  C10_10 
ROOT
HETATM    1  C4  UNL     1     -35.480  17.741  -4.652  1.00 20.00     0.018 C 
HETATM    2  C9  UNL     1     -35.150  16.266  -4.912  1.00 20.00     0.059 C 
ENDROOT
BRANCH   2   3
HETATM    3  C1  UNL     1     -36.401  15.600  -5.502  1.00 20.00     0.134 C 
HETATM    4  O11 UNL     1     -36.321  14.774  -6.413  1.00 20.00    -0.297 OA
BRANCH   3   5
HETATM    5  C8  UNL     1     -37.746  15.977  -4.880  1.00 20.00     0.048 C 
HETATM    6  C2  UNL     1     -38.368  14.747  -4.230  1.00 20.00     0.017 C 
HETATM    7  C3  UNL     1     -38.683  16.575  -5.925  1.00 20.00     0.017 C 
ENDBRANCH   3   5
ENDBRANCH   2   3
BRANCH   2   8
HETATM    8  C10 UNL     1     -34.568  15.493  -3.683  1.00 20.00    -0.041 C 
HETATM    9  C5  UNL     1     -33.050  15.751  -3.574  1.00 20.00     0.015 C 
HETATM   10  C6  UNL     1     -34.764  13.973  -3.871  1.00 20.00     0.015 C 
HETATM   11  C7  UNL     1     -35.218  15.903  -2.349  1.00 20.00     0.015 C 
ENDBRANCH   2   8
TORSDOF 3
ENDMDL
