MODEL 1
REMARK VINA RESULT:      -4.7      0.000      0.000
REMARK  3 active torsions:
REMARK  status: ('A' for Active; 'I' for Inactive)
REMARK    1  A    between atoms: C5_5  and  C9_9 
REMARK    2  A    between atoms: C6_6  and  C11_11 
REMARK    3  A    between atoms: C10_10  and  C11_11 
ROOT
HETATM    1  C1  UNL     1     -33.040  17.084  -2.790  1.00 20.00     0.005 C 
HETATM    2  C2  UNL     1     -35.260  16.462  -1.761  1.00 20.00     0.005 C 
HETATM    3  C3  UNL     1     -32.637  17.789  -1.496  1.00 20.00     0.006 C 
HETATM    4  C4  UNL     1     -34.858  17.168  -0.466  1.00 20.00     0.006 C 
HETATM    5  C5  UNL     1     -34.037  15.947  -2.529  1.00 20.00    -0.015 C 
HETATM    6  C6  UNL     1     -33.862  18.303  -0.727  1.00 20.00     0.004 C 
ENDROOT
BRANCH   6   7
HETATM    7  C11 UNL     1     -33.437  18.961   0.585  1.00 20.00     0.086 C 
HETATM    8 CL12 UNL     1     -31.655  19.016   0.605  1.00 20.00    -0.125 Cl
BRANCH   7   9
HETATM    9  C10 UNL     1     -33.996  18.193   1.776  1.00 20.00     0.016 C 
HETATM   10  C8  UNL     1     -32.924  17.832   2.795  1.00 20.00     0.006 C 
ENDBRANCH   7   9
ENDBRANCH   6   7
BRANCH   5  11
HETATM   11  C9  UNL     1     -34.462  15.292  -3.842  1.00 20.00     0.000 C 
HETATM   12  C7  UNL     1     -33.338  14.535  -4.470  1.00 20.00     0.005 C 
ENDBRANCH   5  11
TORSDOF 3
ENDMDL
MODEL 2
REMARK VINA RESULT:      -4.6      2.268      5.225
REMARK  3 active torsions:
REMARK  status: ('A' for Active; 'I' for Inactive)
REMARK    1  A    between atoms: C5_5  and  C9_9 
REMARK    2  A    between atoms: C6_6  and  C11_11 
REMARK    3  A    between atoms: C10_10  and  C11_11 
ROOT
HETATM    1  C1  UNL     1     -32.796  17.773  -1.492  1.00 20.00     0.005 C 
HETATM    2  C2  UNL     1     -35.054  16.971  -0.694  1.00 20.00     0.005 C 
HETATM    3  C3  UNL     1     -33.033  17.099  -2.842  1.00 20.00     0.006 C 
HETATM    4  C4  UNL     1     -35.291  16.297  -2.045  1.00 20.00     0.006 C 
HETATM    5  C5  UNL     1     -34.115  18.177  -0.820  1.00 20.00    -0.015 C 
HETATM    6  C6  UNL     1     -33.973  15.893  -2.716  1.00 20.00     0.004 C 
ENDROOT
BRANCH   6   7
HETATM    7  C11 UNL     1     -34.233  15.268  -4.085  1.00 20.00     0.086 C 
HETATM    8 CL12 UNL     1     -35.314  16.367  -4.981  1.00 20.00    -0.125 Cl
BRANCH   7   9
HETATM    9  C10 UNL     1     -34.835  13.876  -3.934  1.00 20.00     0.016 C 
HETATM   10  C8  UNL     1     -36.202  13.755  -4.594  1.00 20.00     0.006 C 
ENDBRANCH   7   9
ENDBRANCH   6   7
BRANCH   5  11
HETATM   11  C9  UNL     1     -33.853  18.801   0.550  1.00 20.00     0.000 C 
HETATM   12  C7  UNL     1     -32.466  18.519   1.028  1.00 20.00     0.005 C 
ENDBRANCH   5  11
TORSDOF 3
ENDMDL
MODEL 3
REMARK VINA RESULT:      -4.6      2.642      5.643
REMARK  3 active torsions:
REMARK  status: ('A' for Active; 'I' for Inactive)
REMARK    1  A    between atoms: C5_5  and  C9_9 
REMARK    2  A    between atoms: C6_6  and  C11_11 
REMARK    3  A    between atoms: C10_10  and  C11_11 
ROOT
HETATM    1  C1  UNL     1     -32.795  17.213  -2.087  1.00 20.00     0.005 C 
HETATM    2  C2  UNL     1     -35.092  16.809  -1.117  1.00 20.00     0.005 C 
HETATM    3  C3  UNL     1     -33.246  16.599  -3.411  1.00 20.00     0.006 C 
HETATM    4  C4  UNL     1     -35.543  16.196  -2.442  1.00 20.00     0.006 C 
HETATM    5  C5  UNL     1     -33.970  17.835  -1.321  1.00 20.00    -0.015 C 
HETATM    6  C6  UNL     1     -34.369  15.574  -3.207  1.00 20.00     0.004 C 
ENDROOT
BRANCH   6   7
HETATM    7  C11 UNL     1     -34.835  15.011  -4.549  1.00 20.00     0.086 C 
HETATM    8 CL12 UNL     1     -35.676  13.474  -4.223  1.00 20.00    -0.125 Cl
BRANCH   7   9
HETATM    9  C10 UNL     1     -33.654  14.826  -5.493  1.00 20.00     0.016 C 
HETATM   10  C8  UNL     1     -34.012  15.125  -6.942  1.00 20.00     0.006 C 
ENDBRANCH   7   9
ENDBRANCH   6   7
BRANCH   5  11
HETATM   11  C9  UNL     1     -33.502  18.395   0.021  1.00 20.00     0.000 C 
HETATM   12  C7  UNL     1     -34.365  17.924   1.146  1.00 20.00     0.005 C 
ENDBRANCH   5  11
TORSDOF 3
ENDMDL
MODEL 4
REMARK VINA RESULT:      -4.5      2.773      5.512
REMARK  3 active torsions:
REMARK  status: ('A' for Active; 'I' for Inactive)
REMARK    1  A    between atoms: C5_5  and  C9_9 
REMARK    2  A    between atoms: C6_6  and  C11_11 
REMARK    3  A    between atoms: C10_10  and  C11_11 
ROOT
HETATM    1  C1  UNL     1     -32.815  16.873  -2.517  1.00 20.00     0.005 C 
HETATM    2  C2  UNL     1     -35.050  16.582  -1.378  1.00 20.00     0.005 C 
HETATM    3  C3  UNL     1     -33.348  16.144  -3.749  1.00 20.00     0.006 C 
HETATM    4  C4  UNL     1     -35.583  15.854  -2.611  1.00 20.00     0.006 C 
HETATM    5  C5  UNL     1     -33.939  17.575  -1.743  1.00 20.00    -0.015 C 
HETATM    6  C6  UNL     1     -34.460  15.152  -3.384  1.00 20.00     0.004 C 
ENDROOT
BRANCH   6   7
HETATM    7  C11 UNL     1     -35.009  14.473  -4.637  1.00 20.00     0.086 C 
HETATM    8 CL12 UNL     1     -33.923  14.883  -5.989  1.00 20.00    -0.125 Cl
BRANCH   7   9
HETATM    9  C10 UNL     1     -36.443  14.915  -4.903  1.00 20.00     0.016 C 
HETATM   10  C8  UNL     1     -36.572  15.745  -6.173  1.00 20.00     0.006 C 
ENDBRANCH   7   9
ENDBRANCH   6   7
BRANCH   5  11
HETATM   11  C9  UNL     1     -33.388  18.252  -0.489  1.00 20.00     0.000 C 
HETATM   12  C7  UNL     1     -31.900  18.372  -0.536  1.00 20.00     0.005 C 
ENDBRANCH   5  11
TORSDOF 3
ENDMDL
MODEL 5
REMARK VINA RESULT:      -4.4      2.796      5.584
REMARK  3 active torsions:
REMARK  status: ('A' for Active; 'I' for Inactive)
REMARK    1  A    between atoms: C5_5  and  C9_9 
REMARK    2  A    between atoms: C6_6  and  C11_11 
REMARK    3  A    between atoms: C10_10  and  C11_11 
ROOT
HETATM    1  C1  UNL     1     -34.361  17.497  -1.183  1.00 20.00     0.005 C 
HETATM    2  C2  UNL     1     -32.866  17.427  -3.217  1.00 20.00     0.005 C 
HETATM    3  C3  UNL     1     -35.138  16.292  -1.713  1.00 20.00     0.006 C 
HETATM    4  C4  UNL     1     -33.642  16.223  -3.747  1.00 20.00     0.006 C 
HETATM    5  C5  UNL     1     -32.912  17.502  -1.686  1.00 20.00    -0.015 C 
HETATM    6  C6  UNL     1     -35.091  16.218  -3.245  1.00 20.00     0.004 C 
ENDROOT
BRANCH   6   7
HETATM    7  C11 UNL     1     -35.833  14.980  -3.747  1.00 20.00     0.086 C 
HETATM    8 CL12 UNL     1     -34.647  13.655  -3.863  1.00 20.00    -0.125 Cl
BRANCH   7   9
HETATM    9  C10 UNL     1     -36.504  15.263  -5.085  1.00 20.00     0.016 C 
HETATM   10  C8  UNL     1     -35.785  14.599  -6.251  1.00 20.00     0.006 C 
ENDBRANCH   7   9
ENDBRANCH   6   7
BRANCH   5  11
HETATM   11  C9  UNL     1     -32.172  18.741  -1.184  1.00 20.00     0.000 C 
HETATM   12  C7  UNL     1     -31.093  18.384  -0.214  1.00 20.00     0.005 C 
ENDBRANCH   5  11
TORSDOF 3
ENDMDL
MODEL 6
REMARK VINA RESULT:      -4.4      1.000      1.988
REMARK  3 active torsions:
REMARK  status: ('A' for Active; 'I' for Inactive)
REMARK    1  A    between atoms: C5_5  and  C9_9 
REMARK    2  A    between atoms: C6_6  and  C11_11 
REMARK    3  A    between atoms: C10_10  and  C11_11 
ROOT
HETATM    1  C1  UNL     1     -35.206  15.659  -2.258  1.00 20.00     0.005 C 
HETATM    2  C2  UNL     1     -32.998  16.082  -3.407  1.00 20.00     0.005 C 
HETATM    3  C3  UNL     1     -35.074  16.988  -1.514  1.00 20.00     0.006 C 
HETATM    4  C4  UNL     1     -32.865  17.411  -2.664  1.00 20.00     0.006 C 
HETATM    5  C5  UNL     1     -34.467  15.686  -3.602  1.00 20.00    -0.015 C 
HETATM    6  C6  UNL     1     -33.604  17.384  -1.321  1.00 20.00     0.004 C 
ENDROOT
BRANCH   6   7
HETATM    7  C11 UNL     1     -33.499  18.737  -0.619  1.00 20.00     0.086 C 
HETATM    8 CL12 UNL     1     -31.783  18.999  -0.214  1.00 20.00    -0.125 Cl
BRANCH   7   9
HETATM    9  C10 UNL     1     -34.389  18.771   0.617  1.00 20.00     0.016 C 
HETATM   10  C8  UNL     1     -33.730  18.127   1.829  1.00 20.00     0.006 C 
ENDBRANCH   7   9
ENDBRANCH   6   7
BRANCH   5  11
HETATM   11  C9  UNL     1     -34.571  14.331  -4.301  1.00 20.00     0.000 C 
HETATM   12  C7  UNL     1     -35.979  13.833  -4.330  1.00 20.00     0.005 C 
ENDBRANCH   5  11
TORSDOF 3
ENDMDL
MODEL 7
REMARK VINA RESULT:      -4.4      2.551      5.584
REMARK  3 active torsions:
REMARK  status: ('A' for Active; 'I' for Inactive)
REMARK    1  A    between atoms: C5_5  and  C9_9 
REMARK    2  A    between atoms: C6_6  and  C11_11 
REMARK    3  A    between atoms: C10_10  and  C11_11 
ROOT
HETATM    1  C1  UNL     1     -35.151  17.027  -1.284  1.00 20.00     0.005 C 
HETATM    2  C2  UNL     1     -32.907  17.841  -2.107  1.00 20.00     0.005 C 
HETATM    3  C3  UNL     1     -35.044  15.807  -2.199  1.00 20.00     0.006 C 
HETATM    4  C4  UNL     1     -32.800  16.622  -3.021  1.00 20.00     0.006 C 
HETATM    5  C5  UNL     1     -33.769  17.549  -0.872  1.00 20.00    -0.015 C 
HETATM    6  C6  UNL     1     -34.181  16.100  -3.433  1.00 20.00     0.004 C 
ENDROOT
BRANCH   6   7
HETATM    7  C11 UNL     1     -34.050  14.853  -4.306  1.00 20.00     0.086 C 
HETATM    8 CL12 UNL     1     -34.233  15.365  -6.004  1.00 20.00    -0.125 Cl
BRANCH   7   9
HETATM    9  C10 UNL     1     -35.086  13.809  -3.911  1.00 20.00     0.016 C 
HETATM   10  C8  UNL     1     -36.260  13.756  -4.879  1.00 20.00     0.006 C 
ENDBRANCH   7   9
ENDBRANCH   6   7
BRANCH   5  11
HETATM   11  C9  UNL     1     -33.902  18.797  -0.001  1.00 20.00     0.000 C 
HETATM   12  C7  UNL     1     -32.872  18.827   1.080  1.00 20.00     0.005 C 
ENDBRANCH   5  11
TORSDOF 3
ENDMDL
MODEL 8
REMARK VINA RESULT:      -4.4      0.505      1.536
REMARK  3 active torsions:
REMARK  status: ('A' for Active; 'I' for Inactive)
REMARK    1  A    between atoms: C5_5  and  C9_9 
REMARK    2  A    between atoms: C6_6  and  C11_11 
REMARK    3  A    between atoms: C10_10  and  C11_11 
ROOT
HETATM    1  C1  UNL     1     -35.168  16.287  -1.545  1.00 20.00     0.005 C 
HETATM    2  C2  UNL     1     -32.978  16.613  -2.761  1.00 20.00     0.005 C 
HETATM    3  C3  UNL     1     -34.879  17.522  -0.694  1.00 20.00     0.006 C 
HETATM    4  C4  UNL     1     -32.690  17.848  -1.910  1.00 20.00     0.006 C 
HETATM    5  C5  UNL     1     -34.485  16.371  -2.917  1.00 20.00    -0.015 C 
HETATM    6  C6  UNL     1     -33.372  17.763  -0.539  1.00 20.00     0.004 C 
ENDROOT
BRANCH   6   7
HETATM    7  C11 UNL     1     -33.109  19.030   0.274  1.00 20.00     0.086 C 
HETATM    8 CL12 UNL     1     -31.344  19.263   0.349  1.00 20.00    -0.125 Cl
BRANCH   7   9
HETATM    9  C10 UNL     1     -33.728  18.914   1.661  1.00 20.00     0.016 C 
HETATM   10  C8  UNL     1     -32.952  17.973   2.571  1.00 20.00     0.006 C 
ENDBRANCH   7   9
ENDBRANCH   6   7
BRANCH   5  11
HETATM   11  C9  UNL     1     -34.747  15.103  -3.728  1.00 20.00     0.000 C 
HETATM   12  C7  UNL     1     -33.480  14.525  -4.271  1.00 20.00     0.005 C 
ENDBRANCH   5  11
TORSDOF 3
ENDMDL
MODEL 9
REMARK VINA RESULT:      -4.2      1.932      5.425
REMARK  3 active torsions:
REMARK  status: ('A' for Active; 'I' for Inactive)
REMARK    1  A    between atoms: C5_5  and  C9_9 
REMARK    2  A    between atoms: C6_6  and  C11_11 
REMARK    3  A    between atoms: C10_10  and  C11_11 
ROOT
HETATM    1  C1  UNL     1     -33.471  18.500   1.571  1.00 20.00     0.005 C 
HETATM    2  C2  UNL     1     -31.328  18.840   0.278  1.00 20.00     0.005 C 
HETATM    3  C3  UNL     1     -34.098  17.823   0.353  1.00 20.00     0.006 C 
HETATM    4  C4  UNL     1     -31.955  18.162  -0.939  1.00 20.00     0.006 C 
HETATM    5  C5  UNL     1     -31.946  18.335   1.588  1.00 20.00    -0.015 C 
HETATM    6  C6  UNL     1     -33.480  18.327  -0.957  1.00 20.00     0.004 C 
ENDROOT
BRANCH   6   7
HETATM    7  C11 UNL     1     -34.088  17.601  -2.155  1.00 20.00     0.086 C 
HETATM    8 CL12 UNL     1     -35.200  16.360  -1.521  1.00 20.00    -0.125 Cl
BRANCH   7   9
HETATM    9  C10 UNL     1     -32.996  16.995  -3.027  1.00 20.00     0.016 C 
HETATM   10  C8  UNL     1     -33.370  15.619  -3.562  1.00 20.00     0.006 C 
ENDBRANCH   7   9
ENDBRANCH   6   7
BRANCH   5  11
HETATM   11  C9  UNL     1     -31.338  19.064   2.786  1.00 20.00     0.000 C 
HETATM   12  C7  UNL     1     -31.932  18.596   4.074  1.00 20.00     0.005 C 
ENDBRANCH   5  11
TORSDOF 3
ENDMDL
