MODEL 1
REMARK VINA RESULT:      -5.2      0.000      0.000
REMARK  3 active torsions:
REMARK  status: ('A' for Active; 'I' for Inactive)
REMARK    1  A    between atoms: C1_1  and  C7_7 
REMARK    2  A    between atoms: C1_1  and  C12_12 
REMARK    3  A    between atoms: C8_8  and  C13_13 
ROOT
HETATM    1  C2  UNL     1     -32.946  15.626  -3.486  1.00 20.00     0.001 C 
HETATM    2  C3  UNL     1     -33.983  14.649  -4.034  1.00 20.00     0.012 C 
HETATM    3  C4  UNL     1     -36.302  15.593  -3.609  1.00 20.00     0.012 C 
HETATM    4  C5  UNL     1     -33.465  16.868  -2.765  1.00 20.00     0.005 C 
HETATM    5  C6  UNL     1     -36.006  16.753  -2.661  1.00 20.00     0.006 C 
HETATM    6  C7  UNL     1     -35.216  15.310  -4.649  1.00 20.00     0.055 C 
HETATM    7  C8  UNL     1     -34.692  16.646  -1.868  1.00 20.00    -0.011 C 
ENDROOT
BRANCH   6   8
HETATM    8  C1  UNL     1     -35.783  14.376  -5.679  1.00 20.00     0.130 C 
HETATM    9  O14 UNL     1     -36.289  13.304  -5.354  1.00 20.00    -0.298 OA
BRANCH   8  10
HETATM   10  C12 UNL     1     -35.691  14.838  -7.123  1.00 20.00     0.074 C 
HETATM   11  C9  UNL     1     -34.323  15.398  -7.471  1.00 20.00     0.013 C 
ENDBRANCH   8  10
ENDBRANCH   6   8
BRANCH   7  12
HETATM   12  C13 UNL     1     -34.702  17.706  -0.756  1.00 20.00    -0.019 C 
HETATM   13  C10 UNL     1     -35.399  17.163   0.487  1.00 20.00     0.010 C 
HETATM   14  C11 UNL     1     -33.280  18.146  -0.432  1.00 20.00     0.010 C 
ENDBRANCH   7  12
TORSDOF 3
ENDMDL
MODEL 2
REMARK VINA RESULT:      -5.1      1.692      2.627
REMARK  3 active torsions:
REMARK  status: ('A' for Active; 'I' for Inactive)
REMARK    1  A    between atoms: C1_1  and  C7_7 
REMARK    2  A    between atoms: C1_1  and  C12_12 
REMARK    3  A    between atoms: C8_8  and  C13_13 
ROOT
HETATM    1  C2  UNL     1     -33.513  14.706  -4.070  1.00 20.00     0.001 C 
HETATM    2  C3  UNL     1     -34.963  14.308  -3.812  1.00 20.00     0.012 C 
HETATM    3  C4  UNL     1     -36.205  16.307  -2.856  1.00 20.00     0.012 C 
HETATM    4  C5  UNL     1     -33.089  16.116  -3.661  1.00 20.00     0.005 C 
HETATM    5  C6  UNL     1     -35.063  17.272  -2.544  1.00 20.00     0.006 C 
HETATM    6  C7  UNL     1     -35.984  15.414  -4.079  1.00 20.00     0.055 C 
HETATM    7  C8  UNL     1     -33.682  16.626  -2.338  1.00 20.00    -0.011 C 
ENDROOT
BRANCH   6   8
HETATM    8  C1  UNL     1     -37.293  14.769  -4.433  1.00 20.00     0.130 C 
HETATM    9  O14 UNL     1     -37.403  13.545  -4.485  1.00 20.00    -0.298 OA
BRANCH   8  10
HETATM   10  C12 UNL     1     -38.448  15.712  -4.716  1.00 20.00     0.074 C 
HETATM   11  C9  UNL     1     -39.693  15.367  -3.918  1.00 20.00     0.013 C 
ENDBRANCH   8  10
ENDBRANCH   6   8
BRANCH   7  12
HETATM   12  C13 UNL     1     -32.735  17.672  -1.732  1.00 20.00    -0.019 C 
HETATM   13  C10 UNL     1     -32.480  18.796  -2.730  1.00 20.00     0.010 C 
HETATM   14  C11 UNL     1     -33.315  18.220  -0.433  1.00 20.00     0.010 C 
ENDBRANCH   7  12
TORSDOF 3
ENDMDL
MODEL 3
REMARK VINA RESULT:      -5.1      2.512      5.691
REMARK  3 active torsions:
REMARK  status: ('A' for Active; 'I' for Inactive)
REMARK    1  A    between atoms: C1_1  and  C7_7 
REMARK    2  A    between atoms: C1_1  and  C12_12 
REMARK    3  A    between atoms: C8_8  and  C13_13 
ROOT
HETATM    1  C2  UNL     1     -35.881  17.111  -1.596  1.00 20.00     0.001 C 
HETATM    2  C3  UNL     1     -34.463  17.333  -1.080  1.00 20.00     0.012 C 
HETATM    3  C4  UNL     1     -32.814  16.587  -2.862  1.00 20.00     0.012 C 
HETATM    4  C5  UNL     1     -36.034  16.453  -2.967  1.00 20.00     0.005 C 
HETATM    5  C6  UNL     1     -33.721  15.855  -3.849  1.00 20.00     0.006 C 
HETATM    6  C7  UNL     1     -33.459  17.775  -2.145  1.00 20.00     0.055 C 
HETATM    7  C8  UNL     1     -35.042  15.319  -3.269  1.00 20.00    -0.011 C 
ENDROOT
BRANCH   6   8
HETATM    8  C1  UNL     1     -32.374  18.562  -1.469  1.00 20.00     0.130 C 
HETATM    9  O14 UNL     1     -31.600  19.263  -2.120  1.00 20.00    -0.298 OA
BRANCH   8  10
HETATM   10  C12 UNL     1     -32.298  18.436   0.042  1.00 20.00     0.074 C 
HETATM   11  C9  UNL     1     -30.875  18.269   0.543  1.00 20.00     0.013 C 
ENDBRANCH   8  10
ENDBRANCH   6   8
BRANCH   7  12
HETATM   12  C13 UNL     1     -35.671  14.357  -4.287  1.00 20.00    -0.019 C 
HETATM   13  C10 UNL     1     -37.192  14.395  -4.182  1.00 20.00     0.010 C 
HETATM   14  C11 UNL     1     -35.216  14.709  -5.699  1.00 20.00     0.010 C 
ENDBRANCH   7  12
TORSDOF 3
ENDMDL
MODEL 4
REMARK VINA RESULT:      -5.1      1.238      2.510
REMARK  3 active torsions:
REMARK  status: ('A' for Active; 'I' for Inactive)
REMARK    1  A    between atoms: C1_1  and  C7_7 
REMARK    2  A    between atoms: C1_1  and  C12_12 
REMARK    3  A    between atoms: C8_8  and  C13_13 
ROOT
HETATM    1  C2  UNL     1     -35.996  16.959  -1.639  1.00 20.00     0.001 C 
HETATM    2  C3  UNL     1     -35.765  16.259  -2.974  1.00 20.00     0.012 C 
HETATM    3  C4  UNL     1     -33.265  16.030  -3.358  1.00 20.00     0.012 C 
HETATM    4  C5  UNL     1     -34.763  17.429  -0.870  1.00 20.00     0.005 C 
HETATM    5  C6  UNL     1     -32.691  16.923  -2.260  1.00 20.00     0.006 C 
HETATM    6  C7  UNL     1     -34.567  15.311  -2.997  1.00 20.00     0.055 C 
HETATM    7  C8  UNL     1     -33.634  18.017  -1.730  1.00 20.00    -0.011 C 
ENDROOT
BRANCH   6   8
HETATM    8  C1  UNL     1     -34.823  14.254  -4.032  1.00 20.00     0.130 C 
HETATM    9  O14 UNL     1     -34.145  13.230  -4.074  1.00 20.00    -0.298 OA
BRANCH   8  10
HETATM   10  C12 UNL     1     -35.954  14.533  -5.006  1.00 20.00     0.074 C 
HETATM   11  C9  UNL     1     -35.473  14.661  -6.440  1.00 20.00     0.013 C 
ENDBRANCH   8  10
ENDBRANCH   6   8
BRANCH   7  12
HETATM   12  C13 UNL     1     -32.815  19.002  -0.882  1.00 20.00    -0.019 C 
HETATM   13  C10 UNL     1     -33.513  19.262   0.448  1.00 20.00     0.010 C 
HETATM   14  C11 UNL     1     -31.406  18.466  -0.661  1.00 20.00     0.010 C 
ENDBRANCH   7  12
TORSDOF 3
ENDMDL
MODEL 5
REMARK VINA RESULT:      -4.9      1.450      3.074
REMARK  3 active torsions:
REMARK  status: ('A' for Active; 'I' for Inactive)
REMARK    1  A    between atoms: C1_1  and  C7_7 
REMARK    2  A    between atoms: C1_1  and  C12_12 
REMARK    3  A    between atoms: C8_8  and  C13_13 
ROOT
HETATM    1  C2  UNL     1     -35.705  17.333  -0.447  1.00 20.00     0.001 C 
HETATM    2  C3  UNL     1     -35.697  16.902  -1.911  1.00 20.00     0.012 C 
HETATM    3  C4  UNL     1     -33.292  16.802  -2.723  1.00 20.00     0.012 C 
HETATM    4  C5  UNL     1     -34.359  17.674   0.191  1.00 20.00     0.005 C 
HETATM    5  C6  UNL     1     -32.541  17.483  -1.581  1.00 20.00     0.006 C 
HETATM    6  C7  UNL     1     -34.526  16.001  -2.303  1.00 20.00     0.055 C 
HETATM    7  C8  UNL     1     -33.376  18.438  -0.710  1.00 20.00    -0.011 C 
ENDROOT
BRANCH   6   8
HETATM    8  C1  UNL     1     -34.955  15.154  -3.466  1.00 20.00     0.130 C 
HETATM    9  O14 UNL     1     -36.144  14.925  -3.679  1.00 20.00    -0.298 OA
BRANCH   8  10
HETATM   10  C12 UNL     1     -33.842  14.609  -4.342  1.00 20.00     0.074 C 
HETATM   11  C9  UNL     1     -34.036  14.945  -5.810  1.00 20.00     0.013 C 
ENDBRANCH   8  10
ENDBRANCH   6   8
BRANCH   7  12
HETATM   12  C13 UNL     1     -32.423  19.262   0.169  1.00 20.00    -0.019 C 
HETATM   13  C10 UNL     1     -32.884  19.232   1.622  1.00 20.00     0.010 C 
HETATM   14  C11 UNL     1     -30.998  18.737   0.040  1.00 20.00     0.010 C 
ENDBRANCH   7  12
TORSDOF 3
ENDMDL
MODEL 6
REMARK VINA RESULT:      -4.9      1.798      2.635
REMARK  3 active torsions:
REMARK  status: ('A' for Active; 'I' for Inactive)
REMARK    1  A    between atoms: C1_1  and  C7_7 
REMARK    2  A    between atoms: C1_1  and  C12_12 
REMARK    3  A    between atoms: C8_8  and  C13_13 
ROOT
HETATM    1  C2  UNL     1     -32.531  18.172  -2.125  1.00 20.00     0.001 C 
HETATM    2  C3  UNL     1     -32.875  16.831  -2.768  1.00 20.00     0.012 C 
HETATM    3  C4  UNL     1     -35.136  16.063  -1.902  1.00 20.00     0.012 C 
HETATM    4  C5  UNL     1     -33.511  18.727  -1.092  1.00 20.00     0.005 C 
HETATM    5  C6  UNL     1     -35.386  17.038  -0.753  1.00 20.00     0.006 C 
HETATM    6  C7  UNL     1     -34.358  16.640  -3.087  1.00 20.00     0.055 C 
HETATM    7  C8  UNL     1     -34.130  17.688  -0.145  1.00 20.00    -0.011 C 
ENDROOT
BRANCH   6   8
HETATM    8  C1  UNL     1     -34.471  15.681  -4.235  1.00 20.00     0.130 C 
HETATM    9  O14 UNL     1     -34.336  16.062  -5.396  1.00 20.00    -0.298 OA
BRANCH   8  10
HETATM   10  C12 UNL     1     -34.758  14.235  -3.873  1.00 20.00     0.074 C 
HETATM   11  C9  UNL     1     -36.035  13.715  -4.510  1.00 20.00     0.013 C 
ENDBRANCH   8  10
ENDBRANCH   6   8
BRANCH   7  12
HETATM   12  C13 UNL     1     -34.521  18.375   1.171  1.00 20.00    -0.019 C 
HETATM   13  C10 UNL     1     -35.932  17.968   1.582  1.00 20.00     0.010 C 
HETATM   14  C11 UNL     1     -33.517  18.032   2.265  1.00 20.00     0.010 C 
ENDBRANCH   7  12
TORSDOF 3
ENDMDL
MODEL 7
REMARK VINA RESULT:      -4.8      2.745      5.453
REMARK  3 active torsions:
REMARK  status: ('A' for Active; 'I' for Inactive)
REMARK    1  A    between atoms: C1_1  and  C7_7 
REMARK    2  A    between atoms: C1_1  and  C12_12 
REMARK    3  A    between atoms: C8_8  and  C13_13 
ROOT
HETATM    1  C2  UNL     1     -33.089  15.548  -3.794  1.00 20.00     0.001 C 
HETATM    2  C3  UNL     1     -32.787  16.965  -3.316  1.00 20.00     0.012 C 
HETATM    3  C4  UNL     1     -34.724  17.778  -1.888  1.00 20.00     0.012 C 
HETATM    4  C5  UNL     1     -34.443  14.952  -3.414  1.00 20.00     0.005 C 
HETATM    5  C6  UNL     1     -35.782  16.708  -2.148  1.00 20.00     0.006 C 
HETATM    6  C7  UNL     1     -33.277  17.278  -1.903  1.00 20.00     0.055 C 
HETATM    7  C8  UNL     1     -35.630  15.926  -3.464  1.00 20.00    -0.011 C 
ENDROOT
BRANCH   6   8
HETATM    8  C1  UNL     1     -32.402  18.354  -1.329  1.00 20.00     0.130 C 
HETATM    9  O14 UNL     1     -31.806  19.143  -2.060  1.00 20.00    -0.298 OA
BRANCH   8  10
HETATM   10  C12 UNL     1     -32.304  18.400   0.185  1.00 20.00     0.074 C 
HETATM   11  C9  UNL     1     -30.870  18.355   0.680  1.00 20.00     0.013 C 
ENDBRANCH   8  10
ENDBRANCH   6   8
BRANCH   7  12
HETATM   12  C13 UNL     1     -36.921  15.133  -3.717  1.00 20.00    -0.019 C 
HETATM   13  C10 UNL     1     -37.962  16.019  -4.393  1.00 20.00     0.010 C 
HETATM   14  C11 UNL     1     -36.628  13.899  -4.560  1.00 20.00     0.010 C 
ENDBRANCH   7  12
TORSDOF 3
ENDMDL
MODEL 8
REMARK VINA RESULT:      -4.8      2.883      6.185
REMARK  3 active torsions:
REMARK  status: ('A' for Active; 'I' for Inactive)
REMARK    1  A    between atoms: C1_1  and  C7_7 
REMARK    2  A    between atoms: C1_1  and  C12_12 
REMARK    3  A    between atoms: C8_8  and  C13_13 
ROOT
HETATM    1  C2  UNL     1     -32.524  18.278  -1.706  1.00 20.00     0.001 C 
HETATM    2  C3  UNL     1     -33.528  18.840  -0.704  1.00 20.00     0.012 C 
HETATM    3  C4  UNL     1     -35.441  17.188  -0.447  1.00 20.00     0.012 C 
HETATM    4  C5  UNL     1     -32.871  16.952  -2.380  1.00 20.00     0.005 C 
HETATM    5  C6  UNL     1     -35.179  16.217  -1.596  1.00 20.00     0.006 C 
HETATM    6  C7  UNL     1     -34.187  17.791   0.192  1.00 20.00     0.055 C 
HETATM    7  C8  UNL     1     -34.348  16.775  -2.765  1.00 20.00    -0.011 C 
ENDROOT
BRANCH   6   8
HETATM    8  C1  UNL     1     -34.588  18.456   1.476  1.00 20.00     0.130 C 
HETATM    9  O14 UNL     1     -35.772  18.646   1.750  1.00 20.00    -0.298 OA
BRANCH   8  10
HETATM   10  C12 UNL     1     -33.454  18.871   2.397  1.00 20.00     0.074 C 
HETATM   11  C9  UNL     1     -32.687  17.683   2.950  1.00 20.00     0.013 C 
ENDBRANCH   8  10
ENDBRANCH   6   8
BRANCH   7  12
HETATM   12  C13 UNL     1     -34.447  15.800  -3.948  1.00 20.00    -0.019 C 
HETATM   13  C10 UNL     1     -33.151  15.011  -4.093  1.00 20.00     0.010 C 
HETATM   14  C11 UNL     1     -35.635  14.863  -3.763  1.00 20.00     0.010 C 
ENDBRANCH   7  12
TORSDOF 3
ENDMDL
MODEL 9
REMARK VINA RESULT:      -4.7      1.217      2.241
REMARK  3 active torsions:
REMARK  status: ('A' for Active; 'I' for Inactive)
REMARK    1  A    between atoms: C1_1  and  C7_7 
REMARK    2  A    between atoms: C1_1  and  C12_12 
REMARK    3  A    between atoms: C8_8  and  C13_13 
ROOT
HETATM    1  C2  UNL     1     -37.134  17.607  -2.622  1.00 20.00     0.001 C 
HETATM    2  C3  UNL     1     -36.879  16.699  -3.820  1.00 20.00     0.012 C 
HETATM    3  C4  UNL     1     -34.668  15.495  -3.481  1.00 20.00     0.012 C 
HETATM    4  C5  UNL     1     -36.049  17.676  -1.549  1.00 20.00     0.005 C 
HETATM    5  C6  UNL     1     -34.078  16.244  -2.288  1.00 20.00     0.006 C 
HETATM    6  C7  UNL     1     -36.194  15.375  -3.482  1.00 20.00     0.055 C 
HETATM    7  C8  UNL     1     -34.604  17.673  -2.071  1.00 20.00    -0.011 C 
ENDROOT
BRANCH   6   8
HETATM    8  C1  UNL     1     -36.586  14.365  -4.520  1.00 20.00     0.130 C 
HETATM    9  O14 UNL     1     -37.649  13.751  -4.440  1.00 20.00    -0.298 OA
BRANCH   8  10
HETATM   10  C12 UNL     1     -35.599  14.155  -5.655  1.00 20.00     0.074 C 
HETATM   11  C9  UNL     1     -35.931  14.989  -6.880  1.00 20.00     0.013 C 
ENDBRANCH   8  10
ENDBRANCH   6   8
BRANCH   7  12
HETATM   12  C13 UNL     1     -33.698  18.381  -1.053  1.00 20.00    -0.019 C 
HETATM   13  C10 UNL     1     -34.119  18.023   0.368  1.00 20.00     0.010 C 
HETATM   14  C11 UNL     1     -32.239  18.012  -1.296  1.00 20.00     0.010 C 
ENDBRANCH   7  12
TORSDOF 3
ENDMDL
