MODEL 1
REMARK VINA RESULT:      -4.4      0.000      0.000
REMARK  2 active torsions:
REMARK  status: ('A' for Active; 'I' for Inactive)
REMARK    1  A    between atoms: C4_4  and  C7_7 
REMARK    2  A    between atoms: C6_6  and  C7_7 
ROOT
HETATM    1  C1  UNL     1     -21.958  17.050   9.095  1.00 20.00     0.034 C 
HETATM    2  C2  UNL     1     -21.641  17.425   7.662  1.00 20.00     0.168 C 
HETATM    3  C3  UNL     1     -23.639  18.461   8.265  1.00 20.00     0.173 C 
HETATM    4  C4  UNL     1     -22.834  18.207   9.527  1.00 20.00     0.026 C 
HETATM    5  O8  UNL     1     -22.774  18.150   7.162  1.00 20.00    -0.391 OA
ENDROOT
BRANCH   4   6
HETATM    6  C7  UNL     1     -23.685  17.920  10.749  1.00 20.00     0.063 C 
HETATM    7 BR9  UNL     1     -22.496  17.807  12.306  1.00 20.00    -0.091 Br
BRANCH   6   8
HETATM    8  C6  UNL     1     -24.476  16.617  10.601  1.00 20.00     0.012 C 
HETATM    9  C5  UNL     1     -24.546  15.799  11.884  1.00 20.00     0.006 C 
ENDBRANCH   6   8
ENDBRANCH   4   6
TORSDOF 2
ENDMDL
MODEL 2
REMARK VINA RESULT:      -4.3     16.082     17.018
REMARK  2 active torsions:
REMARK  status: ('A' for Active; 'I' for Inactive)
REMARK    1  A    between atoms: C4_4  and  C7_7 
REMARK    2  A    between atoms: C6_6  and  C7_7 
ROOT
HETATM    1  C1  UNL     1     -34.720   4.996   4.609  1.00 20.00     0.034 C 
HETATM    2  C2  UNL     1     -34.907   5.392   6.059  1.00 20.00     0.168 C 
HETATM    3  C3  UNL     1     -33.465   6.926   5.061  1.00 20.00     0.173 C 
HETATM    4  C4  UNL     1     -34.339   6.318   3.978  1.00 20.00     0.026 C 
HETATM    5  O8  UNL     1     -33.999   6.473   6.315  1.00 20.00    -0.391 OA
ENDROOT
BRANCH   4   6
HETATM    6  C7  UNL     1     -33.647   6.189   2.635  1.00 20.00     0.063 C 
HETATM    7 BR9  UNL     1     -33.075   4.323   2.421  1.00 20.00    -0.091 Br
BRANCH   6   8
HETATM    8  C6  UNL     1     -32.437   7.121   2.523  1.00 20.00     0.012 C 
HETATM    9  C5  UNL     1     -32.509   8.073   1.336  1.00 20.00     0.006 C 
ENDBRANCH   6   8
ENDBRANCH   4   6
TORSDOF 2
ENDMDL
MODEL 3
REMARK VINA RESULT:      -4.2      1.596      1.752
REMARK  2 active torsions:
REMARK  status: ('A' for Active; 'I' for Inactive)
REMARK    1  A    between atoms: C4_4  and  C7_7 
REMARK    2  A    between atoms: C6_6  and  C7_7 
ROOT
HETATM    1  C1  UNL     1     -22.439  17.106   9.405  1.00 20.00     0.034 C 
HETATM    2  C2  UNL     1     -22.021  17.414   7.981  1.00 20.00     0.168 C 
HETATM    3  C3  UNL     1     -23.969  18.604   8.447  1.00 20.00     0.173 C 
HETATM    4  C4  UNL     1     -23.250  18.334   9.758  1.00 20.00     0.026 C 
HETATM    5  O8  UNL     1     -23.072  18.200   7.402  1.00 20.00    -0.391 OA
ENDROOT
BRANCH   4   6
HETATM    6  C7  UNL     1     -24.182  18.144  10.939  1.00 20.00     0.063 C 
HETATM    7 BR9  UNL     1     -24.423  16.217  11.222  1.00 20.00    -0.091 Br
BRANCH   6   8
HETATM    8  C6  UNL     1     -25.542  18.811  10.707  1.00 20.00     0.012 C 
HETATM    9  C5  UNL     1     -26.427  18.837  11.946  1.00 20.00     0.006 C 
ENDBRANCH   6   8
ENDBRANCH   4   6
TORSDOF 2
ENDMDL
MODEL 4
REMARK VINA RESULT:      -4.0     17.764     18.755
REMARK  2 active torsions:
REMARK  status: ('A' for Active; 'I' for Inactive)
REMARK    1  A    between atoms: C4_4  and  C7_7 
REMARK    2  A    between atoms: C6_6  and  C7_7 
ROOT
HETATM    1  C1  UNL     1     -37.164  15.930  -4.040  1.00 20.00     0.034 C 
HETATM    2  C2  UNL     1     -38.202  14.845  -4.239  1.00 20.00     0.168 C 
HETATM    3  C3  UNL     1     -36.090  13.865  -4.336  1.00 20.00     0.173 C 
HETATM    4  C4  UNL     1     -35.989  15.136  -3.511  1.00 20.00     0.026 C 
HETATM    5  O8  UNL     1     -37.489  13.645  -4.572  1.00 20.00    -0.391 OA
ENDROOT
BRANCH   4   6
HETATM    6  C7  UNL     1     -34.653  15.843  -3.637  1.00 20.00     0.063 C 
HETATM    7 BR9  UNL     1     -33.375  14.589  -4.440  1.00 20.00    -0.091 Br
BRANCH   6   8
HETATM    8  C6  UNL     1     -34.131  16.322  -2.279  1.00 20.00     0.012 C 
HETATM    9  C5  UNL     1     -32.941  17.268  -2.385  1.00 20.00     0.006 C 
ENDBRANCH   6   8
ENDBRANCH   4   6
TORSDOF 2
ENDMDL
MODEL 5
REMARK VINA RESULT:      -4.0      1.681      2.426
REMARK  2 active torsions:
REMARK  status: ('A' for Active; 'I' for Inactive)
REMARK    1  A    between atoms: C4_4  and  C7_7 
REMARK    2  A    between atoms: C6_6  and  C7_7 
ROOT
HETATM    1  C1  UNL     1     -24.370  18.547   9.521  1.00 20.00     0.034 C 
HETATM    2  C2  UNL     1     -24.161  18.829   8.047  1.00 20.00     0.168 C 
HETATM    3  C3  UNL     1     -22.576  17.262   8.726  1.00 20.00     0.173 C 
HETATM    4  C4  UNL     1     -23.773  17.163   9.655  1.00 20.00     0.026 C 
HETATM    5  O8  UNL     1     -22.962  18.143   7.660  1.00 20.00    -0.391 OA
ENDROOT
BRANCH   4   6
HETATM    6  C7  UNL     1     -23.413  16.777  11.077  1.00 20.00     0.063 C 
HETATM    7 BR9  UNL     1     -25.008  16.004  11.920  1.00 20.00    -0.091 Br
BRANCH   6   8
HETATM    8  C6  UNL     1     -22.924  17.979  11.890  1.00 20.00     0.012 C 
HETATM    9  C5  UNL     1     -21.458  17.886  12.294  1.00 20.00     0.006 C 
ENDBRANCH   6   8
ENDBRANCH   4   6
TORSDOF 2
ENDMDL
MODEL 6
REMARK VINA RESULT:      -3.9      1.866      2.485
REMARK  2 active torsions:
REMARK  status: ('A' for Active; 'I' for Inactive)
REMARK    1  A    between atoms: C4_4  and  C7_7 
REMARK    2  A    between atoms: C6_6  and  C7_7 
ROOT
HETATM    1  C1  UNL     1     -25.014  19.053   9.316  1.00 20.00     0.034 C 
HETATM    2  C2  UNL     1     -24.256  19.243   8.018  1.00 20.00     0.168 C 
HETATM    3  C3  UNL     1     -22.808  18.301   9.582  1.00 20.00     0.173 C 
HETATM    4  C4  UNL     1     -24.231  17.933   9.967  1.00 20.00     0.026 C 
HETATM    5  O8  UNL     1     -22.884  18.918   8.288  1.00 20.00    -0.391 OA
ENDROOT
BRANCH   4   6
HETATM    6  C7  UNL     1     -24.448  17.811  11.463  1.00 20.00     0.063 C 
HETATM    7 BR9  UNL     1     -24.618  15.905  11.899  1.00 20.00    -0.091 Br
BRANCH   6   8
HETATM    8  C6  UNL     1     -25.700  18.565  11.922  1.00 20.00     0.012 C 
HETATM    9  C5  UNL     1     -26.849  17.649  12.322  1.00 20.00     0.006 C 
ENDBRANCH   6   8
ENDBRANCH   4   6
TORSDOF 2
ENDMDL
MODEL 7
REMARK VINA RESULT:      -3.8     17.430     18.389
REMARK  2 active torsions:
REMARK  status: ('A' for Active; 'I' for Inactive)
REMARK    1  A    between atoms: C4_4  and  C7_7 
REMARK    2  A    between atoms: C6_6  and  C7_7 
ROOT
HETATM    1  C1  UNL     1     -34.693  15.536  -5.458  1.00 20.00     0.034 C 
HETATM    2  C2  UNL     1     -35.584  14.795  -6.435  1.00 20.00     0.168 C 
HETATM    3  C3  UNL     1     -35.797  13.793  -4.342  1.00 20.00     0.173 C 
HETATM    4  C4  UNL     1     -35.371  15.236  -4.138  1.00 20.00     0.026 C 
HETATM    5  O8  UNL     1     -36.103  13.653  -5.737  1.00 20.00    -0.391 OA
ENDROOT
BRANCH   4   6
HETATM    6  C7  UNL     1     -34.487  15.448  -2.924  1.00 20.00     0.063 C 
HETATM    7 BR9  UNL     1     -35.429  16.647  -1.688  1.00 20.00    -0.091 Br
BRANCH   6   8
HETATM    8  C6  UNL     1     -33.131  16.050  -3.302  1.00 20.00     0.012 C 
HETATM    9  C5  UNL     1     -32.801  17.331  -2.547  1.00 20.00     0.006 C 
ENDBRANCH   6   8
ENDBRANCH   4   6
TORSDOF 2
ENDMDL
MODEL 8
REMARK VINA RESULT:      -3.8     18.443     19.506
REMARK  2 active torsions:
REMARK  status: ('A' for Active; 'I' for Inactive)
REMARK    1  A    between atoms: C4_4  and  C7_7 
REMARK    2  A    between atoms: C6_6  and  C7_7 
ROOT
HETATM    1  C1  UNL     1     -36.778  15.858  -4.353  1.00 20.00     0.034 C 
HETATM    2  C2  UNL     1     -38.047  15.050  -4.173  1.00 20.00     0.168 C 
HETATM    3  C3  UNL     1     -36.286  13.573  -4.549  1.00 20.00     0.173 C 
HETATM    4  C4  UNL     1     -35.718  14.852  -3.960  1.00 20.00     0.026 C 
HETATM    5  O8  UNL     1     -37.714  13.684  -4.461  1.00 20.00    -0.391 OA
ENDROOT
BRANCH   4   6
HETATM    6  C7  UNL     1     -34.326  15.190  -4.458  1.00 20.00     0.063 C 
HETATM    7 BR9  UNL     1     -33.431  16.265  -3.082  1.00 20.00    -0.091 Br
BRANCH   6   8
HETATM    8  C6  UNL     1     -34.364  15.962  -5.781  1.00 20.00     0.012 C 
HETATM    9  C5  UNL     1     -33.953  15.126  -6.986  1.00 20.00     0.006 C 
ENDBRANCH   6   8
ENDBRANCH   4   6
TORSDOF 2
ENDMDL
MODEL 9
REMARK VINA RESULT:      -3.8      2.729      4.092
REMARK  2 active torsions:
REMARK  status: ('A' for Active; 'I' for Inactive)
REMARK    1  A    between atoms: C4_4  and  C7_7 
REMARK    2  A    between atoms: C6_6  and  C7_7 
ROOT
HETATM    1  C1  UNL     1     -23.824  16.542  10.961  1.00 20.00     0.034 C 
HETATM    2  C2  UNL     1     -24.905  16.121  11.936  1.00 20.00     0.168 C 
HETATM    3  C3  UNL     1     -25.298  18.332  11.316  1.00 20.00     0.173 C 
HETATM    4  C4  UNL     1     -24.512  17.658  10.205  1.00 20.00     0.026 C 
HETATM    5  O8  UNL     1     -25.675  17.295  12.234  1.00 20.00    -0.391 OA
ENDROOT
BRANCH   4   6
HETATM    6  C7  UNL     1     -23.565  18.589   9.474  1.00 20.00     0.063 C 
HETATM    7 BR9  UNL     1     -24.327  18.964   7.704  1.00 20.00    -0.091 Br
BRANCH   6   8
HETATM    8  C6  UNL     1     -22.168  17.979   9.321  1.00 20.00     0.012 C 
HETATM    9  C5  UNL     1     -21.884  17.450   7.921  1.00 20.00     0.006 C 
ENDBRANCH   6   8
ENDBRANCH   4   6
TORSDOF 2
ENDMDL
