MODEL 1
REMARK VINA RESULT:      -4.7      0.000      0.000
REMARK  4 active torsions:
REMARK  status: ('A' for Active; 'I' for Inactive)
REMARK    1  A    between atoms: C2_2  and  C7_7 
REMARK    2  A    between atoms: C3_3  and  C8_8 
REMARK    3  A    between atoms: C3_3  and  O10_10 
REMARK    4  A    between atoms: C8_8  and  C9_9 
ROOT
HETATM    1  C1  UNL     1     -32.628   5.848   2.487  1.00 20.00     0.045 A 
HETATM    2  C2  UNL     1     -33.123   7.191   2.016  1.00 20.00     0.022 A 
HETATM    3  C3  UNL     1     -32.773   6.982   3.470  1.00 20.00     0.062 A 
ENDROOT
BRANCH   3   4
HETATM    4  C8  UNL     1     -33.875   6.940   4.520  1.00 20.00     0.042 C 
BRANCH   4   5
HETATM    5  C9  UNL     1     -34.438   5.530   4.765  1.00 20.00    -0.020 C 
HETATM    6  C5  UNL     1     -34.635   5.231   6.253  1.00 20.00     0.009 C 
HETATM    7  C6  UNL     1     -35.765   5.363   4.023  1.00 20.00     0.009 C 
ENDBRANCH   4   5
ENDBRANCH   3   4
BRANCH   3   8
HETATM    8  O10 UNL     1     -31.545   7.561   3.943  1.00 20.00    -0.389 OA
HETATM    9  H28 UNL     1     -31.550   8.478   3.636  1.00 20.00     0.210 HD
ENDBRANCH   3   8
BRANCH   2  10
HETATM   10  C7  UNL     1     -32.275   8.029   1.123  1.00 20.00     0.003 C 
HETATM   11  C4  UNL     1     -33.025   9.185   0.513  1.00 20.00     0.005 C 
ENDBRANCH   2  10
TORSDOF 4
ENDMDL
MODEL 2
REMARK VINA RESULT:      -4.0     10.702     12.216
REMARK  4 active torsions:
REMARK  status: ('A' for Active; 'I' for Inactive)
REMARK    1  A    between atoms: C2_2  and  C7_7 
REMARK    2  A    between atoms: C3_3  and  C8_8 
REMARK    3  A    between atoms: C3_3  and  O10_10 
REMARK    4  A    between atoms: C8_8  and  C9_9 
ROOT
HETATM    1  C1  UNL     1     -34.712  14.022  -4.051  1.00 20.00     0.045 A 
HETATM    2  C2  UNL     1     -34.752  15.199  -4.990  1.00 20.00     0.022 A 
HETATM    3  C3  UNL     1     -33.746  15.165  -3.865  1.00 20.00     0.062 A 
ENDROOT
BRANCH   3   4
HETATM    4  C8  UNL     1     -33.902  16.104  -2.676  1.00 20.00     0.042 C 
BRANCH   4   5
HETATM    5  C9  UNL     1     -32.874  17.247  -2.656  1.00 20.00    -0.020 C 
HETATM    6  C5  UNL     1     -33.138  18.289  -3.743  1.00 20.00     0.009 C 
HETATM    7  C6  UNL     1     -32.874  17.921  -1.282  1.00 20.00     0.009 C 
ENDBRANCH   4   5
ENDBRANCH   3   4
BRANCH   3   8
HETATM    8  O10 UNL     1     -32.378  14.892  -4.210  1.00 20.00    -0.389 OA
HETATM    9  H28 UNL     1     -32.250  15.261  -5.095  1.00 20.00     0.210 HD
ENDBRANCH   3   8
BRANCH   2  10
HETATM   10  C7  UNL     1     -34.337  15.035  -6.412  1.00 20.00     0.003 C 
HETATM   11  C4  UNL     1     -34.422  16.316  -7.201  1.00 20.00     0.005 C 
ENDBRANCH   2  10
TORSDOF 4
ENDMDL
MODEL 3
REMARK VINA RESULT:      -4.0     10.932     12.347
REMARK  4 active torsions:
REMARK  status: ('A' for Active; 'I' for Inactive)
REMARK    1  A    between atoms: C2_2  and  C7_7 
REMARK    2  A    between atoms: C3_3  and  C8_8 
REMARK    3  A    between atoms: C3_3  and  O10_10 
REMARK    4  A    between atoms: C8_8  and  C9_9 
ROOT
HETATM    1  C1  UNL     1     -34.300  17.552  -2.323  1.00 20.00     0.045 A 
HETATM    2  C2  UNL     1     -32.886  17.407  -1.824  1.00 20.00     0.022 A 
HETATM    3  C3  UNL     1     -33.222  17.061  -3.255  1.00 20.00     0.062 A 
ENDROOT
BRANCH   3   4
HETATM    4  C8  UNL     1     -33.215  15.607  -3.708  1.00 20.00     0.042 C 
BRANCH   4   5
HETATM    5  C9  UNL     1     -34.435  15.222  -4.561  1.00 20.00    -0.020 C 
HETATM    6  C5  UNL     1     -34.074  15.012  -6.033  1.00 20.00     0.009 C 
HETATM    7  C6  UNL     1     -35.081  13.953  -4.001  1.00 20.00     0.009 C 
ENDBRANCH   4   5
ENDBRANCH   3   4
BRANCH   3   8
HETATM    8  O10 UNL     1     -32.804  17.985  -4.274  1.00 20.00    -0.389 OA
HETATM    9  H28 UNL     1     -33.523  18.007  -4.921  1.00 20.00     0.210 HD
ENDBRANCH   3   8
BRANCH   2  10
HETATM   10  C7  UNL     1     -32.086  18.617  -1.482  1.00 20.00     0.003 C 
HETATM   11  C4  UNL     1     -31.147  18.395  -0.325  1.00 20.00     0.005 C 
ENDBRANCH   2  10
TORSDOF 4
ENDMDL
MODEL 4
REMARK VINA RESULT:      -3.9     11.025     11.940
REMARK  4 active torsions:
REMARK  status: ('A' for Active; 'I' for Inactive)
REMARK    1  A    between atoms: C2_2  and  C7_7 
REMARK    2  A    between atoms: C3_3  and  C8_8 
REMARK    3  A    between atoms: C3_3  and  O10_10 
REMARK    4  A    between atoms: C8_8  and  C9_9 
ROOT
HETATM    1  C1  UNL     1     -35.978  14.049  -5.534  1.00 20.00     0.045 A 
HETATM    2  C2  UNL     1     -35.121  15.226  -5.923  1.00 20.00     0.022 A 
HETATM    3  C3  UNL     1     -35.009  14.634  -4.539  1.00 20.00     0.062 A 
ENDROOT
BRANCH   3   4
HETATM    4  C8  UNL     1     -35.531  15.408  -3.336  1.00 20.00     0.042 C 
BRANCH   4   5
HETATM    5  C9  UNL     1     -34.422  15.901  -2.392  1.00 20.00    -0.020 C 
HETATM    6  C5  UNL     1     -33.405  16.795  -3.103  1.00 20.00     0.009 C 
HETATM    7  C6  UNL     1     -35.040  16.657  -1.214  1.00 20.00     0.009 C 
ENDBRANCH   4   5
ENDBRANCH   3   4
BRANCH   3   8
HETATM    8  O10 UNL     1     -33.846  13.838  -4.253  1.00 20.00    -0.389 OA
HETATM    9  H28 UNL     1     -33.851  13.698  -3.296  1.00 20.00     0.210 HD
ENDBRANCH   3   8
BRANCH   2  10
HETATM   10  C7  UNL     1     -34.037  15.060  -6.932  1.00 20.00     0.003 C 
HETATM   11  C4  UNL     1     -33.969  16.199  -7.916  1.00 20.00     0.005 C 
ENDBRANCH   2  10
TORSDOF 4
ENDMDL
MODEL 5
REMARK VINA RESULT:      -3.9     11.142     11.776
REMARK  4 active torsions:
REMARK  status: ('A' for Active; 'I' for Inactive)
REMARK    1  A    between atoms: C2_2  and  C7_7 
REMARK    2  A    between atoms: C3_3  and  C8_8 
REMARK    3  A    between atoms: C3_3  and  O10_10 
REMARK    4  A    between atoms: C8_8  and  C9_9 
ROOT
HETATM    1  C1  UNL     1     -33.042  14.423  -4.481  1.00 20.00     0.045 A 
HETATM    2  C2  UNL     1     -34.462  14.485  -3.980  1.00 20.00     0.022 A 
HETATM    3  C3  UNL     1     -33.615  15.734  -4.006  1.00 20.00     0.062 A 
ENDROOT
BRANCH   3   4
HETATM    4  C8  UNL     1     -33.125  16.348  -2.701  1.00 20.00     0.042 C 
BRANCH   4   5
HETATM    5  C9  UNL     1     -34.104  17.367  -2.094  1.00 20.00    -0.020 C 
HETATM    6  C5  UNL     1     -35.211  16.698  -1.278  1.00 20.00     0.009 C 
HETATM    7  C6  UNL     1     -33.341  18.360  -1.215  1.00 20.00     0.009 C 
ENDBRANCH   4   5
ENDBRANCH   3   4
BRANCH   3   8
HETATM    8  O10 UNL     1     -33.897  16.703  -5.030  1.00 20.00    -0.389 OA
HETATM    9  H28 UNL     1     -34.645  16.348  -5.530  1.00 20.00     0.210 HD
ENDBRANCH   3   8
BRANCH   2  10
HETATM   10  C7  UNL     1     -35.597  14.293  -4.927  1.00 20.00     0.003 C 
HETATM   11  C4  UNL     1     -36.943  14.339  -4.250  1.00 20.00     0.005 C 
ENDBRANCH   2  10
TORSDOF 4
ENDMDL
MODEL 6
REMARK VINA RESULT:      -3.8      0.857      1.301
REMARK  4 active torsions:
REMARK  status: ('A' for Active; 'I' for Inactive)
REMARK    1  A    between atoms: C2_2  and  C7_7 
REMARK    2  A    between atoms: C3_3  and  C8_8 
REMARK    3  A    between atoms: C3_3  and  O10_10 
REMARK    4  A    between atoms: C8_8  and  C9_9 
ROOT
HETATM    1  C1  UNL     1     -32.860   5.619   2.486  1.00 20.00     0.045 A 
HETATM    2  C2  UNL     1     -33.293   6.964   1.963  1.00 20.00     0.022 A 
HETATM    3  C3  UNL     1     -33.468   6.630   3.425  1.00 20.00     0.062 A 
ENDROOT
BRANCH   3   4
HETATM    4  C8  UNL     1     -34.863   6.398   3.990  1.00 20.00     0.042 C 
BRANCH   4   5
HETATM    5  C9  UNL     1     -35.002   5.075   4.762  1.00 20.00    -0.020 C 
HETATM    6  C5  UNL     1     -34.174   3.948   4.143  1.00 20.00     0.009 C 
HETATM    7  C6  UNL     1     -34.589   5.279   6.222  1.00 20.00     0.009 C 
ENDBRANCH   4   5
ENDBRANCH   3   4
BRANCH   3   8
HETATM    8  O10 UNL     1     -32.562   7.245   4.357  1.00 20.00    -0.389 OA
HETATM    9  H28 UNL     1     -32.471   8.163   4.070  1.00 20.00     0.210 HD
ENDBRANCH   3   8
BRANCH   2  10
HETATM   10  C7  UNL     1     -32.274   7.951   1.506  1.00 20.00     0.003 C 
HETATM   11  C4  UNL     1     -32.854   9.037   0.637  1.00 20.00     0.005 C 
ENDBRANCH   2  10
TORSDOF 4
ENDMDL
MODEL 7
REMARK VINA RESULT:      -3.8     15.584     16.655
REMARK  4 active torsions:
REMARK  status: ('A' for Active; 'I' for Inactive)
REMARK    1  A    between atoms: C2_2  and  C7_7 
REMARK    2  A    between atoms: C3_3  and  C8_8 
REMARK    3  A    between atoms: C3_3  and  O10_10 
REMARK    4  A    between atoms: C8_8  and  C9_9 
ROOT
HETATM    1  C1  UNL     1     -24.980  17.354  10.826  1.00 20.00     0.045 A 
HETATM    2  C2  UNL     1     -25.223  18.791  11.208  1.00 20.00     0.022 A 
HETATM    3  C3  UNL     1     -24.784  18.446   9.805  1.00 20.00     0.062 A 
ENDROOT
BRANCH   3   4
HETATM    4  C8  UNL     1     -23.380  18.805   9.338  1.00 20.00     0.042 C 
BRANCH   4   5
HETATM    5  C9  UNL     1     -22.411  17.610   9.323  1.00 20.00    -0.020 C 
HETATM    6  C5  UNL     1     -21.789  17.382   7.944  1.00 20.00     0.009 C 
HETATM    7  C6  UNL     1     -21.307  17.822  10.361  1.00 20.00     0.009 C 
ENDBRANCH   4   5
ENDBRANCH   3   4
BRANCH   3   8
HETATM    8  O10 UNL     1     -25.775  18.518   8.766  1.00 20.00    -0.389 OA
HETATM    9  H28 UNL     1     -25.304  18.805   7.972  1.00 20.00     0.210 HD
ENDBRANCH   3   8
BRANCH   2  10
HETATM   10  C7  UNL     1     -26.607  19.263  11.497  1.00 20.00     0.003 C 
HETATM   11  C4  UNL     1     -27.454  18.220  12.180  1.00 20.00     0.005 C 
ENDBRANCH   2  10
TORSDOF 4
ENDMDL
MODEL 8
REMARK VINA RESULT:      -3.6     11.003     12.103
REMARK  4 active torsions:
REMARK  status: ('A' for Active; 'I' for Inactive)
REMARK    1  A    between atoms: C2_2  and  C7_7 
REMARK    2  A    between atoms: C3_3  and  C8_8 
REMARK    3  A    between atoms: C3_3  and  O10_10 
REMARK    4  A    between atoms: C8_8  and  C9_9 
ROOT
HETATM    1  C1  UNL     1     -36.005  16.683  -4.628  1.00 20.00     0.045 A 
HETATM    2  C2  UNL     1     -35.254  15.499  -5.180  1.00 20.00     0.022 A 
HETATM    3  C3  UNL     1     -35.773  15.470  -3.762  1.00 20.00     0.062 A 
ENDROOT
BRANCH   3   4
HETATM    4  C8  UNL     1     -34.800  15.547  -2.594  1.00 20.00     0.042 C 
BRANCH   4   5
HETATM    5  C9  UNL     1     -34.713  16.944  -1.956  1.00 20.00    -0.020 C 
HETATM    6  C5  UNL     1     -35.297  16.977  -0.542  1.00 20.00     0.009 C 
HETATM    7  C6  UNL     1     -33.256  17.411  -1.925  1.00 20.00     0.009 C 
ENDBRANCH   4   5
ENDBRANCH   3   4
BRANCH   3   8
HETATM    8  O10 UNL     1     -36.930  14.658  -3.499  1.00 20.00    -0.389 OA
HETATM    9  H28 UNL     1     -37.224  14.331  -4.360  1.00 20.00     0.210 HD
ENDBRANCH   3   8
BRANCH   2  10
HETATM   10  C7  UNL     1     -35.863  14.661  -6.251  1.00 20.00     0.003 C 
HETATM   11  C4  UNL     1     -35.533  15.147  -7.638  1.00 20.00     0.005 C 
ENDBRANCH   2  10
TORSDOF 4
ENDMDL
MODEL 9
REMARK VINA RESULT:      -3.6     11.109     11.971
REMARK  4 active torsions:
REMARK  status: ('A' for Active; 'I' for Inactive)
REMARK    1  A    between atoms: C2_2  and  C7_7 
REMARK    2  A    between atoms: C3_3  and  C8_8 
REMARK    3  A    between atoms: C3_3  and  O10_10 
REMARK    4  A    between atoms: C8_8  and  C9_9 
ROOT
HETATM    1  C1  UNL     1     -35.191  17.731  -1.126  1.00 20.00     0.045 A 
HETATM    2  C2  UNL     1     -33.702  17.506  -1.113  1.00 20.00     0.022 A 
HETATM    3  C3  UNL     1     -34.525  17.048  -2.293  1.00 20.00     0.062 A 
ENDROOT
BRANCH   3   4
HETATM    4  C8  UNL     1     -34.750  15.561  -2.531  1.00 20.00     0.042 C 
BRANCH   4   5
HETATM    5  C9  UNL     1     -34.577  15.140  -4.001  1.00 20.00    -0.020 C 
HETATM    6  C5  UNL     1     -33.163  14.643  -4.302  1.00 20.00     0.009 C 
HETATM    7  C6  UNL     1     -35.594  14.052  -4.352  1.00 20.00     0.009 C 
ENDBRANCH   4   5
ENDBRANCH   3   4
BRANCH   3   8
HETATM    8  O10 UNL     1     -34.433  17.820  -3.502  1.00 20.00    -0.389 OA
HETATM    9  H28 UNL     1     -35.199  17.568  -4.035  1.00 20.00     0.210 HD
ENDBRANCH   3   8
BRANCH   2  10
HETATM   10  C7  UNL     1     -32.770  18.666  -1.216  1.00 20.00     0.003 C 
HETATM   11  C4  UNL     1     -31.400  18.371  -0.661  1.00 20.00     0.005 C 
ENDBRANCH   2  10
TORSDOF 4
ENDMDL
