MODEL 1
REMARK VINA RESULT:      -3.6      0.000      0.000
REMARK  4 active torsions:
REMARK  status: ('A' for Active; 'I' for Inactive)
REMARK    1  A    between atoms: C5_5  and  C8_8 
REMARK    2  A    between atoms: C6_6  and  C8_8 
REMARK    3  A    between atoms: C7_7  and  N9_9 
REMARK    4  A    between atoms: C8_8  and  N9_9 
ROOT
HETATM    1  C8  UNL     1     -34.240  15.322  -4.045  1.00 20.00     0.237 C 
ENDROOT
BRANCH   1   2
HETATM    2  C5  UNL     1     -35.752  15.186  -4.262  1.00 20.00     0.150 C 
HETATM    3 CL10 UNL     1     -36.219  13.482  -4.517  1.00 20.00    -0.128 Cl
ENDBRANCH   1   2
BRANCH   1   4
HETATM    4  C6  UNL     1     -33.906  15.935  -2.661  1.00 20.00     0.011 C 
HETATM    5  C1  UNL     1     -35.144  16.278  -1.826  1.00 20.00     0.012 C 
HETATM    6  C2  UNL     1     -33.017  17.177  -2.801  1.00 20.00     0.012 C 
ENDBRANCH   1   4
BRANCH   1   7
HETATM    7  N9  UNL     1     -33.635  16.075  -5.122  1.00 20.00     0.093 N 
HETATM    8  H28 UNL     1     -33.456  17.034  -4.815  1.00 20.00     0.316 HD
BRANCH   7   9
HETATM    9  C7  UNL     1     -34.503  16.114  -6.296  1.00 20.00     0.213 C 
HETATM   10  C3  UNL     1     -33.918  15.218  -7.378  1.00 20.00     0.042 C 
HETATM   11  C4  UNL     1     -34.633  17.556  -6.766  1.00 20.00     0.042 C 
ENDBRANCH   7   9
ENDBRANCH   1   7
TORSDOF 4
ENDMDL
MODEL 2
REMARK VINA RESULT:      -3.5      2.271      3.015
REMARK  4 active torsions:
REMARK  status: ('A' for Active; 'I' for Inactive)
REMARK    1  A    between atoms: C5_5  and  C8_8 
REMARK    2  A    between atoms: C6_6  and  C8_8 
REMARK    3  A    between atoms: C7_7  and  N9_9 
REMARK    4  A    between atoms: C8_8  and  N9_9 
ROOT
HETATM    1  C8  UNL     1     -35.244  15.505  -3.733  1.00 20.00     0.237 C 
ENDROOT
BRANCH   1   2
HETATM    2  C5  UNL     1     -34.573  14.392  -4.546  1.00 20.00     0.150 C 
HETATM    3 CL10 UNL     1     -34.039  14.988  -6.142  1.00 20.00    -0.128 Cl
ENDBRANCH   1   2
BRANCH   1   4
HETATM    4  C6  UNL     1     -34.433  15.862  -2.460  1.00 20.00     0.011 C 
HETATM    5  C1  UNL     1     -35.231  16.669  -1.431  1.00 20.00     0.012 C 
HETATM    6  C2  UNL     1     -33.141  16.608  -2.813  1.00 20.00     0.012 C 
ENDBRANCH   1   4
BRANCH   1   7
HETATM    7  N9  UNL     1     -36.610  15.151  -3.413  1.00 20.00     0.093 N 
HETATM    8  H28 UNL     1     -36.649  14.181  -3.090  1.00 20.00     0.316 HD
BRANCH   7   9
HETATM    9  C7  UNL     1     -37.481  15.295  -4.576  1.00 20.00     0.213 C 
HETATM   10  C3  UNL     1     -37.425  16.734  -5.067  1.00 20.00     0.042 C 
HETATM   11  C4  UNL     1     -38.895  14.887  -4.185  1.00 20.00     0.042 C 
ENDBRANCH   7   9
ENDBRANCH   1   7
TORSDOF 4
ENDMDL
MODEL 3
REMARK VINA RESULT:      -3.5     11.692     12.765
REMARK  4 active torsions:
REMARK  status: ('A' for Active; 'I' for Inactive)
REMARK    1  A    between atoms: C5_5  and  C8_8 
REMARK    2  A    between atoms: C6_6  and  C8_8 
REMARK    3  A    between atoms: C7_7  and  N9_9 
REMARK    4  A    between atoms: C8_8  and  N9_9 
ROOT
HETATM    1  C8  UNL     1     -33.669   5.922   3.877  1.00 20.00     0.237 C 
ENDROOT
BRANCH   1   2
HETATM    2  C5  UNL     1     -34.097   4.562   3.312  1.00 20.00     0.150 C 
HETATM    3 CL10 UNL     1     -32.973   4.006   2.041  1.00 20.00    -0.128 Cl
ENDBRANCH   1   2
BRANCH   1   4
HETATM    4  C6  UNL     1     -34.441   6.281   5.172  1.00 20.00     0.011 C 
HETATM    5  C1  UNL     1     -33.655   7.187   6.124  1.00 20.00     0.012 C 
HETATM    6  C2  UNL     1     -34.898   5.021   5.917  1.00 20.00     0.012 C 
ENDBRANCH   1   4
BRANCH   1   7
HETATM    7  N9  UNL     1     -33.799   6.956   2.874  1.00 20.00     0.093 N 
HETATM    8  H28 UNL     1     -34.475   6.666   2.164  1.00 20.00     0.316 HD
BRANCH   7   9
HETATM    9  C7  UNL     1     -32.521   7.226   2.221  1.00 20.00     0.213 C 
HETATM   10  C3  UNL     1     -31.501   7.639   3.272  1.00 20.00     0.042 C 
HETATM   11  C4  UNL     1     -32.722   8.312   1.174  1.00 20.00     0.042 C 
ENDBRANCH   7   9
ENDBRANCH   1   7
TORSDOF 4
ENDMDL
MODEL 4
REMARK VINA RESULT:      -3.5      2.605      4.338
REMARK  4 active torsions:
REMARK  status: ('A' for Active; 'I' for Inactive)
REMARK    1  A    between atoms: C5_5  and  C8_8 
REMARK    2  A    between atoms: C6_6  and  C8_8 
REMARK    3  A    between atoms: C7_7  and  N9_9 
REMARK    4  A    between atoms: C8_8  and  N9_9 
ROOT
HETATM    1  C8  UNL     1     -35.263  15.963  -3.197  1.00 20.00     0.237 C 
ENDROOT
BRANCH   1   2
HETATM    2  C5  UNL     1     -36.526  16.357  -3.971  1.00 20.00     0.150 C 
HETATM    3 CL10 UNL     1     -36.126  17.332  -5.412  1.00 20.00    -0.128 Cl
ENDBRANCH   1   2
BRANCH   1   4
HETATM    4  C6  UNL     1     -34.746  14.560  -3.607  1.00 20.00     0.011 C 
HETATM    5  C1  UNL     1     -33.438  14.595  -4.403  1.00 20.00     0.012 C 
HETATM    6  C2  UNL     1     -35.808  13.781  -4.392  1.00 20.00     0.012 C 
ENDBRANCH   1   4
BRANCH   1   7
HETATM    7  N9  UNL     1     -35.487  16.054  -1.771  1.00 20.00     0.093 N 
HETATM    8  H28 UNL     1     -36.488  15.980  -1.574  1.00 20.00     0.316 HD
BRANCH   7   9
HETATM    9  C7  UNL     1     -34.996  17.320  -1.236  1.00 20.00     0.213 C 
HETATM   10  C3  UNL     1     -33.525  17.476  -1.595  1.00 20.00     0.042 C 
HETATM   11  C4  UNL     1     -35.213  17.336   0.271  1.00 20.00     0.042 C 
ENDBRANCH   7   9
ENDBRANCH   1   7
TORSDOF 4
ENDMDL
MODEL 5
REMARK VINA RESULT:      -3.4      1.914      2.233
REMARK  4 active torsions:
REMARK  status: ('A' for Active; 'I' for Inactive)
REMARK    1  A    between atoms: C5_5  and  C8_8 
REMARK    2  A    between atoms: C6_6  and  C8_8 
REMARK    3  A    between atoms: C7_7  and  N9_9 
REMARK    4  A    between atoms: C8_8  and  N9_9 
ROOT
HETATM    1  C8  UNL     1     -34.208  16.383  -4.387  1.00 20.00     0.237 C 
ENDROOT
BRANCH   1   2
HETATM    2  C5  UNL     1     -34.104  17.865  -4.762  1.00 20.00     0.150 C 
HETATM    3 CL10 UNL     1     -35.651  18.480  -5.407  1.00 20.00    -0.128 Cl
ENDBRANCH   1   2
BRANCH   1   4
HETATM    4  C6  UNL     1     -33.878  16.138  -2.892  1.00 20.00     0.011 C 
HETATM    5  C1  UNL     1     -35.117  16.069  -1.993  1.00 20.00     0.012 C 
HETATM    6  C2  UNL     1     -32.908  17.197  -2.354  1.00 20.00     0.012 C 
ENDBRANCH   1   4
BRANCH   1   7
HETATM    7  N9  UNL     1     -33.377  15.576  -5.254  1.00 20.00     0.093 N 
HETATM    8  H28 UNL     1     -32.731  16.178  -5.771  1.00 20.00     0.316 HD
BRANCH   7   9
HETATM    9  C7  UNL     1     -34.184  14.824  -6.212  1.00 20.00     0.213 C 
HETATM   10  C3  UNL     1     -34.076  15.481  -7.580  1.00 20.00     0.042 C 
HETATM   11  C4  UNL     1     -35.623  14.781  -5.718  1.00 20.00     0.042 C 
ENDBRANCH   7   9
ENDBRANCH   1   7
TORSDOF 4
ENDMDL
MODEL 6
REMARK VINA RESULT:      -3.4      2.378      3.001
REMARK  4 active torsions:
REMARK  status: ('A' for Active; 'I' for Inactive)
REMARK    1  A    between atoms: C5_5  and  C8_8 
REMARK    2  A    between atoms: C6_6  and  C8_8 
REMARK    3  A    between atoms: C7_7  and  N9_9 
REMARK    4  A    between atoms: C8_8  and  N9_9 
ROOT
HETATM    1  C8  UNL     1     -35.929  15.361  -3.961  1.00 20.00     0.237 C 
ENDROOT
BRANCH   1   2
HETATM    2  C5  UNL     1     -35.923  14.087  -4.814  1.00 20.00     0.150 C 
HETATM    3 CL10 UNL     1     -35.679  14.464  -6.542  1.00 20.00    -0.128 Cl
ENDBRANCH   1   2
BRANCH   1   4
HETATM    4  C6  UNL     1     -34.788  15.363  -2.913  1.00 20.00     0.011 C 
HETATM    5  C1  UNL     1     -35.026  16.328  -1.747  1.00 20.00     0.012 C 
HETATM    6  C2  UNL     1     -33.433  15.665  -3.564  1.00 20.00     0.012 C 
ENDBRANCH   1   4
BRANCH   1   7
HETATM    7  N9  UNL     1     -37.222  15.555  -3.342  1.00 20.00     0.093 N 
HETATM    8  H28 UNL     1     -37.770  14.693  -3.409  1.00 20.00     0.316 HD
BRANCH   7   9
HETATM    9  C7  UNL     1     -37.965  16.633  -3.990  1.00 20.00     0.213 C 
HETATM   10  C3  UNL     1     -39.004  16.032  -4.924  1.00 20.00     0.042 C 
HETATM   11  C4  UNL     1     -36.985  17.527  -4.736  1.00 20.00     0.042 C 
ENDBRANCH   7   9
ENDBRANCH   1   7
TORSDOF 4
ENDMDL
MODEL 7
REMARK VINA RESULT:      -3.4      2.230      2.653
REMARK  4 active torsions:
REMARK  status: ('A' for Active; 'I' for Inactive)
REMARK    1  A    between atoms: C5_5  and  C8_8 
REMARK    2  A    between atoms: C6_6  and  C8_8 
REMARK    3  A    between atoms: C7_7  and  N9_9 
REMARK    4  A    between atoms: C8_8  and  N9_9 
ROOT
HETATM    1  C8  UNL     1     -35.850  15.971  -3.265  1.00 20.00     0.237 C 
ENDROOT
BRANCH   1   2
HETATM    2  C5  UNL     1     -36.799  17.158  -3.064  1.00 20.00     0.150 C 
HETATM    3 CL10 UNL     1     -36.463  18.462  -4.236  1.00 20.00    -0.128 Cl
ENDBRANCH   1   2
BRANCH   1   4
HETATM    4  C6  UNL     1     -34.658  16.007  -2.275  1.00 20.00     0.011 C 
HETATM    5  C1  UNL     1     -34.824  17.034  -1.150  1.00 20.00     0.012 C 
HETATM    6  C2  UNL     1     -33.332  16.251  -3.006  1.00 20.00     0.012 C 
ENDBRANCH   1   4
BRANCH   1   7
HETATM    7  N9  UNL     1     -35.400  15.903  -4.639  1.00 20.00     0.093 N 
HETATM    8  H28 UNL     1     -35.484  16.824  -5.076  1.00 20.00     0.316 HD
BRANCH   7   9
HETATM    9  C7  UNL     1     -36.188  14.945  -5.409  1.00 20.00     0.213 C 
HETATM   10  C3  UNL     1     -36.272  13.635  -4.639  1.00 20.00     0.042 C 
HETATM   11  C4  UNL     1     -35.541  14.757  -6.773  1.00 20.00     0.042 C 
ENDBRANCH   7   9
ENDBRANCH   1   7
TORSDOF 4
ENDMDL
MODEL 8
REMARK VINA RESULT:      -3.4      1.825      2.766
REMARK  4 active torsions:
REMARK  status: ('A' for Active; 'I' for Inactive)
REMARK    1  A    between atoms: C5_5  and  C8_8 
REMARK    2  A    between atoms: C6_6  and  C8_8 
REMARK    3  A    between atoms: C7_7  and  N9_9 
REMARK    4  A    between atoms: C8_8  and  N9_9 
ROOT
HETATM    1  C8  UNL     1     -34.887  16.181  -4.390  1.00 20.00     0.237 C 
ENDROOT
BRANCH   1   2
HETATM    2  C5  UNL     1     -35.028  17.215  -3.266  1.00 20.00     0.150 C 
HETATM    3 CL10 UNL     1     -34.845  16.456  -1.661  1.00 20.00    -0.128 Cl
ENDBRANCH   1   2
BRANCH   1   4
HETATM    4  C6  UNL     1     -34.416  14.805  -3.855  1.00 20.00     0.011 C 
HETATM    5  C1  UNL     1     -33.015  14.408  -4.333  1.00 20.00     0.012 C 
HETATM    6  C2  UNL     1     -35.415  13.697  -4.208  1.00 20.00     0.012 C 
ENDBRANCH   1   4
BRANCH   1   7
HETATM    7  N9  UNL     1     -34.016  16.676  -5.433  1.00 20.00     0.093 N 
HETATM    8  H28 UNL     1     -33.711  17.625  -5.207  1.00 20.00     0.316 HD
BRANCH   7   9
HETATM    9  C7  UNL     1     -34.694  16.696  -6.726  1.00 20.00     0.213 C 
HETATM   10  C3  UNL     1     -36.189  16.515  -6.508  1.00 20.00     0.042 C 
HETATM   11  C4  UNL     1     -34.115  15.595  -7.604  1.00 20.00     0.042 C 
ENDBRANCH   7   9
ENDBRANCH   1   7
TORSDOF 4
ENDMDL
MODEL 9
REMARK VINA RESULT:      -3.3      1.847      3.700
REMARK  4 active torsions:
REMARK  status: ('A' for Active; 'I' for Inactive)
REMARK    1  A    between atoms: C5_5  and  C8_8 
REMARK    2  A    between atoms: C6_6  and  C8_8 
REMARK    3  A    between atoms: C7_7  and  N9_9 
REMARK    4  A    between atoms: C8_8  and  N9_9 
ROOT
HETATM    1  C8  UNL     1     -35.052  15.772  -5.308  1.00 20.00     0.237 C 
ENDROOT
BRANCH   1   2
HETATM    2  C5  UNL     1     -34.701  16.333  -6.690  1.00 20.00     0.150 C 
HETATM    3 CL10 UNL     1     -33.785  15.146  -7.658  1.00 20.00    -0.128 Cl
ENDBRANCH   1   2
BRANCH   1   4
HETATM    4  C6  UNL     1     -36.367  14.951  -5.332  1.00 20.00     0.011 C 
HETATM    5  C1  UNL     1     -37.577  15.712  -4.781  1.00 20.00     0.012 C 
HETATM    6  C2  UNL     1     -36.209  13.621  -4.585  1.00 20.00     0.012 C 
ENDBRANCH   1   4
BRANCH   1   7
HETATM    7  N9  UNL     1     -35.103  16.831  -4.323  1.00 20.00     0.093 N 
HETATM    8  H28 UNL     1     -34.856  17.722  -4.761  1.00 20.00     0.316 HD
BRANCH   7   9
HETATM    9  C7  UNL     1     -34.177  16.578  -3.223  1.00 20.00     0.213 C 
HETATM   10  C3  UNL     1     -33.128  15.571  -3.675  1.00 20.00     0.042 C 
HETATM   11  C4  UNL     1     -34.964  16.072  -2.023  1.00 20.00     0.042 C 
ENDBRANCH   7   9
ENDBRANCH   1   7
TORSDOF 4
ENDMDL
