MODEL 1
REMARK VINA RESULT:      -4.1      0.000      0.000
REMARK  3 active torsions:
REMARK  status: ('A' for Active; 'I' for Inactive)
REMARK    1  A    between atoms: C2_2  and  C6_6 
REMARK    2  A    between atoms: C3_3  and  C7_7 
REMARK    3  A    between atoms: C3_3  and  O8_8 
ROOT
HETATM    1  C1  UNL     1     -33.629   4.561   3.316  1.00 20.00     0.045 A 
HETATM    2  C2  UNL     1     -33.750   5.953   2.751  1.00 20.00     0.022 A 
HETATM    3  C3  UNL     1     -34.501   5.576   4.011  1.00 20.00     0.062 A 
ENDROOT
BRANCH   3   4
HETATM    4  C7  UNL     1     -34.113   6.096   5.356  1.00 20.00     0.034 C 
HETATM    5  C5  UNL     1     -34.779   5.355   6.485  1.00 20.00     0.008 C 
ENDBRANCH   3   4
BRANCH   3   6
HETATM    6  O8  UNL     1     -35.920   5.396   3.855  1.00 20.00    -0.389 OA
HETATM    7  H22 UNL     1     -36.221   6.142   3.320  1.00 20.00     0.210 HD
ENDBRANCH   3   6
BRANCH   2   8
HETATM    8  C6  UNL     1     -32.581   6.875   2.765  1.00 20.00     0.003 C 
HETATM    9  C4  UNL     1     -32.518   7.766   1.551  1.00 20.00     0.005 C 
ENDBRANCH   2   8
TORSDOF 3
ENDMDL
MODEL 2
REMARK VINA RESULT:      -4.0     16.195     16.810
REMARK  3 active torsions:
REMARK  status: ('A' for Active; 'I' for Inactive)
REMARK    1  A    between atoms: C2_2  and  C6_6 
REMARK    2  A    between atoms: C3_3  and  C7_7 
REMARK    3  A    between atoms: C3_3  and  O8_8 
ROOT
HETATM    1  C1  UNL     1     -22.468  18.665   9.322  1.00 20.00     0.045 A 
HETATM    2  C2  UNL     1     -23.472  18.227   8.288  1.00 20.00     0.022 A 
HETATM    3  C3  UNL     1     -23.017  17.261   9.361  1.00 20.00     0.062 A 
ENDROOT
BRANCH   3   4
HETATM    4  C7  UNL     1     -23.908  16.839  10.483  1.00 20.00     0.034 C 
HETATM    5  C5  UNL     1     -23.270  17.018  11.836  1.00 20.00     0.008 C 
ENDBRANCH   3   4
BRANCH   3   6
HETATM    6  O8  UNL     1     -22.121  16.224   8.921  1.00 20.00    -0.389 OA
HETATM    7  H22 UNL     1     -22.685  15.523   8.570  1.00 20.00     0.210 HD
ENDBRANCH   3   6
BRANCH   2   8
HETATM    8  C6  UNL     1     -24.840  18.815   8.271  1.00 20.00     0.003 C 
HETATM    9  C4  UNL     1     -25.349  19.086   6.878  1.00 20.00     0.005 C 
ENDBRANCH   2   8
TORSDOF 3
ENDMDL
MODEL 3
REMARK VINA RESULT:      -3.9      8.684      9.316
REMARK  3 active torsions:
REMARK  status: ('A' for Active; 'I' for Inactive)
REMARK    1  A    between atoms: C2_2  and  C6_6 
REMARK    2  A    between atoms: C3_3  and  C7_7 
REMARK    3  A    between atoms: C3_3  and  O8_8 
ROOT
HETATM    1  C1  UNL     1     -43.275   6.731   0.479  1.00 20.00     0.045 A 
HETATM    2  C2  UNL     1     -41.887   7.270   0.708  1.00 20.00     0.022 A 
HETATM    3  C3  UNL     1     -42.082   5.830   0.283  1.00 20.00     0.062 A 
ENDROOT
BRANCH   3   4
HETATM    4  C7  UNL     1     -41.729   5.348  -1.085  1.00 20.00     0.034 C 
HETATM    5  C5  UNL     1     -42.844   4.578  -1.742  1.00 20.00     0.008 C 
ENDBRANCH   3   4
BRANCH   3   6
HETATM    6  O8  UNL     1     -41.863   4.847   1.310  1.00 20.00    -0.389 OA
HETATM    7  H22 UNL     1     -42.494   5.056   2.012  1.00 20.00     0.210 HD
ENDBRANCH   3   6
BRANCH   2   8
HETATM    8  C6  UNL     1     -41.320   8.302  -0.204  1.00 20.00     0.003 C 
HETATM    9  C4  UNL     1     -41.306   9.682   0.402  1.00 20.00     0.005 C 
ENDBRANCH   2   8
TORSDOF 3
ENDMDL
MODEL 4
REMARK VINA RESULT:      -3.9      8.892      9.520
REMARK  3 active torsions:
REMARK  status: ('A' for Active; 'I' for Inactive)
REMARK    1  A    between atoms: C2_2  and  C6_6 
REMARK    2  A    between atoms: C3_3  and  C7_7 
REMARK    3  A    between atoms: C3_3  and  O8_8 
ROOT
HETATM    1  C1  UNL     1     -41.326   5.938   0.375  1.00 20.00     0.045 A 
HETATM    2  C2  UNL     1     -41.007   6.833  -0.794  1.00 20.00     0.022 A 
HETATM    3  C3  UNL     1     -41.505   5.422  -1.030  1.00 20.00     0.062 A 
ENDROOT
BRANCH   3   4
HETATM    4  C7  UNL     1     -42.875   5.138  -1.551  1.00 20.00     0.034 C 
HETATM    5  C5  UNL     1     -42.946   3.860  -2.346  1.00 20.00     0.008 C 
ENDBRANCH   3   4
BRANCH   3   6
HETATM    6  O8  UNL     1     -40.513   4.484  -1.486  1.00 20.00    -0.389 OA
HETATM    7  H22 UNL     1     -40.113   4.886  -2.269  1.00 20.00     0.210 HD
ENDBRANCH   3   6
BRANCH   2   8
HETATM    8  C6  UNL     1     -41.844   8.032  -1.075  1.00 20.00     0.003 C 
HETATM    9  C4  UNL     1     -41.795   9.057   0.030  1.00 20.00     0.005 C 
ENDBRANCH   2   8
TORSDOF 3
ENDMDL
MODEL 5
REMARK VINA RESULT:      -3.9     11.806     12.968
REMARK  3 active torsions:
REMARK  status: ('A' for Active; 'I' for Inactive)
REMARK    1  A    between atoms: C2_2  and  C6_6 
REMARK    2  A    between atoms: C3_3  and  C7_7 
REMARK    3  A    between atoms: C3_3  and  O8_8 
ROOT
HETATM    1  C1  UNL     1     -34.553  14.227  -4.055  1.00 20.00     0.045 A 
HETATM    2  C2  UNL     1     -33.499  15.247  -3.709  1.00 20.00     0.022 A 
HETATM    3  C3  UNL     1     -33.993  15.119  -5.134  1.00 20.00     0.062 A 
ENDROOT
BRANCH   3   4
HETATM    4  C7  UNL     1     -34.861  16.153  -5.772  1.00 20.00     0.034 C 
HETATM    5  C5  UNL     1     -36.222  15.626  -6.144  1.00 20.00     0.008 C 
ENDBRANCH   3   4
BRANCH   3   6
HETATM    6  O8  UNL     1     -33.078  14.495  -6.053  1.00 20.00    -0.389 OA
HETATM    7  H22 UNL     1     -33.570  13.769  -6.460  1.00 20.00     0.210 HD
ENDBRANCH   3   6
BRANCH   2   8
HETATM    8  C6  UNL     1     -33.836  16.415  -2.849  1.00 20.00     0.003 C 
HETATM    9  C4  UNL     1     -34.964  16.135  -1.888  1.00 20.00     0.005 C 
ENDBRANCH   2   8
TORSDOF 3
ENDMDL
MODEL 6
REMARK VINA RESULT:      -3.9     15.991     16.533
REMARK  3 active torsions:
REMARK  status: ('A' for Active; 'I' for Inactive)
REMARK    1  A    between atoms: C2_2  and  C6_6 
REMARK    2  A    between atoms: C3_3  and  C7_7 
REMARK    3  A    between atoms: C3_3  and  O8_8 
ROOT
HETATM    1  C1  UNL     1     -23.789  16.300  11.864  1.00 20.00     0.045 A 
HETATM    2  C2  UNL     1     -24.218  16.692  10.473  1.00 20.00     0.022 A 
HETATM    3  C3  UNL     1     -25.071  17.069  11.666  1.00 20.00     0.062 A 
ENDROOT
BRANCH   3   4
HETATM    4  C7  UNL     1     -25.181  18.475  12.155  1.00 20.00     0.034 C 
HETATM    5  C5  UNL     1     -26.504  19.111  11.819  1.00 20.00     0.008 C 
ENDBRANCH   3   4
BRANCH   3   6
HETATM    6  O8  UNL     1     -26.286  16.313  11.821  1.00 20.00    -0.389 OA
HETATM    7  H22 UNL     1     -26.089  15.429  11.482  1.00 20.00     0.210 HD
ENDBRANCH   3   6
BRANCH   2   8
HETATM    8  C6  UNL     1     -23.438  17.698   9.701  1.00 20.00     0.003 C 
HETATM    9  C4  UNL     1     -22.339  17.083   8.871  1.00 20.00     0.005 C 
ENDBRANCH   2   8
TORSDOF 3
ENDMDL
MODEL 7
REMARK VINA RESULT:      -3.9     16.410     17.421
REMARK  3 active torsions:
REMARK  status: ('A' for Active; 'I' for Inactive)
REMARK    1  A    between atoms: C2_2  and  C6_6 
REMARK    2  A    between atoms: C3_3  and  C7_7 
REMARK    3  A    between atoms: C3_3  and  O8_8 
ROOT
HETATM    1  C1  UNL     1     -22.847  16.936   9.266  1.00 20.00     0.045 A 
HETATM    2  C2  UNL     1     -22.850  17.584  10.626  1.00 20.00     0.022 A 
HETATM    3  C3  UNL     1     -22.957  18.436   9.379  1.00 20.00     0.062 A 
ENDROOT
BRANCH   3   4
HETATM    4  C7  UNL     1     -24.224  19.123   8.989  1.00 20.00     0.034 C 
HETATM    5  C5  UNL     1     -24.562  18.945   7.532  1.00 20.00     0.008 C 
ENDBRANCH   3   4
BRANCH   3   6
HETATM    6  O8  UNL     1     -21.774  19.179   9.035  1.00 20.00    -0.389 OA
HETATM    7  H22 UNL     1     -21.066  18.811   9.579  1.00 20.00     0.210 HD
ENDBRANCH   3   6
BRANCH   2   8
HETATM    8  C6  UNL     1     -23.997  17.381  11.554  1.00 20.00     0.003 C 
HETATM    9  C4  UNL     1     -24.537  15.973  11.525  1.00 20.00     0.005 C 
ENDBRANCH   2   8
TORSDOF 3
ENDMDL
MODEL 8
REMARK VINA RESULT:      -3.9     16.814     17.549
REMARK  3 active torsions:
REMARK  status: ('A' for Active; 'I' for Inactive)
REMARK    1  A    between atoms: C2_2  and  C6_6 
REMARK    2  A    between atoms: C3_3  and  C7_7 
REMARK    3  A    between atoms: C3_3  and  O8_8 
ROOT
HETATM    1  C1  UNL     1     -24.121  16.400  11.687  1.00 20.00     0.045 A 
HETATM    2  C2  UNL     1     -24.284  17.762  12.310  1.00 20.00     0.022 A 
HETATM    3  C3  UNL     1     -23.131  17.491  11.366  1.00 20.00     0.062 A 
ENDROOT
BRANCH   3   4
HETATM    4  C7  UNL     1     -23.076  18.067   9.989  1.00 20.00     0.034 C 
HETATM    5  C5  UNL     1     -22.478  17.120   8.982  1.00 20.00     0.008 C 
ENDBRANCH   3   4
BRANCH   3   6
HETATM    6  O8  UNL     1     -21.839  17.368  11.987  1.00 20.00    -0.389 OA
HETATM    7  H22 UNL     1     -21.223  17.165  11.271  1.00 20.00     0.210 HD
ENDBRANCH   3   6
BRANCH   2   8
HETATM    8  C6  UNL     1     -25.435  18.629  11.935  1.00 20.00     0.003 C 
HETATM    9  C4  UNL     1     -26.770  18.025  12.292  1.00 20.00     0.005 C 
ENDBRANCH   2   8
TORSDOF 3
ENDMDL
MODEL 9
REMARK VINA RESULT:      -3.8     11.428     12.506
REMARK  3 active torsions:
REMARK  status: ('A' for Active; 'I' for Inactive)
REMARK    1  A    between atoms: C2_2  and  C6_6 
REMARK    2  A    between atoms: C3_3  and  C7_7 
REMARK    3  A    between atoms: C3_3  and  O8_8 
ROOT
HETATM    1  C1  UNL     1     -35.919  15.072  -3.558  1.00 20.00     0.045 A 
HETATM    2  C2  UNL     1     -34.516  14.525  -3.615  1.00 20.00     0.022 A 
HETATM    3  C3  UNL     1     -35.520  14.154  -4.686  1.00 20.00     0.062 A 
ENDROOT
BRANCH   3   4
HETATM    4  C7  UNL     1     -35.430  14.681  -6.080  1.00 20.00     0.034 C 
HETATM    5  C5  UNL     1     -36.460  15.739  -6.374  1.00 20.00     0.008 C 
ENDBRANCH   3   4
BRANCH   3   6
HETATM    6  O8  UNL     1     -36.034  12.811  -4.614  1.00 20.00    -0.389 OA
HETATM    7  H22 UNL     1     -35.262  12.241  -4.499  1.00 20.00     0.210 HD
ENDBRANCH   3   6
BRANCH   2   8
HETATM    8  C6  UNL     1     -33.365  15.432  -3.880  1.00 20.00     0.003 C 
HETATM    9  C4  UNL     1     -33.220  16.519  -2.846  1.00 20.00     0.005 C 
ENDBRANCH   2   8
TORSDOF 3
ENDMDL
