MODEL 1
REMARK VINA RESULT:      -4.3      0.000      0.000
REMARK  3 active torsions:
REMARK  status: ('A' for Active; 'I' for Inactive)
REMARK    1  A    between atoms: C2_2  and  C6_6 
REMARK    2  A    between atoms: C3_3  and  C7_7 
REMARK    3  A    between atoms: C3_3  and  O8_8 
ROOT
HETATM    1  C1  UNL     1     -31.834   7.272   3.431  1.00 20.00     0.045 A 
HETATM    2  C2  UNL     1     -32.848   7.768   2.433  1.00 20.00     0.022 A 
HETATM    3  C3  UNL     1     -33.097   6.486   3.188  1.00 20.00     0.062 A 
ENDROOT
BRANCH   3   4
HETATM    4  C7  UNL     1     -34.155   6.433   4.240  1.00 20.00     0.034 C 
HETATM    5  C5  UNL     1     -34.837   5.092   4.319  1.00 20.00     0.008 C 
ENDBRANCH   3   4
BRANCH   3   6
HETATM    6  O8  UNL     1     -32.939   5.252   2.465  1.00 20.00    -0.389 OA
HETATM    7  H22 UNL     1     -33.784   5.097   2.022  1.00 20.00     0.210 HD
ENDBRANCH   3   6
BRANCH   2   8
HETATM    8  C6  UNL     1     -32.526   7.768   0.978  1.00 20.00     0.003 C 
HETATM    9  C4  UNL     1     -33.018   9.002   0.265  1.00 20.00     0.005 C 
ENDBRANCH   2   8
TORSDOF 3
ENDMDL
MODEL 2
REMARK VINA RESULT:      -4.1      1.312      3.856
REMARK  3 active torsions:
REMARK  status: ('A' for Active; 'I' for Inactive)
REMARK    1  A    between atoms: C2_2  and  C6_6 
REMARK    2  A    between atoms: C3_3  and  C7_7 
REMARK    3  A    between atoms: C3_3  and  O8_8 
ROOT
HETATM    1  C1  UNL     1     -32.899   5.444   2.781  1.00 20.00     0.045 A 
HETATM    2  C2  UNL     1     -33.893   6.423   3.349  1.00 20.00     0.022 A 
HETATM    3  C3  UNL     1     -32.682   6.925   2.601  1.00 20.00     0.062 A 
ENDROOT
BRANCH   3   4
HETATM    4  C7  UNL     1     -32.842   7.540   1.251  1.00 20.00     0.034 C 
HETATM    5  C5  UNL     1     -32.830   9.047   1.289  1.00 20.00     0.008 C 
ENDBRANCH   3   4
BRANCH   3   6
HETATM    6  O8  UNL     1     -31.618   7.502   3.377  1.00 20.00    -0.389 OA
HETATM    7  H22 UNL     1     -31.368   6.828   4.023  1.00 20.00     0.210 HD
ENDBRANCH   3   6
BRANCH   2   8
HETATM    8  C6  UNL     1     -34.021   6.587   4.825  1.00 20.00     0.003 C 
HETATM    9  C4  UNL     1     -34.781   5.460   5.479  1.00 20.00     0.005 C 
ENDBRANCH   2   8
TORSDOF 3
ENDMDL
MODEL 3
REMARK VINA RESULT:      -4.0      1.852      2.931
REMARK  3 active torsions:
REMARK  status: ('A' for Active; 'I' for Inactive)
REMARK    1  A    between atoms: C2_2  and  C6_6 
REMARK    2  A    between atoms: C3_3  and  C7_7 
REMARK    3  A    between atoms: C3_3  and  O8_8 
ROOT
HETATM    1  C1  UNL     1     -34.127   3.887   3.887  1.00 20.00     0.045 A 
HETATM    2  C2  UNL     1     -33.506   5.242   3.666  1.00 20.00     0.022 A 
HETATM    3  C3  UNL     1     -34.765   5.113   4.489  1.00 20.00     0.062 A 
ENDROOT
BRANCH   3   4
HETATM    4  C7  UNL     1     -34.716   5.328   5.965  1.00 20.00     0.034 C 
HETATM    5  C5  UNL     1     -34.174   6.683   6.342  1.00 20.00     0.008 C 
ENDBRANCH   3   4
BRANCH   3   6
HETATM    6  O8  UNL     1     -35.997   5.542   3.883  1.00 20.00    -0.389 OA
HETATM    7  H22 UNL     1     -36.614   5.681   4.613  1.00 20.00     0.210 HD
ENDBRANCH   3   6
BRANCH   2   8
HETATM    8  C6  UNL     1     -33.520   5.858   2.310  1.00 20.00     0.003 C 
HETATM    9  C4  UNL     1     -32.619   7.062   2.200  1.00 20.00     0.005 C 
ENDBRANCH   2   8
TORSDOF 3
ENDMDL
MODEL 4
REMARK VINA RESULT:      -3.9     10.312     11.662
REMARK  3 active torsions:
REMARK  status: ('A' for Active; 'I' for Inactive)
REMARK    1  A    between atoms: C2_2  and  C6_6 
REMARK    2  A    between atoms: C3_3  and  C7_7 
REMARK    3  A    between atoms: C3_3  and  O8_8 
ROOT
HETATM    1  C1  UNL     1     -34.746  14.282  -3.860  1.00 20.00     0.045 A 
HETATM    2  C2  UNL     1     -34.319  15.726  -3.913  1.00 20.00     0.022 A 
HETATM    3  C3  UNL     1     -34.056  14.817  -5.089  1.00 20.00     0.062 A 
ENDROOT
BRANCH   3   4
HETATM    4  C7  UNL     1     -34.824  14.995  -6.355  1.00 20.00     0.034 C 
HETATM    5  C5  UNL     1     -33.938  15.245  -7.549  1.00 20.00     0.008 C 
ENDBRANCH   3   4
BRANCH   3   6
HETATM    6  O8  UNL     1     -32.702  14.375  -5.291  1.00 20.00    -0.389 OA
HETATM    7  H22 UNL     1     -32.534  14.465  -6.238  1.00 20.00     0.210 HD
ENDBRANCH   3   6
BRANCH   2   8
HETATM    8  C6  UNL     1     -33.214  16.211  -3.039  1.00 20.00     0.003 C 
HETATM    9  C4  UNL     1     -33.697  17.085  -1.909  1.00 20.00     0.005 C 
ENDBRANCH   2   8
TORSDOF 3
ENDMDL
MODEL 5
REMARK VINA RESULT:      -3.7     15.728     16.431
REMARK  3 active torsions:
REMARK  status: ('A' for Active; 'I' for Inactive)
REMARK    1  A    between atoms: C2_2  and  C6_6 
REMARK    2  A    between atoms: C3_3  and  C7_7 
REMARK    3  A    between atoms: C3_3  and  O8_8 
ROOT
HETATM    1  C1  UNL     1     -23.931  16.728  10.461  1.00 20.00     0.045 A 
HETATM    2  C2  UNL     1     -23.157  18.020  10.523  1.00 20.00     0.022 A 
HETATM    3  C3  UNL     1     -24.666  18.041  10.559  1.00 20.00     0.062 A 
ENDROOT
BRANCH   3   4
HETATM    4  C7  UNL     1     -25.377  18.404  11.819  1.00 20.00     0.034 C 
HETATM    5  C5  UNL     1     -26.594  19.260  11.581  1.00 20.00     0.008 C 
ENDBRANCH   3   4
BRANCH   3   6
HETATM    6  O8  UNL     1     -25.349  18.467   9.367  1.00 20.00    -0.389 OA
HETATM    7  H22 UNL     1     -25.575  17.659   8.889  1.00 20.00     0.210 HD
ENDBRANCH   3   6
BRANCH   2   8
HETATM    8  C6  UNL     1     -22.398  18.494   9.331  1.00 20.00     0.003 C 
HETATM    9  C4  UNL     1     -21.670  17.383   8.616  1.00 20.00     0.005 C 
ENDBRANCH   2   8
TORSDOF 3
ENDMDL
MODEL 6
REMARK VINA RESULT:      -3.7      9.044      9.860
REMARK  3 active torsions:
REMARK  status: ('A' for Active; 'I' for Inactive)
REMARK    1  A    between atoms: C2_2  and  C6_6 
REMARK    2  A    between atoms: C3_3  and  C7_7 
REMARK    3  A    between atoms: C3_3  and  O8_8 
ROOT
HETATM    1  C1  UNL     1     -42.591   5.387   0.959  1.00 20.00     0.045 A 
HETATM    2  C2  UNL     1     -42.466   6.733   0.294  1.00 20.00     0.022 A 
HETATM    3  C3  UNL     1     -42.282   5.471  -0.514  1.00 20.00     0.062 A 
ENDROOT
BRANCH   3   4
HETATM    4  C7  UNL     1     -43.313   5.070  -1.515  1.00 20.00     0.034 C 
HETATM    5  C5  UNL     1     -42.926   3.840  -2.295  1.00 20.00     0.008 C 
ENDBRANCH   3   4
BRANCH   3   6
HETATM    6  O8  UNL     1     -40.940   5.120  -0.895  1.00 20.00    -0.389 OA
HETATM    7  H22 UNL     1     -40.971   4.185  -1.135  1.00 20.00     0.210 HD
ENDBRANCH   3   6
BRANCH   2   8
HETATM    8  C6  UNL     1     -41.317   7.624   0.621  1.00 20.00     0.003 C 
HETATM    9  C4  UNL     1     -41.544   9.055   0.204  1.00 20.00     0.005 C 
ENDBRANCH   2   8
TORSDOF 3
ENDMDL
MODEL 7
REMARK VINA RESULT:      -3.5      9.154     10.044
REMARK  3 active torsions:
REMARK  status: ('A' for Active; 'I' for Inactive)
REMARK    1  A    between atoms: C2_2  and  C6_6 
REMARK    2  A    between atoms: C3_3  and  C7_7 
REMARK    3  A    between atoms: C3_3  and  O8_8 
ROOT
HETATM    1  C1  UNL     1     -41.178   5.745  -0.977  1.00 20.00     0.045 A 
HETATM    2  C2  UNL     1     -42.652   5.498  -1.170  1.00 20.00     0.022 A 
HETATM    3  C3  UNL     1     -42.121   5.864   0.194  1.00 20.00     0.062 A 
ENDROOT
BRANCH   3   4
HETATM    4  C7  UNL     1     -42.419   7.205   0.775  1.00 20.00     0.034 C 
HETATM    5  C5  UNL     1     -41.345   8.222   0.486  1.00 20.00     0.008 C 
ENDBRANCH   3   4
BRANCH   3   6
HETATM    6  O8  UNL     1     -42.039   4.814   1.174  1.00 20.00    -0.389 OA
HETATM    7  H22 UNL     1     -41.184   4.927   1.610  1.00 20.00     0.210 HD
ENDBRANCH   3   6
BRANCH   2   8
HETATM    8  C6  UNL     1     -43.146   4.126  -1.474  1.00 20.00     0.003 C 
HETATM    9  C4  UNL     1     -42.486   3.516  -2.684  1.00 20.00     0.005 C 
ENDBRANCH   2   8
TORSDOF 3
ENDMDL
MODEL 8
REMARK VINA RESULT:      -3.5      8.727      9.662
REMARK  3 active torsions:
REMARK  status: ('A' for Active; 'I' for Inactive)
REMARK    1  A    between atoms: C2_2  and  C6_6 
REMARK    2  A    between atoms: C3_3  and  C7_7 
REMARK    3  A    between atoms: C3_3  and  O8_8 
ROOT
HETATM    1  C1  UNL     1     -41.050   5.656  -1.118  1.00 20.00     0.045 A 
HETATM    2  C2  UNL     1     -42.359   5.783  -0.384  1.00 20.00     0.022 A 
HETATM    3  C3  UNL     1     -41.283   6.824  -0.193  1.00 20.00     0.062 A 
ENDROOT
BRANCH   3   4
HETATM    4  C7  UNL     1     -41.463   8.193  -0.757  1.00 20.00     0.034 C 
HETATM    5  C5  UNL     1     -41.520   9.261   0.305  1.00 20.00     0.008 C 
ENDBRANCH   3   4
BRANCH   3   6
HETATM    6  O8  UNL     1     -40.552   6.799   1.045  1.00 20.00    -0.389 OA
HETATM    7  H22 UNL     1     -40.859   6.013   1.516  1.00 20.00     0.210 HD
ENDBRANCH   3   6
BRANCH   2   8
HETATM    8  C6  UNL     1     -42.708   4.815   0.694  1.00 20.00     0.003 C 
HETATM    9  C4  UNL     1     -43.417   5.460   1.859  1.00 20.00     0.005 C 
ENDBRANCH   2   8
TORSDOF 3
ENDMDL
MODEL 9
REMARK VINA RESULT:      -3.5     15.707     16.658
REMARK  3 active torsions:
REMARK  status: ('A' for Active; 'I' for Inactive)
REMARK    1  A    between atoms: C2_2  and  C6_6 
REMARK    2  A    between atoms: C3_3  and  C7_7 
REMARK    3  A    between atoms: C3_3  and  O8_8 
ROOT
HETATM    1  C1  UNL     1     -24.941  16.527  11.802  1.00 20.00     0.045 A 
HETATM    2  C2  UNL     1     -23.989  17.666  12.062  1.00 20.00     0.022 A 
HETATM    3  C3  UNL     1     -25.297  17.921  11.354  1.00 20.00     0.062 A 
ENDROOT
BRANCH   3   4
HETATM    4  C7  UNL     1     -26.386  18.670  12.048  1.00 20.00     0.034 C 
HETATM    5  C5  UNL     1     -27.595  17.816  12.332  1.00 20.00     0.008 C 
ENDBRANCH   3   4
BRANCH   3   6
HETATM    6  O8  UNL     1     -25.246  18.157   9.936  1.00 20.00    -0.389 OA
HETATM    7  H22 UNL     1     -25.611  17.363   9.524  1.00 20.00     0.210 HD
ENDBRANCH   3   6
BRANCH   2   8
HETATM    8  C6  UNL     1     -22.686  17.730  11.341  1.00 20.00     0.003 C 
HETATM    9  C4  UNL     1     -21.503  17.833  12.270  1.00 20.00     0.005 C 
ENDBRANCH   2   8
TORSDOF 3
ENDMDL
