MODEL 1
REMARK VINA RESULT:      -4.3      0.000      0.000
REMARK  2 active torsions:
REMARK  status: ('A' for Active; 'I' for Inactive)
REMARK    1  A    between atoms: C5_5  and  C7_7 
REMARK    2  A    between atoms: C7_7  and  C8_8 
ROOT
HETATM    1  C1  UNL     1     -22.732  16.890   9.101  1.00 20.00     0.066 C 
HETATM    2  C2  UNL     1     -24.157  16.060  10.934  1.00 20.00     0.048 C 
HETATM    3  C3  UNL     1     -23.498  16.802  12.076  1.00 20.00     0.169 C 
HETATM    4  C4  UNL     1     -24.034  17.033   9.781  1.00 20.00     0.123 C 
HETATM    5  C5  UNL     1     -24.140  18.390  10.481  1.00 20.00     0.139 C 
HETATM    6  N9  UNL     1     -21.709  16.777   8.567  1.00 20.00    -0.197 NA
HETATM    7  O10 UNL     1     -23.726  18.198  11.848  1.00 20.00    -0.384 OA
ENDROOT
BRANCH   5   8
HETATM    8  C7  UNL     1     -25.567  18.926  10.500  1.00 20.00     0.033 C 
BRANCH   8   9
HETATM    9  C8  UNL     1     -26.075  19.102  11.928  1.00 20.00    -0.002 C 
HETATM   10  C6  UNL     1     -27.171  18.101  12.254  1.00 20.00     0.005 C 
ENDBRANCH   8   9
ENDBRANCH   5   8
TORSDOF 2
ENDMDL
MODEL 2
REMARK VINA RESULT:      -4.3     18.017     18.573
REMARK  2 active torsions:
REMARK  status: ('A' for Active; 'I' for Inactive)
REMARK    1  A    between atoms: C5_5  and  C7_7 
REMARK    2  A    between atoms: C7_7  and  C8_8 
ROOT
HETATM    1  C1  UNL     1     -36.301  14.098  -4.453  1.00 20.00     0.066 C 
HETATM    2  C2  UNL     1     -34.367  14.818  -5.802  1.00 20.00     0.048 C 
HETATM    3  C3  UNL     1     -34.825  16.227  -6.106  1.00 20.00     0.169 C 
HETATM    4  C4  UNL     1     -34.907  14.579  -4.407  1.00 20.00     0.123 C 
HETATM    5  C5  UNL     1     -34.827  15.972  -3.780  1.00 20.00     0.139 C 
HETATM    6  N9  UNL     1     -37.397  13.720  -4.489  1.00 20.00    -0.197 NA
HETATM    7  O10 UNL     1     -34.862  16.928  -4.857  1.00 20.00    -0.384 OA
ENDROOT
BRANCH   5   8
HETATM    8  C7  UNL     1     -33.532  16.191  -3.008  1.00 20.00     0.033 C 
BRANCH   8   9
HETATM    9  C8  UNL     1     -33.755  17.076  -1.785  1.00 20.00    -0.002 C 
HETATM   10  C6  UNL     1     -35.119  16.825  -1.162  1.00 20.00     0.005 C 
ENDBRANCH   8   9
ENDBRANCH   5   8
TORSDOF 2
ENDMDL
MODEL 3
REMARK VINA RESULT:      -4.2     17.215     17.839
REMARK  2 active torsions:
REMARK  status: ('A' for Active; 'I' for Inactive)
REMARK    1  A    between atoms: C5_5  and  C7_7 
REMARK    2  A    between atoms: C7_7  and  C8_8 
ROOT
HETATM    1  C1  UNL     1     -35.433  13.872  -4.401  1.00 20.00     0.066 C 
HETATM    2  C2  UNL     1     -35.815  16.286  -4.721  1.00 20.00     0.048 C 
HETATM    3  C3  UNL     1     -36.550  16.564  -3.427  1.00 20.00     0.169 C 
HETATM    4  C4  UNL     1     -34.824  15.213  -4.324  1.00 20.00     0.123 C 
HETATM    5  C5  UNL     1     -34.497  15.584  -2.876  1.00 20.00     0.139 C 
HETATM    6  N9  UNL     1     -35.912  12.817  -4.463  1.00 20.00    -0.197 NA
HETATM    7  O10 UNL     1     -35.617  16.333  -2.365  1.00 20.00    -0.384 OA
ENDROOT
BRANCH   5   8
HETATM    8  C7  UNL     1     -33.260  16.467  -2.765  1.00 20.00     0.033 C 
BRANCH   8   9
HETATM    9  C8  UNL     1     -33.403  17.485  -1.637  1.00 20.00    -0.002 C 
HETATM   10  C6  UNL     1     -32.091  18.204  -1.370  1.00 20.00     0.005 C 
ENDBRANCH   8   9
ENDBRANCH   5   8
TORSDOF 2
ENDMDL
MODEL 4
REMARK VINA RESULT:      -4.1     17.345     17.898
REMARK  2 active torsions:
REMARK  status: ('A' for Active; 'I' for Inactive)
REMARK    1  A    between atoms: C5_5  and  C7_7 
REMARK    2  A    between atoms: C7_7  and  C8_8 
ROOT
HETATM    1  C1  UNL     1     -35.430  13.671  -4.153  1.00 20.00     0.066 C 
HETATM    2  C2  UNL     1     -33.909  15.472  -4.876  1.00 20.00     0.048 C 
HETATM    3  C3  UNL     1     -34.949  16.527  -5.182  1.00 20.00     0.169 C 
HETATM    4  C4  UNL     1     -34.511  14.732  -3.700  1.00 20.00     0.123 C 
HETATM    5  C5  UNL     1     -35.270  15.840  -2.967  1.00 20.00     0.139 C 
HETATM    6  N9  UNL     1     -36.153  12.837  -4.510  1.00 20.00    -0.197 NA
HETATM    7  O10 UNL     1     -35.576  16.861  -3.938  1.00 20.00    -0.384 OA
ENDROOT
BRANCH   5   8
HETATM    8  C7  UNL     1     -34.441  16.485  -1.863  1.00 20.00     0.033 C 
BRANCH   8   9
HETATM    9  C8  UNL     1     -35.321  16.954  -0.708  1.00 20.00    -0.002 C 
HETATM   10  C6  UNL     1     -34.569  17.900   0.212  1.00 20.00     0.005 C 
ENDBRANCH   8   9
ENDBRANCH   5   8
TORSDOF 2
ENDMDL
MODEL 5
REMARK VINA RESULT:      -4.0     18.204     18.756
REMARK  2 active torsions:
REMARK  status: ('A' for Active; 'I' for Inactive)
REMARK    1  A    between atoms: C5_5  and  C7_7 
REMARK    2  A    between atoms: C7_7  and  C8_8 
ROOT
HETATM    1  C1  UNL     1     -34.323  15.373  -6.620  1.00 20.00     0.066 C 
HETATM    2  C2  UNL     1     -36.359  15.121  -5.253  1.00 20.00     0.048 C 
HETATM    3  C3  UNL     1     -36.183  13.668  -4.866  1.00 20.00     0.169 C 
HETATM    4  C4  UNL     1     -34.935  15.633  -5.303  1.00 20.00     0.123 C 
HETATM    5  C5  UNL     1     -34.250  14.812  -4.208  1.00 20.00     0.139 C 
HETATM    6  N9  UNL     1     -33.841  15.169  -7.656  1.00 20.00    -0.197 NA
HETATM    7  O10 UNL     1     -35.010  13.598  -4.048  1.00 20.00    -0.384 OA
ENDROOT
BRANCH   5   8
HETATM    8  C7  UNL     1     -34.234  15.529  -2.864  1.00 20.00     0.033 C 
BRANCH   8   9
HETATM    9  C8  UNL     1     -33.166  16.618  -2.828  1.00 20.00    -0.002 C 
HETATM   10  C6  UNL     1     -33.368  17.553  -1.647  1.00 20.00     0.005 C 
ENDBRANCH   8   9
ENDBRANCH   5   8
TORSDOF 2
ENDMDL
MODEL 6
REMARK VINA RESULT:      -4.0     19.496     20.119
REMARK  2 active torsions:
REMARK  status: ('A' for Active; 'I' for Inactive)
REMARK    1  A    between atoms: C5_5  and  C7_7 
REMARK    2  A    between atoms: C7_7  and  C8_8 
ROOT
HETATM    1  C1  UNL     1     -36.764  15.789  -6.716  1.00 20.00     0.066 C 
HETATM    2  C2  UNL     1     -37.571  15.982  -4.395  1.00 20.00     0.048 C 
HETATM    3  C3  UNL     1     -38.348  14.686  -4.326  1.00 20.00     0.169 C 
HETATM    4  C4  UNL     1     -36.404  15.630  -5.295  1.00 20.00     0.123 C 
HETATM    5  C5  UNL     1     -36.155  14.160  -4.952  1.00 20.00     0.139 C 
HETATM    6  N9  UNL     1     -37.046  15.913  -7.835  1.00 20.00    -0.197 NA
HETATM    7  O10 UNL     1     -37.393  13.625  -4.444  1.00 20.00    -0.384 OA
ENDROOT
BRANCH   5   8
HETATM    8  C7  UNL     1     -35.097  13.984  -3.870  1.00 20.00     0.033 C 
BRANCH   8   9
HETATM    9  C8  UNL     1     -33.998  15.036  -3.991  1.00 20.00    -0.002 C 
HETATM   10  C6  UNL     1     -33.921  15.902  -2.744  1.00 20.00     0.005 C 
ENDBRANCH   8   9
ENDBRANCH   5   8
TORSDOF 2
ENDMDL
MODEL 7
REMARK VINA RESULT:      -4.0     15.588     16.327
REMARK  2 active torsions:
REMARK  status: ('A' for Active; 'I' for Inactive)
REMARK    1  A    between atoms: C5_5  and  C7_7 
REMARK    2  A    between atoms: C7_7  and  C8_8 
ROOT
HETATM    1  C1  UNL     1     -31.715  18.201  -0.856  1.00 20.00     0.066 C 
HETATM    2  C2  UNL     1     -33.738  19.064  -1.971  1.00 20.00     0.048 C 
HETATM    3  C3  UNL     1     -33.216  19.076  -3.391  1.00 20.00     0.169 C 
HETATM    4  C4  UNL     1     -33.054  17.854  -1.368  1.00 20.00     0.123 C 
HETATM    5  C5  UNL     1     -32.954  16.902  -2.563  1.00 20.00     0.139 C 
HETATM    6  N9  UNL     1     -30.663  18.474  -0.452  1.00 20.00    -0.197 NA
HETATM    7  O10 UNL     1     -32.978  17.711  -3.755  1.00 20.00    -0.384 OA
ENDROOT
BRANCH   5   8
HETATM    8  C7  UNL     1     -34.129  15.934  -2.637  1.00 20.00     0.033 C 
BRANCH   8   9
HETATM    9  C8  UNL     1     -34.039  15.045  -3.874  1.00 20.00    -0.002 C 
HETATM   10  C6  UNL     1     -35.217  14.088  -3.954  1.00 20.00     0.005 C 
ENDBRANCH   8   9
ENDBRANCH   5   8
TORSDOF 2
ENDMDL
MODEL 8
REMARK VINA RESULT:      -4.0      2.528      3.993
REMARK  2 active torsions:
REMARK  status: ('A' for Active; 'I' for Inactive)
REMARK    1  A    between atoms: C5_5  and  C7_7 
REMARK    2  A    between atoms: C7_7  and  C8_8 
ROOT
HETATM    1  C1  UNL     1     -26.295  18.239  11.957  1.00 20.00     0.066 C 
HETATM    2  C2  UNL     1     -23.914  17.720  12.332  1.00 20.00     0.048 C 
HETATM    3  C3  UNL     1     -23.886  16.350  11.689  1.00 20.00     0.169 C 
HETATM    4  C4  UNL     1     -24.918  18.472  11.483  1.00 20.00     0.123 C 
HETATM    5  C5  UNL     1     -24.704  17.860  10.098  1.00 20.00     0.139 C 
HETATM    6  N9  UNL     1     -27.378  18.056  12.330  1.00 20.00    -0.197 NA
HETATM    7  O10 UNL     1     -24.150  16.544  10.294  1.00 20.00    -0.384 OA
ENDROOT
BRANCH   5   8
HETATM    8  C7  UNL     1     -23.715  18.656   9.254  1.00 20.00     0.033 C 
BRANCH   8   9
HETATM    9  C8  UNL     1     -22.627  17.756   8.676  1.00 20.00    -0.002 C 
HETATM   10  C6  UNL     1     -21.312  17.931   9.419  1.00 20.00     0.005 C 
ENDBRANCH   8   9
ENDBRANCH   5   8
TORSDOF 2
ENDMDL
MODEL 9
REMARK VINA RESULT:      -3.7     18.583     19.162
REMARK  2 active torsions:
REMARK  status: ('A' for Active; 'I' for Inactive)
REMARK    1  A    between atoms: C5_5  and  C7_7 
REMARK    2  A    between atoms: C7_7  and  C8_8 
ROOT
HETATM    1  C1  UNL     1     -34.490  17.502  -6.334  1.00 20.00     0.066 C 
HETATM    2  C2  UNL     1     -36.281  15.867  -5.886  1.00 20.00     0.048 C 
HETATM    3  C3  UNL     1     -35.653  14.666  -6.561  1.00 20.00     0.169 C 
HETATM    4  C4  UNL     1     -35.083  16.605  -5.324  1.00 20.00     0.123 C 
HETATM    5  C5  UNL     1     -34.126  15.463  -4.975  1.00 20.00     0.139 C 
HETATM    6  N9  UNL     1     -34.024  18.208  -7.127  1.00 20.00    -0.197 NA
HETATM    7  O10 UNL     1     -34.473  14.344  -5.815  1.00 20.00    -0.384 OA
ENDROOT
BRANCH   5   8
HETATM    8  C7  UNL     1     -34.259  15.012  -3.526  1.00 20.00     0.033 C 
BRANCH   8   9
HETATM    9  C8  UNL     1     -33.929  16.145  -2.559  1.00 20.00    -0.002 C 
HETATM   10  C6  UNL     1     -35.080  16.410  -1.602  1.00 20.00     0.005 C 
ENDBRANCH   8   9
ENDBRANCH   5   8
TORSDOF 2
ENDMDL
