MODEL 1
REMARK VINA RESULT:      -4.4      0.000      0.000
REMARK  3 active torsions:
REMARK  status: ('A' for Active; 'I' for Inactive)
REMARK    1  A    between atoms: C2_2  and  C6_6 
REMARK    2  A    between atoms: C3_3  and  O8_8 
REMARK    3  A    between atoms: C6_6  and  C7_7 
ROOT
HETATM    1  C1  UNL     1     -33.820   4.503   3.678  1.00 20.00     0.045 A 
HETATM    2  C2  UNL     1     -33.982   5.918   3.187  1.00 20.00     0.022 A 
HETATM    3  C3  UNL     1     -34.751   5.443   4.401  1.00 20.00     0.058 A 
HETATM    4  C4  UNL     1     -34.423   5.903   5.782  1.00 20.00     0.046 C 
ENDROOT
BRANCH   2   5
HETATM    5  C6  UNL     1     -32.851   6.882   3.286  1.00 20.00     0.007 C 
BRANCH   5   6
HETATM    6  C7  UNL     1     -32.207   7.179   1.920  1.00 20.00    -0.004 C 
HETATM    7  C5  UNL     1     -32.872   8.342   1.202  1.00 20.00     0.005 C 
ENDBRANCH   5   6
ENDBRANCH   2   5
BRANCH   3   8
HETATM    8  O8  UNL     1     -36.158   5.218   4.192  1.00 20.00    -0.390 OA
HETATM    9  H22 UNL     1     -36.552   6.095   4.099  1.00 20.00     0.210 HD
ENDBRANCH   3   8
TORSDOF 3
ENDMDL
MODEL 2
REMARK VINA RESULT:      -4.1      8.785      9.296
REMARK  3 active torsions:
REMARK  status: ('A' for Active; 'I' for Inactive)
REMARK    1  A    between atoms: C2_2  and  C6_6 
REMARK    2  A    between atoms: C3_3  and  O8_8 
REMARK    3  A    between atoms: C6_6  and  C7_7 
ROOT
HETATM    1  C1  UNL     1     -41.418   5.946   0.271  1.00 20.00     0.045 A 
HETATM    2  C2  UNL     1     -41.199   6.780  -0.964  1.00 20.00     0.022 A 
HETATM    3  C3  UNL     1     -41.527   5.308  -1.091  1.00 20.00     0.058 A 
HETATM    4  C4  UNL     1     -42.850   4.827  -1.586  1.00 20.00     0.046 C 
ENDROOT
BRANCH   2   5
HETATM    5  C6  UNL     1     -42.169   7.849  -1.332  1.00 20.00     0.007 C 
BRANCH   5   6
HETATM    6  C7  UNL     1     -42.529   8.755  -0.140  1.00 20.00    -0.004 C 
HETATM    7  C5  UNL     1     -41.345   9.574   0.347  1.00 20.00     0.005 C 
ENDBRANCH   5   6
ENDBRANCH   2   5
BRANCH   3   8
HETATM    8  O8  UNL     1     -40.429   4.462  -1.477  1.00 20.00    -0.390 OA
HETATM    9  H22 UNL     1     -39.782   5.046  -1.892  1.00 20.00     0.210 HD
ENDBRANCH   3   8
TORSDOF 3
ENDMDL
MODEL 3
REMARK VINA RESULT:      -4.1     11.596     12.441
REMARK  3 active torsions:
REMARK  status: ('A' for Active; 'I' for Inactive)
REMARK    1  A    between atoms: C2_2  and  C6_6 
REMARK    2  A    between atoms: C3_3  and  O8_8 
REMARK    3  A    between atoms: C6_6  and  C7_7 
ROOT
HETATM    1  C1  UNL     1     -34.673  14.274  -4.188  1.00 20.00     0.045 A 
HETATM    2  C2  UNL     1     -33.530  15.156  -3.757  1.00 20.00     0.022 A 
HETATM    3  C3  UNL     1     -33.998  15.168  -5.197  1.00 20.00     0.058 A 
HETATM    4  C4  UNL     1     -34.739  16.323  -5.784  1.00 20.00     0.046 C 
ENDROOT
BRANCH   2   5
HETATM    5  C6  UNL     1     -33.770  16.298  -2.831  1.00 20.00     0.007 C 
BRANCH   5   6
HETATM    6  C7  UNL     1     -35.018  16.093  -1.953  1.00 20.00    -0.004 C 
HETATM    7  C5  UNL     1     -35.083  17.077  -0.796  1.00 20.00     0.005 C 
ENDBRANCH   5   6
ENDBRANCH   2   5
BRANCH   3   8
HETATM    8  O8  UNL     1     -33.127  14.511  -6.135  1.00 20.00    -0.390 OA
HETATM    9  H22 UNL     1     -33.206  15.009  -6.959  1.00 20.00     0.210 HD
ENDBRANCH   3   8
TORSDOF 3
ENDMDL
MODEL 4
REMARK VINA RESULT:      -4.0     16.544     17.143
REMARK  3 active torsions:
REMARK  status: ('A' for Active; 'I' for Inactive)
REMARK    1  A    between atoms: C2_2  and  C6_6 
REMARK    2  A    between atoms: C3_3  and  O8_8 
REMARK    3  A    between atoms: C6_6  and  C7_7 
ROOT
HETATM    1  C1  UNL     1     -22.703  17.947  12.193  1.00 20.00     0.045 A 
HETATM    2  C2  UNL     1     -22.851  17.506  10.759  1.00 20.00     0.022 A 
HETATM    3  C3  UNL     1     -23.766  16.942  11.826  1.00 20.00     0.058 A 
HETATM    4  C4  UNL     1     -25.208  17.315  11.916  1.00 20.00     0.046 C 
ENDROOT
BRANCH   2   5
HETATM    5  C6  UNL     1     -23.329  18.464   9.724  1.00 20.00     0.007 C 
BRANCH   5   6
HETATM    6  C7  UNL     1     -22.967  18.019   8.296  1.00 20.00    -0.004 C 
HETATM    7  C5  UNL     1     -21.628  17.303   8.230  1.00 20.00     0.005 C 
ENDBRANCH   5   6
ENDBRANCH   2   5
BRANCH   3   8
HETATM    8  O8  UNL     1     -23.501  15.580  12.209  1.00 20.00    -0.390 OA
HETATM    9  H22 UNL     1     -23.848  15.035  11.492  1.00 20.00     0.210 HD
ENDBRANCH   3   8
TORSDOF 3
ENDMDL
MODEL 5
REMARK VINA RESULT:      -4.0     11.093     11.989
REMARK  3 active torsions:
REMARK  status: ('A' for Active; 'I' for Inactive)
REMARK    1  A    between atoms: C2_2  and  C6_6 
REMARK    2  A    between atoms: C3_3  and  O8_8 
REMARK    3  A    between atoms: C6_6  and  C7_7 
ROOT
HETATM    1  C1  UNL     1     -35.966  15.059  -3.578  1.00 20.00     0.045 A 
HETATM    2  C2  UNL     1     -34.552  14.542  -3.621  1.00 20.00     0.022 A 
HETATM    3  C3  UNL     1     -35.542  14.133  -4.690  1.00 20.00     0.058 A 
HETATM    4  C4  UNL     1     -35.456  14.639  -6.091  1.00 20.00     0.046 C 
ENDROOT
BRANCH   2   5
HETATM    5  C6  UNL     1     -33.420  15.471  -3.895  1.00 20.00     0.007 C 
BRANCH   5   6
HETATM    6  C7  UNL     1     -33.240  16.524  -2.787  1.00 20.00    -0.004 C 
HETATM    7  C5  UNL     1     -32.985  17.916  -3.343  1.00 20.00     0.005 C 
ENDBRANCH   5   6
ENDBRANCH   2   5
BRANCH   3   8
HETATM    8  O8  UNL     1     -36.025  12.780  -4.599  1.00 20.00    -0.390 OA
HETATM    9  H22 UNL     1     -35.482  12.267  -5.211  1.00 20.00     0.210 HD
ENDBRANCH   3   8
TORSDOF 3
ENDMDL
MODEL 6
REMARK VINA RESULT:      -3.8     11.467     12.664
REMARK  3 active torsions:
REMARK  status: ('A' for Active; 'I' for Inactive)
REMARK    1  A    between atoms: C2_2  and  C6_6 
REMARK    2  A    between atoms: C3_3  and  O8_8 
REMARK    3  A    between atoms: C6_6  and  C7_7 
ROOT
HETATM    1  C1  UNL     1     -36.068  15.660  -5.401  1.00 20.00     0.045 A 
HETATM    2  C2  UNL     1     -35.559  14.389  -4.772  1.00 20.00     0.022 A 
HETATM    3  C3  UNL     1     -35.257  14.691  -6.224  1.00 20.00     0.058 A 
HETATM    4  C4  UNL     1     -33.891  15.070  -6.692  1.00 20.00     0.046 C 
ENDROOT
BRANCH   2   5
HETATM    5  C6  UNL     1     -34.514  14.441  -3.712  1.00 20.00     0.007 C 
BRANCH   5   6
HETATM    6  C7  UNL     1     -34.721  15.613  -2.736  1.00 20.00    -0.004 C 
HETATM    7  C5  UNL     1     -33.502  16.515  -2.640  1.00 20.00     0.005 C 
ENDBRANCH   5   6
ENDBRANCH   2   5
BRANCH   3   8
HETATM    8  O8  UNL     1     -35.994  13.911  -7.183  1.00 20.00    -0.390 OA
HETATM    9  H22 UNL     1     -35.818  12.988  -6.960  1.00 20.00     0.210 HD
ENDBRANCH   3   8
TORSDOF 3
ENDMDL
MODEL 7
REMARK VINA RESULT:      -3.8     12.018     13.001
REMARK  3 active torsions:
REMARK  status: ('A' for Active; 'I' for Inactive)
REMARK    1  A    between atoms: C2_2  and  C6_6 
REMARK    2  A    between atoms: C3_3  and  O8_8 
REMARK    3  A    between atoms: C6_6  and  C7_7 
ROOT
HETATM    1  C1  UNL     1     -32.387  19.248  -1.857  1.00 20.00     0.045 A 
HETATM    2  C2  UNL     1     -32.618  17.763  -1.752  1.00 20.00     0.022 A 
HETATM    3  C3  UNL     1     -31.885  18.498  -0.650  1.00 20.00     0.058 A 
HETATM    4  C4  UNL     1     -32.497  18.742   0.689  1.00 20.00     0.046 C 
ENDROOT
BRANCH   2   5
HETATM    5  C6  UNL     1     -33.996  17.228  -1.574  1.00 20.00     0.007 C 
BRANCH   5   6
HETATM    6  C7  UNL     1     -34.281  16.017  -2.480  1.00 20.00    -0.004 C 
HETATM    7  C5  UNL     1     -33.174  15.773  -3.493  1.00 20.00     0.005 C 
ENDBRANCH   5   6
ENDBRANCH   2   5
BRANCH   3   8
HETATM    8  O8  UNL     1     -30.464  18.272  -0.597  1.00 20.00    -0.390 OA
HETATM    9  H22 UNL     1     -30.257  18.130   0.336  1.00 20.00     0.210 HD
ENDBRANCH   3   8
TORSDOF 3
ENDMDL
MODEL 8
REMARK VINA RESULT:      -3.7      1.246      1.620
REMARK  3 active torsions:
REMARK  status: ('A' for Active; 'I' for Inactive)
REMARK    1  A    between atoms: C2_2  and  C6_6 
REMARK    2  A    between atoms: C3_3  and  O8_8 
REMARK    3  A    between atoms: C6_6  and  C7_7 
ROOT
HETATM    1  C1  UNL     1     -35.507   5.777   3.969  1.00 20.00     0.045 A 
HETATM    2  C2  UNL     1     -34.081   6.262   3.985  1.00 20.00     0.022 A 
HETATM    3  C3  UNL     1     -34.478   5.044   4.791  1.00 20.00     0.058 A 
HETATM    4  C4  UNL     1     -34.061   3.663   4.407  1.00 20.00     0.046 C 
ENDROOT
BRANCH   2   5
HETATM    5  C6  UNL     1     -33.241   6.168   2.758  1.00 20.00     0.007 C 
BRANCH   5   6
HETATM    6  C7  UNL     1     -32.336   7.397   2.567  1.00 20.00    -0.004 C 
HETATM    7  C5  UNL     1     -32.567   8.089   1.233  1.00 20.00     0.005 C 
ENDBRANCH   5   6
ENDBRANCH   2   5
BRANCH   3   8
HETATM    8  O8  UNL     1     -34.553   5.243   6.215  1.00 20.00    -0.390 OA
HETATM    9  H22 UNL     1     -34.191   6.124   6.375  1.00 20.00     0.210 HD
ENDBRANCH   3   8
TORSDOF 3
ENDMDL
MODEL 9
REMARK VINA RESULT:      -3.7      8.945      9.718
REMARK  3 active torsions:
REMARK  status: ('A' for Active; 'I' for Inactive)
REMARK    1  A    between atoms: C2_2  and  C6_6 
REMARK    2  A    between atoms: C3_3  and  O8_8 
REMARK    3  A    between atoms: C6_6  and  C7_7 
ROOT
HETATM    1  C1  UNL     1     -41.147   7.983  -0.742  1.00 20.00     0.045 A 
HETATM    2  C2  UNL     1     -41.525   7.719   0.693  1.00 20.00     0.022 A 
HETATM    3  C3  UNL     1     -41.992   8.984   0.005  1.00 20.00     0.058 A 
HETATM    4  C4  UNL     1     -43.416   9.198  -0.387  1.00 20.00     0.046 C 
ENDROOT
BRANCH   2   5
HETATM    5  C6  UNL     1     -42.454   6.605   1.032  1.00 20.00     0.007 C 
BRANCH   5   6
HETATM    6  C7  UNL     1     -42.148   5.320   0.243  1.00 20.00    -0.004 C 
HETATM    7  C5  UNL     1     -43.195   5.024  -0.819  1.00 20.00     0.005 C 
ENDBRANCH   5   6
ENDBRANCH   2   5
BRANCH   3   8
HETATM    8  O8  UNL     1     -41.323  10.191   0.412  1.00 20.00    -0.390 OA
HETATM    9  H22 UNL     1     -41.311  10.171   1.378  1.00 20.00     0.210 HD
ENDBRANCH   3   8
TORSDOF 3
ENDMDL
