MODEL 1
REMARK VINA RESULT:      -4.1      0.000      0.000
REMARK  2 active torsions:
REMARK  status: ('A' for Active; 'I' for Inactive)
REMARK    1  A    between atoms: C6_6  and  C8_8 
REMARK    2  A    between atoms: C7_7  and  C9_9 
ROOT
HETATM    1  C1  UNL     1     -22.540  18.084   8.448  1.00 20.00     0.027 C 
HETATM    2  C4  UNL     1     -22.561  17.207   9.693  1.00 20.00     0.010 C 
HETATM    3  C5  UNL     1     -23.951  18.497   8.066  1.00 20.00     0.168 C 
HETATM    4  C7  UNL     1     -23.357  17.874  10.826  1.00 20.00     0.029 C 
HETATM    5  C8  UNL     1     -24.740  18.324  10.307  1.00 20.00     0.130 C 
HETATM    6  O10 UNL     1     -24.581  19.165   9.156  1.00 20.00    -0.385 OA
ENDROOT
BRANCH   5   7
HETATM    7  C6  UNL     1     -25.514  19.113  11.329  1.00 20.00     0.015 A 
HETATM    8  C2  UNL     1     -27.005  19.263  11.200  1.00 20.00     0.007 A 
HETATM    9  C3  UNL     1     -26.427  18.409  12.294  1.00 20.00     0.007 A 
ENDBRANCH   5   7
BRANCH   4  10
HETATM   10  C9  UNL     1     -23.452  16.920  12.019  1.00 20.00     0.121 C 
HETATM   11 CL11 UNL     1     -24.450  15.519  11.597  1.00 20.00    -0.130 Cl
ENDBRANCH   4  10
TORSDOF 2
ENDMDL
MODEL 2
REMARK VINA RESULT:      -4.1      1.779      3.729
REMARK  2 active torsions:
REMARK  status: ('A' for Active; 'I' for Inactive)
REMARK    1  A    between atoms: C6_6  and  C8_8 
REMARK    2  A    between atoms: C7_7  and  C9_9 
ROOT
HETATM    1  C1  UNL     1     -26.098  18.834   6.701  1.00 20.00     0.027 C 
HETATM    2  C4  UNL     1     -26.357  19.249   8.143  1.00 20.00     0.010 C 
HETATM    3  C5  UNL     1     -24.690  19.222   6.282  1.00 20.00     0.168 C 
HETATM    4  C7  UNL     1     -25.251  18.732   9.076  1.00 20.00     0.029 C 
HETATM    5  C8  UNL     1     -23.864  19.113   8.513  1.00 20.00     0.130 C 
HETATM    6  O10 UNL     1     -23.735  18.640   7.165  1.00 20.00    -0.385 OA
ENDROOT
BRANCH   5   7
HETATM    7  C6  UNL     1     -22.733  18.512   9.304  1.00 20.00     0.015 A 
HETATM    8  C2  UNL     1     -22.683  17.029   9.548  1.00 20.00     0.007 A 
HETATM    9  C3  UNL     1     -21.693  17.673   8.617  1.00 20.00     0.007 A 
ENDBRANCH   5   7
BRANCH   4  10
HETATM   10  C9  UNL     1     -25.483  19.260  10.493  1.00 20.00     0.121 C 
HETATM   11 CL11 UNL     1     -25.767  17.911  11.604  1.00 20.00    -0.130 Cl
ENDBRANCH   4  10
TORSDOF 2
ENDMDL
MODEL 3
REMARK VINA RESULT:      -4.0     17.568     18.829
REMARK  2 active torsions:
REMARK  status: ('A' for Active; 'I' for Inactive)
REMARK    1  A    between atoms: C6_6  and  C8_8 
REMARK    2  A    between atoms: C7_7  and  C9_9 
ROOT
HETATM    1  C1  UNL     1     -34.696  15.791  -7.329  1.00 20.00     0.027 C 
HETATM    2  C4  UNL     1     -35.648  14.814  -6.652  1.00 20.00     0.010 C 
HETATM    3  C5  UNL     1     -34.491  17.020  -6.460  1.00 20.00     0.168 C 
HETATM    4  C7  UNL     1     -35.197  14.509  -5.214  1.00 20.00     0.029 C 
HETATM    5  C8  UNL     1     -34.941  15.826  -4.450  1.00 20.00     0.130 C 
HETATM    6  O10 UNL     1     -34.009  16.640  -5.174  1.00 20.00    -0.385 OA
ENDROOT
BRANCH   5   7
HETATM    7  C6  UNL     1     -34.359  15.597  -3.080  1.00 20.00     0.015 A 
HETATM    8  C2  UNL     1     -33.754  16.741  -2.314  1.00 20.00     0.007 A 
HETATM    9  C3  UNL     1     -35.056  16.138  -1.863  1.00 20.00     0.007 A 
ENDBRANCH   5   7
BRANCH   4  10
HETATM   10  C9  UNL     1     -36.233  13.616  -4.529  1.00 20.00     0.121 C 
HETATM   11 CL11 UNL     1     -37.753  14.501  -4.317  1.00 20.00    -0.130 Cl
ENDBRANCH   4  10
TORSDOF 2
ENDMDL
MODEL 4
REMARK VINA RESULT:      -3.9     14.964     16.296
REMARK  2 active torsions:
REMARK  status: ('A' for Active; 'I' for Inactive)
REMARK    1  A    between atoms: C6_6  and  C8_8 
REMARK    2  A    between atoms: C7_7  and  C9_9 
ROOT
HETATM    1  C1  UNL     1     -34.606  14.417  -3.787  1.00 20.00     0.027 C 
HETATM    2  C4  UNL     1     -35.543  15.319  -2.994  1.00 20.00     0.010 C 
HETATM    3  C5  UNL     1     -33.491  15.234  -4.417  1.00 20.00     0.168 C 
HETATM    4  C7  UNL     1     -34.761  16.198  -2.005  1.00 20.00     0.029 C 
HETATM    5  C8  UNL     1     -33.606  16.917  -2.735  1.00 20.00     0.130 C 
HETATM    6  O10 UNL     1     -32.783  15.959  -3.415  1.00 20.00    -0.385 OA
ENDROOT
BRANCH   5   7
HETATM    7  C6  UNL     1     -32.713  17.682  -1.795  1.00 20.00     0.015 A 
HETATM    8  C2  UNL     1     -32.122  18.999  -2.215  1.00 20.00     0.007 A 
HETATM    9  C3  UNL     1     -33.195  18.958  -1.164  1.00 20.00     0.007 A 
ENDBRANCH   5   7
BRANCH   4  10
HETATM   10  C9  UNL     1     -35.718  17.167  -1.308  1.00 20.00     0.121 C 
HETATM   11 CL11 UNL     1     -35.582  16.995   0.450  1.00 20.00    -0.130 Cl
ENDBRANCH   4  10
TORSDOF 2
ENDMDL
MODEL 5
REMARK VINA RESULT:      -3.8      1.620      2.254
REMARK  2 active torsions:
REMARK  status: ('A' for Active; 'I' for Inactive)
REMARK    1  A    between atoms: C6_6  and  C8_8 
REMARK    2  A    between atoms: C7_7  and  C9_9 
ROOT
HETATM    1  C1  UNL     1     -25.116  19.263   6.718  1.00 20.00     0.027 C 
HETATM    2  C4  UNL     1     -23.905  18.702   7.451  1.00 20.00     0.010 C 
HETATM    3  C5  UNL     1     -26.399  18.843   7.415  1.00 20.00     0.168 C 
HETATM    4  C7  UNL     1     -23.956  19.042   8.948  1.00 20.00     0.029 C 
HETATM    5  C8  UNL     1     -25.330  18.646   9.534  1.00 20.00     0.130 C 
HETATM    6  O10 UNL     1     -26.381  19.262   8.777  1.00 20.00    -0.385 OA
ENDROOT
BRANCH   5   7
HETATM    7  C6  UNL     1     -25.498  19.085  10.964  1.00 20.00     0.015 A 
HETATM    8  C2  UNL     1     -26.713  18.669  11.746  1.00 20.00     0.007 A 
HETATM    9  C3  UNL     1     -25.369  18.087  12.081  1.00 20.00     0.007 A 
ENDBRANCH   5   7
BRANCH   4  10
HETATM   10  C9  UNL     1     -22.787  18.369   9.670  1.00 20.00     0.121 C 
HETATM   11 CL11 UNL     1     -22.760  16.637   9.299  1.00 20.00    -0.130 Cl
ENDBRANCH   4  10
TORSDOF 2
ENDMDL
MODEL 6
REMARK VINA RESULT:      -3.8     15.477     16.783
REMARK  2 active torsions:
REMARK  status: ('A' for Active; 'I' for Inactive)
REMARK    1  A    between atoms: C6_6  and  C8_8 
REMARK    2  A    between atoms: C7_7  and  C9_9 
ROOT
HETATM    1  C1  UNL     1     -34.625  14.165  -3.938  1.00 20.00     0.027 C 
HETATM    2  C4  UNL     1     -35.594  15.103  -3.230  1.00 20.00     0.010 C 
HETATM    3  C5  UNL     1     -33.463  14.947  -4.526  1.00 20.00     0.168 C 
HETATM    4  C7  UNL     1     -34.858  16.002  -2.224  1.00 20.00     0.029 C 
HETATM    5  C8  UNL     1     -33.652  16.684  -2.907  1.00 20.00     0.130 C 
HETATM    6  O10 UNL     1     -32.804  15.694  -3.506  1.00 20.00    -0.385 OA
ENDROOT
BRANCH   5   7
HETATM    7  C6  UNL     1     -32.805  17.466  -1.940  1.00 20.00     0.015 A 
HETATM    8  C2  UNL     1     -32.261  18.814  -2.327  1.00 20.00     0.007 A 
HETATM    9  C3  UNL     1     -33.348  18.710  -1.294  1.00 20.00     0.007 A 
ENDBRANCH   5   7
BRANCH   4  10
HETATM   10  C9  UNL     1     -35.841  17.005  -1.616  1.00 20.00     0.121 C 
HETATM   11 CL11 UNL     1     -36.568  17.994  -2.893  1.00 20.00    -0.130 Cl
ENDBRANCH   4  10
TORSDOF 2
ENDMDL
MODEL 7
REMARK VINA RESULT:      -3.7     17.315     18.766
REMARK  2 active torsions:
REMARK  status: ('A' for Active; 'I' for Inactive)
REMARK    1  A    between atoms: C6_6  and  C8_8 
REMARK    2  A    between atoms: C7_7  and  C9_9 
ROOT
HETATM    1  C1  UNL     1     -34.054  16.688  -2.115  1.00 20.00     0.027 C 
HETATM    2  C4  UNL     1     -35.162  15.687  -2.421  1.00 20.00     0.010 C 
HETATM    3  C5  UNL     1     -33.046  16.726  -3.251  1.00 20.00     0.168 C 
HETATM    4  C7  UNL     1     -35.773  15.944  -3.807  1.00 20.00     0.029 C 
HETATM    5  C8  UNL     1     -34.655  16.043  -4.868  1.00 20.00     0.130 C 
HETATM    6  O10 UNL     1     -33.697  17.038  -4.479  1.00 20.00    -0.385 OA
ENDROOT
BRANCH   5   7
HETATM    7  C6  UNL     1     -35.177  16.437  -6.224  1.00 20.00     0.015 A 
HETATM    8  C2  UNL     1     -34.279  16.374  -7.429  1.00 20.00     0.007 A 
HETATM    9  C3  UNL     1     -35.406  15.391  -7.279  1.00 20.00     0.007 A 
ENDBRANCH   5   7
BRANCH   4  10
HETATM   10  C9  UNL     1     -36.800  14.856  -4.127  1.00 20.00     0.121 C 
HETATM   11 CL11 UNL     1     -35.980  13.310  -4.402  1.00 20.00    -0.130 Cl
ENDBRANCH   4  10
TORSDOF 2
ENDMDL
MODEL 8
REMARK VINA RESULT:      -3.7     13.693     15.017
REMARK  2 active torsions:
REMARK  status: ('A' for Active; 'I' for Inactive)
REMARK    1  A    between atoms: C6_6  and  C8_8 
REMARK    2  A    between atoms: C7_7  and  C9_9 
ROOT
HETATM    1  C1  UNL     1     -31.965  19.263   0.606  1.00 20.00     0.027 C 
HETATM    2  C4  UNL     1     -33.215  18.534   1.081  1.00 20.00     0.010 C 
HETATM    3  C5  UNL     1     -31.248  18.449  -0.458  1.00 20.00     0.168 C 
HETATM    4  C7  UNL     1     -34.098  18.117  -0.106  1.00 20.00     0.029 C 
HETATM    5  C8  UNL     1     -33.251  17.369  -1.159  1.00 20.00     0.130 C 
HETATM    6  O10 UNL     1     -32.127  18.172  -1.544  1.00 20.00    -0.385 OA
ENDROOT
BRANCH   5   7
HETATM    7  C6  UNL     1     -34.026  17.060  -2.412  1.00 20.00     0.015 A 
HETATM    8  C2  UNL     1     -33.527  16.015  -3.372  1.00 20.00     0.007 A 
HETATM    9  C3  UNL     1     -34.756  15.753  -2.547  1.00 20.00     0.007 A 
ENDBRANCH   5   7
BRANCH   4  10
HETATM   10  C9  UNL     1     -35.284  17.292   0.398  1.00 20.00     0.121 C 
HETATM   11 CL11 UNL     1     -36.798  17.952  -0.241  1.00 20.00    -0.130 Cl
ENDBRANCH   4  10
TORSDOF 2
ENDMDL
MODEL 9
REMARK VINA RESULT:      -3.6     18.117     19.418
REMARK  2 active torsions:
REMARK  status: ('A' for Active; 'I' for Inactive)
REMARK    1  A    between atoms: C6_6  and  C8_8 
REMARK    2  A    between atoms: C7_7  and  C9_9 
ROOT
HETATM    1  C1  UNL     1     -35.431  15.071  -7.735  1.00 20.00     0.027 C 
HETATM    2  C4  UNL     1     -36.556  15.604  -6.858  1.00 20.00     0.010 C 
HETATM    3  C5  UNL     1     -34.082  15.506  -7.190  1.00 20.00     0.168 C 
HETATM    4  C7  UNL     1     -36.323  15.250  -5.381  1.00 20.00     0.029 C 
HETATM    5  C8  UNL     1     -34.896  15.663  -4.957  1.00 20.00     0.130 C 
HETATM    6  O10 UNL     1     -33.932  15.073  -5.840  1.00 20.00    -0.385 OA
ENDROOT
BRANCH   5   7
HETATM    7  C6  UNL     1     -34.553  15.214  -3.562  1.00 20.00     0.015 A 
HETATM    8  C2  UNL     1     -33.646  16.047  -2.699  1.00 20.00     0.007 A 
HETATM    9  C3  UNL     1     -35.110  15.946  -2.373  1.00 20.00     0.007 A 
ENDBRANCH   5   7
BRANCH   4  10
HETATM   10  C9  UNL     1     -37.409  15.895  -4.518  1.00 20.00     0.121 C 
HETATM   11 CL11 UNL     1     -38.683  14.717  -4.164  1.00 20.00    -0.130 Cl
ENDBRANCH   4  10
TORSDOF 2
ENDMDL
