MODEL 1
REMARK VINA RESULT:      -3.9      0.000      0.000
REMARK  2 active torsions:
REMARK  status: ('A' for Active; 'I' for Inactive)
REMARK    1  A    between atoms: C4_4  and  C8_8 
REMARK    2  A    between atoms: C5_5  and  C9_9 
ROOT
HETATM    1  C1  UNL     1     -34.029  18.220  -1.032  1.00 20.00     0.027 C 
HETATM    2  C2  UNL     1     -35.126  17.172  -0.867  1.00 20.00     0.010 C 
HETATM    3  C3  UNL     1     -32.778  17.605  -1.646  1.00 20.00     0.168 C 
HETATM    4  C4  UNL     1     -35.358  16.375  -2.161  1.00 20.00     0.029 C 
HETATM    5  C5  UNL     1     -34.001  15.850  -2.677  1.00 20.00     0.130 C 
HETATM    6  O10 UNL     1     -33.082  16.933  -2.868  1.00 20.00    -0.385 OA
ENDROOT
BRANCH   5   7
HETATM    7  C9  UNL     1     -34.105  15.092  -3.994  1.00 20.00     0.007 C 
HETATM    8  C6  UNL     1     -32.727  14.621  -4.456  1.00 20.00     0.012 C 
HETATM    9  C7  UNL     1     -35.059  13.905  -3.861  1.00 20.00     0.012 C 
ENDBRANCH   5   7
BRANCH   4  10
HETATM   10  C8  UNL     1     -36.102  17.233  -3.191  1.00 20.00     0.121 C 
HETATM   11 CL11 UNL     1     -37.589  16.416  -3.694  1.00 20.00    -0.130 Cl
ENDBRANCH   4  10
TORSDOF 2
ENDMDL
MODEL 2
REMARK VINA RESULT:      -3.9      2.627      4.230
REMARK  2 active torsions:
REMARK  status: ('A' for Active; 'I' for Inactive)
REMARK    1  A    between atoms: C4_4  and  C8_8 
REMARK    2  A    between atoms: C5_5  and  C9_9 
ROOT
HETATM    1  C1  UNL     1     -35.825  15.241  -7.728  1.00 20.00     0.027 C 
HETATM    2  C2  UNL     1     -36.440  16.030  -6.575  1.00 20.00     0.010 C 
HETATM    3  C3  UNL     1     -34.306  15.213  -7.618  1.00 20.00     0.168 C 
HETATM    4  C4  UNL     1     -35.893  15.575  -5.213  1.00 20.00     0.029 C 
HETATM    5  C5  UNL     1     -34.350  15.563  -5.270  1.00 20.00     0.130 C 
HETATM    6  O10 UNL     1     -33.892  14.729  -6.341  1.00 20.00    -0.385 OA
ENDROOT
BRANCH   5   7
HETATM    7  C9  UNL     1     -33.699  15.068  -3.985  1.00 20.00     0.007 C 
HETATM    8  C6  UNL     1     -32.433  14.270  -4.294  1.00 20.00     0.012 C 
HETATM    9  C7  UNL     1     -33.379  16.239  -3.056  1.00 20.00     0.012 C 
ENDBRANCH   5   7
BRANCH   4  10
HETATM   10  C8  UNL     1     -36.491  14.218  -4.822  1.00 20.00     0.121 C 
HETATM   11 CL11 UNL     1     -38.159  14.430  -4.273  1.00 20.00    -0.130 Cl
ENDBRANCH   4  10
TORSDOF 2
ENDMDL
MODEL 3
REMARK VINA RESULT:      -3.8      2.209      4.128
REMARK  2 active torsions:
REMARK  status: ('A' for Active; 'I' for Inactive)
REMARK    1  A    between atoms: C4_4  and  C8_8 
REMARK    2  A    between atoms: C5_5  and  C9_9 
ROOT
HETATM    1  C1  UNL     1     -34.151  14.760  -4.633  1.00 20.00     0.027 C 
HETATM    2  C2  UNL     1     -33.019  15.242  -3.729  1.00 20.00     0.010 C 
HETATM    3  C3  UNL     1     -35.448  14.614  -3.848  1.00 20.00     0.168 C 
HETATM    4  C4  UNL     1     -33.427  16.475  -2.907  1.00 20.00     0.029 C 
HETATM    5  C5  UNL     1     -34.769  16.187  -2.203  1.00 20.00     0.130 C 
HETATM    6  O10 UNL     1     -35.772  15.822  -3.160  1.00 20.00    -0.385 OA
ENDROOT
BRANCH   5   7
HETATM    7  C9  UNL     1     -35.301  17.369  -1.402  1.00 20.00     0.007 C 
HETATM    8  C6  UNL     1     -36.662  17.815  -1.935  1.00 20.00     0.012 C 
HETATM    9  C7  UNL     1     -35.397  17.017   0.082  1.00 20.00     0.012 C 
ENDBRANCH   5   7
BRANCH   4  10
HETATM   10  C8  UNL     1     -33.469  17.722  -3.798  1.00 20.00     0.121 C 
HETATM   11 CL11 UNL     1     -32.481  19.006  -3.086  1.00 20.00    -0.130 Cl
ENDBRANCH   4  10
TORSDOF 2
ENDMDL
MODEL 4
REMARK VINA RESULT:      -3.7      2.275      2.982
REMARK  2 active torsions:
REMARK  status: ('A' for Active; 'I' for Inactive)
REMARK    1  A    between atoms: C4_4  and  C8_8 
REMARK    2  A    between atoms: C5_5  and  C9_9 
ROOT
HETATM    1  C1  UNL     1     -33.451  18.098  -3.747  1.00 20.00     0.027 C 
HETATM    2  C2  UNL     1     -33.079  16.885  -2.899  1.00 20.00     0.010 C 
HETATM    3  C3  UNL     1     -34.221  17.675  -4.992  1.00 20.00     0.168 C 
HETATM    4  C4  UNL     1     -34.289  15.974  -2.639  1.00 20.00     0.029 C 
HETATM    5  C5  UNL     1     -34.982  15.665  -3.983  1.00 20.00     0.130 C 
HETATM    6  O10 UNL     1     -35.354  16.878  -4.649  1.00 20.00    -0.385 OA
ENDROOT
BRANCH   5   7
HETATM    7  C9  UNL     1     -36.237  14.812  -3.837  1.00 20.00     0.007 C 
HETATM    8  C6  UNL     1     -37.446  15.523  -4.441  1.00 20.00     0.012 C 
HETATM    9  C7  UNL     1     -36.039  13.445  -4.491  1.00 20.00     0.012 C 
ENDBRANCH   5   7
BRANCH   4  10
HETATM   10  C8  UNL     1     -35.230  16.613  -1.610  1.00 20.00     0.121 C 
HETATM   11 CL11 UNL     1     -34.289  17.501  -0.402  1.00 20.00    -0.130 Cl
ENDBRANCH   4  10
TORSDOF 2
ENDMDL
MODEL 5
REMARK VINA RESULT:      -3.7      2.101      4.083
REMARK  2 active torsions:
REMARK  status: ('A' for Active; 'I' for Inactive)
REMARK    1  A    between atoms: C4_4  and  C8_8 
REMARK    2  A    between atoms: C5_5  and  C9_9 
ROOT
HETATM    1  C1  UNL     1     -36.244  15.985  -4.660  1.00 20.00     0.027 C 
HETATM    2  C2  UNL     1     -35.676  14.920  -3.725  1.00 20.00     0.010 C 
HETATM    3  C3  UNL     1     -36.846  17.138  -3.868  1.00 20.00     0.168 C 
HETATM    4  C4  UNL     1     -34.754  15.529  -2.656  1.00 20.00     0.029 C 
HETATM    5  C5  UNL     1     -35.487  16.701  -1.970  1.00 20.00     0.130 C 
HETATM    6  O10 UNL     1     -35.902  17.672  -2.939  1.00 20.00    -0.385 OA
ENDROOT
BRANCH   5   7
HETATM    7  C9  UNL     1     -34.640  17.420  -0.927  1.00 20.00     0.007 C 
HETATM    8  C6  UNL     1     -34.460  18.891  -1.298  1.00 20.00     0.012 C 
HETATM    9  C7  UNL     1     -35.269  17.292   0.460  1.00 20.00     0.012 C 
ENDBRANCH   5   7
BRANCH   4  10
HETATM   10  C8  UNL     1     -33.412  15.938  -3.276  1.00 20.00     0.121 C 
HETATM   11 CL11 UNL     1     -32.807  14.640  -4.314  1.00 20.00    -0.130 Cl
ENDBRANCH   4  10
TORSDOF 2
ENDMDL
MODEL 6
REMARK VINA RESULT:      -3.7      2.307      4.275
REMARK  2 active torsions:
REMARK  status: ('A' for Active; 'I' for Inactive)
REMARK    1  A    between atoms: C4_4  and  C8_8 
REMARK    2  A    between atoms: C5_5  and  C9_9 
ROOT
HETATM    1  C1  UNL     1     -35.894  14.294  -5.965  1.00 20.00     0.027 C 
HETATM    2  C2  UNL     1     -34.536  14.954  -6.194  1.00 20.00     0.010 C 
HETATM    3  C3  UNL     1     -36.099  13.971  -4.491  1.00 20.00     0.168 C 
HETATM    4  C4  UNL     1     -34.299  16.127  -5.229  1.00 20.00     0.029 C 
HETATM    5  C5  UNL     1     -34.580  15.655  -3.787  1.00 20.00     0.130 C 
HETATM    6  O10 UNL     1     -35.909  15.129  -3.679  1.00 20.00    -0.385 OA
ENDROOT
BRANCH   5   7
HETATM    7  C9  UNL     1     -34.433  16.759  -2.747  1.00 20.00     0.007 C 
HETATM    8  C6  UNL     1     -35.149  16.380  -1.452  1.00 20.00     0.012 C 
HETATM    9  C7  UNL     1     -32.958  17.053  -2.477  1.00 20.00     0.012 C 
ENDBRANCH   5   7
BRANCH   4  10
HETATM   10  C8  UNL     1     -35.143  17.339  -5.642  1.00 20.00     0.121 C 
HETATM   11 CL11 UNL     1     -34.111  18.767  -5.802  1.00 20.00    -0.130 Cl
ENDBRANCH   4  10
TORSDOF 2
ENDMDL
MODEL 7
REMARK VINA RESULT:      -3.6      2.412      4.042
REMARK  2 active torsions:
REMARK  status: ('A' for Active; 'I' for Inactive)
REMARK    1  A    between atoms: C4_4  and  C8_8 
REMARK    2  A    between atoms: C5_5  and  C9_9 
ROOT
HETATM    1  C1  UNL     1     -35.599  14.977  -7.330  1.00 20.00     0.027 C 
HETATM    2  C2  UNL     1     -36.551  15.862  -6.528  1.00 20.00     0.010 C 
HETATM    3  C3  UNL     1     -34.160  15.174  -6.873  1.00 20.00     0.168 C 
HETATM    4  C4  UNL     1     -36.322  15.723  -5.014  1.00 20.00     0.029 C 
HETATM    5  C5  UNL     1     -34.820  15.911  -4.714  1.00 20.00     0.130 C 
HETATM    6  O10 UNL     1     -34.036  14.975  -5.465  1.00 20.00    -0.385 OA
ENDROOT
BRANCH   5   7
HETATM    7  C9  UNL     1     -34.468  15.735  -3.242  1.00 20.00     0.007 C 
HETATM    8  C6  UNL     1     -33.048  16.227  -2.964  1.00 20.00     0.012 C 
HETATM    9  C7  UNL     1     -35.472  16.470  -2.355  1.00 20.00     0.012 C 
ENDBRANCH   5   7
BRANCH   4  10
HETATM   10  C8  UNL     1     -36.874  14.385  -4.509  1.00 20.00     0.121 C 
HETATM   11 CL11 UNL     1     -38.612  14.525  -4.206  1.00 20.00    -0.130 Cl
ENDBRANCH   4  10
TORSDOF 2
ENDMDL
MODEL 8
REMARK VINA RESULT:      -3.6      2.701      3.723
REMARK  2 active torsions:
REMARK  status: ('A' for Active; 'I' for Inactive)
REMARK    1  A    between atoms: C4_4  and  C8_8 
REMARK    2  A    between atoms: C5_5  and  C9_9 
ROOT
HETATM    1  C1  UNL     1     -33.581  16.235  -2.677  1.00 20.00     0.027 C 
HETATM    2  C2  UNL     1     -33.624  16.975  -4.011  1.00 20.00     0.010 C 
HETATM    3  C3  UNL     1     -34.987  16.004  -2.138  1.00 20.00     0.168 C 
HETATM    4  C4  UNL     1     -34.603  16.319  -4.999  1.00 20.00     0.029 C 
HETATM    5  C5  UNL     1     -35.964  16.119  -4.299  1.00 20.00     0.130 C 
HETATM    6  O10 UNL     1     -35.806  15.346  -3.103  1.00 20.00    -0.385 OA
ENDROOT
BRANCH   5   7
HETATM    7  C9  UNL     1     -36.998  15.419  -5.171  1.00 20.00     0.007 C 
HETATM    8  C6  UNL     1     -38.098  14.797  -4.312  1.00 20.00     0.012 C 
HETATM    9  C7  UNL     1     -37.598  16.394  -6.185  1.00 20.00     0.012 C 
ENDBRANCH   5   7
BRANCH   4  10
HETATM   10  C8  UNL     1     -34.013  15.017  -5.552  1.00 20.00     0.121 C 
HETATM   11 CL11 UNL     1     -33.820  15.138  -7.306  1.00 20.00    -0.130 Cl
ENDBRANCH   4  10
TORSDOF 2
ENDMDL
MODEL 9
REMARK VINA RESULT:      -3.6      1.317      1.361
REMARK  2 active torsions:
REMARK  status: ('A' for Active; 'I' for Inactive)
REMARK    1  A    between atoms: C4_4  and  C8_8 
REMARK    2  A    between atoms: C5_5  and  C9_9 
ROOT
HETATM    1  C1  UNL     1     -33.810  17.572  -1.738  1.00 20.00     0.027 C 
HETATM    2  C2  UNL     1     -34.949  16.640  -1.332  1.00 20.00     0.010 C 
HETATM    3  C3  UNL     1     -32.922  16.918  -2.789  1.00 20.00     0.168 C 
HETATM    4  C4  UNL     1     -35.691  16.077  -2.555  1.00 20.00     0.029 C 
HETATM    5  C5  UNL     1     -34.660  15.485  -3.540  1.00 20.00     0.130 C 
HETATM    6  O10 UNL     1     -33.690  16.474  -3.907  1.00 20.00    -0.385 OA
ENDROOT
BRANCH   5   7
HETATM    7  C9  UNL     1     -35.284  14.948  -4.822  1.00 20.00     0.007 C 
HETATM    8  C6  UNL     1     -34.230  14.813  -5.920  1.00 20.00     0.012 C 
HETATM    9  C7  UNL     1     -35.968  13.605  -4.568  1.00 20.00     0.012 C 
ENDBRANCH   5   7
BRANCH   4  10
HETATM   10  C8  UNL     1     -36.578  17.156  -3.187  1.00 20.00     0.121 C 
HETATM   11 CL11 UNL     1     -37.507  17.986  -1.931  1.00 20.00    -0.130 Cl
ENDBRANCH   4  10
TORSDOF 2
ENDMDL
