MODEL 1
REMARK VINA RESULT:      -4.4      0.000      0.000
REMARK  2 active torsions:
REMARK  status: ('A' for Active; 'I' for Inactive)
REMARK    1  A    between atoms: C1_1  and  C7_7 
REMARK    2  A    between atoms: C2_2  and  C8_8 
ROOT
HETATM    1  C3  UNL     1     -33.480   7.125   4.760  1.00 20.00     0.035 C 
HETATM    2  C4  UNL     1     -34.529   5.016   3.900  1.00 20.00     0.035 C 
HETATM    3  C5  UNL     1     -33.904   6.684   6.156  1.00 20.00     0.168 C 
HETATM    4  C6  UNL     1     -34.895   4.691   5.342  1.00 20.00     0.168 C 
HETATM    5  C7  UNL     1     -33.298   5.913   3.854  1.00 20.00     0.012 C 
HETATM    6  O9  UNL     1     -35.088   5.887   6.098  1.00 20.00    -0.391 OA
ENDROOT
BRANCH   5   7
HETATM    7  C1  UNL     1     -33.121   6.405   2.431  1.00 20.00    -0.025 C 
HETATM    8  C2  UNL     1     -32.257   7.368   2.077  1.00 20.00    -0.020 C 
BRANCH   8   9
HETATM    9  C8  UNL     1     -32.098   7.857   0.678  1.00 20.00     0.112 C 
HETATM   10 BR10 UNL     1     -33.299   9.363   0.412  1.00 20.00    -0.092 Br
ENDBRANCH   8   9
ENDBRANCH   5   7
TORSDOF 2
ENDMDL
MODEL 2
REMARK VINA RESULT:      -4.3     11.423     12.036
REMARK  2 active torsions:
REMARK  status: ('A' for Active; 'I' for Inactive)
REMARK    1  A    between atoms: C1_1  and  C7_7 
REMARK    2  A    between atoms: C2_2  and  C8_8 
ROOT
HETATM    1  C3  UNL     1     -32.901  15.476  -3.815  1.00 20.00     0.035 C 
HETATM    2  C4  UNL     1     -35.094  15.630  -2.608  1.00 20.00     0.035 C 
HETATM    3  C5  UNL     1     -33.591  14.547  -4.807  1.00 20.00     0.168 C 
HETATM    4  C6  UNL     1     -35.664  14.694  -3.667  1.00 20.00     0.168 C 
HETATM    5  C7  UNL     1     -33.916  16.414  -3.173  1.00 20.00     0.012 C 
HETATM    6  O9  UNL     1     -34.649  13.827  -4.174  1.00 20.00    -0.391 OA
ENDROOT
BRANCH   5   7
HETATM    7  C1  UNL     1     -33.235  17.140  -2.029  1.00 20.00    -0.025 C 
HETATM    8  C2  UNL     1     -33.896  17.743  -1.029  1.00 20.00    -0.020 C 
BRANCH   8   9
HETATM    9  C8  UNL     1     -33.220  18.467   0.084  1.00 20.00     0.112 C 
HETATM   10 BR10 UNL     1     -31.308  18.488  -0.266  1.00 20.00    -0.092 Br
ENDBRANCH   8   9
ENDBRANCH   5   7
TORSDOF 2
ENDMDL
MODEL 3
REMARK VINA RESULT:      -4.2     11.539     12.182
REMARK  2 active torsions:
REMARK  status: ('A' for Active; 'I' for Inactive)
REMARK    1  A    between atoms: C1_1  and  C7_7 
REMARK    2  A    between atoms: C2_2  and  C8_8 
ROOT
HETATM    1  C3  UNL     1     -35.755  15.466  -3.402  1.00 20.00     0.035 C 
HETATM    2  C4  UNL     1     -33.275  15.492  -3.770  1.00 20.00     0.035 C 
HETATM    3  C5  UNL     1     -35.822  14.324  -4.409  1.00 20.00     0.168 C 
HETATM    4  C6  UNL     1     -33.478  14.348  -4.755  1.00 20.00     0.168 C 
HETATM    5  C7  UNL     1     -34.387  15.500  -2.730  1.00 20.00     0.012 C 
HETATM    6  O9  UNL     1     -34.767  14.428  -5.365  1.00 20.00    -0.391 OA
ENDROOT
BRANCH   5   7
HETATM    7  C1  UNL     1     -34.282  16.784  -1.930  1.00 20.00    -0.025 C 
HETATM    8  C2  UNL     1     -33.150  17.491  -1.799  1.00 20.00    -0.020 C 
BRANCH   8   9
HETATM    9  C8  UNL     1     -33.052  18.745  -1.000  1.00 20.00     0.112 C 
HETATM   10 BR10 UNL     1     -31.345  18.750  -0.069  1.00 20.00    -0.092 Br
ENDBRANCH   8   9
ENDBRANCH   5   7
TORSDOF 2
ENDMDL
MODEL 4
REMARK VINA RESULT:      -4.2     11.452     12.052
REMARK  2 active torsions:
REMARK  status: ('A' for Active; 'I' for Inactive)
REMARK    1  A    between atoms: C1_1  and  C7_7 
REMARK    2  A    between atoms: C2_2  and  C8_8 
ROOT
HETATM    1  C3  UNL     1     -35.745  15.273  -3.423  1.00 20.00     0.035 C 
HETATM    2  C4  UNL     1     -33.281  15.713  -3.577  1.00 20.00     0.035 C 
HETATM    3  C5  UNL     1     -35.529  14.116  -4.392  1.00 20.00     0.168 C 
HETATM    4  C6  UNL     1     -33.200  14.531  -4.536  1.00 20.00     0.168 C 
HETATM    5  C7  UNL     1     -34.469  15.551  -2.638  1.00 20.00     0.012 C 
HETATM    6  O9  UNL     1     -34.423  14.379  -5.257  1.00 20.00    -0.391 OA
ENDROOT
BRANCH   5   7
HETATM    7  C1  UNL     1     -34.654  16.850  -1.877  1.00 20.00    -0.025 C 
HETATM    8  C2  UNL     1     -35.268  16.938  -0.688  1.00 20.00    -0.020 C 
BRANCH   8   9
HETATM    9  C8  UNL     1     -35.458  18.221   0.047  1.00 20.00     0.112 C 
HETATM   10 BR10 UNL     1     -34.354  18.184   1.646  1.00 20.00    -0.092 Br
ENDBRANCH   8   9
ENDBRANCH   5   7
TORSDOF 2
ENDMDL
MODEL 5
REMARK VINA RESULT:      -4.2     11.604     12.355
REMARK  2 active torsions:
REMARK  status: ('A' for Active; 'I' for Inactive)
REMARK    1  A    between atoms: C1_1  and  C7_7 
REMARK    2  A    between atoms: C2_2  and  C8_8 
ROOT
HETATM    1  C3  UNL     1     -35.702  14.586  -3.648  1.00 20.00     0.035 C 
HETATM    2  C4  UNL     1     -34.306  15.718  -5.397  1.00 20.00     0.035 C 
HETATM    3  C5  UNL     1     -36.298  13.742  -4.768  1.00 20.00     0.168 C 
HETATM    4  C6  UNL     1     -34.977  14.810  -6.421  1.00 20.00     0.168 C 
HETATM    5  C7  UNL     1     -34.302  15.056  -4.025  1.00 20.00     0.012 C 
HETATM    6  O9  UNL     1     -36.297  14.463  -6.001  1.00 20.00    -0.391 OA
ENDROOT
BRANCH   5   7
HETATM    7  C1  UNL     1     -33.854  16.082  -3.003  1.00 20.00    -0.025 C 
HETATM    8  C2  UNL     1     -34.612  16.493  -1.976  1.00 20.00    -0.020 C 
BRANCH   8   9
HETATM    9  C8  UNL     1     -34.170  17.513  -0.983  1.00 20.00     0.112 C 
HETATM   10 BR10 UNL     1     -32.393  18.125  -1.480  1.00 20.00    -0.092 Br
ENDBRANCH   8   9
ENDBRANCH   5   7
TORSDOF 2
ENDMDL
MODEL 6
REMARK VINA RESULT:      -4.2     11.409     12.042
REMARK  2 active torsions:
REMARK  status: ('A' for Active; 'I' for Inactive)
REMARK    1  A    between atoms: C1_1  and  C7_7 
REMARK    2  A    between atoms: C2_2  and  C8_8 
ROOT
HETATM    1  C3  UNL     1     -32.939  15.581  -3.637  1.00 20.00     0.035 C 
HETATM    2  C4  UNL     1     -35.257  15.535  -2.682  1.00 20.00     0.035 C 
HETATM    3  C5  UNL     1     -33.439  14.626  -4.715  1.00 20.00     0.168 C 
HETATM    4  C6  UNL     1     -35.630  14.584  -3.813  1.00 20.00     0.168 C 
HETATM    5  C7  UNL     1     -34.091  16.422  -3.099  1.00 20.00     0.012 C 
HETATM    6  O9  UNL     1     -34.499  13.810  -4.217  1.00 20.00    -0.391 OA
ENDROOT
BRANCH   5   7
HETATM    7  C1  UNL     1     -33.601  17.170  -1.874  1.00 20.00    -0.025 C 
HETATM    8  C2  UNL     1     -32.448  17.855  -1.829  1.00 20.00    -0.020 C 
BRANCH   8   9
HETATM    9  C8  UNL     1     -31.967  18.576  -0.617  1.00 20.00     0.112 C 
HETATM   10 BR10 UNL     1     -33.373  18.531   0.725  1.00 20.00    -0.092 Br
ENDBRANCH   8   9
ENDBRANCH   5   7
TORSDOF 2
ENDMDL
MODEL 7
REMARK VINA RESULT:      -4.2     15.236     15.568
REMARK  2 active torsions:
REMARK  status: ('A' for Active; 'I' for Inactive)
REMARK    1  A    between atoms: C1_1  and  C7_7 
REMARK    2  A    between atoms: C2_2  and  C8_8 
ROOT
HETATM    1  C3  UNL     1     -25.553  18.632  10.866  1.00 20.00     0.035 C 
HETATM    2  C4  UNL     1     -24.166  16.569  10.541  1.00 20.00     0.035 C 
HETATM    3  C5  UNL     1     -25.887  18.104  12.256  1.00 20.00     0.168 C 
HETATM    4  C6  UNL     1     -24.575  16.155  11.949  1.00 20.00     0.168 C 
HETATM    5  C7  UNL     1     -24.209  18.085  10.401  1.00 20.00     0.012 C 
HETATM    6  O9  UNL     1     -25.863  16.677  12.276  1.00 20.00    -0.391 OA
ENDROOT
BRANCH   5   7
HETATM    7  C1  UNL     1     -24.037  18.433   8.935  1.00 20.00    -0.025 C 
HETATM    8  C2  UNL     1     -25.015  18.937   8.167  1.00 20.00    -0.020 C 
BRANCH   8   9
HETATM    9  C8  UNL     1     -24.841  19.263   6.723  1.00 20.00     0.112 C 
HETATM   10 BR10 UNL     1     -26.533  18.959   5.816  1.00 20.00    -0.092 Br
ENDBRANCH   8   9
ENDBRANCH   5   7
TORSDOF 2
ENDMDL
MODEL 8
REMARK VINA RESULT:      -4.0     11.599     12.055
REMARK  2 active torsions:
REMARK  status: ('A' for Active; 'I' for Inactive)
REMARK    1  A    between atoms: C1_1  and  C7_7 
REMARK    2  A    between atoms: C2_2  and  C8_8 
ROOT
HETATM    1  C3  UNL     1     -33.062  17.041  -2.974  1.00 20.00     0.035 C 
HETATM    2  C4  UNL     1     -35.181  16.554  -1.726  1.00 20.00     0.035 C 
HETATM    3  C5  UNL     1     -32.667  17.946  -1.813  1.00 20.00     0.168 C 
HETATM    4  C6  UNL     1     -34.669  17.484  -0.632  1.00 20.00     0.168 C 
HETATM    5  C7  UNL     1     -34.014  15.951  -2.497  1.00 20.00     0.012 C 
HETATM    6  O9  UNL     1     -33.824  18.495  -1.183  1.00 20.00    -0.391 OA
ENDROOT
BRANCH   5   7
HETATM    7  C1  UNL     1     -34.567  15.237  -3.715  1.00 20.00    -0.025 C 
HETATM    8  C2  UNL     1     -35.737  14.580  -3.728  1.00 20.00    -0.020 C 
BRANCH   8   9
HETATM    9  C8  UNL     1     -36.268  13.869  -4.925  1.00 20.00     0.112 C 
HETATM   10 BR10 UNL     1     -35.616  14.774  -6.518  1.00 20.00    -0.092 Br
ENDBRANCH   8   9
ENDBRANCH   5   7
TORSDOF 2
ENDMDL
MODEL 9
REMARK VINA RESULT:      -4.0     11.367     11.926
REMARK  2 active torsions:
REMARK  status: ('A' for Active; 'I' for Inactive)
REMARK    1  A    between atoms: C1_1  and  C7_7 
REMARK    2  A    between atoms: C2_2  and  C8_8 
ROOT
HETATM    1  C3  UNL     1     -33.071  15.698  -3.442  1.00 20.00     0.035 C 
HETATM    2  C4  UNL     1     -35.489  15.155  -3.058  1.00 20.00     0.035 C 
HETATM    3  C5  UNL     1     -33.091  14.672  -4.568  1.00 20.00     0.168 C 
HETATM    4  C6  UNL     1     -35.376  14.160  -4.206  1.00 20.00     0.168 C 
HETATM    5  C7  UNL     1     -34.466  16.272  -3.223  1.00 20.00     0.012 C 
HETATM    6  O9  UNL     1     -34.048  13.646  -4.301  1.00 20.00    -0.391 OA
ENDROOT
BRANCH   5   7
HETATM    7  C1  UNL     1     -34.448  17.093  -1.948  1.00 20.00    -0.025 C 
HETATM    8  C2  UNL     1     -35.215  16.829  -0.880  1.00 20.00    -0.020 C 
BRANCH   8   9
HETATM    9  C8  UNL     1     -35.202  17.649   0.365  1.00 20.00     0.112 C 
HETATM   10 BR10 UNL     1     -37.016  18.245   0.730  1.00 20.00    -0.092 Br
ENDBRANCH   8   9
ENDBRANCH   5   7
TORSDOF 2
ENDMDL
