MODEL 1
REMARK VINA RESULT:      -4.8      0.000      0.000
REMARK  2 active torsions:
REMARK  status: ('A' for Active; 'I' for Inactive)
REMARK    1  A    between atoms: C1_1  and  C6_6 
REMARK    2  A    between atoms: C2_2  and  C7_7 
ROOT
HETATM    1  C3  UNL     1     -33.739   6.835   4.972  1.00 20.00     0.037 C 
HETATM    2  C4  UNL     1     -34.449   6.080   6.073  1.00 20.00     0.168 C 
HETATM    3  C5  UNL     1     -34.712   4.882   4.093  1.00 20.00     0.176 C 
HETATM    4  C6  UNL     1     -33.457   5.733   3.971  1.00 20.00     0.034 C 
HETATM    5  O8  UNL     1     -35.202   5.042   5.434  1.00 20.00    -0.390 OA
ENDROOT
BRANCH   4   6
HETATM    6  C1  UNL     1     -33.195   6.227   2.590  1.00 20.00    -0.023 C 
HETATM    7  C2  UNL     1     -32.510   7.346   2.315  1.00 20.00    -0.015 C 
BRANCH   7   8
HETATM    8  C7  UNL     1     -32.241   7.832   0.928  1.00 20.00     0.141 C 
HETATM    9 CL9  UNL     1     -32.977   9.431   0.693  1.00 20.00    -0.126 Cl
ENDBRANCH   7   8
ENDBRANCH   4   6
TORSDOF 2
ENDMDL
MODEL 2
REMARK VINA RESULT:      -4.1     15.907     16.694
REMARK  2 active torsions:
REMARK  status: ('A' for Active; 'I' for Inactive)
REMARK    1  A    between atoms: C1_1  and  C6_6 
REMARK    2  A    between atoms: C2_2  and  C7_7 
ROOT
HETATM    1  C3  UNL     1     -22.161  17.069   9.112  1.00 20.00     0.037 C 
HETATM    2  C4  UNL     1     -21.786  17.437   7.695  1.00 20.00     0.168 C 
HETATM    3  C5  UNL     1     -23.756  18.557   8.230  1.00 20.00     0.176 C 
HETATM    4  C6  UNL     1     -23.015  18.251   9.523  1.00 20.00     0.034 C 
HETATM    5  O8  UNL     1     -22.903  18.148   7.149  1.00 20.00    -0.390 OA
ENDROOT
BRANCH   4   6
HETATM    6  C1  UNL     1     -23.911  17.972  10.681  1.00 20.00    -0.023 C 
HETATM    7  C2  UNL     1     -24.450  16.771  10.936  1.00 20.00    -0.015 C 
BRANCH   7   8
HETATM    8  C7  UNL     1     -25.340  16.494  12.103  1.00 20.00     0.141 C 
HETATM    9 CL9  UNL     1     -26.474  17.841  12.332  1.00 20.00    -0.126 Cl
ENDBRANCH   7   8
ENDBRANCH   4   6
TORSDOF 2
ENDMDL
MODEL 3
REMARK VINA RESULT:      -4.0     11.346     11.962
REMARK  2 active torsions:
REMARK  status: ('A' for Active; 'I' for Inactive)
REMARK    1  A    between atoms: C1_1  and  C6_6 
REMARK    2  A    between atoms: C2_2  and  C7_7 
ROOT
HETATM    1  C3  UNL     1     -35.906  15.177  -3.541  1.00 20.00     0.037 C 
HETATM    2  C4  UNL     1     -35.873  14.044  -4.541  1.00 20.00     0.168 C 
HETATM    3  C5  UNL     1     -33.711  14.885  -4.338  1.00 20.00     0.176 C 
HETATM    4  C6  UNL     1     -34.469  15.206  -3.059  1.00 20.00     0.034 C 
HETATM    5  O8  UNL     1     -34.576  14.074  -5.149  1.00 20.00    -0.390 OA
ENDROOT
BRANCH   4   6
HETATM    6  C1  UNL     1     -34.073  16.498  -2.430  1.00 20.00    -0.023 C 
HETATM    7  C2  UNL     1     -32.948  17.162  -2.733  1.00 20.00    -0.015 C 
BRANCH   7   8
HETATM    8  C7  UNL     1     -32.561  18.461  -2.106  1.00 20.00     0.141 C 
HETATM    9 CL9  UNL     1     -31.434  18.173  -0.764  1.00 20.00    -0.126 Cl
ENDBRANCH   7   8
ENDBRANCH   4   6
TORSDOF 2
ENDMDL
MODEL 4
REMARK VINA RESULT:      -3.9     11.583     12.263
REMARK  2 active torsions:
REMARK  status: ('A' for Active; 'I' for Inactive)
REMARK    1  A    between atoms: C1_1  and  C6_6 
REMARK    2  A    between atoms: C2_2  and  C7_7 
ROOT
HETATM    1  C3  UNL     1     -35.287  15.748  -4.760  1.00 20.00     0.037 C 
HETATM    2  C4  UNL     1     -34.879  14.902  -5.945  1.00 20.00     0.168 C 
HETATM    3  C5  UNL     1     -33.236  14.688  -4.308  1.00 20.00     0.176 C 
HETATM    4  C6  UNL     1     -34.540  15.075  -3.627  1.00 20.00     0.034 C 
HETATM    5  O8  UNL     1     -33.532  14.478  -5.698  1.00 20.00    -0.390 OA
ENDROOT
BRANCH   4   6
HETATM    6  C1  UNL     1     -34.360  15.942  -2.428  1.00 20.00    -0.023 C 
HETATM    7  C2  UNL     1     -33.486  16.956  -2.364  1.00 20.00    -0.015 C 
BRANCH   7   8
HETATM    8  C7  UNL     1     -33.316  17.828  -1.162  1.00 20.00     0.141 C 
HETATM    9 CL9  UNL     1     -31.602  18.236  -0.947  1.00 20.00    -0.126 Cl
ENDBRANCH   7   8
ENDBRANCH   4   6
TORSDOF 2
ENDMDL
MODEL 5
REMARK VINA RESULT:      -3.9      9.405     10.108
REMARK  2 active torsions:
REMARK  status: ('A' for Active; 'I' for Inactive)
REMARK    1  A    between atoms: C1_1  and  C6_6 
REMARK    2  A    between atoms: C2_2  and  C7_7 
ROOT
HETATM    1  C3  UNL     1     -41.340   7.623  -1.326  1.00 20.00     0.037 C 
HETATM    2  C4  UNL     1     -41.398   8.619  -0.191  1.00 20.00     0.168 C 
HETATM    3  C5  UNL     1     -42.066   6.548   0.637  1.00 20.00     0.176 C 
HETATM    4  C6  UNL     1     -41.185   6.313  -0.580  1.00 20.00     0.034 C 
HETATM    5  O8  UNL     1     -42.059   7.960   0.897  1.00 20.00    -0.390 OA
ENDROOT
BRANCH   4   6
HETATM    6  C1  UNL     1     -41.568   5.116  -1.381  1.00 20.00    -0.023 C 
HETATM    7  C2  UNL     1     -42.836   4.730  -1.588  1.00 20.00    -0.015 C 
BRANCH   7   8
HETATM    8  C7  UNL     1     -43.215   3.535  -2.400  1.00 20.00     0.141 C 
HETATM    9 CL9  UNL     1     -41.807   2.950  -3.311  1.00 20.00    -0.126 Cl
ENDBRANCH   7   8
ENDBRANCH   4   6
TORSDOF 2
ENDMDL
MODEL 6
REMARK VINA RESULT:      -3.7     11.711     12.400
REMARK  2 active torsions:
REMARK  status: ('A' for Active; 'I' for Inactive)
REMARK    1  A    between atoms: C1_1  and  C6_6 
REMARK    2  A    between atoms: C2_2  and  C7_7 
ROOT
HETATM    1  C3  UNL     1     -32.207  18.382   1.255  1.00 20.00     0.037 C 
HETATM    2  C4  UNL     1     -30.772  18.852   1.180  1.00 20.00     0.168 C 
HETATM    3  C5  UNL     1     -31.458  18.287  -0.973  1.00 20.00     0.176 C 
HETATM    4  C6  UNL     1     -32.692  18.640  -0.157  1.00 20.00     0.034 C 
HETATM    5  O8  UNL     1     -30.315  18.553  -0.145  1.00 20.00    -0.390 OA
ENDROOT
BRANCH   4   6
HETATM    6  C1  UNL     1     -33.905  17.857  -0.528  1.00 20.00    -0.023 C 
HETATM    7  C2  UNL     1     -33.989  17.081  -1.618  1.00 20.00    -0.015 C 
BRANCH   7   8
HETATM    8  C7  UNL     1     -35.204  16.291  -1.980  1.00 20.00     0.141 C 
HETATM    9 CL9  UNL     1     -34.777  15.027  -3.152  1.00 20.00    -0.126 Cl
ENDBRANCH   7   8
ENDBRANCH   4   6
TORSDOF 2
ENDMDL
MODEL 7
REMARK VINA RESULT:      -3.7     11.287     11.920
REMARK  2 active torsions:
REMARK  status: ('A' for Active; 'I' for Inactive)
REMARK    1  A    between atoms: C1_1  and  C6_6 
REMARK    2  A    between atoms: C2_2  and  C7_7 
ROOT
HETATM    1  C3  UNL     1     -33.230  16.965  -3.096  1.00 20.00     0.037 C 
HETATM    2  C4  UNL     1     -32.645  17.845  -2.014  1.00 20.00     0.168 C 
HETATM    3  C5  UNL     1     -34.706  17.059  -1.267  1.00 20.00     0.176 C 
HETATM    4  C6  UNL     1     -34.171  16.082  -2.303  1.00 20.00     0.034 C 
HETATM    5  O8  UNL     1     -33.682  18.042  -1.045  1.00 20.00    -0.390 OA
ENDROOT
BRANCH   4   6
HETATM    6  C1  UNL     1     -35.231  15.438  -3.129  1.00 20.00    -0.023 C 
HETATM    7  C2  UNL     1     -35.060  14.291  -3.801  1.00 20.00    -0.015 C 
BRANCH   7   8
HETATM    8  C7  UNL     1     -36.129  13.645  -4.621  1.00 20.00     0.141 C 
HETATM    9 CL9  UNL     1     -37.679  14.469  -4.353  1.00 20.00    -0.126 Cl
ENDBRANCH   7   8
ENDBRANCH   4   6
TORSDOF 2
ENDMDL
MODEL 8
REMARK VINA RESULT:      -3.7     15.661     16.235
REMARK  2 active torsions:
REMARK  status: ('A' for Active; 'I' for Inactive)
REMARK    1  A    between atoms: C1_1  and  C6_6 
REMARK    2  A    between atoms: C2_2  and  C7_7 
ROOT
HETATM    1  C3  UNL     1     -24.300  16.784  10.583  1.00 20.00     0.037 C 
HETATM    2  C4  UNL     1     -23.679  16.666  11.956  1.00 20.00     0.168 C 
HETATM    3  C5  UNL     1     -22.378  18.136  10.702  1.00 20.00     0.176 C 
HETATM    4  C6  UNL     1     -23.786  18.134  10.125  1.00 20.00     0.034 C 
HETATM    5  O8  UNL     1     -22.406  17.320  11.884  1.00 20.00    -0.390 OA
ENDROOT
BRANCH   4   6
HETATM    6  C1  UNL     1     -23.832  18.325   8.648  1.00 20.00    -0.023 C 
HETATM    7  C2  UNL     1     -24.756  19.067   8.020  1.00 20.00    -0.015 C 
BRANCH   7   8
HETATM    8  C7  UNL     1     -24.792  19.263   6.539  1.00 20.00     0.141 C 
HETATM    9 CL9  UNL     1     -26.395  18.830   5.910  1.00 20.00    -0.126 Cl
ENDBRANCH   7   8
ENDBRANCH   4   6
TORSDOF 2
ENDMDL
MODEL 9
REMARK VINA RESULT:      -3.6      9.699     10.411
REMARK  2 active torsions:
REMARK  status: ('A' for Active; 'I' for Inactive)
REMARK    1  A    between atoms: C1_1  and  C6_6 
REMARK    2  A    between atoms: C2_2  and  C7_7 
ROOT
HETATM    1  C3  UNL     1     -41.286   7.511  -0.473  1.00 20.00     0.037 C 
HETATM    2  C4  UNL     1     -41.366   8.949  -0.010  1.00 20.00     0.168 C 
HETATM    3  C5  UNL     1     -43.389   7.915   0.501  1.00 20.00     0.176 C 
HETATM    4  C6  UNL     1     -42.314   6.842   0.416  1.00 20.00     0.034 C 
HETATM    5  O8  UNL     1     -42.731   9.184   0.354  1.00 20.00    -0.390 OA
ENDROOT
BRANCH   4   6
HETATM    6  C1  UNL     1     -42.804   5.537  -0.109  1.00 20.00    -0.023 C 
HETATM    7  C2  UNL     1     -42.812   5.210  -1.409  1.00 20.00    -0.015 C 
BRANCH   7   8
HETATM    8  C7  UNL     1     -43.296   3.896  -1.930  1.00 20.00     0.141 C 
HETATM    9 CL9  UNL     1     -42.072   3.180  -2.999  1.00 20.00    -0.126 Cl
ENDBRANCH   7   8
ENDBRANCH   4   6
TORSDOF 2
ENDMDL
