MODEL 1
REMARK VINA RESULT:      -4.4      0.000      0.000
REMARK  4 active torsions:
REMARK  status: ('A' for Active; 'I' for Inactive)
REMARK    1  A    between atoms: C2_2  and  C8_8 
REMARK    2  A    between atoms: C3_3  and  C10_10 
REMARK    3  A    between atoms: C3_3  and  O11_11 
REMARK    4  A    between atoms: C9_9  and  C10_10 
ROOT
HETATM    1  C1  UNL     1     -33.257  16.970  -3.690  1.00 20.00     0.046 A 
HETATM    2  C2  UNL     1     -33.709  15.925  -2.704  1.00 20.00     0.023 A 
HETATM    3  C3  UNL     1     -33.536  15.566  -4.164  1.00 20.00     0.069 A 
ENDROOT
BRANCH   3   4
HETATM    4  C10 UNL     1     -34.736  15.291  -5.092  1.00 20.00    -0.017 C 
HETATM    5  C6  UNL     1     -35.615  16.552  -5.139  1.00 20.00     0.018 C 
HETATM    6  C7  UNL     1     -34.203  14.993  -6.503  1.00 20.00     0.018 C 
BRANCH   4   7
HETATM    7  C9  UNL     1     -35.521  14.082  -4.522  1.00 20.00     0.007 C 
HETATM    8  C5  UNL     1     -37.035  14.239  -4.469  1.00 20.00     0.006 C 
ENDBRANCH   4   7
ENDBRANCH   3   4
BRANCH   3   9
HETATM    9  O11 UNL     1     -32.379  14.767  -4.471  1.00 20.00    -0.389 OA
HETATM   10  H31 UNL     1     -32.268  14.167  -3.723  1.00 20.00     0.210 HD
ENDBRANCH   3   9
BRANCH   2  11
HETATM   11  C8  UNL     1     -35.049  16.028  -2.061  1.00 20.00     0.003 C 
HETATM   12  C4  UNL     1     -35.089  17.034  -0.940  1.00 20.00     0.005 C 
ENDBRANCH   2  11
TORSDOF 4
ENDMDL
MODEL 2
REMARK VINA RESULT:      -4.2      1.060      1.958
REMARK  4 active torsions:
REMARK  status: ('A' for Active; 'I' for Inactive)
REMARK    1  A    between atoms: C2_2  and  C8_8 
REMARK    2  A    between atoms: C3_3  and  C10_10 
REMARK    3  A    between atoms: C3_3  and  O11_11 
REMARK    4  A    between atoms: C9_9  and  C10_10 
ROOT
HETATM    1  C1  UNL     1     -33.034  16.004  -3.685  1.00 20.00     0.046 A 
HETATM    2  C2  UNL     1     -34.150  15.155  -3.134  1.00 20.00     0.023 A 
HETATM    3  C3  UNL     1     -33.700  14.980  -4.569  1.00 20.00     0.069 A 
ENDROOT
BRANCH   3   4
HETATM    4  C10 UNL     1     -34.560  15.437  -5.764  1.00 20.00    -0.017 C 
HETATM    5  C6  UNL     1     -33.822  15.075  -7.063  1.00 20.00     0.018 C 
HETATM    6  C7  UNL     1     -35.900  14.685  -5.716  1.00 20.00     0.018 C 
BRANCH   4   7
HETATM    7  C9  UNL     1     -34.773  16.969  -5.649  1.00 20.00     0.007 C 
HETATM    8  C5  UNL     1     -36.167  17.472  -5.996  1.00 20.00     0.006 C 
ENDBRANCH   4   7
ENDBRANCH   3   4
BRANCH   3   9
HETATM    9  O11 UNL     1     -32.935  13.790  -4.836  1.00 20.00    -0.389 OA
HETATM   10  H31 UNL     1     -33.566  13.059  -4.802  1.00 20.00     0.210 HD
ENDBRANCH   3   9
BRANCH   2  11
HETATM   11  C8  UNL     1     -35.459  15.772  -2.779  1.00 20.00     0.003 C 
HETATM   12  C4  UNL     1     -35.364  16.724  -1.614  1.00 20.00     0.005 C 
ENDBRANCH   2  11
TORSDOF 4
ENDMDL
MODEL 3
REMARK VINA RESULT:      -4.2      1.055      1.657
REMARK  4 active torsions:
REMARK  status: ('A' for Active; 'I' for Inactive)
REMARK    1  A    between atoms: C2_2  and  C8_8 
REMARK    2  A    between atoms: C3_3  and  C10_10 
REMARK    3  A    between atoms: C3_3  and  O11_11 
REMARK    4  A    between atoms: C9_9  and  C10_10 
ROOT
HETATM    1  C1  UNL     1     -33.834  16.691  -4.435  1.00 20.00     0.046 A 
HETATM    2  C2  UNL     1     -33.893  15.628  -3.370  1.00 20.00     0.023 A 
HETATM    3  C3  UNL     1     -34.204  15.278  -4.810  1.00 20.00     0.069 A 
ENDROOT
BRANCH   3   4
HETATM    4  C10 UNL     1     -35.634  14.958  -5.289  1.00 20.00    -0.017 C 
HETATM    5  C6  UNL     1     -35.591  14.683  -6.802  1.00 20.00     0.018 C 
HETATM    6  C7  UNL     1     -36.123  13.696  -4.559  1.00 20.00     0.018 C 
BRANCH   4   7
HETATM    7  C9  UNL     1     -36.537  16.177  -4.967  1.00 20.00     0.007 C 
HETATM    8  C5  UNL     1     -37.962  15.852  -4.540  1.00 20.00     0.006 C 
ENDBRANCH   4   7
ENDBRANCH   3   4
BRANCH   3   9
HETATM    9  O11 UNL     1     -33.188  14.525  -5.496  1.00 20.00    -0.389 OA
HETATM   10  H31 UNL     1     -33.441  13.597  -5.405  1.00 20.00     0.210 HD
ENDBRANCH   3   9
BRANCH   2  11
HETATM   11  C8  UNL     1     -34.946  15.677  -2.316  1.00 20.00     0.003 C 
HETATM   12  C4  UNL     1     -34.831  16.887  -1.425  1.00 20.00     0.005 C 
ENDBRANCH   2  11
TORSDOF 4
ENDMDL
MODEL 4
REMARK VINA RESULT:      -4.1      0.879      2.087
REMARK  4 active torsions:
REMARK  status: ('A' for Active; 'I' for Inactive)
REMARK    1  A    between atoms: C2_2  and  C8_8 
REMARK    2  A    between atoms: C3_3  and  C10_10 
REMARK    3  A    between atoms: C3_3  and  O11_11 
REMARK    4  A    between atoms: C9_9  and  C10_10 
ROOT
HETATM    1  C1  UNL     1     -33.060  16.295  -3.801  1.00 20.00     0.046 A 
HETATM    2  C2  UNL     1     -33.994  15.391  -3.039  1.00 20.00     0.023 A 
HETATM    3  C3  UNL     1     -33.703  15.124  -4.501  1.00 20.00     0.069 A 
ENDROOT
BRANCH   3   4
HETATM    4  C10 UNL     1     -34.748  15.367  -5.607  1.00 20.00    -0.017 C 
HETATM    5  C6  UNL     1     -35.916  14.388  -5.399  1.00 20.00     0.018 C 
HETATM    6  C7  UNL     1     -35.268  16.809  -5.478  1.00 20.00     0.018 C 
BRANCH   4   7
HETATM    7  C9  UNL     1     -34.064  15.139  -6.979  1.00 20.00     0.007 C 
HETATM    8  C5  UNL     1     -34.043  16.337  -7.918  1.00 20.00     0.006 C 
ENDBRANCH   4   7
ENDBRANCH   3   4
BRANCH   3   9
HETATM    9  O11 UNL     1     -32.841  14.001  -4.764  1.00 20.00    -0.389 OA
HETATM   10  H31 UNL     1     -32.782  13.935  -5.726  1.00 20.00     0.210 HD
ENDBRANCH   3   9
BRANCH   2  11
HETATM   11  C8  UNL     1     -35.314  15.898  -2.569  1.00 20.00     0.003 C 
HETATM   12  C4  UNL     1     -35.218  16.691  -1.291  1.00 20.00     0.005 C 
ENDBRANCH   2  11
TORSDOF 4
ENDMDL
MODEL 5
REMARK VINA RESULT:      -4.1      1.153      3.387
REMARK  4 active torsions:
REMARK  status: ('A' for Active; 'I' for Inactive)
REMARK    1  A    between atoms: C2_2  and  C8_8 
REMARK    2  A    between atoms: C3_3  and  C10_10 
REMARK    3  A    between atoms: C3_3  and  O11_11 
REMARK    4  A    between atoms: C9_9  and  C10_10 
ROOT
HETATM    1  C1  UNL     1     -35.515  13.563  -4.247  1.00 20.00     0.046 A 
HETATM    2  C2  UNL     1     -36.020  14.478  -5.332  1.00 20.00     0.023 A 
HETATM    3  C3  UNL     1     -34.651  14.702  -4.726  1.00 20.00     0.069 A 
ENDROOT
BRANCH   3   4
HETATM    4  C10 UNL     1     -34.350  15.887  -3.787  1.00 20.00    -0.017 C 
HETATM    5  C6  UNL     1     -32.850  15.872  -3.448  1.00 20.00     0.018 C 
HETATM    6  C7  UNL     1     -34.689  17.193  -4.525  1.00 20.00     0.018 C 
BRANCH   4   7
HETATM    7  C9  UNL     1     -35.214  15.725  -2.510  1.00 20.00     0.007 C 
HETATM    8  C5  UNL     1     -34.968  16.747  -1.408  1.00 20.00     0.006 C 
ENDBRANCH   4   7
ENDBRANCH   3   4
BRANCH   3   9
HETATM    9  O11 UNL     1     -33.538  14.336  -5.561  1.00 20.00    -0.389 OA
HETATM   10  H31 UNL     1     -32.751  14.435  -5.009  1.00 20.00     0.210 HD
ENDBRANCH   3   9
BRANCH   2  11
HETATM   11  C8  UNL     1     -37.167  15.393  -5.071  1.00 20.00     0.003 C 
HETATM   12  C4  UNL     1     -38.287  14.731  -4.310  1.00 20.00     0.005 C 
ENDBRANCH   2  11
TORSDOF 4
ENDMDL
MODEL 6
REMARK VINA RESULT:      -3.9      1.284      3.100
REMARK  4 active torsions:
REMARK  status: ('A' for Active; 'I' for Inactive)
REMARK    1  A    between atoms: C2_2  and  C8_8 
REMARK    2  A    between atoms: C3_3  and  C10_10 
REMARK    3  A    between atoms: C3_3  and  O11_11 
REMARK    4  A    between atoms: C9_9  and  C10_10 
ROOT
HETATM    1  C1  UNL     1     -35.245  15.255  -6.788  1.00 20.00     0.046 A 
HETATM    2  C2  UNL     1     -34.517  16.456  -6.243  1.00 20.00     0.023 A 
HETATM    3  C3  UNL     1     -34.343  15.101  -5.589  1.00 20.00     0.069 A 
ENDROOT
BRANCH   3   4
HETATM    4  C10 UNL     1     -34.947  14.769  -4.210  1.00 20.00    -0.017 C 
HETATM    5  C6  UNL     1     -36.431  15.171  -4.217  1.00 20.00     0.018 C 
HETATM    6  C7  UNL     1     -34.834  13.253  -3.981  1.00 20.00     0.018 C 
BRANCH   4   7
HETATM    7  C9  UNL     1     -34.158  15.559  -3.134  1.00 20.00     0.007 C 
HETATM    8  C5  UNL     1     -34.993  16.177  -2.020  1.00 20.00     0.006 C 
ENDBRANCH   4   7
ENDBRANCH   3   4
BRANCH   3   9
HETATM    9  O11 UNL     1     -33.081  14.455  -5.833  1.00 20.00    -0.389 OA
HETATM   10  H31 UNL     1     -32.999  13.773  -5.154  1.00 20.00     0.210 HD
ENDBRANCH   3   9
BRANCH   2  11
HETATM   11  C8  UNL     1     -35.274  17.563  -5.594  1.00 20.00     0.003 C 
HETATM   12  C4  UNL     1     -34.395  18.717  -5.184  1.00 20.00     0.005 C 
ENDBRANCH   2  11
TORSDOF 4
ENDMDL
MODEL 7
REMARK VINA RESULT:      -3.9      1.879      2.819
REMARK  4 active torsions:
REMARK  status: ('A' for Active; 'I' for Inactive)
REMARK    1  A    between atoms: C2_2  and  C8_8 
REMARK    2  A    between atoms: C3_3  and  C10_10 
REMARK    3  A    between atoms: C3_3  and  O11_11 
REMARK    4  A    between atoms: C9_9  and  C10_10 
ROOT
HETATM    1  C1  UNL     1     -34.705  14.191  -3.865  1.00 20.00     0.046 A 
HETATM    2  C2  UNL     1     -34.502  15.385  -2.969  1.00 20.00     0.023 A 
HETATM    3  C3  UNL     1     -35.640  15.371  -3.967  1.00 20.00     0.069 A 
ENDROOT
BRANCH   3   4
HETATM    4  C10 UNL     1     -35.635  16.249  -5.234  1.00 20.00    -0.017 C 
HETATM    5  C6  UNL     1     -36.883  15.910  -6.067  1.00 20.00     0.018 C 
HETATM    6  C7  UNL     1     -35.697  17.724  -4.806  1.00 20.00     0.018 C 
BRANCH   4   7
HETATM    7  C9  UNL     1     -34.336  15.949  -6.026  1.00 20.00     0.007 C 
HETATM    8  C5  UNL     1     -34.528  15.365  -7.419  1.00 20.00     0.006 C 
ENDBRANCH   4   7
ENDBRANCH   3   4
BRANCH   3   9
HETATM    9  O11 UNL     1     -36.951  15.181  -3.407  1.00 20.00    -0.389 OA
HETATM   10  H31 UNL     1     -36.936  14.309  -2.991  1.00 20.00     0.210 HD
ENDBRANCH   3   9
BRANCH   2  11
HETATM   11  C8  UNL     1     -33.304  16.256  -3.137  1.00 20.00     0.003 C 
HETATM   12  C4  UNL     1     -33.167  17.286  -2.046  1.00 20.00     0.005 C 
ENDBRANCH   2  11
TORSDOF 4
ENDMDL
MODEL 8
REMARK VINA RESULT:      -3.9      1.908      3.398
REMARK  4 active torsions:
REMARK  status: ('A' for Active; 'I' for Inactive)
REMARK    1  A    between atoms: C2_2  and  C8_8 
REMARK    2  A    between atoms: C3_3  and  C10_10 
REMARK    3  A    between atoms: C3_3  and  O11_11 
REMARK    4  A    between atoms: C9_9  and  C10_10 
ROOT
HETATM    1  C1  UNL     1     -36.115  13.572  -4.481  1.00 20.00     0.046 A 
HETATM    2  C2  UNL     1     -36.935  14.796  -4.794  1.00 20.00     0.023 A 
HETATM    3  C3  UNL     1     -35.725  14.458  -5.638  1.00 20.00     0.069 A 
ENDROOT
BRANCH   3   4
HETATM    4  C10 UNL     1     -34.421  15.278  -5.574  1.00 20.00    -0.017 C 
HETATM    5  C6  UNL     1     -33.599  14.984  -6.840  1.00 20.00     0.018 C 
HETATM    6  C7  UNL     1     -34.785  16.771  -5.541  1.00 20.00     0.018 C 
BRANCH   4   7
HETATM    7  C9  UNL     1     -33.649  14.861  -4.296  1.00 20.00     0.007 C 
HETATM    8  C5  UNL     1     -33.268  15.993  -3.352  1.00 20.00     0.006 C 
ENDBRANCH   4   7
ENDBRANCH   3   4
BRANCH   3   9
HETATM    9  O11 UNL     1     -36.012  13.939  -6.949  1.00 20.00    -0.389 OA
HETATM   10  H31 UNL     1     -36.536  13.139  -6.807  1.00 20.00     0.210 HD
ENDBRANCH   3   9
BRANCH   2  11
HETATM   11  C8  UNL     1     -36.953  15.951  -3.851  1.00 20.00     0.003 C 
HETATM   12  C4  UNL     1     -38.257  16.707  -3.870  1.00 20.00     0.005 C 
ENDBRANCH   2  11
TORSDOF 4
ENDMDL
MODEL 9
REMARK VINA RESULT:      -3.9      1.084      3.597
REMARK  4 active torsions:
REMARK  status: ('A' for Active; 'I' for Inactive)
REMARK    1  A    between atoms: C2_2  and  C8_8 
REMARK    2  A    between atoms: C3_3  and  C10_10 
REMARK    3  A    between atoms: C3_3  and  O11_11 
REMARK    4  A    between atoms: C9_9  and  C10_10 
ROOT
HETATM    1  C1  UNL     1     -34.821  13.766  -3.911  1.00 20.00     0.046 A 
HETATM    2  C2  UNL     1     -35.276  14.525  -5.130  1.00 20.00     0.023 A 
HETATM    3  C3  UNL     1     -34.102  15.027  -4.317  1.00 20.00     0.069 A 
ENDROOT
BRANCH   3   4
HETATM    4  C10 UNL     1     -34.192  16.284  -3.429  1.00 20.00    -0.017 C 
HETATM    5  C6  UNL     1     -34.835  17.415  -4.249  1.00 20.00     0.018 C 
HETATM    6  C7  UNL     1     -35.085  15.964  -2.220  1.00 20.00     0.018 C 
BRANCH   4   7
HETATM    7  C9  UNL     1     -32.757  16.664  -2.981  1.00 20.00     0.007 C 
HETATM    8  C5  UNL     1     -32.662  17.672  -1.844  1.00 20.00     0.006 C 
ENDBRANCH   4   7
ENDBRANCH   3   4
BRANCH   3   9
HETATM    9  O11 UNL     1     -32.809  14.844  -4.921  1.00 20.00    -0.389 OA
HETATM   10  H31 UNL     1     -32.164  15.051  -4.232  1.00 20.00     0.210 HD
ENDBRANCH   3   9
BRANCH   2  11
HETATM   11  C8  UNL     1     -36.596  15.218  -5.136  1.00 20.00     0.003 C 
HETATM   12  C4  UNL     1     -37.657  14.468  -4.372  1.00 20.00     0.005 C 
ENDBRANCH   2  11
TORSDOF 4
ENDMDL
