MODEL 1
REMARK VINA RESULT:      -3.9      0.000      0.000
REMARK  4 active torsions:
REMARK  status: ('A' for Active; 'I' for Inactive)
REMARK    1  A    between atoms: C1_1  and  C9_9 
REMARK    2  A    between atoms: C2_2  and  C6_6 
REMARK    3  A    between atoms: C7_7  and  C9_9 
REMARK    4  A    between atoms: C8_8  and  C9_9 
ROOT
HETATM    1  C1  UNL     1     -33.020   5.743   2.639  1.00 20.00    -0.019 C 
HETATM    2  C2  UNL     1     -33.918   5.098   3.410  1.00 20.00    -0.073 C 
HETATM    3  C3  UNL     1     -33.981   3.593   3.400  1.00 20.00     0.044 C 
ENDROOT
BRANCH   1   4
HETATM    4  C9  UNL     1     -32.821   7.237   2.502  1.00 20.00     0.007 C 
BRANCH   4   5
HETATM    5  C7  UNL     1     -32.436   7.604   1.052  1.00 20.00     0.004 C 
HETATM    6  C4  UNL     1     -32.903   8.995   0.637  1.00 20.00     0.006 C 
ENDBRANCH   4   5
BRANCH   4   7
HETATM    7  C8  UNL     1     -31.724   7.734   3.467  1.00 20.00     0.004 C 
HETATM    8  C5  UNL     1     -32.237   8.016   4.874  1.00 20.00     0.006 C 
ENDBRANCH   4   7
ENDBRANCH   1   4
BRANCH   2   9
HETATM    9  C6  UNL     1     -34.880   5.772   4.348  1.00 20.00     0.148 C 
HETATM   10 CL10 UNL     1     -34.685   5.142   5.997  1.00 20.00    -0.126 Cl
ENDBRANCH   2   9
TORSDOF 4
ENDMDL
MODEL 2
REMARK VINA RESULT:      -3.8     11.088     12.084
REMARK  4 active torsions:
REMARK  status: ('A' for Active; 'I' for Inactive)
REMARK    1  A    between atoms: C1_1  and  C9_9 
REMARK    2  A    between atoms: C2_2  and  C6_6 
REMARK    3  A    between atoms: C7_7  and  C9_9 
REMARK    4  A    between atoms: C8_8  and  C9_9 
ROOT
HETATM    1  C1  UNL     1     -34.930  15.633  -2.719  1.00 20.00    -0.019 C 
HETATM    2  C2  UNL     1     -34.228  16.601  -2.098  1.00 20.00    -0.073 C 
HETATM    3  C3  UNL     1     -34.791  17.281  -0.877  1.00 20.00     0.044 C 
ENDROOT
BRANCH   1   4
HETATM    4  C9  UNL     1     -34.540  14.856  -3.958  1.00 20.00     0.007 C 
BRANCH   4   5
HETATM    5  C7  UNL     1     -34.502  15.783  -5.192  1.00 20.00     0.004 C 
HETATM    6  C4  UNL     1     -34.026  15.082  -6.460  1.00 20.00     0.006 C 
ENDBRANCH   4   5
BRANCH   4   7
HETATM    7  C8  UNL     1     -35.531  13.700  -4.214  1.00 20.00     0.004 C 
HETATM    8  C5  UNL     1     -36.972  14.166  -4.385  1.00 20.00     0.006 C 
ENDBRANCH   4   7
ENDBRANCH   1   4
BRANCH   2   9
HETATM    9  C6  UNL     1     -32.856  17.059  -2.508  1.00 20.00     0.148 C 
HETATM   10 CL10 UNL     1     -32.130  18.064  -1.236  1.00 20.00    -0.126 Cl
ENDBRANCH   2   9
TORSDOF 4
ENDMDL
MODEL 3
REMARK VINA RESULT:      -3.8     11.156     11.807
REMARK  4 active torsions:
REMARK  status: ('A' for Active; 'I' for Inactive)
REMARK    1  A    between atoms: C1_1  and  C9_9 
REMARK    2  A    between atoms: C2_2  and  C6_6 
REMARK    3  A    between atoms: C7_7  and  C9_9 
REMARK    4  A    between atoms: C8_8  and  C9_9 
ROOT
HETATM    1  C1  UNL     1     -33.574  16.321  -2.712  1.00 20.00    -0.019 C 
HETATM    2  C2  UNL     1     -33.949  15.502  -3.714  1.00 20.00    -0.073 C 
HETATM    3  C3  UNL     1     -32.952  14.557  -4.333  1.00 20.00     0.044 C 
ENDROOT
BRANCH   1   4
HETATM    4  C9  UNL     1     -34.422  17.342  -1.984  1.00 20.00     0.007 C 
BRANCH   4   5
HETATM    5  C7  UNL     1     -33.531  18.412  -1.316  1.00 20.00     0.004 C 
HETATM    6  C4  UNL     1     -32.043  18.092  -1.393  1.00 20.00     0.006 C 
ENDBRANCH   4   5
BRANCH   4   7
HETATM    7  C8  UNL     1     -35.299  16.661  -0.912  1.00 20.00     0.004 C 
HETATM    8  C5  UNL     1     -35.274  17.376   0.434  1.00 20.00     0.006 C 
ENDBRANCH   4   7
ENDBRANCH   1   4
BRANCH   2   9
HETATM    9  C6  UNL     1     -35.343  15.415  -4.272  1.00 20.00     0.148 C 
HETATM   10 CL10 UNL     1     -35.892  13.726  -4.311  1.00 20.00    -0.126 Cl
ENDBRANCH   2   9
TORSDOF 4
ENDMDL
MODEL 4
REMARK VINA RESULT:      -3.8     10.780     11.769
REMARK  4 active torsions:
REMARK  status: ('A' for Active; 'I' for Inactive)
REMARK    1  A    between atoms: C1_1  and  C9_9 
REMARK    2  A    between atoms: C2_2  and  C6_6 
REMARK    3  A    between atoms: C7_7  and  C9_9 
REMARK    4  A    between atoms: C8_8  and  C9_9 
ROOT
HETATM    1  C1  UNL     1     -34.168  16.226  -2.599  1.00 20.00    -0.019 C 
HETATM    2  C2  UNL     1     -34.216  17.023  -1.514  1.00 20.00    -0.073 C 
HETATM    3  C3  UNL     1     -33.126  18.034  -1.267  1.00 20.00     0.044 C 
ENDROOT
BRANCH   1   4
HETATM    4  C9  UNL     1     -35.152  15.148  -3.001  1.00 20.00     0.007 C 
BRANCH   4   5
HETATM    5  C7  UNL     1     -34.467  14.093  -3.897  1.00 20.00     0.004 C 
HETATM    6  C4  UNL     1     -33.111  14.542  -4.429  1.00 20.00     0.006 C 
ENDBRANCH   4   5
BRANCH   4   7
HETATM    7  C8  UNL     1     -36.355  15.758  -3.752  1.00 20.00     0.004 C 
HETATM    8  C5  UNL     1     -37.323  14.714  -4.294  1.00 20.00     0.006 C 
ENDBRANCH   4   7
ENDBRANCH   1   4
BRANCH   2   9
HETATM    9  C6  UNL     1     -35.326  17.021  -0.500  1.00 20.00     0.148 C 
HETATM   10 CL10 UNL     1     -34.743  17.636   1.062  1.00 20.00    -0.126 Cl
ENDBRANCH   2   9
TORSDOF 4
ENDMDL
MODEL 5
REMARK VINA RESULT:      -3.8     11.245     12.191
REMARK  4 active torsions:
REMARK  status: ('A' for Active; 'I' for Inactive)
REMARK    1  A    between atoms: C1_1  and  C9_9 
REMARK    2  A    between atoms: C2_2  and  C6_6 
REMARK    3  A    between atoms: C7_7  and  C9_9 
REMARK    4  A    between atoms: C8_8  and  C9_9 
ROOT
HETATM    1  C1  UNL     1     -34.618  15.750  -2.851  1.00 20.00    -0.019 C 
HETATM    2  C2  UNL     1     -34.534  14.783  -3.786  1.00 20.00    -0.073 C 
HETATM    3  C3  UNL     1     -35.723  13.905  -4.076  1.00 20.00     0.044 C 
ENDROOT
BRANCH   1   4
HETATM    4  C9  UNL     1     -33.534  16.711  -2.412  1.00 20.00     0.007 C 
BRANCH   4   5
HETATM    5  C7  UNL     1     -33.960  17.463  -1.132  1.00 20.00     0.004 C 
HETATM    6  C4  UNL     1     -35.305  17.004  -0.582  1.00 20.00     0.006 C 
ENDBRANCH   4   5
BRANCH   4   7
HETATM    7  C8  UNL     1     -33.221  17.730  -3.528  1.00 20.00     0.004 C 
HETATM    8  C5  UNL     1     -34.457  18.452  -4.052  1.00 20.00     0.006 C 
ENDBRANCH   4   7
ENDBRANCH   1   4
BRANCH   2   9
HETATM    9  C6  UNL     1     -33.319  14.512  -4.629  1.00 20.00     0.148 C 
HETATM   10 CL10 UNL     1     -33.648  14.888  -6.334  1.00 20.00    -0.126 Cl
ENDBRANCH   2   9
TORSDOF 4
ENDMDL
MODEL 6
REMARK VINA RESULT:      -3.7     11.134     11.896
REMARK  4 active torsions:
REMARK  status: ('A' for Active; 'I' for Inactive)
REMARK    1  A    between atoms: C1_1  and  C9_9 
REMARK    2  A    between atoms: C2_2  and  C6_6 
REMARK    3  A    between atoms: C7_7  and  C9_9 
REMARK    4  A    between atoms: C8_8  and  C9_9 
ROOT
HETATM    1  C1  UNL     1     -34.242  15.893  -2.859  1.00 20.00    -0.019 C 
HETATM    2  C2  UNL     1     -34.166  14.863  -3.725  1.00 20.00    -0.073 C 
HETATM    3  C3  UNL     1     -32.849  14.505  -4.363  1.00 20.00     0.044 C 
ENDROOT
BRANCH   1   4
HETATM    4  C9  UNL     1     -35.469  16.410  -2.139  1.00 20.00     0.007 C 
BRANCH   4   5
HETATM    5  C7  UNL     1     -36.226  17.429  -3.019  1.00 20.00     0.004 C 
HETATM    6  C4  UNL     1     -37.594  16.934  -3.474  1.00 20.00     0.006 C 
ENDBRANCH   4   5
BRANCH   4   7
HETATM    7  C8  UNL     1     -35.079  17.075  -0.802  1.00 20.00     0.004 C 
HETATM    8  C5  UNL     1     -33.750  17.818  -0.860  1.00 20.00     0.006 C 
ENDBRANCH   4   7
ENDBRANCH   1   4
BRANCH   2   9
HETATM    9  C6  UNL     1     -35.321  13.977  -4.102  1.00 20.00     0.148 C 
HETATM   10 CL10 UNL     1     -35.909  14.382  -5.729  1.00 20.00    -0.126 Cl
ENDBRANCH   2   9
TORSDOF 4
ENDMDL
MODEL 7
REMARK VINA RESULT:      -3.7     11.351     12.047
REMARK  4 active torsions:
REMARK  status: ('A' for Active; 'I' for Inactive)
REMARK    1  A    between atoms: C1_1  and  C9_9 
REMARK    2  A    between atoms: C2_2  and  C6_6 
REMARK    3  A    between atoms: C7_7  and  C9_9 
REMARK    4  A    between atoms: C8_8  and  C9_9 
ROOT
HETATM    1  C1  UNL     1     -35.063  16.146  -1.779  1.00 20.00    -0.019 C 
HETATM    2  C2  UNL     1     -34.827  17.278  -1.085  1.00 20.00    -0.073 C 
HETATM    3  C3  UNL     1     -35.175  17.355   0.379  1.00 20.00     0.044 C 
ENDROOT
BRANCH   1   4
HETATM    4  C9  UNL     1     -34.801  15.889  -3.247  1.00 20.00     0.007 C 
BRANCH   4   5
HETATM    5  C7  UNL     1     -35.575  14.641  -3.727  1.00 20.00     0.004 C 
HETATM    6  C4  UNL     1     -36.964  14.963  -4.265  1.00 20.00     0.006 C 
ENDBRANCH   4   5
BRANCH   4   7
HETATM    7  C8  UNL     1     -33.292  15.689  -3.507  1.00 20.00     0.004 C 
HETATM    8  C5  UNL     1     -32.987  14.506  -4.417  1.00 20.00     0.006 C 
ENDBRANCH   4   7
ENDBRANCH   1   4
BRANCH   2   9
HETATM    9  C6  UNL     1     -34.188  18.513  -1.656  1.00 20.00     0.148 C 
HETATM   10 CL10 UNL     1     -32.437  18.502  -1.355  1.00 20.00    -0.126 Cl
ENDBRANCH   2   9
TORSDOF 4
ENDMDL
MODEL 8
REMARK VINA RESULT:      -3.6     10.830     12.206
REMARK  4 active torsions:
REMARK  status: ('A' for Active; 'I' for Inactive)
REMARK    1  A    between atoms: C1_1  and  C9_9 
REMARK    2  A    between atoms: C2_2  and  C6_6 
REMARK    3  A    between atoms: C7_7  and  C9_9 
REMARK    4  A    between atoms: C8_8  and  C9_9 
ROOT
HETATM    1  C1  UNL     1     -33.794  16.347  -2.751  1.00 20.00    -0.019 C 
HETATM    2  C2  UNL     1     -33.674  17.336  -1.843  1.00 20.00    -0.073 C 
HETATM    3  C3  UNL     1     -32.314  17.877  -1.487  1.00 20.00     0.044 C 
ENDROOT
BRANCH   1   4
HETATM    4  C9  UNL     1     -35.063  15.668  -3.219  1.00 20.00     0.007 C 
BRANCH   4   5
HETATM    5  C7  UNL     1     -34.752  14.263  -3.782  1.00 20.00     0.004 C 
HETATM    6  C4  UNL     1     -35.952  13.603  -4.452  1.00 20.00     0.006 C 
ENDBRANCH   4   5
BRANCH   4   7
HETATM    7  C8  UNL     1     -35.768  16.512  -4.302  1.00 20.00     0.004 C 
HETATM    8  C5  UNL     1     -34.809  17.099  -5.330  1.00 20.00     0.006 C 
ENDBRANCH   4   7
ENDBRANCH   1   4
BRANCH   2   9
HETATM    9  C6  UNL     1     -34.829  18.001  -1.147  1.00 20.00     0.148 C 
HETATM   10 CL10 UNL     1     -35.424  16.984   0.183  1.00 20.00    -0.126 Cl
ENDBRANCH   2   9
TORSDOF 4
ENDMDL
MODEL 9
REMARK VINA RESULT:      -3.6     11.137     12.419
REMARK  4 active torsions:
REMARK  status: ('A' for Active; 'I' for Inactive)
REMARK    1  A    between atoms: C1_1  and  C9_9 
REMARK    2  A    between atoms: C2_2  and  C6_6 
REMARK    3  A    between atoms: C7_7  and  C9_9 
REMARK    4  A    between atoms: C8_8  and  C9_9 
ROOT
HETATM    1  C1  UNL     1     -34.311  16.521  -2.114  1.00 20.00    -0.019 C 
HETATM    2  C2  UNL     1     -34.326  17.411  -1.101  1.00 20.00    -0.073 C 
HETATM    3  C3  UNL     1     -35.238  17.200   0.078  1.00 20.00     0.044 C 
ENDROOT
BRANCH   1   4
HETATM    4  C9  UNL     1     -33.483  16.573  -3.380  1.00 20.00     0.007 C 
BRANCH   4   5
HETATM    5  C7  UNL     1     -34.182  17.437  -4.453  1.00 20.00     0.004 C 
HETATM    6  C4  UNL     1     -33.476  18.762  -4.715  1.00 20.00     0.006 C 
ENDBRANCH   4   5
BRANCH   4   7
HETATM    7  C8  UNL     1     -33.246  15.153  -3.937  1.00 20.00     0.004 C 
HETATM    8  C5  UNL     1     -34.512  14.306  -3.992  1.00 20.00     0.006 C 
ENDBRANCH   4   7
ENDBRANCH   1   4
BRANCH   2   9
HETATM    9  C6  UNL     1     -33.449  18.630  -1.022  1.00 20.00     0.148 C 
HETATM   10 CL10 UNL     1     -31.756  18.161  -0.752  1.00 20.00    -0.126 Cl
ENDBRANCH   2   9
TORSDOF 4
ENDMDL
