MODEL 1
REMARK VINA RESULT:      -4.2      0.000      0.000
REMARK  4 active torsions:
REMARK  status: ('A' for Active; 'I' for Inactive)
REMARK    1  A    between atoms: C1_1  and  C9_9 
REMARK    2  A    between atoms: C2_2  and  C7_7 
REMARK    3  A    between atoms: C2_2  and  C8_8 
REMARK    4  A    between atoms: C8_8  and  O10_10 
ROOT
HETATM    1  C1  UNL     1     -33.437  16.179  -3.017  1.00 20.00    -0.013 C 
HETATM    2  C2  UNL     1     -34.117  15.199  -3.650  1.00 20.00    -0.060 C 
ENDROOT
BRANCH   2   3
HETATM    3  C7  UNL     1     -35.620  15.030  -3.665  1.00 20.00     0.031 C 
HETATM    4  C3  UNL     1     -36.064  13.790  -4.429  1.00 20.00     0.010 C 
ENDBRANCH   2   3
BRANCH   2   5
HETATM    5  C8  UNL     1     -33.346  14.170  -4.449  1.00 20.00     0.198 C 
BRANCH   5   6
HETATM    6  O10 UNL     1     -31.974  14.538  -4.506  1.00 20.00    -0.397 OA
HETATM    7  H28 UNL     1     -31.461  13.724  -4.375  1.00 20.00     0.209 HD
ENDBRANCH   5   6
ENDBRANCH   2   5
BRANCH   1   8
HETATM    8  C9  UNL     1     -33.908  17.334  -2.138  1.00 20.00    -0.033 C 
HETATM    9  C4  UNL     1     -34.507  18.457  -3.000  1.00 20.00     0.018 C 
HETATM   10  C5  UNL     1     -34.908  16.901  -1.051  1.00 20.00     0.018 C 
HETATM   11  C6  UNL     1     -32.673  17.911  -1.406  1.00 20.00     0.018 C 
ENDBRANCH   1   8
TORSDOF 4
ENDMDL
MODEL 2
REMARK VINA RESULT:      -4.2      1.876      2.697
REMARK  4 active torsions:
REMARK  status: ('A' for Active; 'I' for Inactive)
REMARK    1  A    between atoms: C1_1  and  C9_9 
REMARK    2  A    between atoms: C2_2  and  C7_7 
REMARK    3  A    between atoms: C2_2  and  C8_8 
REMARK    4  A    between atoms: C8_8  and  O10_10 
ROOT
HETATM    1  C1  UNL     1     -35.454  15.448  -3.276  1.00 20.00    -0.013 C 
HETATM    2  C2  UNL     1     -35.351  14.764  -4.436  1.00 20.00    -0.060 C 
ENDROOT
BRANCH   2   3
HETATM    3  C7  UNL     1     -34.319  14.999  -5.516  1.00 20.00     0.031 C 
HETATM    4  C3  UNL     1     -34.803  15.961  -6.592  1.00 20.00     0.010 C 
ENDBRANCH   2   3
BRANCH   2   5
HETATM    5  C8  UNL     1     -36.321  13.634  -4.709  1.00 20.00     0.198 C 
BRANCH   5   6
HETATM    6  O10 UNL     1     -35.797  12.417  -4.193  1.00 20.00    -0.397 OA
HETATM    7  H28 UNL     1     -36.541  11.797  -4.130  1.00 20.00     0.209 HD
ENDBRANCH   5   6
ENDBRANCH   2   5
BRANCH   1   8
HETATM    8  C9  UNL     1     -34.656  16.624  -2.720  1.00 20.00    -0.033 C 
HETATM    9  C4  UNL     1     -33.147  16.342  -2.809  1.00 20.00     0.018 C 
HETATM   10  C5  UNL     1     -34.993  17.962  -3.401  1.00 20.00     0.018 C 
HETATM   11  C6  UNL     1     -35.016  16.779  -1.223  1.00 20.00     0.018 C 
ENDBRANCH   1   8
TORSDOF 4
ENDMDL
MODEL 3
REMARK VINA RESULT:      -4.2      2.062      2.861
REMARK  4 active torsions:
REMARK  status: ('A' for Active; 'I' for Inactive)
REMARK    1  A    between atoms: C1_1  and  C9_9 
REMARK    2  A    between atoms: C2_2  and  C7_7 
REMARK    3  A    between atoms: C2_2  and  C8_8 
REMARK    4  A    between atoms: C8_8  and  O10_10 
ROOT
HETATM    1  C1  UNL     1     -35.371  15.295  -3.119  1.00 20.00    -0.013 C 
HETATM    2  C2  UNL     1     -35.110  14.568  -4.227  1.00 20.00    -0.060 C 
ENDROOT
BRANCH   2   3
HETATM    3  C7  UNL     1     -34.005  14.837  -5.223  1.00 20.00     0.031 C 
HETATM    4  C3  UNL     1     -34.534  15.238  -6.594  1.00 20.00     0.010 C 
ENDBRANCH   2   3
BRANCH   2   5
HETATM    5  C8  UNL     1     -35.961  13.352  -4.523  1.00 20.00     0.198 C 
BRANCH   5   6
HETATM    6  O10 UNL     1     -37.338  13.706  -4.471  1.00 20.00    -0.397 OA
HETATM    7  H28 UNL     1     -37.841  12.877  -4.506  1.00 20.00     0.209 HD
ENDBRANCH   5   6
ENDBRANCH   2   5
BRANCH   1   8
HETATM    8  C9  UNL     1     -34.720  16.556  -2.558  1.00 20.00    -0.033 C 
HETATM    9  C4  UNL     1     -35.150  16.781  -1.099  1.00 20.00     0.018 C 
HETATM   10  C5  UNL     1     -33.185  16.547  -2.669  1.00 20.00     0.018 C 
HETATM   11  C6  UNL     1     -35.223  17.761  -3.387  1.00 20.00     0.018 C 
ENDBRANCH   1   8
TORSDOF 4
ENDMDL
MODEL 4
REMARK VINA RESULT:      -4.1      0.740      1.507
REMARK  4 active torsions:
REMARK  status: ('A' for Active; 'I' for Inactive)
REMARK    1  A    between atoms: C1_1  and  C9_9 
REMARK    2  A    between atoms: C2_2  and  C7_7 
REMARK    3  A    between atoms: C2_2  and  C8_8 
REMARK    4  A    between atoms: C8_8  and  O10_10 
ROOT
HETATM    1  C1  UNL     1     -33.361  16.200  -2.882  1.00 20.00    -0.013 C 
HETATM    2  C2  UNL     1     -33.856  15.436  -3.880  1.00 20.00    -0.060 C 
ENDROOT
BRANCH   2   3
HETATM    3  C7  UNL     1     -35.255  15.517  -4.448  1.00 20.00     0.031 C 
HETATM    4  C3  UNL     1     -36.103  14.302  -4.095  1.00 20.00     0.010 C 
ENDBRANCH   2   3
BRANCH   2   5
HETATM    5  C8  UNL     1     -32.955  14.412  -4.535  1.00 20.00     0.198 C 
BRANCH   5   6
HETATM    6  O10 UNL     1     -33.073  14.504  -5.949  1.00 20.00    -0.397 OA
HETATM    7  H28 UNL     1     -34.011  14.369  -6.160  1.00 20.00     0.209 HD
ENDBRANCH   5   6
ENDBRANCH   2   5
BRANCH   1   8
HETATM    8  C9  UNL     1     -34.002  17.289  -2.026  1.00 20.00    -0.033 C 
HETATM    9  C4  UNL     1     -35.188  16.720  -1.231  1.00 20.00     0.018 C 
HETATM   10  C5  UNL     1     -33.005  17.983  -1.081  1.00 20.00     0.018 C 
HETATM   11  C6  UNL     1     -34.553  18.379  -2.976  1.00 20.00     0.018 C 
ENDBRANCH   1   8
TORSDOF 4
ENDMDL
MODEL 5
REMARK VINA RESULT:      -4.0      2.194      4.483
REMARK  4 active torsions:
REMARK  status: ('A' for Active; 'I' for Inactive)
REMARK    1  A    between atoms: C1_1  and  C9_9 
REMARK    2  A    between atoms: C2_2  and  C7_7 
REMARK    3  A    between atoms: C2_2  and  C8_8 
REMARK    4  A    between atoms: C8_8  and  O10_10 
ROOT
HETATM    1  C1  UNL     1     -35.192  15.589  -2.852  1.00 20.00    -0.013 C 
HETATM    2  C2  UNL     1     -34.503  16.470  -2.095  1.00 20.00    -0.060 C 
ENDROOT
BRANCH   2   3
HETATM    3  C7  UNL     1     -33.160  17.074  -2.439  1.00 20.00     0.031 C 
HETATM    4  C3  UNL     1     -32.624  17.980  -1.339  1.00 20.00     0.010 C 
ENDBRANCH   2   3
BRANCH   2   5
HETATM    5  C8  UNL     1     -35.103  16.941  -0.787  1.00 20.00     0.198 C 
BRANCH   5   6
HETATM    6  O10 UNL     1     -36.472  17.276  -0.982  1.00 20.00    -0.397 OA
HETATM    7  H28 UNL     1     -36.978  16.779  -0.319  1.00 20.00     0.209 HD
ENDBRANCH   5   6
ENDBRANCH   2   5
BRANCH   1   8
HETATM    8  C9  UNL     1     -34.864  14.924  -4.185  1.00 20.00    -0.033 C 
HETATM    9  C4  UNL     1     -35.069  15.912  -5.345  1.00 20.00     0.018 C 
HETATM   10  C5  UNL     1     -33.445  14.329  -4.232  1.00 20.00     0.018 C 
HETATM   11  C6  UNL     1     -35.850  13.750  -4.388  1.00 20.00     0.018 C 
ENDBRANCH   1   8
TORSDOF 4
ENDMDL
MODEL 6
REMARK VINA RESULT:      -4.0      1.691      1.740
REMARK  4 active torsions:
REMARK  status: ('A' for Active; 'I' for Inactive)
REMARK    1  A    between atoms: C1_1  and  C9_9 
REMARK    2  A    between atoms: C2_2  and  C7_7 
REMARK    3  A    between atoms: C2_2  and  C8_8 
REMARK    4  A    between atoms: C8_8  and  O10_10 
ROOT
HETATM    1  C1  UNL     1     -34.232  15.546  -3.019  1.00 20.00    -0.013 C 
HETATM    2  C2  UNL     1     -35.130  14.731  -3.613  1.00 20.00    -0.060 C 
ENDROOT
BRANCH   2   3
HETATM    3  C7  UNL     1     -36.603  15.021  -3.800  1.00 20.00     0.031 C 
HETATM    4  C3  UNL     1     -36.928  15.536  -5.195  1.00 20.00     0.010 C 
ENDBRANCH   2   3
BRANCH   2   5
HETATM    5  C8  UNL     1     -34.658  13.410  -4.179  1.00 20.00     0.198 C 
BRANCH   5   6
HETATM    6  O10 UNL     1     -35.750  12.500  -4.247  1.00 20.00    -0.397 OA
HETATM    7  H28 UNL     1     -35.732  11.981  -3.427  1.00 20.00     0.209 HD
ENDBRANCH   5   6
ENDBRANCH   2   5
BRANCH   1   8
HETATM    8  C9  UNL     1     -34.388  16.909  -2.350  1.00 20.00    -0.033 C 
HETATM    9  C4  UNL     1     -34.943  17.938  -3.348  1.00 20.00     0.018 C 
HETATM   10  C5  UNL     1     -35.259  16.867  -1.082  1.00 20.00     0.018 C 
HETATM   11  C6  UNL     1     -32.983  17.390  -1.914  1.00 20.00     0.018 C 
ENDBRANCH   1   8
TORSDOF 4
ENDMDL
MODEL 7
REMARK VINA RESULT:      -3.9      2.407      4.489
REMARK  4 active torsions:
REMARK  status: ('A' for Active; 'I' for Inactive)
REMARK    1  A    between atoms: C1_1  and  C9_9 
REMARK    2  A    between atoms: C2_2  and  C7_7 
REMARK    3  A    between atoms: C2_2  and  C8_8 
REMARK    4  A    between atoms: C8_8  and  O10_10 
ROOT
HETATM    1  C1  UNL     1     -32.774  17.512  -1.734  1.00 20.00    -0.013 C 
HETATM    2  C2  UNL     1     -32.906  18.288  -0.636  1.00 20.00    -0.060 C 
ENDROOT
BRANCH   2   3
HETATM    3  C7  UNL     1     -34.209  18.670   0.028  1.00 20.00     0.031 C 
HETATM    4  C3  UNL     1     -34.402  17.991   1.378  1.00 20.00     0.010 C 
ENDBRANCH   2   3
BRANCH   2   5
HETATM    5  C8  UNL     1     -31.660  18.824   0.036  1.00 20.00     0.198 C 
BRANCH   5   6
HETATM    6  O10 UNL     1     -30.505  18.290  -0.599  1.00 20.00    -0.397 OA
HETATM    7  H28 UNL     1     -30.148  18.992  -1.167  1.00 20.00     0.209 HD
ENDBRANCH   5   6
ENDBRANCH   2   5
BRANCH   1   8
HETATM    8  C9  UNL     1     -33.811  16.842  -2.631  1.00 20.00    -0.033 C 
HETATM    9  C4  UNL     1     -33.137  15.828  -3.569  1.00 20.00     0.018 C 
HETATM   10  C5  UNL     1     -34.950  16.170  -1.844  1.00 20.00     0.018 C 
HETATM   11  C6  UNL     1     -34.459  17.937  -3.511  1.00 20.00     0.018 C 
ENDBRANCH   1   8
TORSDOF 4
ENDMDL
MODEL 8
REMARK VINA RESULT:      -3.8      1.425      1.437
REMARK  4 active torsions:
REMARK  status: ('A' for Active; 'I' for Inactive)
REMARK    1  A    between atoms: C1_1  and  C9_9 
REMARK    2  A    between atoms: C2_2  and  C7_7 
REMARK    3  A    between atoms: C2_2  and  C8_8 
REMARK    4  A    between atoms: C8_8  and  O10_10 
ROOT
HETATM    1  C1  UNL     1     -34.007  16.334  -4.274  1.00 20.00    -0.013 C 
HETATM    2  C2  UNL     1     -34.830  15.680  -5.122  1.00 20.00    -0.060 C 
ENDROOT
BRANCH   2   3
HETATM    3  C7  UNL     1     -36.315  15.470  -4.930  1.00 20.00     0.031 C 
HETATM    4  C3  UNL     1     -36.663  14.031  -4.570  1.00 20.00     0.010 C 
ENDBRANCH   2   3
BRANCH   2   5
HETATM    5  C8  UNL     1     -34.261  15.114  -6.405  1.00 20.00     0.198 C 
BRANCH   5   6
HETATM    6  O10 UNL     1     -33.005  14.500  -6.142  1.00 20.00    -0.397 OA
HETATM    7  H28 UNL     1     -32.333  15.197  -6.218  1.00 20.00     0.209 HD
ENDBRANCH   5   6
ENDBRANCH   2   5
BRANCH   1   8
HETATM    8  C9  UNL     1     -34.262  16.994  -2.922  1.00 20.00    -0.033 C 
HETATM    9  C4  UNL     1     -35.052  18.300  -3.102  1.00 20.00     0.018 C 
HETATM   10  C5  UNL     1     -34.975  16.069  -1.920  1.00 20.00     0.018 C 
HETATM   11  C6  UNL     1     -32.892  17.356  -2.302  1.00 20.00     0.018 C 
ENDBRANCH   1   8
TORSDOF 4
ENDMDL
MODEL 9
REMARK VINA RESULT:      -3.8      2.442      4.488
REMARK  4 active torsions:
REMARK  status: ('A' for Active; 'I' for Inactive)
REMARK    1  A    between atoms: C1_1  and  C9_9 
REMARK    2  A    between atoms: C2_2  and  C7_7 
REMARK    3  A    between atoms: C2_2  and  C8_8 
REMARK    4  A    between atoms: C8_8  and  O10_10 
ROOT
HETATM    1  C1  UNL     1     -35.038  15.899  -2.295  1.00 20.00    -0.013 C 
HETATM    2  C2  UNL     1     -34.713  16.972  -1.541  1.00 20.00    -0.060 C 
ENDROOT
BRANCH   2   3
HETATM    3  C7  UNL     1     -33.786  18.094  -1.949  1.00 20.00     0.031 C 
HETATM    4  C3  UNL     1     -32.478  18.090  -1.168  1.00 20.00     0.010 C 
ENDBRANCH   2   3
BRANCH   2   5
HETATM    5  C8  UNL     1     -35.330  17.116  -0.166  1.00 20.00     0.198 C 
BRANCH   5   6
HETATM    6  O10 UNL     1     -36.699  17.480  -0.291  1.00 20.00    -0.397 OA
HETATM    7  H28 UNL     1     -36.776  18.392   0.031  1.00 20.00     0.209 HD
ENDBRANCH   5   6
ENDBRANCH   2   5
BRANCH   1   8
HETATM    8  C9  UNL     1     -34.587  15.465  -3.687  1.00 20.00    -0.033 C 
HETATM    9  C4  UNL     1     -35.077  14.041  -3.992  1.00 20.00     0.018 C 
HETATM   10  C5  UNL     1     -35.029  16.435  -4.797  1.00 20.00     0.018 C 
HETATM   11  C6  UNL     1     -33.040  15.443  -3.701  1.00 20.00     0.018 C 
ENDBRANCH   1   8
TORSDOF 4
ENDMDL
