MODEL 1
REMARK VINA RESULT:      -4.4      0.000      0.000
REMARK  3 active torsions:
REMARK  status: ('A' for Active; 'I' for Inactive)
REMARK    1  A    between atoms: C1_1  and  C8_8 
REMARK    2  A    between atoms: C2_2  and  C3_3 
REMARK    3  A    between atoms: C3_3  and  C9_9 
ROOT
HETATM    1  C1  UNL     1     -35.326  15.240  -3.260  1.00 20.00    -0.012 C 
HETATM    2  C3  UNL     1     -35.597  14.908  -4.538  1.00 20.00    -0.020 C 
ENDROOT
BRANCH   2   3
HETATM    3  C2  UNL     1     -36.270  13.581  -4.687  1.00 20.00     0.265 C 
HETATM    4  O10 UNL     1     -35.738  12.510  -4.421  1.00 20.00    -0.302 OA
ENDBRANCH   2   3
BRANCH   2   5
HETATM    5  C9  UNL     1     -35.290  15.731  -5.772  1.00 20.00     0.013 C 
HETATM    6  C6  UNL     1     -34.168  15.116  -6.613  1.00 20.00     0.015 C 
HETATM    7  C7  UNL     1     -36.536  15.994  -6.621  1.00 20.00     0.015 C 
ENDBRANCH   2   5
BRANCH   1   8
HETATM    8  C8  UNL     1     -34.654  16.494  -2.746  1.00 20.00     0.001 C 
HETATM    9  C4  UNL     1     -35.035  16.727  -1.284  1.00 20.00     0.013 C 
HETATM   10  C5  UNL     1     -33.136  16.368  -2.891  1.00 20.00     0.013 C 
ENDBRANCH   1   8
TORSDOF 3
ENDMDL
MODEL 2
REMARK VINA RESULT:      -4.3      1.176      1.797
REMARK  3 active torsions:
REMARK  status: ('A' for Active; 'I' for Inactive)
REMARK    1  A    between atoms: C1_1  and  C8_8 
REMARK    2  A    between atoms: C2_2  and  C3_3 
REMARK    3  A    between atoms: C3_3  and  C9_9 
ROOT
HETATM    1  C1  UNL     1     -35.478  15.524  -2.957  1.00 20.00    -0.012 C 
HETATM    2  C3  UNL     1     -35.107  14.867  -4.074  1.00 20.00    -0.020 C 
ENDROOT
BRANCH   2   3
HETATM    3  C2  UNL     1     -36.056  13.788  -4.484  1.00 20.00     0.265 C 
HETATM    4  O10 UNL     1     -35.785  12.593  -4.461  1.00 20.00    -0.302 OA
ENDBRANCH   2   3
BRANCH   2   5
HETATM    5  C9  UNL     1     -33.866  15.124  -4.906  1.00 20.00     0.013 C 
HETATM    6  C6  UNL     1     -32.677  14.273  -4.450  1.00 20.00     0.015 C 
HETATM    7  C7  UNL     1     -34.125  14.955  -6.405  1.00 20.00     0.015 C 
ENDBRANCH   2   5
BRANCH   1   8
HETATM    8  C8  UNL     1     -34.760  16.659  -2.262  1.00 20.00     0.001 C 
HETATM    9  C4  UNL     1     -34.990  17.965  -3.023  1.00 20.00     0.013 C 
HETATM   10  C5  UNL     1     -35.257  16.784  -0.821  1.00 20.00     0.013 C 
ENDBRANCH   1   8
TORSDOF 3
ENDMDL
MODEL 3
REMARK VINA RESULT:      -4.1      1.335      1.841
REMARK  3 active torsions:
REMARK  status: ('A' for Active; 'I' for Inactive)
REMARK    1  A    between atoms: C1_1  and  C8_8 
REMARK    2  A    between atoms: C2_2  and  C3_3 
REMARK    3  A    between atoms: C3_3  and  C9_9 
ROOT
HETATM    1  C1  UNL     1     -35.046  15.156  -3.561  1.00 20.00    -0.012 C 
HETATM    2  C3  UNL     1     -36.227  14.883  -4.151  1.00 20.00    -0.020 C 
ENDROOT
BRANCH   2   3
HETATM    3  C2  UNL     1     -36.295  13.523  -4.767  1.00 20.00     0.265 C 
HETATM    4  O10 UNL     1     -35.700  12.544  -4.332  1.00 20.00    -0.302 OA
ENDBRANCH   2   3
BRANCH   2   5
HETATM    5  C9  UNL     1     -37.431  15.800  -4.234  1.00 20.00     0.013 C 
HETATM    6  C6  UNL     1     -37.377  16.716  -5.460  1.00 20.00     0.015 C 
HETATM    7  C7  UNL     1     -38.753  15.031  -4.176  1.00 20.00     0.015 C 
ENDBRANCH   2   5
BRANCH   1   8
HETATM    8  C8  UNL     1     -34.631  16.424  -2.851  1.00 20.00     0.001 C 
HETATM    9  C4  UNL     1     -35.123  16.397  -1.404  1.00 20.00     0.013 C 
HETATM   10  C5  UNL     1     -33.109  16.572  -2.897  1.00 20.00     0.013 C 
ENDBRANCH   1   8
TORSDOF 3
ENDMDL
MODEL 4
REMARK VINA RESULT:      -4.0      1.184      1.874
REMARK  3 active torsions:
REMARK  status: ('A' for Active; 'I' for Inactive)
REMARK    1  A    between atoms: C1_1  and  C8_8 
REMARK    2  A    between atoms: C2_2  and  C3_3 
REMARK    3  A    between atoms: C3_3  and  C9_9 
ROOT
HETATM    1  C1  UNL     1     -34.774  14.869  -3.332  1.00 20.00    -0.012 C 
HETATM    2  C3  UNL     1     -35.831  15.014  -4.155  1.00 20.00    -0.020 C 
ENDROOT
BRANCH   2   3
HETATM    3  C2  UNL     1     -36.319  13.730  -4.744  1.00 20.00     0.265 C 
HETATM    4  O10 UNL     1     -35.831  12.634  -4.496  1.00 20.00    -0.302 OA
ENDBRANCH   2   3
BRANCH   2   5
HETATM    5  C9  UNL     1     -36.529  16.311  -4.512  1.00 20.00     0.013 C 
HETATM    6  C6  UNL     1     -36.521  16.576  -6.021  1.00 20.00     0.015 C 
HETATM    7  C7  UNL     1     -37.949  16.383  -3.946  1.00 20.00     0.015 C 
ENDBRANCH   2   5
BRANCH   1   8
HETATM    8  C8  UNL     1     -34.028  15.945  -2.575  1.00 20.00     0.001 C 
HETATM    9  C4  UNL     1     -33.439  16.959  -3.555  1.00 20.00     0.013 C 
HETATM   10  C5  UNL     1     -34.972  16.637  -1.590  1.00 20.00     0.013 C 
ENDBRANCH   1   8
TORSDOF 3
ENDMDL
MODEL 5
REMARK VINA RESULT:      -3.9      1.577      2.178
REMARK  3 active torsions:
REMARK  status: ('A' for Active; 'I' for Inactive)
REMARK    1  A    between atoms: C1_1  and  C8_8 
REMARK    2  A    between atoms: C2_2  and  C3_3 
REMARK    3  A    between atoms: C3_3  and  C9_9 
ROOT
HETATM    1  C1  UNL     1     -33.367  16.224  -2.821  1.00 20.00    -0.012 C 
HETATM    2  C3  UNL     1     -33.929  15.589  -3.868  1.00 20.00    -0.020 C 
ENDROOT
BRANCH   2   3
HETATM    3  C2  UNL     1     -33.055  14.543  -4.481  1.00 20.00     0.265 C 
HETATM    4  O10 UNL     1     -33.188  13.340  -4.289  1.00 20.00    -0.302 OA
ENDBRANCH   2   3
BRANCH   2   5
HETATM    5  C9  UNL     1     -35.309  15.839  -4.444  1.00 20.00     0.013 C 
HETATM    6  C6  UNL     1     -35.292  15.912  -5.974  1.00 20.00     0.015 C 
HETATM    7  C7  UNL     1     -36.338  14.819  -3.950  1.00 20.00     0.015 C 
ENDBRANCH   2   5
BRANCH   1   8
HETATM    8  C8  UNL     1     -33.958  17.329  -1.975  1.00 20.00     0.001 C 
HETATM    9  C4  UNL     1     -35.054  16.765  -1.072  1.00 20.00     0.013 C 
HETATM   10  C5  UNL     1     -32.860  17.988  -1.137  1.00 20.00     0.013 C 
ENDBRANCH   1   8
TORSDOF 3
ENDMDL
MODEL 6
REMARK VINA RESULT:      -3.9      1.286      3.250
REMARK  3 active torsions:
REMARK  status: ('A' for Active; 'I' for Inactive)
REMARK    1  A    between atoms: C1_1  and  C8_8 
REMARK    2  A    between atoms: C2_2  and  C3_3 
REMARK    3  A    between atoms: C3_3  and  C9_9 
ROOT
HETATM    1  C1  UNL     1     -35.572  15.766  -5.479  1.00 20.00    -0.012 C 
HETATM    2  C3  UNL     1     -35.412  14.921  -4.442  1.00 20.00    -0.020 C 
ENDROOT
BRANCH   2   3
HETATM    3  C2  UNL     1     -36.247  13.685  -4.534  1.00 20.00     0.265 C 
HETATM    4  O10 UNL     1     -35.794  12.548  -4.486  1.00 20.00    -0.302 OA
ENDBRANCH   2   3
BRANCH   2   5
HETATM    5  C9  UNL     1     -34.497  15.116  -3.249  1.00 20.00     0.013 C 
HETATM    6  C6  UNL     1     -33.100  15.590  -3.662  1.00 20.00     0.015 C 
HETATM    7  C7  UNL     1     -35.106  16.044  -2.195  1.00 20.00     0.015 C 
ENDBRANCH   2   5
BRANCH   1   8
HETATM    8  C8  UNL     1     -34.896  17.099  -5.708  1.00 20.00     0.001 C 
HETATM    9  C4  UNL     1     -34.476  17.226  -7.173  1.00 20.00     0.013 C 
HETATM   10  C5  UNL     1     -35.843  18.237  -5.322  1.00 20.00     0.013 C 
ENDBRANCH   1   8
TORSDOF 3
ENDMDL
MODEL 7
REMARK VINA RESULT:      -3.8      1.340      3.511
REMARK  3 active torsions:
REMARK  status: ('A' for Active; 'I' for Inactive)
REMARK    1  A    between atoms: C1_1  and  C8_8 
REMARK    2  A    between atoms: C2_2  and  C3_3 
REMARK    3  A    between atoms: C3_3  and  C9_9 
ROOT
HETATM    1  C1  UNL     1     -35.739  15.026  -6.354  1.00 20.00    -0.012 C 
HETATM    2  C3  UNL     1     -35.353  14.710  -5.102  1.00 20.00    -0.020 C 
ENDROOT
BRANCH   2   3
HETATM    3  C2  UNL     1     -36.178  13.637  -4.469  1.00 20.00     0.265 C 
HETATM    4  O10 UNL     1     -35.836  12.463  -4.398  1.00 20.00    -0.302 OA
ENDBRANCH   2   3
BRANCH   2   5
HETATM    5  C9  UNL     1     -34.207  15.327  -4.326  1.00 20.00     0.013 C 
HETATM    6  C6  UNL     1     -34.577  15.598  -2.865  1.00 20.00     0.015 C 
HETATM    7  C7  UNL     1     -32.924  14.497  -4.426  1.00 20.00     0.015 C 
ENDBRANCH   2   5
BRANCH   1   8
HETATM    8  C8  UNL     1     -35.139  16.060  -7.281  1.00 20.00     0.001 C 
HETATM    9  C4  UNL     1     -34.864  17.352  -6.512  1.00 20.00     0.013 C 
HETATM   10  C5  UNL     1     -33.848  15.518  -7.898  1.00 20.00     0.013 C 
ENDBRANCH   1   8
TORSDOF 3
ENDMDL
MODEL 8
REMARK VINA RESULT:      -3.8      1.738      3.669
REMARK  3 active torsions:
REMARK  status: ('A' for Active; 'I' for Inactive)
REMARK    1  A    between atoms: C1_1  and  C8_8 
REMARK    2  A    between atoms: C2_2  and  C3_3 
REMARK    3  A    between atoms: C3_3  and  C9_9 
ROOT
HETATM    1  C1  UNL     1     -36.896  14.989  -4.245  1.00 20.00    -0.012 C 
HETATM    2  C3  UNL     1     -35.617  14.883  -3.833  1.00 20.00    -0.020 C 
ENDROOT
BRANCH   2   3
HETATM    3  C2  UNL     1     -35.045  13.511  -3.987  1.00 20.00     0.265 C 
HETATM    4  O10 UNL     1     -35.684  12.543  -4.381  1.00 20.00    -0.302 OA
ENDBRANCH   2   3
BRANCH   2   5
HETATM    5  C9  UNL     1     -34.757  15.990  -3.256  1.00 20.00     0.013 C 
HETATM    6  C6  UNL     1     -35.042  16.228  -1.770  1.00 20.00     0.015 C 
HETATM    7  C7  UNL     1     -33.265  15.755  -3.502  1.00 20.00     0.015 C 
ENDBRANCH   2   5
BRANCH   1   8
HETATM    8  C8  UNL     1     -37.781  16.215  -4.230  1.00 20.00     0.001 C 
HETATM    9  C4  UNL     1     -37.667  16.956  -5.563  1.00 20.00     0.013 C 
HETATM   10  C5  UNL     1     -39.232  15.808  -3.966  1.00 20.00     0.013 C 
ENDBRANCH   1   8
TORSDOF 3
ENDMDL
MODEL 9
REMARK VINA RESULT:      -3.8      2.659      4.868
REMARK  3 active torsions:
REMARK  status: ('A' for Active; 'I' for Inactive)
REMARK    1  A    between atoms: C1_1  and  C8_8 
REMARK    2  A    between atoms: C2_2  and  C3_3 
REMARK    3  A    between atoms: C3_3  and  C9_9 
ROOT
HETATM    1  C1  UNL     1     -34.384  16.217  -2.416  1.00 20.00    -0.012 C 
HETATM    2  C3  UNL     1     -33.789  17.196  -1.706  1.00 20.00    -0.020 C 
ENDROOT
BRANCH   2   3
HETATM    3  C2  UNL     1     -34.544  17.600  -0.481  1.00 20.00     0.265 C 
HETATM    4  O10 UNL     1     -35.505  16.983  -0.035  1.00 20.00    -0.302 OA
ENDBRANCH   2   3
BRANCH   2   5
HETATM    5  C9  UNL     1     -32.479  17.884  -2.035  1.00 20.00     0.013 C 
HETATM    6  C6  UNL     1     -32.677  19.098  -2.946  1.00 20.00     0.015 C 
HETATM    7  C7  UNL     1     -31.687  18.258  -0.779  1.00 20.00     0.015 C 
ENDBRANCH   2   5
BRANCH   1   8
HETATM    8  C8  UNL     1     -33.907  15.574  -3.698  1.00 20.00     0.001 C 
HETATM    9  C4  UNL     1     -34.499  14.171  -3.830  1.00 20.00     0.013 C 
HETATM   10  C5  UNL     1     -34.309  16.439  -4.895  1.00 20.00     0.013 C 
ENDBRANCH   1   8
TORSDOF 3
ENDMDL
