MODEL 1
REMARK VINA RESULT:      -4.0      0.000      0.000
REMARK  1 active torsions:
REMARK  status: ('A' for Active; 'I' for Inactive)
REMARK    1  A    between atoms: C3_3  and  C8_8 
ROOT
HETATM    1  C1  UNL     1     -33.842  14.874  -6.161  1.00 20.00     0.284 C 
HETATM    2  C2  UNL     1     -35.400  14.315  -3.953  1.00 20.00     0.110 C 
HETATM    3  C3  UNL     1     -34.075  15.046  -3.703  1.00 20.00     0.233 C 
HETATM    4  C4  UNL     1     -35.172  15.587  -6.420  1.00 20.00     0.071 C 
HETATM    5  C5  UNL     1     -35.699  15.260  -7.815  1.00 20.00     0.023 C 
HETATM    6  N9  UNL     1     -33.229  15.241  -4.887  1.00 20.00     0.090 N 
HETATM    7  S10 UNL     1     -36.452  15.126  -5.195  1.00 20.00    -0.161 SA
HETATM    8  H27 UNL     1     -32.361  14.693  -4.771  1.00 20.00     0.316 HD
ENDROOT
BRANCH   3   9
HETATM    9  C8  UNL     1     -34.281  16.381  -2.976  1.00 20.00     0.011 C 
HETATM   10  C6  UNL     1     -35.099  16.177  -1.704  1.00 20.00     0.012 C 
HETATM   11  C7  UNL     1     -32.937  17.027  -2.655  1.00 20.00     0.012 C 
ENDBRANCH   3   9
TORSDOF 1
ENDMDL
MODEL 2
REMARK VINA RESULT:      -3.9     17.867     19.185
REMARK  1 active torsions:
REMARK  status: ('A' for Active; 'I' for Inactive)
REMARK    1  A    between atoms: C3_3  and  C8_8 
ROOT
HETATM    1  C1  UNL     1     -24.870  15.966  11.513  1.00 20.00     0.284 C 
HETATM    2  C2  UNL     1     -23.182  18.008  12.286  1.00 20.00     0.110 C 
HETATM    3  C3  UNL     1     -22.818  17.253  11.002  1.00 20.00     0.233 C 
HETATM    4  C4  UNL     1     -25.748  17.220  11.544  1.00 20.00     0.071 C 
HETATM    5  C5  UNL     1     -27.030  16.964  12.332  1.00 20.00     0.023 C 
HETATM    6  N9  UNL     1     -23.684  16.113  10.674  1.00 20.00     0.090 N 
HETATM    7  S10 UNL     1     -24.884  18.650  12.292  1.00 20.00    -0.161 SA
HETATM    8  H27 UNL     1     -23.128  15.244  10.736  1.00 20.00     0.316 HD
ENDROOT
BRANCH   3   9
HETATM    9  C8  UNL     1     -22.702  18.192   9.794  1.00 20.00     0.011 C 
HETATM   10  C6  UNL     1     -21.307  18.106   9.183  1.00 20.00     0.012 C 
HETATM   11  C7  UNL     1     -23.768  17.857   8.754  1.00 20.00     0.012 C 
ENDBRANCH   3   9
TORSDOF 1
ENDMDL
MODEL 3
REMARK VINA RESULT:      -3.7      2.393      4.264
REMARK  1 active torsions:
REMARK  status: ('A' for Active; 'I' for Inactive)
REMARK    1  A    between atoms: C3_3  and  C8_8 
ROOT
HETATM    1  C1  UNL     1     -32.906  18.128  -3.345  1.00 20.00     0.284 C 
HETATM    2  C2  UNL     1     -35.411  17.089  -2.835  1.00 20.00     0.110 C 
HETATM    3  C3  UNL     1     -34.596  16.424  -3.951  1.00 20.00     0.233 C 
HETATM    4  C4  UNL     1     -32.864  17.684  -1.879  1.00 20.00     0.071 C 
HETATM    5  C5  UNL     1     -32.317  18.799  -0.991  1.00 20.00     0.023 C 
HETATM    6  N9  UNL     1     -33.309  17.062  -4.258  1.00 20.00     0.090 N 
HETATM    7  S10 UNL     1     -34.517  17.207  -1.255  1.00 20.00    -0.161 SA
HETATM    8  H27 UNL     1     -33.350  17.449  -5.215  1.00 20.00     0.316 HD
ENDROOT
BRANCH   3   9
HETATM    9  C8  UNL     1     -34.394  14.923  -3.702  1.00 20.00     0.011 C 
HETATM   10  C6  UNL     1     -35.604  14.133  -4.191  1.00 20.00     0.012 C 
HETATM   11  C7  UNL     1     -33.119  14.436  -4.385  1.00 20.00     0.012 C 
ENDBRANCH   3   9
TORSDOF 1
ENDMDL
MODEL 4
REMARK VINA RESULT:      -3.6      1.186      1.433
REMARK  1 active torsions:
REMARK  status: ('A' for Active; 'I' for Inactive)
REMARK    1  A    between atoms: C3_3  and  C8_8 
ROOT
HETATM    1  C1  UNL     1     -33.688  14.908  -5.039  1.00 20.00     0.284 C 
HETATM    2  C2  UNL     1     -35.165  15.360  -2.751  1.00 20.00     0.110 C 
HETATM    3  C3  UNL     1     -33.767  15.990  -2.814  1.00 20.00     0.233 C 
HETATM    4  C4  UNL     1     -34.962  15.612  -5.517  1.00 20.00     0.071 C 
HETATM    5  C5  UNL     1     -35.593  14.855  -6.683  1.00 20.00     0.023 C 
HETATM    6  N9  UNL     1     -32.975  15.650  -4.003  1.00 20.00     0.090 N 
HETATM    7  S10 UNL     1     -36.207  15.766  -4.185  1.00 20.00    -0.161 SA
HETATM    8  H27 UNL     1     -32.154  15.094  -3.708  1.00 20.00     0.316 HD
ENDROOT
BRANCH   3   9
HETATM    9  C8  UNL     1     -33.812  17.512  -2.627  1.00 20.00     0.011 C 
HETATM   10  C6  UNL     1     -33.400  17.888  -1.207  1.00 20.00     0.012 C 
HETATM   11  C7  UNL     1     -32.913  18.201  -3.650  1.00 20.00     0.012 C 
ENDBRANCH   3   9
TORSDOF 1
ENDMDL
MODEL 5
REMARK VINA RESULT:      -3.5      2.042      2.877
REMARK  1 active torsions:
REMARK  status: ('A' for Active; 'I' for Inactive)
REMARK    1  A    between atoms: C3_3  and  C8_8 
ROOT
HETATM    1  C1  UNL     1     -37.011  16.593  -4.465  1.00 20.00     0.284 C 
HETATM    2  C2  UNL     1     -35.114  15.023  -5.712  1.00 20.00     0.110 C 
HETATM    3  C3  UNL     1     -34.601  16.115  -4.765  1.00 20.00     0.233 C 
HETATM    4  C4  UNL     1     -37.324  15.161  -4.024  1.00 20.00     0.071 C 
HETATM    5  C5  UNL     1     -38.806  14.846  -4.216  1.00 20.00     0.023 C 
HETATM    6  N9  UNL     1     -35.632  16.991  -4.194  1.00 20.00     0.090 N 
HETATM    7  S10 UNL     1     -36.345  13.922  -4.950  1.00 20.00    -0.161 SA
HETATM    8  H27 UNL     1     -35.491  17.949  -4.554  1.00 20.00     0.316 HD
ENDROOT
BRANCH   3   9
HETATM    9  C8  UNL     1     -33.719  15.541  -3.648  1.00 20.00     0.011 C 
HETATM   10  C6  UNL     1     -32.629  14.649  -4.233  1.00 20.00     0.012 C 
HETATM   11  C7  UNL     1     -33.107  16.668  -2.819  1.00 20.00     0.012 C 
ENDBRANCH   3   9
TORSDOF 1
ENDMDL
MODEL 6
REMARK VINA RESULT:      -3.5      1.531      1.710
REMARK  1 active torsions:
REMARK  status: ('A' for Active; 'I' for Inactive)
REMARK    1  A    between atoms: C3_3  and  C8_8 
ROOT
HETATM    1  C1  UNL     1     -35.878  14.171  -5.553  1.00 20.00     0.284 C 
HETATM    2  C2  UNL     1     -37.093  16.270  -4.236  1.00 20.00     0.110 C 
HETATM    3  C3  UNL     1     -36.050  15.466  -3.450  1.00 20.00     0.233 C 
HETATM    4  C4  UNL     1     -35.546  15.412  -6.387  1.00 20.00     0.071 C 
HETATM    5  C5  UNL     1     -35.853  15.171  -7.863  1.00 20.00     0.023 C 
HETATM    6  N9  UNL     1     -35.495  14.300  -4.150  1.00 20.00     0.090 N 
HETATM    7  S10 UNL     1     -36.482  16.885  -5.835  1.00 20.00    -0.161 SA
HETATM    8  H27 UNL     1     -35.785  13.443  -3.651  1.00 20.00     0.316 HD
ENDROOT
BRANCH   3   9
HETATM    9  C8  UNL     1     -34.916  16.353  -2.922  1.00 20.00     0.011 C 
HETATM   10  C6  UNL     1     -35.061  16.568  -1.419  1.00 20.00     0.012 C 
HETATM   11  C7  UNL     1     -33.559  15.737  -3.251  1.00 20.00     0.012 C 
ENDBRANCH   3   9
TORSDOF 1
ENDMDL
MODEL 7
REMARK VINA RESULT:      -3.4      2.047      4.303
REMARK  1 active torsions:
REMARK  status: ('A' for Active; 'I' for Inactive)
REMARK    1  A    between atoms: C3_3  and  C8_8 
ROOT
HETATM    1  C1  UNL     1     -35.163  16.349  -1.900  1.00 20.00     0.284 C 
HETATM    2  C2  UNL     1     -34.428  14.438  -3.750  1.00 20.00     0.110 C 
HETATM    3  C3  UNL     1     -35.872  14.954  -3.817  1.00 20.00     0.233 C 
HETATM    4  C4  UNL     1     -33.999  16.972  -2.676  1.00 20.00     0.071 C 
HETATM    5  C5  UNL     1     -32.950  17.536  -1.721  1.00 20.00     0.023 C 
HETATM    6  N9  UNL     1     -36.253  15.898  -2.759  1.00 20.00     0.090 N 
HETATM    7  S10 UNL     1     -33.183  15.763  -3.782  1.00 20.00    -0.161 SA
HETATM    8  H27 UNL     1     -36.978  15.459  -2.167  1.00 20.00     0.316 HD
ENDROOT
BRANCH   3   9
HETATM    9  C8  UNL     1     -36.211  15.540  -5.194  1.00 20.00     0.011 C 
HETATM   10  C6  UNL     1     -35.817  14.566  -6.301  1.00 20.00     0.012 C 
HETATM   11  C7  UNL     1     -37.697  15.878  -5.278  1.00 20.00     0.012 C 
ENDBRANCH   3   9
TORSDOF 1
ENDMDL
MODEL 8
REMARK VINA RESULT:      -3.4      1.857      4.162
REMARK  1 active torsions:
REMARK  status: ('A' for Active; 'I' for Inactive)
REMARK    1  A    between atoms: C3_3  and  C8_8 
ROOT
HETATM    1  C1  UNL     1     -35.883  15.174  -3.446  1.00 20.00     0.284 C 
HETATM    2  C2  UNL     1     -33.420  14.699  -4.595  1.00 20.00     0.110 C 
HETATM    3  C3  UNL     1     -34.613  14.859  -5.547  1.00 20.00     0.233 C 
HETATM    4  C4  UNL     1     -34.998  16.336  -2.987  1.00 20.00     0.071 C 
HETATM    5  C5  UNL     1     -35.098  16.530  -1.476  1.00 20.00     0.023 C 
HETATM    6  N9  UNL     1     -35.921  15.015  -4.897  1.00 20.00     0.090 N 
HETATM    7  S10 UNL     1     -33.239  16.076  -3.421  1.00 20.00    -0.161 SA
HETATM    8  H27 UNL     1     -36.504  14.192  -5.122  1.00 20.00     0.316 HD
ENDROOT
BRANCH   3   9
HETATM    9  C8  UNL     1     -34.392  15.985  -6.564  1.00 20.00     0.011 C 
HETATM   10  C6  UNL     1     -33.987  15.410  -7.918  1.00 20.00     0.012 C 
HETATM   11  C7  UNL     1     -35.649  16.840  -6.696  1.00 20.00     0.012 C 
ENDBRANCH   3   9
TORSDOF 1
ENDMDL
MODEL 9
REMARK VINA RESULT:      -3.4      1.342      1.523
REMARK  1 active torsions:
REMARK  status: ('A' for Active; 'I' for Inactive)
REMARK    1  A    between atoms: C3_3  and  C8_8 
ROOT
HETATM    1  C1  UNL     1     -35.734  14.857  -6.569  1.00 20.00     0.284 C 
HETATM    2  C2  UNL     1     -36.919  15.115  -4.090  1.00 20.00     0.110 C 
HETATM    3  C3  UNL     1     -35.401  14.897  -4.117  1.00 20.00     0.233 C 
HETATM    4  C4  UNL     1     -36.397  16.237  -6.585  1.00 20.00     0.071 C 
HETATM    5  C5  UNL     1     -37.240  16.419  -7.844  1.00 20.00     0.023 C 
HETATM    6  N9  UNL     1     -34.820  14.669  -5.446  1.00 20.00     0.090 N 
HETATM    7  S10 UNL     1     -37.470  16.504  -5.126  1.00 20.00    -0.161 SA
HETATM    8  H27 UNL     1     -34.446  13.706  -5.485  1.00 20.00     0.316 HD
ENDROOT
BRANCH   3   9
HETATM    9  C8  UNL     1     -34.644  16.020  -3.396  1.00 20.00     0.011 C 
HETATM   10  C6  UNL     1     -35.039  16.071  -1.923  1.00 20.00     0.012 C 
HETATM   11  C7  UNL     1     -33.137  15.829  -3.544  1.00 20.00     0.012 C 
ENDBRANCH   3   9
TORSDOF 1
ENDMDL
