MODEL 1
REMARK VINA RESULT:      -4.1      0.000      0.000
REMARK  4 active torsions:
REMARK  status: ('A' for Active; 'I' for Inactive)
REMARK    1  A    between atoms: C2_2  and  C8_8 
REMARK    2  A    between atoms: C3_3  and  C9_9 
REMARK    3  A    between atoms: C3_3  and  O11_11 
REMARK    4  A    between atoms: C9_9  and  C10_10 
ROOT
HETATM    1  C1  UNL     1     -33.252  14.159  -4.392  1.00 20.00     0.045 A 
HETATM    2  C2  UNL     1     -34.653  14.466  -3.930  1.00 20.00     0.022 A 
HETATM    3  C3  UNL     1     -33.667  15.588  -4.144  1.00 20.00     0.063 A 
ENDROOT
BRANCH   3   4
HETATM    4  C9  UNL     1     -33.104  16.346  -2.947  1.00 20.00     0.046 C 
BRANCH   4   5
HETATM    5  C10 UNL     1     -34.110  17.249  -2.187  1.00 20.00    -0.049 C 
HETATM    6  C5  UNL     1     -33.330  18.057  -1.132  1.00 20.00     0.014 C 
HETATM    7  C6  UNL     1     -35.176  16.407  -1.465  1.00 20.00     0.014 C 
HETATM    8  C7  UNL     1     -34.804  18.235  -3.142  1.00 20.00     0.014 C 
ENDBRANCH   4   5
ENDBRANCH   3   4
BRANCH   3   9
HETATM    9  O11 UNL     1     -33.837  16.404  -5.315  1.00 20.00    -0.389 OA
HETATM   10  H31 UNL     1     -33.977  17.304  -4.991  1.00 20.00     0.210 HD
ENDBRANCH   3   9
BRANCH   2  11
HETATM   11  C8  UNL     1     -35.807  14.256  -4.850  1.00 20.00     0.003 C 
HETATM   12  C4  UNL     1     -37.133  14.589  -4.216  1.00 20.00     0.005 C 
ENDBRANCH   2  11
TORSDOF 4
ENDMDL
MODEL 2
REMARK VINA RESULT:      -4.0      1.656      2.639
REMARK  4 active torsions:
REMARK  status: ('A' for Active; 'I' for Inactive)
REMARK    1  A    between atoms: C2_2  and  C8_8 
REMARK    2  A    between atoms: C3_3  and  C9_9 
REMARK    3  A    between atoms: C3_3  and  O11_11 
REMARK    4  A    between atoms: C9_9  and  C10_10 
ROOT
HETATM    1  C1  UNL     1     -36.831  14.053  -4.526  1.00 20.00     0.045 A 
HETATM    2  C2  UNL     1     -36.021  15.039  -5.327  1.00 20.00     0.022 A 
HETATM    3  C3  UNL     1     -35.476  14.491  -4.030  1.00 20.00     0.063 A 
ENDROOT
BRANCH   3   4
HETATM    4  C9  UNL     1     -35.371  15.395  -2.808  1.00 20.00     0.046 C 
BRANCH   4   5
HETATM    5  C10 UNL     1     -34.312  16.525  -2.893  1.00 20.00    -0.049 C 
HETATM    6  C5  UNL     1     -34.079  17.076  -1.473  1.00 20.00     0.014 C 
HETATM    7  C6  UNL     1     -34.801  17.677  -3.788  1.00 20.00     0.014 C 
HETATM    8  C7  UNL     1     -32.975  15.994  -3.436  1.00 20.00     0.014 C 
ENDBRANCH   4   5
ENDBRANCH   3   4
BRANCH   3   9
HETATM    9  O11 UNL     1     -34.429  13.510  -4.115  1.00 20.00    -0.389 OA
HETATM   10  H31 UNL     1     -34.586  13.027  -4.937  1.00 20.00     0.210 HD
ENDBRANCH   3   9
BRANCH   2  11
HETATM   11  C8  UNL     1     -35.447  14.641  -6.644  1.00 20.00     0.003 C 
HETATM   12  C4  UNL     1     -34.415  15.613  -7.154  1.00 20.00     0.005 C 
ENDBRANCH   2  11
TORSDOF 4
ENDMDL
MODEL 3
REMARK VINA RESULT:      -3.9     11.136     12.004
REMARK  4 active torsions:
REMARK  status: ('A' for Active; 'I' for Inactive)
REMARK    1  A    between atoms: C2_2  and  C8_8 
REMARK    2  A    between atoms: C3_3  and  C9_9 
REMARK    3  A    between atoms: C3_3  and  O11_11 
REMARK    4  A    between atoms: C9_9  and  C10_10 
ROOT
HETATM    1  C1  UNL     1     -32.862   5.914   2.200  1.00 20.00     0.045 A 
HETATM    2  C2  UNL     1     -33.295   7.335   1.942  1.00 20.00     0.022 A 
HETATM    3  C3  UNL     1     -32.815   6.929   3.315  1.00 20.00     0.063 A 
ENDROOT
BRANCH   3   4
HETATM    4  C9  UNL     1     -33.804   6.835   4.470  1.00 20.00     0.046 C 
BRANCH   4   5
HETATM    5  C10 UNL     1     -34.577   5.496   4.590  1.00 20.00    -0.049 C 
HETATM    6  C5  UNL     1     -34.780   5.189   6.086  1.00 20.00     0.014 C 
HETATM    7  C6  UNL     1     -33.784   4.340   3.957  1.00 20.00     0.014 C 
HETATM    8  C7  UNL     1     -35.958   5.590   3.920  1.00 20.00     0.014 C 
ENDBRANCH   4   5
ENDBRANCH   3   4
BRANCH   3   9
HETATM    9  O11 UNL     1     -31.503   7.364   3.712  1.00 20.00    -0.389 OA
HETATM   10  H31 UNL     1     -31.242   8.035   3.068  1.00 20.00     0.210 HD
ENDBRANCH   3   9
BRANCH   2  11
HETATM   11  C8  UNL     1     -32.479   8.216   1.060  1.00 20.00     0.003 C 
HETATM   12  C4  UNL     1     -33.265   8.785  -0.093  1.00 20.00     0.005 C 
ENDBRANCH   2  11
TORSDOF 4
ENDMDL
MODEL 4
REMARK VINA RESULT:      -3.9      1.459      4.494
REMARK  4 active torsions:
REMARK  status: ('A' for Active; 'I' for Inactive)
REMARK    1  A    between atoms: C2_2  and  C8_8 
REMARK    2  A    between atoms: C3_3  and  C9_9 
REMARK    3  A    between atoms: C3_3  and  O11_11 
REMARK    4  A    between atoms: C9_9  and  C10_10 
ROOT
HETATM    1  C1  UNL     1     -34.417  17.767  -2.258  1.00 20.00     0.045 A 
HETATM    2  C2  UNL     1     -33.033  17.466  -1.745  1.00 20.00     0.022 A 
HETATM    3  C3  UNL     1     -33.433  17.032  -3.134  1.00 20.00     0.063 A 
ENDROOT
BRANCH   3   4
HETATM    4  C9  UNL     1     -33.643  15.553  -3.438  1.00 20.00     0.046 C 
BRANCH   4   5
HETATM    5  C10 UNL     1     -34.683  15.232  -4.542  1.00 20.00    -0.049 C 
HETATM    6  C5  UNL     1     -35.420  13.937  -4.147  1.00 20.00     0.014 C 
HETATM    7  C6  UNL     1     -33.998  15.009  -5.901  1.00 20.00     0.014 C 
HETATM    8  C7  UNL     1     -35.719  16.361  -4.675  1.00 20.00     0.014 C 
ENDBRANCH   4   5
ENDBRANCH   3   4
BRANCH   3   9
HETATM    9  O11 UNL     1     -32.898  17.778  -4.240  1.00 20.00    -0.389 OA
HETATM   10  H31 UNL     1     -31.937  17.699  -4.171  1.00 20.00     0.210 HD
ENDBRANCH   3   9
BRANCH   2  11
HETATM   11  C8  UNL     1     -32.060  18.574  -1.524  1.00 20.00     0.003 C 
HETATM   12  C4  UNL     1     -31.149  18.332  -0.348  1.00 20.00     0.005 C 
ENDBRANCH   2  11
TORSDOF 4
ENDMDL
MODEL 5
REMARK VINA RESULT:      -3.9     11.997     13.793
REMARK  4 active torsions:
REMARK  status: ('A' for Active; 'I' for Inactive)
REMARK    1  A    between atoms: C2_2  and  C8_8 
REMARK    2  A    between atoms: C3_3  and  C9_9 
REMARK    3  A    between atoms: C3_3  and  O11_11 
REMARK    4  A    between atoms: C9_9  and  C10_10 
ROOT
HETATM    1  C1  UNL     1     -43.417   4.007  -0.859  1.00 20.00     0.045 A 
HETATM    2  C2  UNL     1     -43.085   4.174  -2.319  1.00 20.00     0.022 A 
HETATM    3  C3  UNL     1     -42.428   5.061  -1.289  1.00 20.00     0.063 A 
ENDROOT
BRANCH   3   4
HETATM    4  C9  UNL     1     -42.803   6.536  -1.205  1.00 20.00     0.046 C 
BRANCH   4   5
HETATM    5  C10 UNL     1     -42.687   7.182   0.200  1.00 20.00    -0.049 C 
HETATM    6  C5  UNL     1     -43.391   8.552   0.159  1.00 20.00     0.014 C 
HETATM    7  C6  UNL     1     -41.216   7.401   0.590  1.00 20.00     0.014 C 
HETATM    8  C7  UNL     1     -43.372   6.315   1.269  1.00 20.00     0.014 C 
ENDBRANCH   4   5
ENDBRANCH   3   4
BRANCH   3   9
HETATM    9  O11 UNL     1     -41.051   4.796  -0.971  1.00 20.00    -0.389 OA
HETATM   10  H31 UNL     1     -40.585   4.774  -1.817  1.00 20.00     0.210 HD
ENDBRANCH   3   9
BRANCH   2  11
HETATM   11  C8  UNL     1     -42.321   3.115  -3.038  1.00 20.00     0.003 C 
HETATM   12  C4  UNL     1     -43.104   1.839  -3.212  1.00 20.00     0.005 C 
ENDBRANCH   2  11
TORSDOF 4
ENDMDL
MODEL 6
REMARK VINA RESULT:      -3.9      2.136      3.064
REMARK  4 active torsions:
REMARK  status: ('A' for Active; 'I' for Inactive)
REMARK    1  A    between atoms: C2_2  and  C8_8 
REMARK    2  A    between atoms: C3_3  and  C9_9 
REMARK    3  A    between atoms: C3_3  and  O11_11 
REMARK    4  A    between atoms: C9_9  and  C10_10 
ROOT
HETATM    1  C1  UNL     1     -35.542  14.570  -6.553  1.00 20.00     0.045 A 
HETATM    2  C2  UNL     1     -35.060  15.996  -6.487  1.00 20.00     0.022 A 
HETATM    3  C3  UNL     1     -34.559  14.983  -5.486  1.00 20.00     0.063 A 
ENDROOT
BRANCH   3   4
HETATM    4  C9  UNL     1     -35.007  15.065  -4.031  1.00 20.00     0.046 C 
BRANCH   4   5
HETATM    5  C10 UNL     1     -34.488  16.289  -3.233  1.00 20.00    -0.049 C 
HETATM    6  C5  UNL     1     -35.006  16.176  -1.787  1.00 20.00     0.014 C 
HETATM    7  C6  UNL     1     -35.006  17.605  -3.836  1.00 20.00     0.014 C 
HETATM    8  C7  UNL     1     -32.950  16.318  -3.199  1.00 20.00     0.014 C 
ENDBRANCH   4   5
ENDBRANCH   3   4
BRANCH   3   9
HETATM    9  O11 UNL     1     -33.215  14.500  -5.650  1.00 20.00    -0.389 OA
HETATM   10  H31 UNL     1     -32.850  14.431  -4.758  1.00 20.00     0.210 HD
ENDBRANCH   3   9
BRANCH   2  11
HETATM   11  C8  UNL     1     -34.176  16.537  -7.557  1.00 20.00     0.003 C 
HETATM   12  C4  UNL     1     -34.085  18.042  -7.541  1.00 20.00     0.005 C 
ENDBRANCH   2  11
TORSDOF 4
ENDMDL
MODEL 7
REMARK VINA RESULT:      -3.8      1.699      4.564
REMARK  4 active torsions:
REMARK  status: ('A' for Active; 'I' for Inactive)
REMARK    1  A    between atoms: C2_2  and  C8_8 
REMARK    2  A    between atoms: C3_3  and  C9_9 
REMARK    3  A    between atoms: C3_3  and  O11_11 
REMARK    4  A    between atoms: C9_9  and  C10_10 
ROOT
HETATM    1  C1  UNL     1     -35.447  17.595  -0.272  1.00 20.00     0.045 A 
HETATM    2  C2  UNL     1     -33.991  17.494  -0.648  1.00 20.00     0.022 A 
HETATM    3  C3  UNL     1     -35.057  17.330  -1.704  1.00 20.00     0.063 A 
ENDROOT
BRANCH   3   4
HETATM    4  C9  UNL     1     -35.313  15.960  -2.321  1.00 20.00     0.046 C 
BRANCH   4   5
HETATM    5  C10 UNL     1     -34.506  15.637  -3.605  1.00 20.00    -0.049 C 
HETATM    6  C5  UNL     1     -34.617  14.124  -3.876  1.00 20.00     0.014 C 
HETATM    7  C6  UNL     1     -33.021  15.994  -3.432  1.00 20.00     0.014 C 
HETATM    8  C7  UNL     1     -35.071  16.392  -4.820  1.00 20.00     0.014 C 
ENDBRANCH   4   5
ENDBRANCH   3   4
BRANCH   3   9
HETATM    9  O11 UNL     1     -35.254  18.421  -2.620  1.00 20.00    -0.389 OA
HETATM   10  H31 UNL     1     -35.789  18.066  -3.342  1.00 20.00     0.210 HD
ENDBRANCH   3   9
BRANCH   2  11
HETATM   11  C8  UNL     1     -33.121  18.703  -0.599  1.00 20.00     0.003 C 
HETATM   12  C4  UNL     1     -31.661  18.386  -0.795  1.00 20.00     0.005 C 
ENDBRANCH   2  11
TORSDOF 4
ENDMDL
MODEL 8
REMARK VINA RESULT:      -3.7      1.561      4.462
REMARK  4 active torsions:
REMARK  status: ('A' for Active; 'I' for Inactive)
REMARK    1  A    between atoms: C2_2  and  C8_8 
REMARK    2  A    between atoms: C3_3  and  C9_9 
REMARK    3  A    between atoms: C3_3  and  O11_11 
REMARK    4  A    between atoms: C9_9  and  C10_10 
ROOT
HETATM    1  C1  UNL     1     -33.184  16.025  -3.047  1.00 20.00     0.045 A 
HETATM    2  C2  UNL     1     -33.650  17.438  -2.808  1.00 20.00     0.022 A 
HETATM    3  C3  UNL     1     -34.660  16.327  -2.970  1.00 20.00     0.063 A 
ENDROOT
BRANCH   3   4
HETATM    4  C9  UNL     1     -35.517  16.256  -4.227  1.00 20.00     0.046 C 
BRANCH   4   5
HETATM    5  C10 UNL     1     -35.939  14.833  -4.676  1.00 20.00    -0.049 C 
HETATM    6  C5  UNL     1     -35.771  14.740  -6.205  1.00 20.00     0.014 C 
HETATM    7  C6  UNL     1     -37.412  14.556  -4.330  1.00 20.00     0.014 C 
HETATM    8  C7  UNL     1     -35.055  13.758  -4.022  1.00 20.00     0.014 C 
ENDBRANCH   4   5
ENDBRANCH   3   4
BRANCH   3   9
HETATM    9  O11 UNL     1     -35.333  15.868  -1.785  1.00 20.00    -0.389 OA
HETATM   10  H31 UNL     1     -34.689  15.325  -1.311  1.00 20.00     0.210 HD
ENDBRANCH   3   9
BRANCH   2  11
HETATM   11  C8  UNL     1     -33.413  18.090  -1.489  1.00 20.00     0.003 C 
HETATM   12  C4  UNL     1     -31.953  18.335  -1.208  1.00 20.00     0.005 C 
ENDBRANCH   2  11
TORSDOF 4
ENDMDL
MODEL 9
REMARK VINA RESULT:      -3.7      1.482      2.190
REMARK  4 active torsions:
REMARK  status: ('A' for Active; 'I' for Inactive)
REMARK    1  A    between atoms: C2_2  and  C8_8 
REMARK    2  A    between atoms: C3_3  and  C9_9 
REMARK    3  A    between atoms: C3_3  and  O11_11 
REMARK    4  A    between atoms: C9_9  and  C10_10 
ROOT
HETATM    1  C1  UNL     1     -33.441  15.966  -3.072  1.00 20.00     0.045 A 
HETATM    2  C2  UNL     1     -34.667  15.104  -3.231  1.00 20.00     0.022 A 
HETATM    3  C3  UNL     1     -34.793  16.499  -2.666  1.00 20.00     0.063 A 
ENDROOT
BRANCH   3   4
HETATM    4  C9  UNL     1     -35.121  16.695  -1.191  1.00 20.00     0.046 C 
BRANCH   4   5
HETATM    5  C10 UNL     1     -34.527  17.967  -0.531  1.00 20.00    -0.049 C 
HETATM    6  C5  UNL     1     -34.619  17.803   0.998  1.00 20.00     0.014 C 
HETATM    7  C6  UNL     1     -35.316  19.223  -0.936  1.00 20.00     0.014 C 
HETATM    8  C7  UNL     1     -33.048  18.152  -0.913  1.00 20.00     0.014 C 
ENDBRANCH   4   5
ENDBRANCH   3   4
BRANCH   3   9
HETATM    9  O11 UNL     1     -35.351  17.511  -3.522  1.00 20.00    -0.389 OA
HETATM   10  H31 UNL     1     -35.979  17.053  -4.096  1.00 20.00     0.210 HD
ENDBRANCH   3   9
BRANCH   2  11
HETATM   11  C8  UNL     1     -35.171  14.766  -4.592  1.00 20.00     0.003 C 
HETATM   12  C4  UNL     1     -36.203  13.667  -4.581  1.00 20.00     0.005 C 
ENDBRANCH   2  11
TORSDOF 4
ENDMDL
