MODEL 1
REMARK VINA RESULT:      -4.7      0.000      0.000
REMARK  3 active torsions:
REMARK  status: ('A' for Active; 'I' for Inactive)
REMARK    1  A    between atoms: C1_1  and  C6_6 
REMARK    2  A    between atoms: C2_2  and  C3_3 
REMARK    3  A    between atoms: C3_3  and  C8_8 
ROOT
HETATM    1  C1  UNL     1     -33.250   6.321   2.551  1.00 20.00    -0.012 C 
HETATM    2  C3  UNL     1     -33.782   6.138   3.773  1.00 20.00    -0.024 C 
ENDROOT
BRANCH   2   3
HETATM    3  C2  UNL     1     -34.667   4.953   3.937  1.00 20.00     0.265 C 
HETATM    4  O9  UNL     1     -34.245   3.804   3.988  1.00 20.00    -0.302 OA
ENDBRANCH   2   3
BRANCH   2   5
HETATM    5  C8  UNL     1     -33.581   7.047   4.954  1.00 20.00     0.037 C 
HETATM    6  C7  UNL     1     -34.232   6.497   6.216  1.00 20.00     0.010 C 
ENDBRANCH   2   5
BRANCH   1   7
HETATM    7  C6  UNL     1     -32.354   7.415   2.127  1.00 20.00     0.009 A 
HETATM    8  C4  UNL     1     -32.122   7.613   0.665  1.00 20.00     0.009 A 
HETATM    9  C5  UNL     1     -32.955   8.594   1.433  1.00 20.00     0.009 A 
ENDBRANCH   1   7
TORSDOF 3
ENDMDL
MODEL 2
REMARK VINA RESULT:      -4.4     10.930     11.717
REMARK  3 active torsions:
REMARK  status: ('A' for Active; 'I' for Inactive)
REMARK    1  A    between atoms: C1_1  and  C6_6 
REMARK    2  A    between atoms: C2_2  and  C3_3 
REMARK    3  A    between atoms: C3_3  and  C8_8 
ROOT
HETATM    1  C1  UNL     1     -35.055  15.348  -2.861  1.00 20.00    -0.012 C 
HETATM    2  C3  UNL     1     -34.859  14.675  -4.010  1.00 20.00    -0.024 C 
ENDROOT
BRANCH   2   3
HETATM    3  C2  UNL     1     -35.947  13.750  -4.427  1.00 20.00     0.265 C 
HETATM    4  O9  UNL     1     -35.818  12.531  -4.446  1.00 20.00    -0.302 OA
ENDBRANCH   2   3
BRANCH   2   5
HETATM    5  C8  UNL     1     -33.627  14.760  -4.869  1.00 20.00     0.037 C 
HETATM    6  C7  UNL     1     -33.966  15.021  -6.330  1.00 20.00     0.010 C 
ENDBRANCH   2   5
BRANCH   1   7
HETATM    7  C6  UNL     1     -34.132  16.311  -2.229  1.00 20.00     0.009 A 
HETATM    8  C4  UNL     1     -34.363  17.769  -2.461  1.00 20.00     0.009 A 
HETATM    9  C5  UNL     1     -34.653  17.167  -1.120  1.00 20.00     0.009 A 
ENDBRANCH   1   7
TORSDOF 3
ENDMDL
MODEL 3
REMARK VINA RESULT:      -4.2     15.651     16.542
REMARK  3 active torsions:
REMARK  status: ('A' for Active; 'I' for Inactive)
REMARK    1  A    between atoms: C1_1  and  C6_6 
REMARK    2  A    between atoms: C2_2  and  C3_3 
REMARK    3  A    between atoms: C3_3  and  C8_8 
ROOT
HETATM    1  C1  UNL     1     -23.291  16.741   9.759  1.00 20.00    -0.012 C 
HETATM    2  C3  UNL     1     -22.895  17.719   8.925  1.00 20.00    -0.024 C 
ENDROOT
BRANCH   2   3
HETATM    3  C2  UNL     1     -21.674  17.446   8.119  1.00 20.00     0.265 C 
HETATM    4  O9  UNL     1     -21.683  16.764   7.101  1.00 20.00    -0.302 OA
ENDBRANCH   2   3
BRANCH   2   5
HETATM    5  C8  UNL     1     -23.561  19.059   8.776  1.00 20.00     0.037 C 
HETATM    6  C7  UNL     1     -24.609  19.058   7.672  1.00 20.00     0.010 C 
ENDBRANCH   2   5
BRANCH   1   7
HETATM    7  C6  UNL     1     -24.455  16.766  10.667  1.00 20.00     0.009 A 
HETATM    8  C4  UNL     1     -24.507  15.768  11.777  1.00 20.00     0.009 A 
HETATM    9  C5  UNL     1     -24.244  17.212  12.077  1.00 20.00     0.009 A 
ENDBRANCH   1   7
TORSDOF 3
ENDMDL
MODEL 4
REMARK VINA RESULT:      -4.1      1.282      3.847
REMARK  3 active torsions:
REMARK  status: ('A' for Active; 'I' for Inactive)
REMARK    1  A    between atoms: C1_1  and  C6_6 
REMARK    2  A    between atoms: C2_2  and  C3_3 
REMARK    3  A    between atoms: C3_3  and  C8_8 
ROOT
HETATM    1  C1  UNL     1     -34.280   5.296   3.738  1.00 20.00    -0.012 C 
HETATM    2  C3  UNL     1     -33.322   5.729   2.898  1.00 20.00    -0.024 C 
ENDROOT
BRANCH   2   3
HETATM    3  C2  UNL     1     -32.897   4.779   1.834  1.00 20.00     0.265 C 
HETATM    4  O9  UNL     1     -33.218   3.596   1.826  1.00 20.00    -0.302 OA
ENDBRANCH   2   3
BRANCH   2   5
HETATM    5  C8  UNL     1     -32.635   7.064   2.976  1.00 20.00     0.037 C 
HETATM    6  C7  UNL     1     -32.540   7.740   1.615  1.00 20.00     0.010 C 
ENDBRANCH   2   5
BRANCH   1   7
HETATM    7  C6  UNL     1     -34.865   6.036   4.873  1.00 20.00     0.009 A 
HETATM    8  C4  UNL     1     -34.879   5.377   6.214  1.00 20.00     0.009 A 
HETATM    9  C5  UNL     1     -33.949   6.522   5.949  1.00 20.00     0.009 A 
ENDBRANCH   1   7
TORSDOF 3
ENDMDL
MODEL 5
REMARK VINA RESULT:      -4.1     10.928     11.731
REMARK  3 active torsions:
REMARK  status: ('A' for Active; 'I' for Inactive)
REMARK    1  A    between atoms: C1_1  and  C6_6 
REMARK    2  A    between atoms: C2_2  and  C3_3 
REMARK    3  A    between atoms: C3_3  and  C8_8 
ROOT
HETATM    1  C1  UNL     1     -35.526  15.951  -2.674  1.00 20.00    -0.012 C 
HETATM    2  C3  UNL     1     -35.645  14.995  -3.613  1.00 20.00    -0.024 C 
ENDROOT
BRANCH   2   3
HETATM    3  C2  UNL     1     -37.000  14.811  -4.201  1.00 20.00     0.265 C 
HETATM    4  O9  UNL     1     -37.486  13.710  -4.430  1.00 20.00    -0.302 OA
ENDBRANCH   2   3
BRANCH   2   5
HETATM    5  C8  UNL     1     -34.539  14.088  -4.077  1.00 20.00     0.037 C 
HETATM    6  C7  UNL     1     -33.741  14.698  -5.222  1.00 20.00     0.010 C 
ENDBRANCH   2   5
BRANCH   1   7
HETATM    7  C6  UNL     1     -34.303  16.323  -1.937  1.00 20.00     0.009 A 
HETATM    8  C4  UNL     1     -33.361  17.293  -2.572  1.00 20.00     0.009 A 
HETATM    9  C5  UNL     1     -34.195  17.713  -1.400  1.00 20.00     0.009 A 
ENDBRANCH   1   7
TORSDOF 3
ENDMDL
MODEL 6
REMARK VINA RESULT:      -4.1      2.127      4.337
REMARK  3 active torsions:
REMARK  status: ('A' for Active; 'I' for Inactive)
REMARK    1  A    between atoms: C1_1  and  C6_6 
REMARK    2  A    between atoms: C2_2  and  C3_3 
REMARK    3  A    between atoms: C3_3  and  C8_8 
ROOT
HETATM    1  C1  UNL     1     -33.829   6.643   4.120  1.00 20.00    -0.012 C 
HETATM    2  C3  UNL     1     -33.298   6.352   2.919  1.00 20.00    -0.024 C 
ENDROOT
BRANCH   2   3
HETATM    3  C2  UNL     1     -32.266   7.295   2.408  1.00 20.00     0.265 C 
HETATM    4  O9  UNL     1     -32.414   7.962   1.390  1.00 20.00    -0.302 OA
ENDBRANCH   2   3
BRANCH   2   5
HETATM    5  C8  UNL     1     -33.689   5.187   2.053  1.00 20.00     0.037 C 
HETATM    6  C7  UNL     1     -32.856   3.947   2.351  1.00 20.00     0.010 C 
ENDBRANCH   2   5
BRANCH   1   7
HETATM    7  C6  UNL     1     -34.867   5.879   4.839  1.00 20.00     0.009 A 
HETATM    8  C4  UNL     1     -34.469   4.609   5.518  1.00 20.00     0.009 A 
HETATM    9  C5  UNL     1     -34.801   5.824   6.331  1.00 20.00     0.009 A 
ENDBRANCH   1   7
TORSDOF 3
ENDMDL
MODEL 7
REMARK VINA RESULT:      -4.1     15.657     16.645
REMARK  3 active torsions:
REMARK  status: ('A' for Active; 'I' for Inactive)
REMARK    1  A    between atoms: C1_1  and  C6_6 
REMARK    2  A    between atoms: C2_2  and  C3_3 
REMARK    3  A    between atoms: C3_3  and  C8_8 
ROOT
HETATM    1  C1  UNL     1     -24.550  18.042  10.175  1.00 20.00    -0.012 C 
HETATM    2  C3  UNL     1     -23.786  18.032   9.068  1.00 20.00    -0.024 C 
ENDROOT
BRANCH   2   3
HETATM    3  C2  UNL     1     -24.293  18.816   7.909  1.00 20.00     0.265 C 
HETATM    4  O9  UNL     1     -23.793  18.757   6.791  1.00 20.00    -0.302 OA
ENDBRANCH   2   3
BRANCH   2   5
HETATM    5  C8  UNL     1     -22.499  17.271   8.904  1.00 20.00     0.037 C 
HETATM    6  C7  UNL     1     -21.293  18.083   9.355  1.00 20.00     0.010 C 
ENDBRANCH   2   5
BRANCH   1   7
HETATM    7  C6  UNL     1     -24.278  17.343  11.446  1.00 20.00     0.009 A 
HETATM    8  C4  UNL     1     -25.440  16.934  12.292  1.00 20.00     0.009 A 
HETATM    9  C5  UNL     1     -24.646  15.899  11.554  1.00 20.00     0.009 A 
ENDBRANCH   1   7
TORSDOF 3
ENDMDL
MODEL 8
REMARK VINA RESULT:      -4.0      1.574      2.315
REMARK  3 active torsions:
REMARK  status: ('A' for Active; 'I' for Inactive)
REMARK    1  A    between atoms: C1_1  and  C6_6 
REMARK    2  A    between atoms: C2_2  and  C3_3 
REMARK    3  A    between atoms: C3_3  and  C8_8 
ROOT
HETATM    1  C1  UNL     1     -32.971   7.725   2.664  1.00 20.00    -0.012 C 
HETATM    2  C3  UNL     1     -33.355   6.548   3.190  1.00 20.00    -0.024 C 
ENDROOT
BRANCH   2   3
HETATM    3  C2  UNL     1     -33.894   6.589   4.576  1.00 20.00     0.265 C 
HETATM    4  O9  UNL     1     -33.282   7.078   5.519  1.00 20.00    -0.302 OA
ENDBRANCH   2   3
BRANCH   2   5
HETATM    5  C8  UNL     1     -33.246   5.213   2.507  1.00 20.00     0.037 C 
HETATM    6  C7  UNL     1     -33.925   4.106   3.302  1.00 20.00     0.010 C 
ENDBRANCH   2   5
BRANCH   1   7
HETATM    7  C6  UNL     1     -32.398   7.953   1.322  1.00 20.00     0.009 A 
HETATM    8  C4  UNL     1     -33.335   8.070   0.164  1.00 20.00     0.009 A 
HETATM    9  C5  UNL     1     -32.617   9.282   0.676  1.00 20.00     0.009 A 
ENDBRANCH   1   7
TORSDOF 3
ENDMDL
MODEL 9
REMARK VINA RESULT:      -4.0     11.502     12.327
REMARK  3 active torsions:
REMARK  status: ('A' for Active; 'I' for Inactive)
REMARK    1  A    between atoms: C1_1  and  C6_6 
REMARK    2  A    between atoms: C2_2  and  C3_3 
REMARK    3  A    between atoms: C3_3  and  C8_8 
ROOT
HETATM    1  C1  UNL     1     -32.674  17.526  -1.969  1.00 20.00    -0.012 C 
HETATM    2  C3  UNL     1     -32.829  18.271  -0.860  1.00 20.00    -0.024 C 
ENDROOT
BRANCH   2   3
HETATM    3  C2  UNL     1     -31.583  18.643  -0.136  1.00 20.00     0.265 C 
HETATM    4  O9  UNL     1     -30.468  18.276  -0.489  1.00 20.00    -0.302 OA
ENDBRANCH   2   3
BRANCH   2   5
HETATM    5  C8  UNL     1     -34.145  18.717  -0.287  1.00 20.00     0.037 C 
HETATM    6  C7  UNL     1     -34.629  17.794   0.823  1.00 20.00     0.010 C 
ENDBRANCH   2   5
BRANCH   1   7
HETATM    7  C6  UNL     1     -33.742  17.021  -2.854  1.00 20.00     0.009 A 
HETATM    8  C4  UNL     1     -33.548  15.693  -3.511  1.00 20.00     0.009 A 
HETATM    9  C5  UNL     1     -34.542  15.844  -2.399  1.00 20.00     0.009 A 
ENDBRANCH   1   7
TORSDOF 3
ENDMDL
