MODEL 1
REMARK VINA RESULT:      -4.7      0.000      0.000
REMARK  2 active torsions:
REMARK  status: ('A' for Active; 'I' for Inactive)
REMARK    1  A    between atoms: C3_3  and  C7_7 
REMARK    2  A    between atoms: C4_4  and  C9_9 
ROOT
HETATM    1  C1  UNL     1     -34.973   5.236   6.037  1.00 20.00    -0.003 C 
HETATM    2  C2  UNL     1     -35.209   4.664   4.849  1.00 20.00     0.131 C 
HETATM    3  C5  UNL     1     -34.064   6.417   6.173  1.00 20.00     0.032 C 
HETATM    4  C6  UNL     1     -33.765   7.025   4.804  1.00 20.00     0.040 C 
HETATM    5  C7  UNL     1     -33.525   5.915   3.785  1.00 20.00     0.151 C 
HETATM    6  O10 UNL     1     -34.641   5.027   3.656  1.00 20.00    -0.354 OA
ENDROOT
BRANCH   5   7
HETATM    7  C3  UNL     1     -33.350   6.483   2.415  1.00 20.00     0.009 C 
HETATM    8  C4  UNL     1     -32.416   7.362   2.003  1.00 20.00    -0.071 C 
HETATM    9  C8  UNL     1     -31.387   7.885   2.971  1.00 20.00     0.044 C 
BRANCH   8  10
HETATM   10  C9  UNL     1     -32.329   7.921   0.610  1.00 20.00     0.148 C 
HETATM   11 CL11 UNL     1     -32.906   9.602   0.578  1.00 20.00    -0.126 Cl
ENDBRANCH   8  10
ENDBRANCH   5   7
TORSDOF 2
ENDMDL
MODEL 2
REMARK VINA RESULT:      -4.4     10.948     11.861
REMARK  2 active torsions:
REMARK  status: ('A' for Active; 'I' for Inactive)
REMARK    1  A    between atoms: C3_3  and  C7_7 
REMARK    2  A    between atoms: C4_4  and  C9_9 
ROOT
HETATM    1  C1  UNL     1     -36.259  14.002  -4.311  1.00 20.00    -0.003 C 
HETATM    2  C2  UNL     1     -34.956  13.746  -4.143  1.00 20.00     0.131 C 
HETATM    3  C5  UNL     1     -36.855  15.321  -3.928  1.00 20.00     0.032 C 
HETATM    4  C6  UNL     1     -35.757  16.353  -3.672  1.00 20.00     0.040 C 
HETATM    5  C7  UNL     1     -34.612  15.709  -2.896  1.00 20.00     0.151 C 
HETATM    6  O10 UNL     1     -34.037  14.590  -3.578  1.00 20.00    -0.354 OA
ENDROOT
BRANCH   5   7
HETATM    7  C3  UNL     1     -33.476  16.666  -2.740  1.00 20.00     0.009 C 
HETATM    8  C4  UNL     1     -33.284  17.561  -1.751  1.00 20.00    -0.071 C 
HETATM    9  C8  UNL     1     -34.283  17.677  -0.629  1.00 20.00     0.044 C 
BRANCH   8  10
HETATM   10  C9  UNL     1     -32.130  18.522  -1.686  1.00 20.00     0.148 C 
HETATM   11 CL11 UNL     1     -31.054  18.111  -0.334  1.00 20.00    -0.126 Cl
ENDBRANCH   8  10
ENDBRANCH   5   7
TORSDOF 2
ENDMDL
MODEL 3
REMARK VINA RESULT:      -4.3     11.207     11.890
REMARK  2 active torsions:
REMARK  status: ('A' for Active; 'I' for Inactive)
REMARK    1  A    between atoms: C3_3  and  C7_7 
REMARK    2  A    between atoms: C4_4  and  C9_9 
ROOT
HETATM    1  C1  UNL     1     -33.283  18.347  -0.621  1.00 20.00    -0.003 C 
HETATM    2  C2  UNL     1     -34.421  17.722  -0.293  1.00 20.00     0.131 C 
HETATM    3  C5  UNL     1     -32.587  18.079  -1.919  1.00 20.00     0.032 C 
HETATM    4  C6  UNL     1     -33.503  17.312  -2.871  1.00 20.00     0.040 C 
HETATM    5  C7  UNL     1     -34.260  16.231  -2.104  1.00 20.00     0.151 C 
HETATM    6  O10 UNL     1     -35.052  16.759  -1.035  1.00 20.00    -0.354 OA
ENDROOT
BRANCH   5   7
HETATM    7  C3  UNL     1     -35.250  15.549  -2.991  1.00 20.00     0.009 C 
HETATM    8  C4  UNL     1     -35.003  14.626  -3.940  1.00 20.00    -0.071 C 
HETATM    9  C8  UNL     1     -33.592  14.169  -4.206  1.00 20.00     0.044 C 
BRANCH   8  10
HETATM   10  C9  UNL     1     -36.054  14.012  -4.823  1.00 20.00     0.148 C 
HETATM   11 CL11 UNL     1     -35.781  14.464  -6.520  1.00 20.00    -0.126 Cl
ENDBRANCH   8  10
ENDBRANCH   5   7
TORSDOF 2
ENDMDL
MODEL 4
REMARK VINA RESULT:      -4.3     11.531     12.202
REMARK  2 active torsions:
REMARK  status: ('A' for Active; 'I' for Inactive)
REMARK    1  A    between atoms: C3_3  and  C7_7 
REMARK    2  A    between atoms: C4_4  and  C9_9 
ROOT
HETATM    1  C1  UNL     1     -35.278  14.449  -4.818  1.00 20.00    -0.003 C 
HETATM    2  C2  UNL     1     -35.989  14.892  -3.773  1.00 20.00     0.131 C 
HETATM    3  C5  UNL     1     -33.843  14.827  -5.007  1.00 20.00     0.032 C 
HETATM    4  C6  UNL     1     -33.279  15.452  -3.732  1.00 20.00     0.040 C 
HETATM    5  C7  UNL     1     -34.307  16.401  -3.122  1.00 20.00     0.151 C 
HETATM    6  O10 UNL     1     -35.543  15.752  -2.805  1.00 20.00    -0.354 OA
ENDROOT
BRANCH   5   7
HETATM    7  C3  UNL     1     -33.824  16.930  -1.812  1.00 20.00     0.009 C 
HETATM    8  C4  UNL     1     -33.058  18.017  -1.596  1.00 20.00    -0.071 C 
HETATM    9  C8  UNL     1     -32.588  18.856  -2.756  1.00 20.00     0.044 C 
BRANCH   8  10
HETATM   10  C9  UNL     1     -32.578  18.465  -0.243  1.00 20.00     0.148 C 
HETATM   11 CL11 UNL     1     -30.824  18.221  -0.095  1.00 20.00    -0.126 Cl
ENDBRANCH   8  10
ENDBRANCH   5   7
TORSDOF 2
ENDMDL
MODEL 5
REMARK VINA RESULT:      -4.3     15.173     16.272
REMARK  2 active torsions:
REMARK  status: ('A' for Active; 'I' for Inactive)
REMARK    1  A    between atoms: C3_3  and  C7_7 
REMARK    2  A    between atoms: C4_4  and  C9_9 
ROOT
HETATM    1  C1  UNL     1     -25.500  19.244   4.957  1.00 20.00    -0.003 C 
HETATM    2  C2  UNL     1     -24.287  19.262   5.522  1.00 20.00     0.131 C 
HETATM    3  C5  UNL     1     -26.743  19.069   5.772  1.00 20.00     0.032 C 
HETATM    4  C6  UNL     1     -26.442  19.258   7.258  1.00 20.00     0.040 C 
HETATM    5  C7  UNL     1     -25.123  18.577   7.611  1.00 20.00     0.151 C 
HETATM    6  O10 UNL     1     -24.017  19.080   6.853  1.00 20.00    -0.354 OA
ENDROOT
BRANCH   5   7
HETATM    7  C3  UNL     1     -24.750  18.853   9.030  1.00 20.00     0.009 C 
HETATM    8  C4  UNL     1     -24.043  18.064   9.862  1.00 20.00    -0.071 C 
HETATM    9  C8  UNL     1     -23.529  16.729   9.388  1.00 20.00     0.044 C 
BRANCH   8  10
HETATM   10  C9  UNL     1     -23.741  18.395  11.298  1.00 20.00     0.148 C 
HETATM   11 CL11 UNL     1     -22.146  17.763  11.759  1.00 20.00    -0.126 Cl
ENDBRANCH   8  10
ENDBRANCH   5   7
TORSDOF 2
ENDMDL
MODEL 6
REMARK VINA RESULT:      -4.1     11.176     12.146
REMARK  2 active torsions:
REMARK  status: ('A' for Active; 'I' for Inactive)
REMARK    1  A    between atoms: C3_3  and  C7_7 
REMARK    2  A    between atoms: C4_4  and  C9_9 
ROOT
HETATM    1  C1  UNL     1     -32.810  19.055  -0.246  1.00 20.00    -0.003 C 
HETATM    2  C2  UNL     1     -32.157  18.319  -1.155  1.00 20.00     0.131 C 
HETATM    3  C5  UNL     1     -34.241  18.786   0.099  1.00 20.00     0.032 C 
HETATM    4  C6  UNL     1     -34.680  17.429  -0.446  1.00 20.00     0.040 C 
HETATM    5  C7  UNL     1     -34.121  17.231  -1.853  1.00 20.00     0.151 C 
HETATM    6  O10 UNL     1     -32.692  17.301  -1.899  1.00 20.00    -0.354 OA
ENDROOT
BRANCH   5   7
HETATM    7  C3  UNL     1     -34.437  15.861  -2.358  1.00 20.00     0.009 C 
HETATM    8  C4  UNL     1     -34.628  15.481  -3.636  1.00 20.00    -0.071 C 
HETATM    9  C8  UNL     1     -34.531  16.489  -4.751  1.00 20.00     0.044 C 
BRANCH   8  10
HETATM   10  C9  UNL     1     -34.985  14.084  -4.064  1.00 20.00     0.148 C 
HETATM   11 CL11 UNL     1     -36.716  13.974  -4.447  1.00 20.00    -0.126 Cl
ENDBRANCH   8  10
ENDBRANCH   5   7
TORSDOF 2
ENDMDL
MODEL 7
REMARK VINA RESULT:      -4.1     11.243     11.750
REMARK  2 active torsions:
REMARK  status: ('A' for Active; 'I' for Inactive)
REMARK    1  A    between atoms: C3_3  and  C7_7 
REMARK    2  A    between atoms: C4_4  and  C9_9 
ROOT
HETATM    1  C1  UNL     1     -37.355  18.384   0.863  1.00 20.00    -0.003 C 
HETATM    2  C2  UNL     1     -37.391  18.371  -0.476  1.00 20.00     0.131 C 
HETATM    3  C5  UNL     1     -36.174  17.864   1.621  1.00 20.00     0.032 C 
HETATM    4  C6  UNL     1     -34.980  17.667   0.688  1.00 20.00     0.040 C 
HETATM    5  C7  UNL     1     -35.448  17.054  -0.629  1.00 20.00     0.151 C 
HETATM    6  O10 UNL     1     -36.425  17.857  -1.300  1.00 20.00    -0.354 OA
ENDROOT
BRANCH   5   7
HETATM    7  C3  UNL     1     -34.317  16.965  -1.601  1.00 20.00     0.009 C 
HETATM    8  C4  UNL     1     -34.206  16.138  -2.659  1.00 20.00    -0.071 C 
HETATM    9  C8  UNL     1     -35.304  15.157  -2.973  1.00 20.00     0.044 C 
BRANCH   8  10
HETATM   10  C9  UNL     1     -33.012  16.080  -3.571  1.00 20.00     0.148 C 
HETATM   11 CL11 UNL     1     -32.898  14.485  -4.345  1.00 20.00    -0.126 Cl
ENDBRANCH   8  10
ENDBRANCH   5   7
TORSDOF 2
ENDMDL
MODEL 8
REMARK VINA RESULT:      -4.1     10.965     11.932
REMARK  2 active torsions:
REMARK  status: ('A' for Active; 'I' for Inactive)
REMARK    1  A    between atoms: C3_3  and  C7_7 
REMARK    2  A    between atoms: C4_4  and  C9_9 
ROOT
HETATM    1  C1  UNL     1     -34.503  17.814  -0.111  1.00 20.00    -0.003 C 
HETATM    2  C2  UNL     1     -35.417  17.206  -0.878  1.00 20.00     0.131 C 
HETATM    3  C5  UNL     1     -33.088  17.987  -0.565  1.00 20.00     0.032 C 
HETATM    4  C6  UNL     1     -32.964  17.701  -2.061  1.00 20.00     0.040 C 
HETATM    5  C7  UNL     1     -33.802  16.479  -2.426  1.00 20.00     0.151 C 
HETATM    6  O10 UNL     1     -35.188  16.638  -2.104  1.00 20.00    -0.354 OA
ENDROOT
BRANCH   5   7
HETATM    7  C3  UNL     1     -33.792  16.253  -3.902  1.00 20.00     0.009 C 
HETATM    8  C4  UNL     1     -34.154  15.138  -4.565  1.00 20.00    -0.071 C 
HETATM    9  C8  UNL     1     -34.638  13.928  -3.808  1.00 20.00     0.044 C 
BRANCH   8  10
HETATM   10  C9  UNL     1     -34.077  14.973  -6.057  1.00 20.00     0.148 C 
HETATM   11 CL11 UNL     1     -35.692  14.667  -6.733  1.00 20.00    -0.126 Cl
ENDBRANCH   8  10
ENDBRANCH   5   7
TORSDOF 2
ENDMDL
MODEL 9
REMARK VINA RESULT:      -4.1     11.459     12.595
REMARK  2 active torsions:
REMARK  status: ('A' for Active; 'I' for Inactive)
REMARK    1  A    between atoms: C3_3  and  C7_7 
REMARK    2  A    between atoms: C4_4  and  C9_9 
ROOT
HETATM    1  C1  UNL     1     -34.376  15.683  -5.417  1.00 20.00    -0.003 C 
HETATM    2  C2  UNL     1     -34.315  16.988  -5.124  1.00 20.00     0.131 C 
HETATM    3  C5  UNL     1     -34.369  14.638  -4.347  1.00 20.00     0.032 C 
HETATM    4  C6  UNL     1     -34.623  15.268  -2.978  1.00 20.00     0.040 C 
HETATM    5  C7  UNL     1     -33.844  16.575  -2.857  1.00 20.00     0.151 C 
HETATM    6  O10 UNL     1     -34.192  17.525  -3.870  1.00 20.00    -0.354 OA
ENDROOT
BRANCH   5   7
HETATM    7  C3  UNL     1     -34.172  17.268  -1.576  1.00 20.00     0.009 C 
HETATM    8  C4  UNL     1     -33.350  18.012  -0.811  1.00 20.00    -0.071 C 
HETATM    9  C8  UNL     1     -31.916  18.222  -1.220  1.00 20.00     0.044 C 
BRANCH   8  10
HETATM   10  C9  UNL     1     -33.745  18.647   0.494  1.00 20.00     0.148 C 
HETATM   11 CL11 UNL     1     -32.552  18.270   1.755  1.00 20.00    -0.126 Cl
ENDBRANCH   8  10
ENDBRANCH   5   7
TORSDOF 2
ENDMDL
