MODEL 1
REMARK VINA RESULT:      -4.5      0.000      0.000
REMARK  2 active torsions:
REMARK  status: ('A' for Active; 'I' for Inactive)
REMARK    1  A    between atoms: C3_3  and  C8_8 
REMARK    2  A    between atoms: C4_4  and  C9_9 
ROOT
HETATM    1  C1  UNL     1     -23.963  18.642   7.896  1.00 20.00     0.034 C 
HETATM    2  C2  UNL     1     -25.356  18.941   8.411  1.00 20.00     0.168 C 
HETATM    3  C3  UNL     1     -23.387  17.815   9.025  1.00 20.00     0.031 C 
HETATM    4  C4  UNL     1     -23.964  18.538  10.240  1.00 20.00     0.134 C 
HETATM    5  O10 UNL     1     -25.271  18.990   9.843  1.00 20.00    -0.385 OA
ENDROOT
BRANCH   4   6
HETATM    6  C9  UNL     1     -24.085  17.662  11.474  1.00 20.00    -0.025 C 
HETATM    7  C5  UNL     1     -22.800  17.757  12.318  1.00 20.00     0.017 C 
HETATM    8  C6  UNL     1     -24.304  16.193  11.062  1.00 20.00     0.017 C 
HETATM    9  C7  UNL     1     -25.280  18.122  12.332  1.00 20.00     0.017 C 
ENDBRANCH   4   6
BRANCH   3  10
HETATM   10  C8  UNL     1     -21.870  17.737   9.012  1.00 20.00     0.121 C 
HETATM   11 CL11 UNL     1     -21.300  17.041   7.481  1.00 20.00    -0.130 Cl
ENDBRANCH   3  10
TORSDOF 2
ENDMDL
MODEL 2
REMARK VINA RESULT:      -3.9     15.032     16.346
REMARK  2 active torsions:
REMARK  status: ('A' for Active; 'I' for Inactive)
REMARK    1  A    between atoms: C3_3  and  C8_8 
REMARK    2  A    between atoms: C4_4  and  C9_9 
ROOT
HETATM    1  C1  UNL     1     -34.370  18.210  -0.715  1.00 20.00     0.034 C 
HETATM    2  C2  UNL     1     -35.564  17.282  -0.615  1.00 20.00     0.168 C 
HETATM    3  C3  UNL     1     -33.855  17.901  -2.105  1.00 20.00     0.031 C 
HETATM    4  C4  UNL     1     -34.064  16.390  -2.165  1.00 20.00     0.134 C 
HETATM    5  O10 UNL     1     -35.268  16.131  -1.421  1.00 20.00    -0.385 OA
ENDROOT
BRANCH   4   6
HETATM    6  C9  UNL     1     -34.215  15.848  -3.574  1.00 20.00    -0.025 C 
HETATM    7  C5  UNL     1     -32.892  15.211  -4.040  1.00 20.00     0.017 C 
HETATM    8  C6  UNL     1     -34.589  16.986  -4.543  1.00 20.00     0.017 C 
HETATM    9  C7  UNL     1     -35.324  14.777  -3.612  1.00 20.00     0.017 C 
ENDBRANCH   4   6
BRANCH   3  10
HETATM   10  C8  UNL     1     -32.418  18.338  -2.333  1.00 20.00     0.121 C 
HETATM   11 CL11 UNL     1     -31.489  18.220  -0.825  1.00 20.00    -0.130 Cl
ENDBRANCH   3  10
TORSDOF 2
ENDMDL
MODEL 3
REMARK VINA RESULT:      -3.8     16.970     18.516
REMARK  2 active torsions:
REMARK  status: ('A' for Active; 'I' for Inactive)
REMARK    1  A    between atoms: C3_3  and  C8_8 
REMARK    2  A    between atoms: C4_4  and  C9_9 
ROOT
HETATM    1  C1  UNL     1     -35.940  14.355  -5.858  1.00 20.00     0.034 C 
HETATM    2  C2  UNL     1     -36.423  13.834  -4.520  1.00 20.00     0.168 C 
HETATM    3  C3  UNL     1     -34.874  15.345  -5.436  1.00 20.00     0.031 C 
HETATM    4  C4  UNL     1     -35.522  15.963  -4.201  1.00 20.00     0.134 C 
HETATM    5  O10 UNL     1     -36.261  14.900  -3.572  1.00 20.00    -0.385 OA
ENDROOT
BRANCH   4   6
HETATM    6  C9  UNL     1     -34.526  16.539  -3.210  1.00 20.00    -0.025 C 
HETATM    7  C5  UNL     1     -34.389  18.059  -3.423  1.00 20.00     0.017 C 
HETATM    8  C6  UNL     1     -33.146  15.882  -3.402  1.00 20.00     0.017 C 
HETATM    9  C7  UNL     1     -35.005  16.279  -1.768  1.00 20.00     0.017 C 
ENDBRANCH   4   6
BRANCH   3  10
HETATM   10  C8  UNL     1     -34.514  16.350  -6.517  1.00 20.00     0.121 C 
HETATM   11 CL11 UNL     1     -33.801  15.524  -7.917  1.00 20.00    -0.130 Cl
ENDBRANCH   3  10
TORSDOF 2
ENDMDL
MODEL 4
REMARK VINA RESULT:      -3.8     16.923     18.640
REMARK  2 active torsions:
REMARK  status: ('A' for Active; 'I' for Inactive)
REMARK    1  A    between atoms: C3_3  and  C8_8 
REMARK    2  A    between atoms: C4_4  and  C9_9 
ROOT
HETATM    1  C1  UNL     1     -36.206  17.226  -6.284  1.00 20.00     0.034 C 
HETATM    2  C2  UNL     1     -35.926  18.267  -5.220  1.00 20.00     0.168 C 
HETATM    3  C3  UNL     1     -35.621  15.978  -5.657  1.00 20.00     0.031 C 
HETATM    4  C4  UNL     1     -34.368  16.545  -4.996  1.00 20.00     0.134 C 
HETATM    5  O10 UNL     1     -34.723  17.865  -4.548  1.00 20.00    -0.385 OA
ENDROOT
BRANCH   4   6
HETATM    6  C9  UNL     1     -33.875  15.727  -3.815  1.00 20.00    -0.025 C 
HETATM    7  C5  UNL     1     -32.921  14.619  -4.301  1.00 20.00     0.017 C 
HETATM    8  C6  UNL     1     -35.066  15.076  -3.087  1.00 20.00     0.017 C 
HETATM    9  C7  UNL     1     -33.120  16.634  -2.823  1.00 20.00     0.017 C 
ENDBRANCH   4   6
BRANCH   3  10
HETATM   10  C8  UNL     1     -35.348  14.865  -6.654  1.00 20.00     0.121 C 
HETATM   11 CL11 UNL     1     -33.944  15.270  -7.663  1.00 20.00    -0.130 Cl
ENDBRANCH   3  10
TORSDOF 2
ENDMDL
MODEL 5
REMARK VINA RESULT:      -3.8     17.353     19.039
REMARK  2 active torsions:
REMARK  status: ('A' for Active; 'I' for Inactive)
REMARK    1  A    between atoms: C3_3  and  C8_8 
REMARK    2  A    between atoms: C4_4  and  C9_9 
ROOT
HETATM    1  C1  UNL     1     -36.640  16.071  -6.655  1.00 20.00     0.034 C 
HETATM    2  C2  UNL     1     -37.448  16.446  -5.429  1.00 20.00     0.168 C 
HETATM    3  C3  UNL     1     -35.473  15.329  -6.039  1.00 20.00     0.031 C 
HETATM    4  C4  UNL     1     -35.222  16.166  -4.788  1.00 20.00     0.134 C 
HETATM    5  O10 UNL     1     -36.518  16.614  -4.349  1.00 20.00    -0.385 OA
ENDROOT
BRANCH   4   6
HETATM    6  C9  UNL     1     -34.545  15.402  -3.664  1.00 20.00    -0.025 C 
HETATM    7  C5  UNL     1     -34.815  13.892  -3.815  1.00 20.00     0.017 C 
HETATM    8  C6  UNL     1     -35.089  15.872  -2.301  1.00 20.00     0.017 C 
HETATM    9  C7  UNL     1     -33.023  15.643  -3.704  1.00 20.00     0.017 C 
ENDBRANCH   4   6
BRANCH   3  10
HETATM   10  C8  UNL     1     -34.270  15.214  -6.960  1.00 20.00     0.121 C 
HETATM   11 CL11 UNL     1     -34.019  16.734  -7.842  1.00 20.00    -0.130 Cl
ENDBRANCH   3  10
TORSDOF 2
ENDMDL
MODEL 6
REMARK VINA RESULT:      -3.7     16.815     18.721
REMARK  2 active torsions:
REMARK  status: ('A' for Active; 'I' for Inactive)
REMARK    1  A    between atoms: C3_3  and  C8_8 
REMARK    2  A    between atoms: C4_4  and  C9_9 
ROOT
HETATM    1  C1  UNL     1     -33.473  15.877  -2.983  1.00 20.00     0.034 C 
HETATM    2  C2  UNL     1     -32.863  15.125  -4.148  1.00 20.00     0.168 C 
HETATM    3  C3  UNL     1     -34.954  15.698  -3.242  1.00 20.00     0.031 C 
HETATM    4  C4  UNL     1     -35.002  15.826  -4.762  1.00 20.00     0.134 C 
HETATM    5  O10 UNL     1     -33.783  15.233  -5.244  1.00 20.00    -0.385 OA
ENDROOT
BRANCH   4   6
HETATM    6  C9  UNL     1     -36.189  15.126  -5.398  1.00 20.00    -0.025 C 
HETATM    7  C5  UNL     1     -35.824  14.652  -6.818  1.00 20.00     0.017 C 
HETATM    8  C6  UNL     1     -37.388  16.091  -5.487  1.00 20.00     0.017 C 
HETATM    9  C7  UNL     1     -36.597  13.903  -4.554  1.00 20.00     0.017 C 
ENDBRANCH   4   6
BRANCH   3  10
HETATM   10  C8  UNL     1     -35.827  16.701  -2.507  1.00 20.00     0.121 C 
HETATM   11 CL11 UNL     1     -35.316  16.840  -0.812  1.00 20.00    -0.130 Cl
ENDBRANCH   3  10
TORSDOF 2
ENDMDL
MODEL 7
REMARK VINA RESULT:      -3.7     16.632     18.388
REMARK  2 active torsions:
REMARK  status: ('A' for Active; 'I' for Inactive)
REMARK    1  A    between atoms: C3_3  and  C8_8 
REMARK    2  A    between atoms: C4_4  and  C9_9 
ROOT
HETATM    1  C1  UNL     1     -36.703  17.320  -5.631  1.00 20.00     0.034 C 
HETATM    2  C2  UNL     1     -36.235  18.536  -4.858  1.00 20.00     0.168 C 
HETATM    3  C3  UNL     1     -35.968  16.202  -4.923  1.00 20.00     0.031 C 
HETATM    4  C4  UNL     1     -34.619  16.865  -4.653  1.00 20.00     0.134 C 
HETATM    5  O10 UNL     1     -34.908  18.250  -4.391  1.00 20.00    -0.385 OA
ENDROOT
BRANCH   4   6
HETATM    6  C9  UNL     1     -33.871  16.273  -3.473  1.00 20.00    -0.025 C 
HETATM    7  C5  UNL     1     -33.014  15.078  -3.935  1.00 20.00     0.017 C 
HETATM    8  C6  UNL     1     -34.867  15.787  -2.402  1.00 20.00     0.017 C 
HETATM    9  C7  UNL     1     -32.946  17.336  -2.847  1.00 20.00     0.017 C 
ENDBRANCH   4   6
BRANCH   3  10
HETATM   10  C8  UNL     1     -35.878  14.921  -5.734  1.00 20.00     0.121 C 
HETATM   11 CL11 UNL     1     -36.312  13.522  -4.729  1.00 20.00    -0.130 Cl
ENDBRANCH   3  10
TORSDOF 2
ENDMDL
MODEL 8
REMARK VINA RESULT:      -3.7     16.728     18.538
REMARK  2 active torsions:
REMARK  status: ('A' for Active; 'I' for Inactive)
REMARK    1  A    between atoms: C3_3  and  C8_8 
REMARK    2  A    between atoms: C4_4  and  C9_9 
ROOT
HETATM    1  C1  UNL     1     -37.344  14.588  -4.199  1.00 20.00     0.034 C 
HETATM    2  C2  UNL     1     -36.407  13.515  -4.715  1.00 20.00     0.168 C 
HETATM    3  C3  UNL     1     -36.407  15.766  -4.040  1.00 20.00     0.031 C 
HETATM    4  C4  UNL     1     -35.154  15.073  -3.512  1.00 20.00     0.134 C 
HETATM    5  O10 UNL     1     -35.111  13.790  -4.163  1.00 20.00    -0.385 OA
ENDROOT
BRANCH   4   6
HETATM    6  C9  UNL     1     -33.868  15.827  -3.800  1.00 20.00    -0.025 C 
HETATM    7  C5  UNL     1     -33.401  16.577  -2.538  1.00 20.00     0.017 C 
HETATM    8  C6  UNL     1     -34.095  16.849  -4.931  1.00 20.00     0.017 C 
HETATM    9  C7  UNL     1     -32.764  14.843  -4.233  1.00 20.00     0.017 C 
ENDBRANCH   4   6
BRANCH   3  10
HETATM   10  C8  UNL     1     -36.944  16.855  -3.128  1.00 20.00     0.121 C 
HETATM   11 CL11 UNL     1     -37.229  18.347  -4.047  1.00 20.00    -0.130 Cl
ENDBRANCH   3  10
TORSDOF 2
ENDMDL
MODEL 9
REMARK VINA RESULT:      -3.7     17.235     18.794
REMARK  2 active torsions:
REMARK  status: ('A' for Active; 'I' for Inactive)
REMARK    1  A    between atoms: C3_3  and  C8_8 
REMARK    2  A    between atoms: C4_4  and  C9_9 
ROOT
HETATM    1  C1  UNL     1     -34.387  16.761  -7.327  1.00 20.00     0.034 C 
HETATM    2  C2  UNL     1     -33.982  15.310  -7.485  1.00 20.00     0.168 C 
HETATM    3  C3  UNL     1     -34.407  16.914  -5.821  1.00 20.00     0.031 C 
HETATM    4  C4  UNL     1     -34.997  15.570  -5.400  1.00 20.00     0.134 C 
HETATM    5  O10 UNL     1     -34.489  14.607  -6.341  1.00 20.00    -0.385 OA
ENDROOT
BRANCH   4   6
HETATM    6  C9  UNL     1     -34.617  15.148  -3.992  1.00 20.00    -0.025 C 
HETATM    7  C5  UNL     1     -34.679  13.614  -3.865  1.00 20.00     0.017 C 
HETATM    8  C6  UNL     1     -35.588  15.772  -2.971  1.00 20.00     0.017 C 
HETATM    9  C7  UNL     1     -33.185  15.618  -3.668  1.00 20.00     0.017 C 
ENDBRANCH   4   6
BRANCH   3  10
HETATM   10  C8  UNL     1     -35.201  18.117  -5.341  1.00 20.00     0.121 C 
HETATM   11 CL11 UNL     1     -34.242  19.068  -4.188  1.00 20.00    -0.130 Cl
ENDBRANCH   3  10
TORSDOF 2
ENDMDL
