MODEL 1
REMARK VINA RESULT:      -4.6      0.000      0.000
REMARK  2 active torsions:
REMARK  status: ('A' for Active; 'I' for Inactive)
REMARK    1  A    between atoms: C4_4  and  C5_5 
REMARK    2  A    between atoms: C6_6  and  C7_7 
ROOT
HETATM    1  C1  UNL     1     -34.786  16.690  -1.480  1.00 20.00     0.038 A 
HETATM    2  C2  UNL     1     -33.880  17.672  -1.153  1.00 20.00     0.142 A 
HETATM    3  C3  UNL     1     -33.045  16.628  -2.874  1.00 20.00     0.152 A 
HETATM    4  C4  UNL     1     -34.243  16.012  -2.598  1.00 20.00    -0.011 A 
HETATM    5  O10 UNL     1     -32.815  17.641  -1.999  1.00 20.00    -0.334 OA
ENDROOT
BRANCH   4   6
HETATM    6  C5  UNL     1     -34.813  14.880  -3.339  1.00 20.00     0.023 C 
HETATM    7  C7  UNL     1     -35.814  14.961  -4.232  1.00 20.00    -0.024 C 
HETATM    8  C8  UNL     1     -36.531  16.194  -4.691  1.00 20.00     0.051 C 
BRANCH   7   9
HETATM    9  C6  UNL     1     -36.233  13.672  -4.848  1.00 20.00     0.265 C 
HETATM   10  O9  UNL     1     -35.835  12.582  -4.451  1.00 20.00    -0.302 OA
ENDBRANCH   7   9
ENDBRANCH   4   6
TORSDOF 2
ENDMDL
MODEL 2
REMARK VINA RESULT:      -4.6      0.621      1.175
REMARK  2 active torsions:
REMARK  status: ('A' for Active; 'I' for Inactive)
REMARK    1  A    between atoms: C4_4  and  C5_5 
REMARK    2  A    between atoms: C6_6  and  C7_7 
ROOT
HETATM    1  C1  UNL     1     -33.078  16.675  -2.812  1.00 20.00     0.038 A 
HETATM    2  C2  UNL     1     -32.957  17.673  -1.873  1.00 20.00     0.142 A 
HETATM    3  C3  UNL     1     -34.857  16.686  -1.466  1.00 20.00     0.152 A 
HETATM    4  C4  UNL     1     -34.312  16.035  -2.548  1.00 20.00    -0.011 A 
HETATM    5  O10 UNL     1     -34.038  17.686  -1.047  1.00 20.00    -0.334 OA
ENDROOT
BRANCH   4   6
HETATM    6  C5  UNL     1     -34.921  14.903  -3.259  1.00 20.00     0.023 C 
HETATM    7  C7  UNL     1     -35.886  15.000  -4.189  1.00 20.00    -0.024 C 
HETATM    8  C8  UNL     1     -36.516  16.248  -4.726  1.00 20.00     0.051 C 
BRANCH   7   9
HETATM    9  C6  UNL     1     -36.357  13.710  -4.763  1.00 20.00     0.265 C 
HETATM   10  O9  UNL     1     -35.841  12.631  -4.493  1.00 20.00    -0.302 OA
ENDBRANCH   7   9
ENDBRANCH   4   6
TORSDOF 2
ENDMDL
MODEL 3
REMARK VINA RESULT:      -4.5     11.039     12.038
REMARK  2 active torsions:
REMARK  status: ('A' for Active; 'I' for Inactive)
REMARK    1  A    between atoms: C4_4  and  C5_5 
REMARK    2  A    between atoms: C6_6  and  C7_7 
ROOT
HETATM    1  C1  UNL     1     -34.305   6.438   5.119  1.00 20.00     0.038 A 
HETATM    2  C2  UNL     1     -34.714   5.418   5.946  1.00 20.00     0.142 A 
HETATM    3  C3  UNL     1     -34.380   4.515   3.991  1.00 20.00     0.152 A 
HETATM    4  C4  UNL     1     -34.089   5.852   3.849  1.00 20.00    -0.011 A 
HETATM    5  O10 UNL     1     -34.762   4.241   5.265  1.00 20.00    -0.334 OA
ENDROOT
BRANCH   4   6
HETATM    6  C5  UNL     1     -33.644   6.503   2.610  1.00 20.00     0.023 C 
HETATM    7  C7  UNL     1     -32.554   7.280   2.490  1.00 20.00    -0.024 C 
HETATM    8  C8  UNL     1     -31.552   7.618   3.551  1.00 20.00     0.051 C 
BRANCH   7   9
HETATM    9  C6  UNL     1     -32.312   7.843   1.134  1.00 20.00     0.265 C 
HETATM   10  O9  UNL     1     -32.929   8.807   0.691  1.00 20.00    -0.302 OA
ENDBRANCH   7   9
ENDBRANCH   4   6
TORSDOF 2
ENDMDL
MODEL 4
REMARK VINA RESULT:      -4.4      0.864      4.616
REMARK  2 active torsions:
REMARK  status: ('A' for Active; 'I' for Inactive)
REMARK    1  A    between atoms: C4_4  and  C5_5 
REMARK    2  A    between atoms: C6_6  and  C7_7 
ROOT
HETATM    1  C1  UNL     1     -36.172  15.039  -4.232  1.00 20.00     0.038 A 
HETATM    2  C2  UNL     1     -36.716  13.829  -4.594  1.00 20.00     0.142 A 
HETATM    3  C3  UNL     1     -34.670  13.410  -3.968  1.00 20.00     0.152 A 
HETATM    4  C4  UNL     1     -34.844  14.767  -3.826  1.00 20.00    -0.011 A 
HETATM    5  O10 UNL     1     -35.806  12.830  -4.436  1.00 20.00    -0.334 OA
ENDROOT
BRANCH   4   6
HETATM    6  C5  UNL     1     -33.828  15.712  -3.343  1.00 20.00     0.023 C 
HETATM    7  C7  UNL     1     -33.964  16.520  -2.279  1.00 20.00    -0.024 C 
HETATM    8  C8  UNL     1     -35.131  16.612  -1.344  1.00 20.00     0.051 C 
BRANCH   7   9
HETATM    9  C6  UNL     1     -32.801  17.405  -1.990  1.00 20.00     0.265 C 
HETATM   10  O9  UNL     1     -32.699  18.056  -0.955  1.00 20.00    -0.302 OA
ENDBRANCH   7   9
ENDBRANCH   4   6
TORSDOF 2
ENDMDL
MODEL 5
REMARK VINA RESULT:      -3.9      2.024      5.029
REMARK  2 active torsions:
REMARK  status: ('A' for Active; 'I' for Inactive)
REMARK    1  A    between atoms: C4_4  and  C5_5 
REMARK    2  A    between atoms: C6_6  and  C7_7 
ROOT
HETATM    1  C1  UNL     1     -34.692  15.866  -2.339  1.00 20.00     0.038 A 
HETATM    2  C2  UNL     1     -35.564  15.723  -3.393  1.00 20.00     0.142 A 
HETATM    3  C3  UNL     1     -34.229  17.359  -3.930  1.00 20.00     0.152 A 
HETATM    4  C4  UNL     1     -33.826  16.929  -2.688  1.00 20.00    -0.011 A 
HETATM    5  O10 UNL     1     -35.288  16.630  -4.368  1.00 20.00    -0.334 OA
ENDROOT
BRANCH   4   6
HETATM    6  C5  UNL     1     -32.711  17.486  -1.911  1.00 20.00     0.023 C 
HETATM    7  C7  UNL     1     -32.836  18.242  -0.807  1.00 20.00    -0.024 C 
HETATM    8  C8  UNL     1     -34.101  18.642  -0.112  1.00 20.00     0.051 C 
BRANCH   7   9
HETATM    9  C6  UNL     1     -31.560  18.706  -0.197  1.00 20.00     0.265 C 
HETATM   10  O9  UNL     1     -30.461  18.295  -0.554  1.00 20.00    -0.302 OA
ENDBRANCH   7   9
ENDBRANCH   4   6
TORSDOF 2
ENDMDL
MODEL 6
REMARK VINA RESULT:      -3.8      1.814      4.381
REMARK  2 active torsions:
REMARK  status: ('A' for Active; 'I' for Inactive)
REMARK    1  A    between atoms: C4_4  and  C5_5 
REMARK    2  A    between atoms: C6_6  and  C7_7 
ROOT
HETATM    1  C1  UNL     1     -34.667  16.193  -4.895  1.00 20.00     0.038 A 
HETATM    2  C2  UNL     1     -34.341  15.200  -5.789  1.00 20.00     0.142 A 
HETATM    3  C3  UNL     1     -34.400  14.252  -3.827  1.00 20.00     0.152 A 
HETATM    4  C4  UNL     1     -34.705  15.577  -3.621  1.00 20.00    -0.011 A 
HETATM    5  O10 UNL     1     -34.177  14.012  -5.146  1.00 20.00    -0.334 OA
ENDROOT
BRANCH   4   6
HETATM    6  C5  UNL     1     -35.006  16.192  -2.321  1.00 20.00     0.023 C 
HETATM    7  C7  UNL     1     -34.188  17.016  -1.645  1.00 20.00    -0.024 C 
HETATM    8  C8  UNL     1     -32.838  17.512  -2.066  1.00 20.00     0.051 C 
BRANCH   7   9
HETATM    9  C6  UNL     1     -34.705  17.505  -0.338  1.00 20.00     0.265 C 
HETATM   10  O9  UNL     1     -35.555  16.905   0.311  1.00 20.00    -0.302 OA
ENDBRANCH   7   9
ENDBRANCH   4   6
TORSDOF 2
ENDMDL
MODEL 7
REMARK VINA RESULT:      -3.8      2.060      2.707
REMARK  2 active torsions:
REMARK  status: ('A' for Active; 'I' for Inactive)
REMARK    1  A    between atoms: C4_4  and  C5_5 
REMARK    2  A    between atoms: C6_6  and  C7_7 
ROOT
HETATM    1  C1  UNL     1     -35.244  17.040  -0.350  1.00 20.00     0.038 A 
HETATM    2  C2  UNL     1     -35.922  18.173   0.035  1.00 20.00     0.142 A 
HETATM    3  C3  UNL     1     -36.520  17.780  -2.024  1.00 20.00     0.152 A 
HETATM    4  C4  UNL     1     -35.632  16.785  -1.687  1.00 20.00    -0.011 A 
HETATM    5  O10 UNL     1     -36.702  18.631  -0.980  1.00 20.00    -0.334 OA
ENDROOT
BRANCH   4   6
HETATM    6  C5  UNL     1     -35.199  15.692  -2.567  1.00 20.00     0.023 C 
HETATM    7  C7  UNL     1     -34.028  15.642  -3.223  1.00 20.00    -0.024 C 
HETATM    8  C8  UNL     1     -32.911  16.639  -3.177  1.00 20.00     0.051 C 
BRANCH   7   9
HETATM    9  C6  UNL     1     -33.816  14.436  -4.071  1.00 20.00     0.265 C 
HETATM   10  O9  UNL     1     -34.583  13.478  -4.072  1.00 20.00    -0.302 OA
ENDBRANCH   7   9
ENDBRANCH   4   6
TORSDOF 2
ENDMDL
MODEL 8
REMARK VINA RESULT:      -3.7      1.740      1.766
REMARK  2 active torsions:
REMARK  status: ('A' for Active; 'I' for Inactive)
REMARK    1  A    between atoms: C4_4  and  C5_5 
REMARK    2  A    between atoms: C6_6  and  C7_7 
ROOT
HETATM    1  C1  UNL     1     -35.017  16.715  -1.247  1.00 20.00     0.038 A 
HETATM    2  C2  UNL     1     -34.677  17.717  -0.366  1.00 20.00     0.142 A 
HETATM    3  C3  UNL     1     -33.027  17.572  -1.783  1.00 20.00     0.152 A 
HETATM    4  C4  UNL     1     -33.945  16.621  -2.166  1.00 20.00    -0.011 A 
HETATM    5  O10 UNL     1     -33.466  18.244  -0.687  1.00 20.00    -0.334 OA
ENDROOT
BRANCH   4   6
HETATM    6  C5  UNL     1     -33.804  15.709  -3.309  1.00 20.00     0.023 C 
HETATM    7  C7  UNL     1     -34.179  15.982  -4.569  1.00 20.00    -0.024 C 
HETATM    8  C8  UNL     1     -34.773  17.255  -5.091  1.00 20.00     0.051 C 
BRANCH   7   9
HETATM    9  C6  UNL     1     -33.949  14.894  -5.559  1.00 20.00     0.265 C 
HETATM   10  O9  UNL     1     -34.849  14.403  -6.233  1.00 20.00    -0.302 OA
ENDBRANCH   7   9
ENDBRANCH   4   6
TORSDOF 2
ENDMDL
MODEL 9
REMARK VINA RESULT:      -3.6      1.747      2.555
REMARK  2 active torsions:
REMARK  status: ('A' for Active; 'I' for Inactive)
REMARK    1  A    between atoms: C4_4  and  C5_5 
REMARK    2  A    between atoms: C6_6  and  C7_7 
ROOT
HETATM    1  C1  UNL     1     -33.910  14.602  -4.517  1.00 20.00     0.038 A 
HETATM    2  C2  UNL     1     -32.733  15.153  -4.065  1.00 20.00     0.142 A 
HETATM    3  C3  UNL     1     -34.302  15.928  -2.765  1.00 20.00     0.152 A 
HETATM    4  C4  UNL     1     -34.928  15.107  -3.674  1.00 20.00    -0.011 A 
HETATM    5  O10 UNL     1     -32.963  15.962  -2.996  1.00 20.00    -0.334 OA
ENDROOT
BRANCH   4   6
HETATM    6  C5  UNL     1     -36.370  14.832  -3.724  1.00 20.00     0.023 C 
HETATM    7  C7  UNL     1     -37.281  15.580  -4.369  1.00 20.00    -0.024 C 
HETATM    8  C8  UNL     1     -37.036  16.806  -5.195  1.00 20.00     0.051 C 
BRANCH   7   9
HETATM    9  C6  UNL     1     -38.689  15.110  -4.266  1.00 20.00     0.265 C 
HETATM   10  O9  UNL     1     -39.016  13.939  -4.434  1.00 20.00    -0.302 OA
ENDBRANCH   7   9
ENDBRANCH   4   6
TORSDOF 2
ENDMDL
