MODEL 1
REMARK VINA RESULT:      -4.9      0.000      0.000
REMARK  4 active torsions:
REMARK  status: ('A' for Active; 'I' for Inactive)
REMARK    1  A    between atoms: C4_4  and  C6_6 
REMARK    2  A    between atoms: C6_6  and  C8_8 
REMARK    3  A    between atoms: C7_7  and  C8_8 
REMARK    4  A    between atoms: C8_8  and  O10_10 
ROOT
HETATM    1  C6  UNL     1     -33.157   6.052   2.758  1.00 20.00     0.038 C 
ENDROOT
BRANCH   1   2
HETATM    2  C4  UNL     1     -34.183   6.011   3.874  1.00 20.00     0.014 C 
HETATM    3  C1  UNL     1     -34.448   4.627   4.424  1.00 20.00     0.033 C 
HETATM    4  C2  UNL     1     -35.076   4.944   5.765  1.00 20.00     0.168 C 
HETATM    5  O9  UNL     1     -34.493   6.176   6.215  1.00 20.00    -0.391 OA
HETATM    6  C3  UNL     1     -33.754   6.753   5.128  1.00 20.00     0.172 C 
ENDBRANCH   1   2
BRANCH   1   7
HETATM    7  C8  UNL     1     -32.589   7.458   2.538  1.00 20.00     0.118 C 
BRANCH   7   8
HETATM    8  C7  UNL     1     -32.396   7.736   1.043  1.00 20.00     0.027 C 
HETATM    9  C5  UNL     1     -32.955   9.087   0.616  1.00 20.00     0.007 C 
ENDBRANCH   7   8
BRANCH   7  10
HETATM   10  O10 UNL     1     -31.336   7.549   3.213  1.00 20.00    -0.396 OA
HETATM   11  H26 UNL     1     -31.119   8.493   3.265  1.00 20.00     0.210 HD
ENDBRANCH   7  10
ENDBRANCH   1   7
TORSDOF 4
ENDMDL
MODEL 2
REMARK VINA RESULT:      -4.5      9.504     10.140
REMARK  4 active torsions:
REMARK  status: ('A' for Active; 'I' for Inactive)
REMARK    1  A    between atoms: C4_4  and  C6_6 
REMARK    2  A    between atoms: C6_6  and  C8_8 
REMARK    3  A    between atoms: C7_7  and  C8_8 
REMARK    4  A    between atoms: C8_8  and  O10_10 
ROOT
HETATM    1  C6  UNL     1     -41.856   5.598   0.347  1.00 20.00     0.038 C 
ENDROOT
BRANCH   1   2
HETATM    2  C4  UNL     1     -41.896   7.073   0.699  1.00 20.00     0.014 C 
HETATM    3  C1  UNL     1     -41.149   7.963  -0.270  1.00 20.00     0.033 C 
HETATM    4  C2  UNL     1     -41.755   9.319   0.030  1.00 20.00     0.168 C 
HETATM    5  O9  UNL     1     -43.111   9.087   0.436  1.00 20.00    -0.391 OA
HETATM    6  C3  UNL     1     -43.287   7.678   0.650  1.00 20.00     0.172 C 
ENDBRANCH   1   2
BRANCH   1   7
HETATM    7  C8  UNL     1     -41.674   5.363  -1.156  1.00 20.00     0.118 C 
BRANCH   7   8
HETATM    8  C7  UNL     1     -42.866   4.588  -1.731  1.00 20.00     0.027 C 
HETATM    9  C5  UNL     1     -42.445   3.474  -2.679  1.00 20.00     0.007 C 
ENDBRANCH   7   8
BRANCH   7  10
HETATM   10  O10 UNL     1     -40.474   4.620  -1.355  1.00 20.00    -0.396 OA
HETATM   11  H26 UNL     1     -39.773   5.095  -0.884  1.00 20.00     0.210 HD
ENDBRANCH   7  10
ENDBRANCH   1   7
TORSDOF 4
ENDMDL
MODEL 3
REMARK VINA RESULT:      -4.4     11.014     12.049
REMARK  4 active torsions:
REMARK  status: ('A' for Active; 'I' for Inactive)
REMARK    1  A    between atoms: C4_4  and  C6_6 
REMARK    2  A    between atoms: C6_6  and  C8_8 
REMARK    3  A    between atoms: C7_7  and  C8_8 
REMARK    4  A    between atoms: C8_8  and  O10_10 
ROOT
HETATM    1  C6  UNL     1     -35.191  13.938  -3.906  1.00 20.00     0.038 C 
ENDROOT
BRANCH   1   2
HETATM    2  C4  UNL     1     -34.708  15.350  -3.635  1.00 20.00     0.014 C 
HETATM    3  C1  UNL     1     -34.994  15.846  -2.234  1.00 20.00     0.033 C 
HETATM    4  C2  UNL     1     -34.015  16.995  -2.110  1.00 20.00     0.168 C 
HETATM    5  O9  UNL     1     -32.872  16.654  -2.907  1.00 20.00    -0.391 OA
HETATM    6  C3  UNL     1     -33.199  15.506  -3.705  1.00 20.00     0.172 C 
ENDBRANCH   1   2
BRANCH   1   7
HETATM    7  C8  UNL     1     -36.239  13.885  -5.022  1.00 20.00     0.118 C 
BRANCH   7   8
HETATM    8  C7  UNL     1     -36.235  15.187  -5.832  1.00 20.00     0.027 C 
HETATM    9  C5  UNL     1     -35.662  15.011  -7.232  1.00 20.00     0.007 C 
ENDBRANCH   7   8
BRANCH   7  10
HETATM   10  O10 UNL     1     -37.521  13.689  -4.429  1.00 20.00    -0.396 OA
HETATM   11  H26 UNL     1     -37.514  14.173  -3.589  1.00 20.00     0.210 HD
ENDBRANCH   7  10
ENDBRANCH   1   7
TORSDOF 4
ENDMDL
MODEL 4
REMARK VINA RESULT:      -4.4     11.384     11.977
REMARK  4 active torsions:
REMARK  status: ('A' for Active; 'I' for Inactive)
REMARK    1  A    between atoms: C4_4  and  C6_6 
REMARK    2  A    between atoms: C6_6  and  C8_8 
REMARK    3  A    between atoms: C7_7  and  C8_8 
REMARK    4  A    between atoms: C8_8  and  O10_10 
ROOT
HETATM    1  C6  UNL     1     -34.601  15.441  -4.808  1.00 20.00     0.038 C 
ENDROOT
BRANCH   1   2
HETATM    2  C4  UNL     1     -35.924  15.038  -4.185  1.00 20.00     0.014 C 
HETATM    3  C1  UNL     1     -37.092  15.910  -4.590  1.00 20.00     0.033 C 
HETATM    4  C2  UNL     1     -38.271  15.021  -4.251  1.00 20.00     0.168 C 
HETATM    5  O9  UNL     1     -37.836  13.667  -4.440  1.00 20.00    -0.391 OA
HETATM    6  C3  UNL     1     -36.411  13.666  -4.617  1.00 20.00     0.172 C 
ENDBRANCH   1   2
BRANCH   1   7
HETATM    7  C8  UNL     1     -33.419  15.222  -3.857  1.00 20.00     0.118 C 
BRANCH   7   8
HETATM    8  C7  UNL     1     -32.995  16.544  -3.208  1.00 20.00     0.027 C 
HETATM    9  C5  UNL     1     -33.826  16.893  -1.980  1.00 20.00     0.007 C 
ENDBRANCH   7   8
BRANCH   7  10
HETATM   10  O10 UNL     1     -32.332  14.680  -4.604  1.00 20.00    -0.396 OA
HETATM   11  H26 UNL     1     -32.716  14.051  -5.234  1.00 20.00     0.210 HD
ENDBRANCH   7  10
ENDBRANCH   1   7
TORSDOF 4
ENDMDL
MODEL 5
REMARK VINA RESULT:      -4.4     11.412     11.961
REMARK  4 active torsions:
REMARK  status: ('A' for Active; 'I' for Inactive)
REMARK    1  A    between atoms: C4_4  and  C6_6 
REMARK    2  A    between atoms: C6_6  and  C8_8 
REMARK    3  A    between atoms: C7_7  and  C8_8 
REMARK    4  A    between atoms: C8_8  and  O10_10 
ROOT
HETATM    1  C6  UNL     1     -34.015  15.001  -3.826  1.00 20.00     0.038 C 
ENDROOT
BRANCH   1   2
HETATM    2  C4  UNL     1     -34.225  16.297  -3.066  1.00 20.00     0.014 C 
HETATM    3  C1  UNL     1     -35.046  16.151  -1.804  1.00 20.00     0.033 C 
HETATM    4  C2  UNL     1     -34.677  17.411  -1.050  1.00 20.00     0.168 C 
HETATM    5  O9  UNL     1     -33.325  17.730  -1.411  1.00 20.00    -0.391 OA
HETATM    6  C3  UNL     1     -32.944  16.902  -2.521  1.00 20.00     0.172 C 
ENDBRANCH   1   2
BRANCH   1   7
HETATM    7  C8  UNL     1     -34.245  15.165  -5.332  1.00 20.00     0.118 C 
BRANCH   7   8
HETATM    8  C7  UNL     1     -35.588  14.550  -5.744  1.00 20.00     0.027 C 
HETATM    9  C5  UNL     1     -36.194  13.671  -4.658  1.00 20.00     0.007 C 
ENDBRANCH   7   8
BRANCH   7  10
HETATM   10  O10 UNL     1     -33.183  14.514  -6.025  1.00 20.00    -0.396 OA
HETATM   11  H26 UNL     1     -33.072  14.986  -6.865  1.00 20.00     0.210 HD
ENDBRANCH   7  10
ENDBRANCH   1   7
TORSDOF 4
ENDMDL
MODEL 6
REMARK VINA RESULT:      -4.3     11.172     11.895
REMARK  4 active torsions:
REMARK  status: ('A' for Active; 'I' for Inactive)
REMARK    1  A    between atoms: C4_4  and  C6_6 
REMARK    2  A    between atoms: C6_6  and  C8_8 
REMARK    3  A    between atoms: C7_7  and  C8_8 
REMARK    4  A    between atoms: C8_8  and  O10_10 
ROOT
HETATM    1  C6  UNL     1     -35.804  15.002  -3.570  1.00 20.00     0.038 C 
ENDROOT
BRANCH   1   2
HETATM    2  C4  UNL     1     -34.684  15.529  -2.694  1.00 20.00     0.014 C 
HETATM    3  C1  UNL     1     -33.639  16.332  -3.438  1.00 20.00     0.033 C 
HETATM    4  C2  UNL     1     -32.983  17.101  -2.310  1.00 20.00     0.168 C 
HETATM    5  O9  UNL     1     -33.995  17.328  -1.318  1.00 20.00    -0.391 OA
HETATM    6  C3  UNL     1     -35.143  16.530  -1.649  1.00 20.00     0.172 C 
ENDBRANCH   1   2
BRANCH   1   7
HETATM    7  C8  UNL     1     -35.293  14.063  -4.668  1.00 20.00     0.118 C 
BRANCH   7   8
HETATM    8  C7  UNL     1     -35.647  14.611  -6.056  1.00 20.00     0.027 C 
HETATM    9  C5  UNL     1     -34.426  15.076  -6.837  1.00 20.00     0.007 C 
ENDBRANCH   7   8
BRANCH   7  10
HETATM   10  O10 UNL     1     -35.894  12.784  -4.486  1.00 20.00    -0.396 OA
HETATM   11  H26 UNL     1     -36.686  12.925  -3.944  1.00 20.00     0.210 HD
ENDBRANCH   7  10
ENDBRANCH   1   7
TORSDOF 4
ENDMDL
MODEL 7
REMARK VINA RESULT:      -4.1     11.796     12.758
REMARK  4 active torsions:
REMARK  status: ('A' for Active; 'I' for Inactive)
REMARK    1  A    between atoms: C4_4  and  C6_6 
REMARK    2  A    between atoms: C6_6  and  C8_8 
REMARK    3  A    between atoms: C7_7  and  C8_8 
REMARK    4  A    between atoms: C8_8  and  O10_10 
ROOT
HETATM    1  C6  UNL     1     -33.451  14.801  -4.323  1.00 20.00     0.038 C 
ENDROOT
BRANCH   1   2
HETATM    2  C4  UNL     1     -34.508  15.191  -5.339  1.00 20.00     0.014 C 
HETATM    3  C1  UNL     1     -34.047  15.108  -6.778  1.00 20.00     0.033 C 
HETATM    4  C2  UNL     1     -35.366  15.058  -7.520  1.00 20.00     0.168 C 
HETATM    5  O9  UNL     1     -36.301  14.391  -6.660  1.00 20.00    -0.391 OA
HETATM    6  C3  UNL     1     -35.712  14.266  -5.357  1.00 20.00     0.172 C 
ENDBRANCH   1   2
BRANCH   1   7
HETATM    7  C8  UNL     1     -33.175  15.917  -3.312  1.00 20.00     0.118 C 
BRANCH   7   8
HETATM    8  C7  UNL     1     -34.362  16.088  -2.357  1.00 20.00     0.027 C 
HETATM    9  C5  UNL     1     -34.193  17.267  -1.408  1.00 20.00     0.007 C 
ENDBRANCH   7   8
BRANCH   7  10
HETATM   10  O10 UNL     1     -32.951  17.130  -4.026  1.00 20.00    -0.396 OA
HETATM   11  H26 UNL     1     -33.010  17.848  -3.377  1.00 20.00     0.210 HD
ENDBRANCH   7  10
ENDBRANCH   1   7
TORSDOF 4
ENDMDL
MODEL 8
REMARK VINA RESULT:      -4.0     11.111     12.349
REMARK  4 active torsions:
REMARK  status: ('A' for Active; 'I' for Inactive)
REMARK    1  A    between atoms: C4_4  and  C6_6 
REMARK    2  A    between atoms: C6_6  and  C8_8 
REMARK    3  A    between atoms: C7_7  and  C8_8 
REMARK    4  A    between atoms: C8_8  and  O10_10 
ROOT
HETATM    1  C6  UNL     1     -34.825  15.172  -2.960  1.00 20.00     0.038 C 
ENDROOT
BRANCH   1   2
HETATM    2  C4  UNL     1     -35.424  15.180  -4.354  1.00 20.00     0.014 C 
HETATM    3  C1  UNL     1     -34.414  15.371  -5.463  1.00 20.00     0.033 C 
HETATM    4  C2  UNL     1     -35.177  14.856  -6.666  1.00 20.00     0.168 C 
HETATM    5  O9  UNL     1     -36.054  13.825  -6.190  1.00 20.00    -0.391 OA
HETATM    6  C3  UNL     1     -36.062  13.861  -4.754  1.00 20.00     0.172 C 
ENDBRANCH   1   2
BRANCH   1   7
HETATM    7  C8  UNL     1     -34.828  16.562  -2.317  1.00 20.00     0.118 C 
BRANCH   7   8
HETATM    8  C7  UNL     1     -33.394  17.064  -2.108  1.00 20.00     0.027 C 
HETATM    9  C5  UNL     1     -32.926  17.995  -3.219  1.00 20.00     0.007 C 
ENDBRANCH   7   8
BRANCH   7  10
HETATM   10  O10 UNL     1     -35.498  16.478  -1.061  1.00 20.00    -0.396 OA
HETATM   11  H26 UNL     1     -36.438  16.637  -1.239  1.00 20.00     0.210 HD
ENDBRANCH   7  10
ENDBRANCH   1   7
TORSDOF 4
ENDMDL
MODEL 9
REMARK VINA RESULT:      -4.0     11.359     12.091
REMARK  4 active torsions:
REMARK  status: ('A' for Active; 'I' for Inactive)
REMARK    1  A    between atoms: C4_4  and  C6_6 
REMARK    2  A    between atoms: C6_6  and  C8_8 
REMARK    3  A    between atoms: C7_7  and  C8_8 
REMARK    4  A    between atoms: C8_8  and  O10_10 
ROOT
HETATM    1  C6  UNL     1     -35.429  16.230  -4.287  1.00 20.00     0.038 C 
ENDROOT
BRANCH   1   2
HETATM    2  C4  UNL     1     -36.681  15.489  -3.857  1.00 20.00     0.014 C 
HETATM    3  C1  UNL     1     -37.972  16.138  -4.305  1.00 20.00     0.033 C 
HETATM    4  C2  UNL     1     -38.951  14.988  -4.184  1.00 20.00     0.168 C 
HETATM    5  O9  UNL     1     -38.214  13.786  -4.450  1.00 20.00    -0.391 OA
HETATM    6  C3  UNL     1     -36.814  14.105  -4.466  1.00 20.00     0.172 C 
ENDBRANCH   1   2
BRANCH   1   7
HETATM    7  C8  UNL     1     -34.484  16.508  -3.114  1.00 20.00     0.118 C 
BRANCH   7   8
HETATM    8  C7  UNL     1     -33.084  15.956  -3.404  1.00 20.00     0.027 C 
HETATM    9  C5  UNL     1     -33.108  14.723  -4.298  1.00 20.00     0.007 C 
ENDBRANCH   7   8
BRANCH   7  10
HETATM   10  O10 UNL     1     -35.016  15.887  -1.947  1.00 20.00    -0.396 OA
HETATM   11  H26 UNL     1     -35.760  16.436  -1.656  1.00 20.00     0.210 HD
ENDBRANCH   7  10
ENDBRANCH   1   7
TORSDOF 4
ENDMDL
