MODEL 1
REMARK VINA RESULT:      -5.6      0.000      0.000
REMARK  3 active torsions:
REMARK  status: ('A' for Active; 'I' for Inactive)
REMARK    1  A    between atoms: C4_4  and  C6_6 
REMARK    2  A    between atoms: C5_5  and  O8_8 
REMARK    3  A    between atoms: C6_6  and  C7_7 
ROOT
HETATM    1  C1  UNL     1     -34.347   6.526   6.082  1.00 20.00     0.003 C 
HETATM    2  C2  UNL     1     -33.774   7.107   4.789  1.00 20.00     0.007 C 
HETATM    3  C3  UNL     1     -34.752   5.088   5.765  1.00 20.00     0.032 C 
HETATM    4  C4  UNL     1     -33.475   5.891   3.914  1.00 20.00     0.023 C 
HETATM    5  C5  UNL     1     -34.632   4.955   4.252  1.00 20.00     0.122 C 
ENDROOT
BRANCH   4   6
HETATM    6  C6  UNL     1     -33.385   6.227   2.433  1.00 20.00     0.124 C 
BRANCH   6   7
HETATM    7  C7  UNL     1     -32.440   7.370   2.186  1.00 20.00     0.388 C 
HETATM    8  F9  UNL     1     -33.088   8.552   2.114  1.00 20.00    -0.171 F 
HETATM    9  F10 UNL     1     -31.801   7.183   1.010  1.00 20.00    -0.171 F 
HETATM   10  F11 UNL     1     -31.501   7.466   3.151  1.00 20.00    -0.171 F 
ENDBRANCH   6   7
ENDBRANCH   4   6
BRANCH   5  11
HETATM   11  O8  UNL     1     -34.343   3.625   3.868  1.00 20.00    -0.395 OA
HETATM   12  H22 UNL     1     -33.519   3.649   3.352  1.00 20.00     0.210 HD
ENDBRANCH   5  11
TORSDOF 3
ENDMDL
MODEL 2
REMARK VINA RESULT:      -5.6      0.065      1.125
REMARK  3 active torsions:
REMARK  status: ('A' for Active; 'I' for Inactive)
REMARK    1  A    between atoms: C4_4  and  C6_6 
REMARK    2  A    between atoms: C5_5  and  O8_8 
REMARK    3  A    between atoms: C6_6  and  C7_7 
ROOT
HETATM    1  C1  UNL     1     -34.312   6.506   6.124  1.00 20.00     0.003 C 
HETATM    2  C2  UNL     1     -33.800   7.125   4.822  1.00 20.00     0.007 C 
HETATM    3  C3  UNL     1     -34.686   5.062   5.795  1.00 20.00     0.032 C 
HETATM    4  C4  UNL     1     -33.497   5.934   3.916  1.00 20.00     0.023 C 
HETATM    5  C5  UNL     1     -34.614   4.959   4.277  1.00 20.00     0.122 C 
ENDROOT
BRANCH   4   6
HETATM    6  C6  UNL     1     -33.468   6.298   2.439  1.00 20.00     0.124 C 
BRANCH   6   7
HETATM    7  C7  UNL     1     -32.445   7.363   2.156  1.00 20.00     0.388 C 
HETATM    8  F9  UNL     1     -31.547   7.477   3.158  1.00 20.00    -0.171 F 
HETATM    9  F10 UNL     1     -33.062   8.558   2.023  1.00 20.00    -0.171 F 
HETATM   10  F11 UNL     1     -31.770   7.122   1.013  1.00 20.00    -0.171 F 
ENDBRANCH   6   7
ENDBRANCH   4   6
BRANCH   5  11
HETATM   11  O8  UNL     1     -34.300   3.644   3.859  1.00 20.00    -0.395 OA
HETATM   12  H22 UNL     1     -35.117   3.120   3.926  1.00 20.00     0.210 HD
ENDBRANCH   5  11
TORSDOF 3
ENDMDL
MODEL 3
REMARK VINA RESULT:      -4.9      1.718      2.268
REMARK  3 active torsions:
REMARK  status: ('A' for Active; 'I' for Inactive)
REMARK    1  A    between atoms: C4_4  and  C6_6 
REMARK    2  A    between atoms: C5_5  and  O8_8 
REMARK    3  A    between atoms: C6_6  and  C7_7 
ROOT
HETATM    1  C1  UNL     1     -34.382   4.314   3.708  1.00 20.00     0.003 C 
HETATM    2  C2  UNL     1     -33.457   5.050   2.737  1.00 20.00     0.007 C 
HETATM    3  C3  UNL     1     -34.563   5.238   4.912  1.00 20.00     0.032 C 
HETATM    4  C4  UNL     1     -33.484   6.505   3.199  1.00 20.00     0.023 C 
HETATM    5  C5  UNL     1     -33.554   6.363   4.718  1.00 20.00     0.122 C 
ENDROOT
BRANCH   4   6
HETATM    6  C6  UNL     1     -32.280   7.306   2.725  1.00 20.00     0.124 C 
BRANCH   6   7
HETATM    7  C7  UNL     1     -32.540   7.946   1.389  1.00 20.00     0.388 C 
HETATM    8  F9  UNL     1     -33.649   7.452   0.801  1.00 20.00    -0.171 F 
HETATM    9  F10 UNL     1     -31.498   7.706   0.563  1.00 20.00    -0.171 F 
HETATM   10  F11 UNL     1     -32.680   9.285   1.491  1.00 20.00    -0.171 F 
ENDBRANCH   6   7
ENDBRANCH   4   6
BRANCH   5  11
HETATM   11  O8  UNL     1     -33.991   7.564   5.324  1.00 20.00    -0.395 OA
HETATM   12  H22 UNL     1     -34.818   7.362   5.794  1.00 20.00     0.210 HD
ENDBRANCH   5  11
TORSDOF 3
ENDMDL
MODEL 4
REMARK VINA RESULT:      -4.8     11.490     11.870
REMARK  3 active torsions:
REMARK  status: ('A' for Active; 'I' for Inactive)
REMARK    1  A    between atoms: C4_4  and  C6_6 
REMARK    2  A    between atoms: C5_5  and  O8_8 
REMARK    3  A    between atoms: C6_6  and  C7_7 
ROOT
HETATM    1  C1  UNL     1     -34.034  17.681  -0.686  1.00 20.00     0.003 C 
HETATM    2  C2  UNL     1     -33.187  17.353  -1.917  1.00 20.00     0.007 C 
HETATM    3  C3  UNL     1     -35.424  17.107  -0.956  1.00 20.00     0.032 C 
HETATM    4  C4  UNL     1     -33.964  16.260  -2.646  1.00 20.00     0.023 C 
HETATM    5  C5  UNL     1     -35.413  16.685  -2.421  1.00 20.00     0.122 C 
ENDROOT
BRANCH   4   6
HETATM    6  C6  UNL     1     -33.593  16.142  -4.117  1.00 20.00     0.124 C 
BRANCH   6   7
HETATM    7  C7  UNL     1     -33.247  14.726  -4.484  1.00 20.00     0.388 C 
HETATM    8  F9  UNL     1     -31.955  14.439  -4.220  1.00 20.00    -0.171 F 
HETATM    9  F10 UNL     1     -33.444  14.540  -5.808  1.00 20.00    -0.171 F 
HETATM   10  F11 UNL     1     -34.017  13.832  -3.826  1.00 20.00    -0.171 F 
ENDBRANCH   6   7
ENDBRANCH   4   6
BRANCH   5  11
HETATM   11  O8  UNL     1     -36.304  15.612  -2.660  1.00 20.00    -0.395 OA
HETATM   12  H22 UNL     1     -36.115  15.277  -3.553  1.00 20.00     0.210 HD
ENDBRANCH   5  11
TORSDOF 3
ENDMDL
MODEL 5
REMARK VINA RESULT:      -4.8     11.507     11.893
REMARK  3 active torsions:
REMARK  status: ('A' for Active; 'I' for Inactive)
REMARK    1  A    between atoms: C4_4  and  C6_6 
REMARK    2  A    between atoms: C5_5  and  O8_8 
REMARK    3  A    between atoms: C6_6  and  C7_7 
ROOT
HETATM    1  C1  UNL     1     -34.004  17.678  -0.681  1.00 20.00     0.003 C 
HETATM    2  C2  UNL     1     -33.164  17.354  -1.918  1.00 20.00     0.007 C 
HETATM    3  C3  UNL     1     -35.397  17.112  -0.949  1.00 20.00     0.032 C 
HETATM    4  C4  UNL     1     -33.949  16.270  -2.651  1.00 20.00     0.023 C 
HETATM    5  C5  UNL     1     -35.395  16.700  -2.416  1.00 20.00     0.122 C 
ENDROOT
BRANCH   4   6
HETATM    6  C6  UNL     1     -33.586  16.160  -4.124  1.00 20.00     0.124 C 
BRANCH   6   7
HETATM    7  C7  UNL     1     -33.267  14.741  -4.506  1.00 20.00     0.388 C 
HETATM    8  F9  UNL     1     -34.034  13.855  -3.836  1.00 20.00    -0.171 F 
HETATM    9  F10 UNL     1     -31.977  14.472  -4.209  1.00 20.00    -0.171 F 
HETATM   10  F11 UNL     1     -33.436  14.525  -5.828  1.00 20.00    -0.171 F 
ENDBRANCH   6   7
ENDBRANCH   4   6
BRANCH   5  11
HETATM   11  O8  UNL     1     -36.292  15.634  -2.658  1.00 20.00    -0.395 OA
HETATM   12  H22 UNL     1     -36.959  15.655  -1.951  1.00 20.00     0.210 HD
ENDBRANCH   5  11
TORSDOF 3
ENDMDL
MODEL 6
REMARK VINA RESULT:      -4.8     16.059     16.497
REMARK  3 active torsions:
REMARK  status: ('A' for Active; 'I' for Inactive)
REMARK    1  A    between atoms: C4_4  and  C6_6 
REMARK    2  A    between atoms: C5_5  and  O8_8 
REMARK    3  A    between atoms: C6_6  and  C7_7 
ROOT
HETATM    1  C1  UNL     1     -25.831  18.868  11.562  1.00 20.00     0.003 C 
HETATM    2  C2  UNL     1     -25.264  18.832  10.142  1.00 20.00     0.007 C 
HETATM    3  C3  UNL     1     -25.136  17.744  12.330  1.00 20.00     0.032 C 
HETATM    4  C4  UNL     1     -23.989  18.000  10.250  1.00 20.00     0.023 C 
HETATM    5  C5  UNL     1     -24.378  16.941  11.279  1.00 20.00     0.122 C 
ENDROOT
BRANCH   4   6
HETATM    6  C6  UNL     1     -23.543  17.411   8.920  1.00 20.00     0.124 C 
BRANCH   6   7
HETATM    7  C7  UNL     1     -22.090  17.690   8.656  1.00 20.00     0.388 C 
HETATM    8  F9  UNL     1     -21.694  18.858   9.204  1.00 20.00    -0.171 F 
HETATM    9  F10 UNL     1     -21.879  17.772   7.324  1.00 20.00    -0.171 F 
HETATM   10  F11 UNL     1     -21.294  16.711   9.136  1.00 20.00    -0.171 F 
ENDBRANCH   6   7
ENDBRANCH   4   6
BRANCH   5  11
HETATM   11  O8  UNL     1     -23.234  16.316  11.828  1.00 20.00    -0.395 OA
HETATM   12  H22 UNL     1     -22.746  16.997  12.322  1.00 20.00     0.210 HD
ENDBRANCH   5  11
TORSDOF 3
ENDMDL
MODEL 7
REMARK VINA RESULT:      -4.7     12.086     12.812
REMARK  3 active torsions:
REMARK  status: ('A' for Active; 'I' for Inactive)
REMARK    1  A    between atoms: C4_4  and  C6_6 
REMARK    2  A    between atoms: C5_5  and  O8_8 
REMARK    3  A    between atoms: C6_6  and  C7_7 
ROOT
HETATM    1  C1  UNL     1     -35.057  16.326  -1.714  1.00 20.00     0.003 C 
HETATM    2  C2  UNL     1     -35.016  15.255  -2.804  1.00 20.00     0.007 C 
HETATM    3  C3  UNL     1     -33.989  17.355  -2.083  1.00 20.00     0.032 C 
HETATM    4  C4  UNL     1     -34.253  15.900  -3.958  1.00 20.00     0.023 C 
HETATM    5  C5  UNL     1     -33.201  16.731  -3.228  1.00 20.00     0.122 C 
ENDROOT
BRANCH   4   6
HETATM    6  C6  UNL     1     -33.657  14.886  -4.923  1.00 20.00     0.124 C 
BRANCH   6   7
HETATM    7  C7  UNL     1     -34.176  15.086  -6.319  1.00 20.00     0.388 C 
HETATM    8  F9  UNL     1     -34.484  16.377  -6.562  1.00 20.00    -0.171 F 
HETATM    9  F10 UNL     1     -35.303  14.359  -6.491  1.00 20.00    -0.171 F 
HETATM   10  F11 UNL     1     -33.285  14.685  -7.251  1.00 20.00    -0.171 F 
ENDBRANCH   6   7
ENDBRANCH   4   6
BRANCH   5  11
HETATM   11  O8  UNL     1     -32.649  17.718  -4.077  1.00 20.00    -0.395 OA
HETATM   12  H22 UNL     1     -32.716  17.382  -4.987  1.00 20.00     0.210 HD
ENDBRANCH   5  11
TORSDOF 3
ENDMDL
MODEL 8
REMARK VINA RESULT:      -4.7     11.171     11.876
REMARK  3 active torsions:
REMARK  status: ('A' for Active; 'I' for Inactive)
REMARK    1  A    between atoms: C4_4  and  C6_6 
REMARK    2  A    between atoms: C5_5  and  O8_8 
REMARK    3  A    between atoms: C6_6  and  C7_7 
ROOT
HETATM    1  C1  UNL     1     -32.709  17.451  -2.363  1.00 20.00     0.003 C 
HETATM    2  C2  UNL     1     -33.427  16.525  -3.346  1.00 20.00     0.007 C 
HETATM    3  C3  UNL     1     -33.657  17.638  -1.179  1.00 20.00     0.032 C 
HETATM    4  C4  UNL     1     -34.546  15.881  -2.531  1.00 20.00     0.023 C 
HETATM    5  C5  UNL     1     -34.981  17.023  -1.617  1.00 20.00     0.122 C 
ENDROOT
BRANCH   4   6
HETATM    6  C6  UNL     1     -35.675  15.334  -3.392  1.00 20.00     0.124 C 
BRANCH   6   7
HETATM    7  C7  UNL     1     -35.230  14.138  -4.186  1.00 20.00     0.388 C 
HETATM    8  F9  UNL     1     -34.847  14.477  -5.435  1.00 20.00    -0.171 F 
HETATM    9  F10 UNL     1     -36.254  13.262  -4.296  1.00 20.00    -0.171 F 
HETATM   10  F11 UNL     1     -34.203  13.493  -3.593  1.00 20.00    -0.171 F 
ENDBRANCH   6   7
ENDBRANCH   4   6
BRANCH   5  11
HETATM   11  O8  UNL     1     -35.721  16.541  -0.512  1.00 20.00    -0.395 OA
HETATM   12  H22 UNL     1     -36.199  17.298  -0.135  1.00 20.00     0.210 HD
ENDBRANCH   5  11
TORSDOF 3
ENDMDL
MODEL 9
REMARK VINA RESULT:      -4.6     11.681     12.284
REMARK  3 active torsions:
REMARK  status: ('A' for Active; 'I' for Inactive)
REMARK    1  A    between atoms: C4_4  and  C6_6 
REMARK    2  A    between atoms: C5_5  and  O8_8 
REMARK    3  A    between atoms: C6_6  and  C7_7 
ROOT
HETATM    1  C1  UNL     1     -33.965  17.167  -1.683  1.00 20.00     0.003 C 
HETATM    2  C2  UNL     1     -35.104  16.166  -1.888  1.00 20.00     0.007 C 
HETATM    3  C3  UNL     1     -32.966  16.916  -2.811  1.00 20.00     0.032 C 
HETATM    4  C4  UNL     1     -34.943  15.680  -3.326  1.00 20.00     0.023 C 
HETATM    5  C5  UNL     1     -33.426  15.629  -3.485  1.00 20.00     0.122 C 
ENDROOT
BRANCH   4   6
HETATM    6  C6  UNL     1     -35.621  14.343  -3.585  1.00 20.00     0.124 C 
BRANCH   6   7
HETATM    7  C7  UNL     1     -36.551  14.419  -4.764  1.00 20.00     0.388 C 
HETATM    8  F9  UNL     1     -36.114  13.671  -5.799  1.00 20.00    -0.171 F 
HETATM    9  F10 UNL     1     -36.635  15.698  -5.193  1.00 20.00    -0.171 F 
HETATM   10  F11 UNL     1     -37.799  14.011  -4.450  1.00 20.00    -0.171 F 
ENDBRANCH   6   7
ENDBRANCH   4   6
BRANCH   5  11
HETATM   11  O8  UNL     1     -33.055  15.595  -4.849  1.00 20.00    -0.395 OA
HETATM   12  H22 UNL     1     -33.779  16.005  -5.353  1.00 20.00     0.210 HD
ENDBRANCH   5  11
TORSDOF 3
ENDMDL
