MODEL 1
REMARK VINA RESULT:      -5.4      0.000      0.000
REMARK  3 active torsions:
REMARK  status: ('A' for Active; 'I' for Inactive)
REMARK    1  A    between atoms: C2_2  and  C11_11 
REMARK    2  A    between atoms: C3_3  and  C9_9 
REMARK    3  A    between atoms: C9_9  and  C11_11 
ROOT
HETATM    1  C1  UNL     1     -33.439  17.119  -2.111  1.00 20.00    -0.111 C 
HETATM    2  C2  UNL     1     -34.237  16.263  -2.381  1.00 20.00    -0.106 C 
HETATM    3  C10 UNL     1     -32.467  18.160  -1.782  1.00 20.00     0.112 C 
ENDROOT
BRANCH   2   4
HETATM    4  C11 UNL     1     -35.198  15.211  -2.711  1.00 20.00     0.114 C 
BRANCH   4   5
HETATM    5  C9  UNL     1     -35.290  15.013  -4.224  1.00 20.00     0.058 C 
HETATM    6  C7  UNL     1     -36.153  16.099  -4.871  1.00 20.00     0.021 C 
HETATM    7  C5  UNL     1     -36.173  16.012  -6.398  1.00 20.00     0.001 C 
HETATM    8  C4  UNL     1     -34.764  15.978  -6.980  1.00 20.00     0.000 C 
HETATM    9  C6  UNL     1     -33.939  14.844  -6.379  1.00 20.00     0.001 C 
HETATM   10  C8  UNL     1     -33.898  14.920  -4.854  1.00 20.00     0.021 C 
BRANCH   5  11
HETATM   11  C3  UNL     1     -35.996  13.663  -4.342  1.00 20.00     0.182 C 
HETATM   12  O12 UNL     1     -37.240  13.722  -4.549  1.00 20.00    -0.647 OA
HETATM   13  O13 UNL     1     -35.243  12.658  -4.216  1.00 20.00    -0.647 OA
ENDBRANCH   5  11
ENDBRANCH   4   5
ENDBRANCH   2   4
TORSDOF 3
ENDMDL
MODEL 2
REMARK VINA RESULT:      -5.3      1.299      1.541
REMARK  3 active torsions:
REMARK  status: ('A' for Active; 'I' for Inactive)
REMARK    1  A    between atoms: C2_2  and  C11_11 
REMARK    2  A    between atoms: C3_3  and  C9_9 
REMARK    3  A    between atoms: C9_9  and  C11_11 
ROOT
HETATM    1  C1  UNL     1     -35.147  16.450  -1.613  1.00 20.00    -0.111 C 
HETATM    2  C2  UNL     1     -34.866  15.716  -2.521  1.00 20.00    -0.106 C 
HETATM    3  C10 UNL     1     -35.488  17.343  -0.507  1.00 20.00     0.112 C 
ENDROOT
BRANCH   2   4
HETATM    4  C11 UNL     1     -34.518  14.813  -3.618  1.00 20.00     0.114 C 
BRANCH   4   5
HETATM    5  C9  UNL     1     -35.538  14.914  -4.752  1.00 20.00     0.058 C 
HETATM    6  C7  UNL     1     -36.393  16.177  -4.614  1.00 20.00     0.021 C 
HETATM    7  C5  UNL     1     -37.345  16.381  -5.793  1.00 20.00     0.001 C 
HETATM    8  C4  UNL     1     -36.609  16.332  -7.128  1.00 20.00     0.000 C 
HETATM    9  C6  UNL     1     -35.822  15.035  -7.283  1.00 20.00     0.001 C 
HETATM   10  C8  UNL     1     -34.855  14.816  -6.119  1.00 20.00     0.021 C 
BRANCH   5  11
HETATM   11  C3  UNL     1     -36.410  13.680  -4.527  1.00 20.00     0.182 C 
HETATM   12  O12 UNL     1     -37.640  13.912  -4.365  1.00 20.00    -0.647 OA
HETATM   13  O13 UNL     1     -35.787  12.582  -4.531  1.00 20.00    -0.647 OA
ENDBRANCH   5  11
ENDBRANCH   4   5
ENDBRANCH   2   4
TORSDOF 3
ENDMDL
MODEL 3
REMARK VINA RESULT:      -4.9      1.418      3.819
REMARK  3 active torsions:
REMARK  status: ('A' for Active; 'I' for Inactive)
REMARK    1  A    between atoms: C2_2  and  C11_11 
REMARK    2  A    between atoms: C3_3  and  C9_9 
REMARK    3  A    between atoms: C9_9  and  C11_11 
ROOT
HETATM    1  C1  UNL     1     -34.317  17.068  -7.384  1.00 20.00    -0.111 C 
HETATM    2  C2  UNL     1     -34.844  16.081  -6.946  1.00 20.00    -0.106 C 
HETATM    3  C10 UNL     1     -33.676  18.269  -7.917  1.00 20.00     0.112 C 
ENDROOT
BRANCH   2   4
HETATM    4  C11 UNL     1     -35.499  14.886  -6.414  1.00 20.00     0.114 C 
BRANCH   4   5
HETATM    5  C9  UNL     1     -35.796  15.046  -4.923  1.00 20.00     0.058 C 
HETATM    6  C7  UNL     1     -34.502  15.131  -4.109  1.00 20.00     0.021 C 
HETATM    7  C5  UNL     1     -34.751  15.414  -2.627  1.00 20.00     0.001 C 
HETATM    8  C4  UNL     1     -35.634  16.641  -2.427  1.00 20.00     0.000 C 
HETATM    9  C6  UNL     1     -36.952  16.509  -3.185  1.00 20.00     0.001 C 
HETATM   10  C8  UNL     1     -36.725  16.237  -4.671  1.00 20.00     0.021 C 
BRANCH   5  11
HETATM   11  C3  UNL     1     -36.526  13.747  -4.587  1.00 20.00     0.182 C 
HETATM   12  O12 UNL     1     -35.788  12.731  -4.465  1.00 20.00    -0.647 OA
HETATM   13  O13 UNL     1     -37.779  13.857  -4.475  1.00 20.00    -0.647 OA
ENDBRANCH   5  11
ENDBRANCH   4   5
ENDBRANCH   2   4
TORSDOF 3
ENDMDL
MODEL 4
REMARK VINA RESULT:      -4.7     15.596     18.709
REMARK  3 active torsions:
REMARK  status: ('A' for Active; 'I' for Inactive)
REMARK    1  A    between atoms: C2_2  and  C11_11 
REMARK    2  A    between atoms: C3_3  and  C9_9 
REMARK    3  A    between atoms: C9_9  and  C11_11 
ROOT
HETATM    1  C1  UNL     1     -25.440  18.881   7.423  1.00 20.00    -0.111 C 
HETATM    2  C2  UNL     1     -24.474  18.660   8.101  1.00 20.00    -0.106 C 
HETATM    3  C10 UNL     1     -26.616  19.149   6.598  1.00 20.00     0.112 C 
ENDROOT
BRANCH   2   4
HETATM    4  C11 UNL     1     -23.293  18.406   8.928  1.00 20.00     0.114 C 
BRANCH   4   5
HETATM    5  C9  UNL     1     -23.696  17.866  10.301  1.00 20.00     0.058 C 
HETATM    6  C7  UNL     1     -24.755  18.758  10.954  1.00 20.00     0.021 C 
HETATM    7  C5  UNL     1     -25.275  18.189  12.276  1.00 20.00     0.001 C 
HETATM    8  C4  UNL     1     -25.755  16.750  12.121  1.00 20.00     0.000 C 
HETATM    9  C6  UNL     1     -24.664  15.859  11.537  1.00 20.00     0.001 C 
HETATM   10  C8  UNL     1     -24.137  16.403  10.210  1.00 20.00     0.021 C 
BRANCH   5  11
HETATM   11  C3  UNL     1     -22.392  17.959  11.091  1.00 20.00     0.182 C 
HETATM   12  O12 UNL     1     -22.526  18.143  12.332  1.00 20.00    -0.647 OA
HETATM   13  O13 UNL     1     -21.343  17.839  10.399  1.00 20.00    -0.647 OA
ENDBRANCH   5  11
ENDBRANCH   4   5
ENDBRANCH   2   4
TORSDOF 3
ENDMDL
MODEL 5
REMARK VINA RESULT:      -4.6      1.964      3.024
REMARK  3 active torsions:
REMARK  status: ('A' for Active; 'I' for Inactive)
REMARK    1  A    between atoms: C2_2  and  C11_11 
REMARK    2  A    between atoms: C3_3  and  C9_9 
REMARK    3  A    between atoms: C9_9  and  C11_11 
ROOT
HETATM    1  C1  UNL     1     -34.663  17.007  -1.014  1.00 20.00    -0.111 C 
HETATM    2  C2  UNL     1     -34.235  16.684  -2.088  1.00 20.00    -0.106 C 
HETATM    3  C10 UNL     1     -35.184  17.401   0.294  1.00 20.00     0.112 C 
ENDROOT
BRANCH   2   4
HETATM    4  C11 UNL     1     -33.719  16.276  -3.395  1.00 20.00     0.114 C 
BRANCH   4   5
HETATM    5  C9  UNL     1     -34.822  15.637  -4.240  1.00 20.00     0.058 C 
HETATM    6  C7  UNL     1     -35.097  14.200  -3.791  1.00 20.00     0.021 C 
HETATM    7  C5  UNL     1     -36.277  13.563  -4.528  1.00 20.00     0.001 C 
HETATM    8  C4  UNL     1     -37.525  14.435  -4.454  1.00 20.00     0.000 C 
HETATM    9  C6  UNL     1     -37.254  15.843  -4.974  1.00 20.00     0.001 C 
HETATM   10  C8  UNL     1     -36.085  16.502  -4.243  1.00 20.00     0.021 C 
BRANCH   5  11
HETATM   11  C3  UNL     1     -34.206  15.626  -5.638  1.00 20.00     0.182 C 
HETATM   12  O12 UNL     1     -33.630  14.552  -5.964  1.00 20.00    -0.647 OA
HETATM   13  O13 UNL     1     -34.354  16.696  -6.291  1.00 20.00    -0.647 OA
ENDBRANCH   5  11
ENDBRANCH   4   5
ENDBRANCH   2   4
TORSDOF 3
ENDMDL
MODEL 6
REMARK VINA RESULT:      -4.6      1.592      2.332
REMARK  3 active torsions:
REMARK  status: ('A' for Active; 'I' for Inactive)
REMARK    1  A    between atoms: C2_2  and  C11_11 
REMARK    2  A    between atoms: C3_3  and  C9_9 
REMARK    3  A    between atoms: C9_9  and  C11_11 
ROOT
HETATM    1  C1  UNL     1     -34.998  16.604  -1.444  1.00 20.00    -0.111 C 
HETATM    2  C2  UNL     1     -34.927  15.831  -2.359  1.00 20.00    -0.106 C 
HETATM    3  C10 UNL     1     -35.085  17.546  -0.329  1.00 20.00     0.112 C 
ENDROOT
BRANCH   2   4
HETATM    4  C11 UNL     1     -34.834  14.877  -3.465  1.00 20.00     0.114 C 
BRANCH   4   5
HETATM    5  C9  UNL     1     -36.004  15.052  -4.434  1.00 20.00     0.058 C 
HETATM    6  C7  UNL     1     -37.334  15.141  -3.682  1.00 20.00     0.021 C 
HETATM    7  C5  UNL     1     -38.518  15.438  -4.603  1.00 20.00     0.001 C 
HETATM    8  C4  UNL     1     -38.266  16.669  -5.467  1.00 20.00     0.000 C 
HETATM    9  C6  UNL     1     -36.975  16.533  -6.267  1.00 20.00     0.001 C 
HETATM   10  C8  UNL     1     -35.776  16.247  -5.363  1.00 20.00     0.021 C 
BRANCH   5  11
HETATM   11  C3  UNL     1     -35.961  13.758  -5.245  1.00 20.00     0.182 C 
HETATM   12  O12 UNL     1     -35.966  12.695  -4.564  1.00 20.00    -0.647 OA
HETATM   13  O13 UNL     1     -35.926  13.918  -6.497  1.00 20.00    -0.647 OA
ENDBRANCH   5  11
ENDBRANCH   4   5
ENDBRANCH   2   4
TORSDOF 3
ENDMDL
MODEL 7
REMARK VINA RESULT:      -4.5      1.532      4.016
REMARK  3 active torsions:
REMARK  status: ('A' for Active; 'I' for Inactive)
REMARK    1  A    between atoms: C2_2  and  C11_11 
REMARK    2  A    between atoms: C3_3  and  C9_9 
REMARK    3  A    between atoms: C9_9  and  C11_11 
ROOT
HETATM    1  C1  UNL     1     -38.075  17.662  -6.075  1.00 20.00    -0.111 C 
HETATM    2  C2  UNL     1     -37.424  16.660  -6.194  1.00 20.00    -0.106 C 
HETATM    3  C10 UNL     1     -38.867  18.882  -5.929  1.00 20.00     0.112 C 
ENDROOT
BRANCH   2   4
HETATM    4  C11 UNL     1     -36.620  15.445  -6.331  1.00 20.00     0.114 C 
BRANCH   4   5
HETATM    5  C9  UNL     1     -35.916  15.108  -5.017  1.00 20.00     0.058 C 
HETATM    6  C7  UNL     1     -34.414  14.906  -5.232  1.00 20.00     0.021 C 
HETATM    7  C5  UNL     1     -33.650  14.687  -3.925  1.00 20.00     0.001 C 
HETATM    8  C4  UNL     1     -33.940  15.788  -2.911  1.00 20.00     0.000 C 
HETATM    9  C6  UNL     1     -35.437  15.927  -2.651  1.00 20.00     0.001 C 
HETATM   10  C8  UNL     1     -36.217  16.158  -3.945  1.00 20.00     0.021 C 
BRANCH   5  11
HETATM   11  C3  UNL     1     -36.559  13.778  -4.625  1.00 20.00     0.182 C 
HETATM   12  O12 UNL     1     -35.798  12.773  -4.689  1.00 20.00    -0.647 OA
HETATM   13  O13 UNL     1     -37.773  13.855  -4.288  1.00 20.00    -0.647 OA
ENDBRANCH   5  11
ENDBRANCH   4   5
ENDBRANCH   2   4
TORSDOF 3
ENDMDL
MODEL 8
REMARK VINA RESULT:      -4.5      2.009      3.960
REMARK  3 active torsions:
REMARK  status: ('A' for Active; 'I' for Inactive)
REMARK    1  A    between atoms: C2_2  and  C11_11 
REMARK    2  A    between atoms: C3_3  and  C9_9 
REMARK    3  A    between atoms: C9_9  and  C11_11 
ROOT
HETATM    1  C1  UNL     1     -38.538  14.936  -4.151  1.00 20.00    -0.111 C 
HETATM    2  C2  UNL     1     -37.446  14.501  -4.396  1.00 20.00    -0.106 C 
HETATM    3  C10 UNL     1     -39.867  15.466  -3.853  1.00 20.00     0.112 C 
ENDROOT
BRANCH   2   4
HETATM    4  C11 UNL     1     -36.109  13.983  -4.690  1.00 20.00     0.114 C 
BRANCH   4   5
HETATM    5  C9  UNL     1     -35.049  15.066  -4.485  1.00 20.00     0.058 C 
HETATM    6  C7  UNL     1     -35.432  16.357  -5.212  1.00 20.00     0.021 C 
HETATM    7  C5  UNL     1     -34.461  17.506  -4.934  1.00 20.00     0.001 C 
HETATM    8  C4  UNL     1     -34.264  17.729  -3.439  1.00 20.00     0.000 C 
HETATM    9  C6  UNL     1     -33.810  16.452  -2.740  1.00 20.00     0.001 C 
HETATM   10  C8  UNL     1     -34.774  15.293  -2.996  1.00 20.00     0.021 C 
BRANCH   5  11
HETATM   11  C3  UNL     1     -33.815  14.455  -5.145  1.00 20.00     0.182 C 
HETATM   12  O12 UNL     1     -33.066  13.791  -4.376  1.00 20.00    -0.647 OA
HETATM   13  O13 UNL     1     -33.702  14.693  -6.380  1.00 20.00    -0.647 OA
ENDBRANCH   5  11
ENDBRANCH   4   5
ENDBRANCH   2   4
TORSDOF 3
ENDMDL
MODEL 9
REMARK VINA RESULT:      -4.4      2.677      5.211
REMARK  3 active torsions:
REMARK  status: ('A' for Active; 'I' for Inactive)
REMARK    1  A    between atoms: C2_2  and  C11_11 
REMARK    2  A    between atoms: C3_3  and  C9_9 
REMARK    3  A    between atoms: C9_9  and  C11_11 
ROOT
HETATM    1  C1  UNL     1     -35.109  14.411  -4.055  1.00 20.00    -0.111 C 
HETATM    2  C2  UNL     1     -34.269  15.170  -3.655  1.00 20.00    -0.106 C 
HETATM    3  C10 UNL     1     -36.131  13.486  -4.543  1.00 20.00     0.112 C 
ENDROOT
BRANCH   2   4
HETATM    4  C11 UNL     1     -33.255  16.099  -3.155  1.00 20.00     0.114 C 
BRANCH   4   5
HETATM    5  C9  UNL     1     -33.875  17.117  -2.198  1.00 20.00     0.058 C 
HETATM    6  C7  UNL     1     -35.001  16.487  -1.375  1.00 20.00     0.021 C 
HETATM    7  C5  UNL     1     -35.568  17.436  -0.319  1.00 20.00     0.001 C 
HETATM    8  C4  UNL     1     -34.470  18.018   0.565  1.00 20.00     0.000 C 
HETATM    9  C6  UNL     1     -33.393  18.708  -0.265  1.00 20.00     0.001 C 
HETATM   10  C8  UNL     1     -32.805  17.772  -1.320  1.00 20.00     0.021 C 
BRANCH   5  11
HETATM   11  C3  UNL     1     -34.460  18.157  -3.152  1.00 20.00     0.182 C 
HETATM   12  O12 UNL     1     -35.719  18.151  -3.248  1.00 20.00    -0.647 OA
HETATM   13  O13 UNL     1     -33.608  18.891  -3.724  1.00 20.00    -0.647 OA
ENDBRANCH   5  11
ENDBRANCH   4   5
ENDBRANCH   2   4
TORSDOF 3
ENDMDL
