MODEL 1
REMARK VINA RESULT:      -4.4      0.000      0.000
REMARK  4 active torsions:
REMARK  status: ('A' for Active; 'I' for Inactive)
REMARK    1  A    between atoms: C1_1  and  C9_9 
REMARK    2  A    between atoms: C4_4  and  C8_8 
REMARK    3  A    between atoms: C8_8  and  C9_9 
REMARK    4  A    between atoms: C9_9  and  C10_10 
ROOT
HETATM    1  C9  UNL     1     -35.076  14.633  -3.723  1.00 20.00     0.058 C 
ENDROOT
BRANCH   1   2
HETATM    2  C1  UNL     1     -36.211  13.795  -4.321  1.00 20.00     0.127 C 
HETATM    3  C5  UNL     1     -37.559  14.462  -4.437  1.00 20.00     0.091 C 
HETATM    4  O11 UNL     1     -36.044  12.640  -4.711  1.00 20.00    -0.298 OA
ENDBRANCH   1   2
BRANCH   1   5
HETATM    5  C8  UNL     1     -35.622  15.896  -3.034  1.00 20.00     0.017 C 
BRANCH   5   6
HETATM    6  C4  UNL     1     -34.879  16.170  -1.727  1.00 20.00    -0.014 A 
HETATM    7  C2  UNL     1     -34.001  17.384  -1.594  1.00 20.00     0.005 A 
HETATM    8  C3  UNL     1     -35.301  17.310  -0.842  1.00 20.00     0.005 A 
ENDBRANCH   5   6
ENDBRANCH   1   5
BRANCH   1   9
HETATM    9  C10 UNL     1     -34.014  14.916  -4.819  1.00 20.00    -0.012 C 
HETATM   10  C6  UNL     1     -32.571  14.815  -4.315  1.00 20.00     0.010 C 
HETATM   11  C7  UNL     1     -34.239  16.284  -5.472  1.00 20.00     0.010 C 
ENDBRANCH   1   9
TORSDOF 4
ENDMDL
MODEL 2
REMARK VINA RESULT:      -4.4      1.289      1.537
REMARK  4 active torsions:
REMARK  status: ('A' for Active; 'I' for Inactive)
REMARK    1  A    between atoms: C1_1  and  C9_9 
REMARK    2  A    between atoms: C4_4  and  C8_8 
REMARK    3  A    between atoms: C8_8  and  C9_9 
REMARK    4  A    between atoms: C9_9  and  C10_10 
ROOT
HETATM    1  C9  UNL     1     -35.030  14.768  -5.007  1.00 20.00     0.058 C 
ENDROOT
BRANCH   1   2
HETATM    2  C1  UNL     1     -36.091  13.747  -4.584  1.00 20.00     0.127 C 
HETATM    3  C5  UNL     1     -37.468  14.284  -4.284  1.00 20.00     0.091 C 
HETATM    4  O11 UNL     1     -35.854  12.542  -4.506  1.00 20.00    -0.298 OA
ENDBRANCH   1   2
BRANCH   1   5
HETATM    5  C8  UNL     1     -35.102  16.037  -4.138  1.00 20.00     0.017 C 
BRANCH   5   6
HETATM    6  C4  UNL     1     -34.433  15.811  -2.783  1.00 20.00    -0.014 A 
HETATM    7  C2  UNL     1     -33.552  16.873  -2.187  1.00 20.00     0.005 A 
HETATM    8  C3  UNL     1     -34.892  16.577  -1.575  1.00 20.00     0.005 A 
ENDBRANCH   5   6
ENDBRANCH   1   5
BRANCH   1   9
HETATM    9  C10 UNL     1     -35.152  15.035  -6.530  1.00 20.00    -0.012 C 
HETATM   10  C6  UNL     1     -33.805  15.056  -7.259  1.00 20.00     0.010 C 
HETATM   11  C7  UNL     1     -35.911  16.336  -6.809  1.00 20.00     0.010 C 
ENDBRANCH   1   9
TORSDOF 4
ENDMDL
MODEL 3
REMARK VINA RESULT:      -4.2      1.369      3.566
REMARK  4 active torsions:
REMARK  status: ('A' for Active; 'I' for Inactive)
REMARK    1  A    between atoms: C1_1  and  C9_9 
REMARK    2  A    between atoms: C4_4  and  C8_8 
REMARK    3  A    between atoms: C8_8  and  C9_9 
REMARK    4  A    between atoms: C9_9  and  C10_10 
ROOT
HETATM    1  C9  UNL     1     -35.219  15.109  -4.566  1.00 20.00     0.058 C 
ENDROOT
BRANCH   1   2
HETATM    2  C1  UNL     1     -36.244  13.976  -4.452  1.00 20.00     0.127 C 
HETATM    3  C5  UNL     1     -37.690  14.380  -4.308  1.00 20.00     0.091 C 
HETATM    4  O11 UNL     1     -35.923  12.789  -4.494  1.00 20.00    -0.298 OA
ENDBRANCH   1   2
BRANCH   1   5
HETATM    5  C8  UNL     1     -34.351  14.948  -5.827  1.00 20.00     0.017 C 
BRANCH   5   6
HETATM    6  C4  UNL     1     -34.645  16.055  -6.838  1.00 20.00    -0.014 A 
HETATM    7  C2  UNL     1     -35.671  15.843  -7.917  1.00 20.00     0.005 A 
HETATM    8  C3  UNL     1     -35.952  16.797  -6.790  1.00 20.00     0.005 A 
ENDBRANCH   5   6
ENDBRANCH   1   5
BRANCH   1   9
HETATM    9  C10 UNL     1     -34.408  15.203  -3.247  1.00 20.00    -0.012 C 
HETATM   10  C6  UNL     1     -35.120  15.993  -2.144  1.00 20.00     0.010 C 
HETATM   11  C7  UNL     1     -33.015  15.794  -3.489  1.00 20.00     0.010 C 
ENDBRANCH   1   9
TORSDOF 4
ENDMDL
MODEL 4
REMARK VINA RESULT:      -4.0      2.918      5.413
REMARK  4 active torsions:
REMARK  status: ('A' for Active; 'I' for Inactive)
REMARK    1  A    between atoms: C1_1  and  C9_9 
REMARK    2  A    between atoms: C4_4  and  C8_8 
REMARK    3  A    between atoms: C8_8  and  C9_9 
REMARK    4  A    between atoms: C9_9  and  C10_10 
ROOT
HETATM    1  C9  UNL     1     -33.302  17.514  -1.477  1.00 20.00     0.058 C 
ENDROOT
BRANCH   1   2
HETATM    2  C1  UNL     1     -32.096  18.460  -1.478  1.00 20.00     0.127 C 
HETATM    3  C5  UNL     1     -31.145  18.349  -0.313  1.00 20.00     0.091 C 
HETATM    4  O11 UNL     1     -31.888  19.262  -2.387  1.00 20.00    -0.298 OA
ENDBRANCH   1   2
BRANCH   1   5
HETATM    5  C8  UNL     1     -33.607  17.002  -2.896  1.00 20.00     0.017 C 
BRANCH   5   6
HETATM    6  C4  UNL     1     -34.085  15.550  -2.862  1.00 20.00    -0.014 A 
HETATM    7  C2  UNL     1     -35.384  15.165  -3.513  1.00 20.00     0.005 A 
HETATM    8  C3  UNL     1     -34.080  14.722  -4.116  1.00 20.00     0.005 A 
ENDBRANCH   5   6
ENDBRANCH   1   5
BRANCH   1   9
HETATM    9  C10 UNL     1     -34.502  18.213  -0.784  1.00 20.00    -0.012 C 
HETATM   10  C6  UNL     1     -35.314  17.282   0.122  1.00 20.00     0.010 C 
HETATM   11  C7  UNL     1     -35.428  18.876  -1.808  1.00 20.00     0.010 C 
ENDBRANCH   1   9
TORSDOF 4
ENDMDL
MODEL 5
REMARK VINA RESULT:      -4.0      1.434      3.833
REMARK  4 active torsions:
REMARK  status: ('A' for Active; 'I' for Inactive)
REMARK    1  A    between atoms: C1_1  and  C9_9 
REMARK    2  A    between atoms: C4_4  and  C8_8 
REMARK    3  A    between atoms: C8_8  and  C9_9 
REMARK    4  A    between atoms: C9_9  and  C10_10 
ROOT
HETATM    1  C9  UNL     1     -34.833  15.632  -3.969  1.00 20.00     0.058 C 
ENDROOT
BRANCH   1   2
HETATM    2  C1  UNL     1     -34.954  14.121  -4.195  1.00 20.00     0.127 C 
HETATM    3  C5  UNL     1     -36.330  13.590  -4.509  1.00 20.00     0.091 C 
HETATM    4  O11 UNL     1     -33.984  13.366  -4.147  1.00 20.00    -0.298 OA
ENDBRANCH   1   2
BRANCH   1   5
HETATM    5  C8  UNL     1     -34.058  16.305  -5.116  1.00 20.00     0.017 C 
BRANCH   5   6
HETATM    6  C4  UNL     1     -34.702  15.993  -6.466  1.00 20.00    -0.014 A 
HETATM    7  C2  UNL     1     -34.253  16.718  -7.705  1.00 20.00     0.005 A 
HETATM    8  C3  UNL     1     -33.925  15.262  -7.525  1.00 20.00     0.005 A 
ENDBRANCH   5   6
ENDBRANCH   1   5
BRANCH   1   9
HETATM    9  C10 UNL     1     -34.235  15.894  -2.561  1.00 20.00    -0.012 C 
HETATM   10  C6  UNL     1     -35.247  16.461  -1.561  1.00 20.00     0.010 C 
HETATM   11  C7  UNL     1     -33.011  16.813  -2.637  1.00 20.00     0.010 C 
ENDBRANCH   1   9
TORSDOF 4
ENDMDL
MODEL 6
REMARK VINA RESULT:      -3.9      1.614      3.296
REMARK  4 active torsions:
REMARK  status: ('A' for Active; 'I' for Inactive)
REMARK    1  A    between atoms: C1_1  and  C9_9 
REMARK    2  A    between atoms: C4_4  and  C8_8 
REMARK    3  A    between atoms: C8_8  and  C9_9 
REMARK    4  A    between atoms: C9_9  and  C10_10 
ROOT
HETATM    1  C9  UNL     1     -36.180  15.045  -3.771  1.00 20.00     0.058 C 
ENDROOT
BRANCH   1   2
HETATM    2  C1  UNL     1     -35.929  13.939  -4.802  1.00 20.00     0.127 C 
HETATM    3  C5  UNL     1     -35.806  14.368  -6.242  1.00 20.00     0.091 C 
HETATM    4  O11 UNL     1     -35.813  12.756  -4.485  1.00 20.00    -0.298 OA
ENDBRANCH   1   2
BRANCH   1   5
HETATM    5  C8  UNL     1     -36.633  16.348  -4.455  1.00 20.00     0.017 C 
BRANCH   5   6
HETATM    6  C4  UNL     1     -38.090  16.663  -4.119  1.00 20.00    -0.014 A 
HETATM    7  C2  UNL     1     -39.143  16.609  -5.190  1.00 20.00     0.005 A 
HETATM    8  C3  UNL     1     -39.118  15.567  -4.107  1.00 20.00     0.005 A 
ENDBRANCH   5   6
ENDBRANCH   1   5
BRANCH   1   9
HETATM    9  C10 UNL     1     -34.924  15.204  -2.873  1.00 20.00    -0.012 C 
HETATM   10  C6  UNL     1     -35.079  16.272  -1.786  1.00 20.00     0.010 C 
HETATM   11  C7  UNL     1     -33.674  15.495  -3.709  1.00 20.00     0.010 C 
ENDBRANCH   1   9
TORSDOF 4
ENDMDL
MODEL 7
REMARK VINA RESULT:      -3.8      1.463      2.114
REMARK  4 active torsions:
REMARK  status: ('A' for Active; 'I' for Inactive)
REMARK    1  A    between atoms: C1_1  and  C9_9 
REMARK    2  A    between atoms: C4_4  and  C8_8 
REMARK    3  A    between atoms: C8_8  and  C9_9 
REMARK    4  A    between atoms: C9_9  and  C10_10 
ROOT
HETATM    1  C9  UNL     1     -34.636  15.439  -4.215  1.00 20.00     0.058 C 
ENDROOT
BRANCH   1   2
HETATM    2  C1  UNL     1     -35.171  14.003  -4.201  1.00 20.00     0.127 C 
HETATM    3  C5  UNL     1     -36.622  13.816  -4.569  1.00 20.00     0.091 C 
HETATM    4  O11 UNL     1     -34.461  13.036  -3.925  1.00 20.00    -0.298 OA
ENDBRANCH   1   2
BRANCH   1   5
HETATM    5  C8  UNL     1     -34.400  15.957  -2.784  1.00 20.00     0.017 C 
BRANCH   5   6
HETATM    6  C4  UNL     1     -33.048  16.662  -2.675  1.00 20.00    -0.014 A 
HETATM    7  C2  UNL     1     -32.920  18.114  -3.047  1.00 20.00     0.005 A 
HETATM    8  C3  UNL     1     -32.818  17.694  -1.607  1.00 20.00     0.005 A 
ENDBRANCH   5   6
ENDBRANCH   1   5
BRANCH   1   9
HETATM    9  C10 UNL     1     -35.580  16.331  -5.064  1.00 20.00    -0.012 C 
HETATM   10  C6  UNL     1     -34.867  17.068  -6.202  1.00 20.00     0.010 C 
HETATM   11  C7  UNL     1     -36.333  17.338  -4.188  1.00 20.00     0.010 C 
ENDBRANCH   1   9
TORSDOF 4
ENDMDL
MODEL 8
REMARK VINA RESULT:      -3.7      1.594      2.878
REMARK  4 active torsions:
REMARK  status: ('A' for Active; 'I' for Inactive)
REMARK    1  A    between atoms: C1_1  and  C9_9 
REMARK    2  A    between atoms: C4_4  and  C8_8 
REMARK    3  A    between atoms: C8_8  and  C9_9 
REMARK    4  A    between atoms: C9_9  and  C10_10 
ROOT
HETATM    1  C9  UNL     1     -34.869  15.722  -4.333  1.00 20.00     0.058 C 
ENDROOT
BRANCH   1   2
HETATM    2  C1  UNL     1     -33.936  14.842  -5.172  1.00 20.00     0.127 C 
HETATM    3  C5  UNL     1     -33.959  15.059  -6.665  1.00 20.00     0.091 C 
HETATM    4  O11 UNL     1     -33.184  14.009  -4.668  1.00 20.00    -0.298 OA
ENDBRANCH   1   2
BRANCH   1   5
HETATM    5  C8  UNL     1     -34.637  15.499  -2.828  1.00 20.00     0.017 C 
BRANCH   5   6
HETATM    6  C4  UNL     1     -34.296  16.813  -2.126  1.00 20.00    -0.014 A 
HETATM    7  C2  UNL     1     -32.876  17.306  -2.091  1.00 20.00     0.005 A 
HETATM    8  C3  UNL     1     -33.900  18.019  -2.930  1.00 20.00     0.005 A 
ENDBRANCH   5   6
ENDBRANCH   1   5
BRANCH   1   9
HETATM    9  C10 UNL     1     -36.335  15.498  -4.789  1.00 20.00    -0.012 C 
HETATM   10  C6  UNL     1     -37.314  16.540  -4.240  1.00 20.00     0.010 C 
HETATM   11  C7  UNL     1     -36.821  14.090  -4.429  1.00 20.00     0.010 C 
ENDBRANCH   1   9
TORSDOF 4
ENDMDL
MODEL 9
REMARK VINA RESULT:      -3.6      1.600      2.116
REMARK  4 active torsions:
REMARK  status: ('A' for Active; 'I' for Inactive)
REMARK    1  A    between atoms: C1_1  and  C9_9 
REMARK    2  A    between atoms: C4_4  and  C8_8 
REMARK    3  A    between atoms: C8_8  and  C9_9 
REMARK    4  A    between atoms: C9_9  and  C10_10 
ROOT
HETATM    1  C9  UNL     1     -34.001  15.841  -3.143  1.00 20.00     0.058 C 
ENDROOT
BRANCH   1   2
HETATM    2  C1  UNL     1     -34.185  14.552  -3.951  1.00 20.00     0.127 C 
HETATM    3  C5  UNL     1     -35.591  14.020  -4.070  1.00 20.00     0.091 C 
HETATM    4  O11 UNL     1     -33.245  13.977  -4.499  1.00 20.00    -0.298 OA
ENDBRANCH   1   2
BRANCH   1   5
HETATM    5  C8  UNL     1     -35.152  16.037  -2.140  1.00 20.00     0.017 C 
BRANCH   5   6
HETATM    6  C4  UNL     1     -34.758  17.023  -1.041  1.00 20.00    -0.014 A 
HETATM    7  C2  UNL     1     -35.590  18.250  -0.790  1.00 20.00     0.005 A 
HETATM    8  C3  UNL     1     -35.582  17.129   0.212  1.00 20.00     0.005 A 
ENDBRANCH   5   6
ENDBRANCH   1   5
BRANCH   1   9
HETATM    9  C10 UNL     1     -33.797  17.033  -4.115  1.00 20.00    -0.012 C 
HETATM   10  C6  UNL     1     -32.906  18.142  -3.549  1.00 20.00     0.010 C 
HETATM   11  C7  UNL     1     -35.139  17.624  -4.560  1.00 20.00     0.010 C 
ENDBRANCH   1   9
TORSDOF 4
ENDMDL
