MODEL 1
REMARK VINA RESULT:      -3.9      0.000      0.000
REMARK  3 active torsions:
REMARK  status: ('A' for Active; 'I' for Inactive)
REMARK    1  A    between atoms: C4_4  and  C7_7 
REMARK    2  A    between atoms: C8_8  and  C9_9 
REMARK    3  A    between atoms: C9_9  and  N10_10 
ROOT
HETATM    1  C1  UNL     1     -35.023  16.505  -6.616  1.00 20.00     0.032 C 
HETATM    2  C2  UNL     1     -35.555  15.079  -6.535  1.00 20.00     0.038 C 
HETATM    3  C3  UNL     1     -34.371  16.764  -5.268  1.00 20.00     0.273 C 
HETATM    4  C4  UNL     1     -35.174  14.584  -5.139  1.00 20.00     0.237 C 
HETATM    5  N10 UNL     1     -35.063  15.833  -4.373  1.00 20.00     0.098 N 
ENDROOT
BRANCH   5   6
HETATM    6  C9  UNL     1     -34.351  15.675  -3.111  1.00 20.00     0.219 C 
HETATM    7  C6  UNL     1     -35.220  16.180  -1.963  1.00 20.00     0.043 C 
BRANCH   6   8
HETATM    8  C8  UNL     1     -33.002  16.405  -3.135  1.00 20.00     0.031 C 
HETATM    9  C5  UNL     1     -32.866  17.429  -2.015  1.00 20.00     0.007 C 
ENDBRANCH   6   8
ENDBRANCH   5   6
BRANCH   4  10
HETATM   10  C7  UNL     1     -36.213  13.621  -4.578  1.00 20.00     0.150 C 
HETATM   11 CL11 UNL     1     -37.741  14.471  -4.281  1.00 20.00    -0.128 Cl
ENDBRANCH   4  10
TORSDOF 3
ENDMDL
MODEL 2
REMARK VINA RESULT:      -3.5      1.793      2.788
REMARK  3 active torsions:
REMARK  status: ('A' for Active; 'I' for Inactive)
REMARK    1  A    between atoms: C4_4  and  C7_7 
REMARK    2  A    between atoms: C8_8  and  C9_9 
REMARK    3  A    between atoms: C9_9  and  N10_10 
ROOT
HETATM    1  C1  UNL     1     -36.140  13.586  -4.724  1.00 20.00     0.032 C 
HETATM    2  C2  UNL     1     -35.980  14.489  -5.942  1.00 20.00     0.038 C 
HETATM    3  C3  UNL     1     -35.652  14.413  -3.547  1.00 20.00     0.273 C 
HETATM    4  C4  UNL     1     -35.409  15.801  -5.399  1.00 20.00     0.237 C 
HETATM    5  N10 UNL     1     -34.734  15.373  -4.165  1.00 20.00     0.098 N 
ENDROOT
BRANCH   5   6
HETATM    6  C9  UNL     1     -34.427  16.477  -3.263  1.00 20.00     0.219 C 
HETATM    7  C6  UNL     1     -32.918  16.567  -3.058  1.00 20.00     0.043 C 
BRANCH   6   8
HETATM    8  C8  UNL     1     -35.152  16.320  -1.921  1.00 20.00     0.031 C 
HETATM    9  C5  UNL     1     -34.703  17.344  -0.886  1.00 20.00     0.007 C 
ENDBRANCH   6   8
ENDBRANCH   5   6
BRANCH   4  10
HETATM   10  C7  UNL     1     -34.474  16.467  -6.400  1.00 20.00     0.150 C 
HETATM   11 CL11 UNL     1     -33.777  15.254  -7.491  1.00 20.00    -0.128 Cl
ENDBRANCH   4  10
TORSDOF 3
ENDMDL
MODEL 3
REMARK VINA RESULT:      -3.5      1.984      2.713
REMARK  3 active torsions:
REMARK  status: ('A' for Active; 'I' for Inactive)
REMARK    1  A    between atoms: C4_4  and  C7_7 
REMARK    2  A    between atoms: C8_8  and  C9_9 
REMARK    3  A    between atoms: C9_9  and  N10_10 
ROOT
HETATM    1  C1  UNL     1     -36.026  13.492  -4.541  1.00 20.00     0.032 C 
HETATM    2  C2  UNL     1     -37.241  14.409  -4.464  1.00 20.00     0.038 C 
HETATM    3  C3  UNL     1     -34.906  14.255  -3.854  1.00 20.00     0.273 C 
HETATM    4  C4  UNL     1     -36.758  15.658  -3.725  1.00 20.00     0.237 C 
HETATM    5  N10 UNL     1     -35.313  15.655  -3.996  1.00 20.00     0.098 N 
ENDROOT
BRANCH   5   6
HETATM    6  C9  UNL     1     -34.556  16.525  -3.105  1.00 20.00     0.219 C 
HETATM    7  C6  UNL     1     -33.063  16.277  -3.291  1.00 20.00     0.043 C 
BRANCH   6   8
HETATM    8  C8  UNL     1     -34.966  16.319  -1.642  1.00 20.00     0.031 C 
HETATM    9  C5  UNL     1     -34.694  17.543  -0.776  1.00 20.00     0.007 C 
ENDBRANCH   6   8
ENDBRANCH   5   6
BRANCH   4  10
HETATM   10  C7  UNL     1     -37.463  16.915  -4.218  1.00 20.00     0.150 C 
HETATM   11 CL11 UNL     1     -38.018  17.888  -2.842  1.00 20.00    -0.128 Cl
ENDBRANCH   4  10
TORSDOF 3
ENDMDL
MODEL 4
REMARK VINA RESULT:      -3.5      1.373      3.479
REMARK  3 active torsions:
REMARK  status: ('A' for Active; 'I' for Inactive)
REMARK    1  A    between atoms: C4_4  and  C7_7 
REMARK    2  A    between atoms: C8_8  and  C9_9 
REMARK    3  A    between atoms: C9_9  and  N10_10 
ROOT
HETATM    1  C1  UNL     1     -33.712  16.301  -2.568  1.00 20.00     0.032 C 
HETATM    2  C2  UNL     1     -35.157  15.842  -2.411  1.00 20.00     0.038 C 
HETATM    3  C3  UNL     1     -33.552  16.617  -4.045  1.00 20.00     0.273 C 
HETATM    4  C4  UNL     1     -35.761  15.924  -3.814  1.00 20.00     0.237 C 
HETATM    5  N10 UNL     1     -34.582  15.792  -4.681  1.00 20.00     0.098 N 
ENDROOT
BRANCH   5   6
HETATM    6  C9  UNL     1     -34.827  16.209  -6.057  1.00 20.00     0.219 C 
HETATM    7  C6  UNL     1     -34.095  15.276  -7.015  1.00 20.00     0.043 C 
BRANCH   6   8
HETATM    8  C8  UNL     1     -34.403  17.666  -6.283  1.00 20.00     0.031 C 
HETATM    9  C5  UNL     1     -33.988  17.941  -7.723  1.00 20.00     0.007 C 
ENDBRANCH   6   8
ENDBRANCH   5   6
BRANCH   4  10
HETATM   10  C7  UNL     1     -36.805  14.839  -4.044  1.00 20.00     0.150 C 
HETATM   11 CL11 UNL     1     -36.015  13.301  -4.440  1.00 20.00    -0.128 Cl
ENDBRANCH   4  10
TORSDOF 3
ENDMDL
MODEL 5
REMARK VINA RESULT:      -3.5      1.929      2.784
REMARK  3 active torsions:
REMARK  status: ('A' for Active; 'I' for Inactive)
REMARK    1  A    between atoms: C4_4  and  C7_7 
REMARK    2  A    between atoms: C8_8  and  C9_9 
REMARK    3  A    between atoms: C9_9  and  N10_10 
ROOT
HETATM    1  C1  UNL     1     -37.277  14.826  -4.565  1.00 20.00     0.032 C 
HETATM    2  C2  UNL     1     -37.084  15.869  -5.660  1.00 20.00     0.038 C 
HETATM    3  C3  UNL     1     -35.961  14.796  -3.807  1.00 20.00     0.273 C 
HETATM    4  C4  UNL     1     -35.660  16.394  -5.470  1.00 20.00     0.237 C 
HETATM    5  N10 UNL     1     -34.990  15.274  -4.794  1.00 20.00     0.098 N 
ENDROOT
BRANCH   5   6
HETATM    6  C9  UNL     1     -33.730  15.650  -4.165  1.00 20.00     0.219 C 
HETATM    7  C6  UNL     1     -32.725  14.511  -4.309  1.00 20.00     0.043 C 
BRANCH   6   8
HETATM    8  C8  UNL     1     -33.929  16.019  -2.690  1.00 20.00     0.031 C 
HETATM    9  C5  UNL     1     -33.037  17.172  -2.246  1.00 20.00     0.007 C 
ENDBRANCH   6   8
ENDBRANCH   5   6
BRANCH   4  10
HETATM   10  C7  UNL     1     -35.015  16.771  -6.798  1.00 20.00     0.150 C 
HETATM   11 CL11 UNL     1     -34.373  15.324  -7.601  1.00 20.00    -0.128 Cl
ENDBRANCH   4  10
TORSDOF 3
ENDMDL
MODEL 6
REMARK VINA RESULT:      -3.4      1.027      1.332
REMARK  3 active torsions:
REMARK  status: ('A' for Active; 'I' for Inactive)
REMARK    1  A    between atoms: C4_4  and  C7_7 
REMARK    2  A    between atoms: C8_8  and  C9_9 
REMARK    3  A    between atoms: C9_9  and  N10_10 
ROOT
HETATM    1  C1  UNL     1     -35.932  17.173  -6.166  1.00 20.00     0.032 C 
HETATM    2  C2  UNL     1     -36.523  15.774  -6.304  1.00 20.00     0.038 C 
HETATM    3  C3  UNL     1     -35.030  17.106  -4.946  1.00 20.00     0.273 C 
HETATM    4  C4  UNL     1     -35.921  14.966  -5.153  1.00 20.00     0.237 C 
HETATM    5  N10 UNL     1     -35.598  16.005  -4.164  1.00 20.00     0.098 N 
ENDROOT
BRANCH   5   6
HETATM    6  C9  UNL     1     -34.676  15.551  -3.130  1.00 20.00     0.219 C 
HETATM    7  C6  UNL     1     -35.000  16.248  -1.812  1.00 20.00     0.043 C 
BRANCH   6   8
HETATM    8  C8  UNL     1     -33.218  15.799  -3.534  1.00 20.00     0.031 C 
HETATM    9  C5  UNL     1     -32.590  14.600  -4.234  1.00 20.00     0.007 C 
ENDBRANCH   6   8
ENDBRANCH   5   6
BRANCH   4  10
HETATM   10  C7  UNL     1     -36.892  13.915  -4.631  1.00 20.00     0.150 C 
HETATM   11 CL11 UNL     1     -38.442  14.669  -4.209  1.00 20.00    -0.128 Cl
ENDBRANCH   4  10
TORSDOF 3
ENDMDL
MODEL 7
REMARK VINA RESULT:      -3.4      3.128      5.071
REMARK  3 active torsions:
REMARK  status: ('A' for Active; 'I' for Inactive)
REMARK    1  A    between atoms: C4_4  and  C7_7 
REMARK    2  A    between atoms: C8_8  and  C9_9 
REMARK    3  A    between atoms: C9_9  and  N10_10 
ROOT
HETATM    1  C1  UNL     1     -35.606  17.359  -0.630  1.00 20.00     0.032 C 
HETATM    2  C2  UNL     1     -34.215  17.840  -0.233  1.00 20.00     0.038 C 
HETATM    3  C3  UNL     1     -35.464  16.867  -2.061  1.00 20.00     0.273 C 
HETATM    4  C4  UNL     1     -33.337  17.593  -1.461  1.00 20.00     0.237 C 
HETATM    5  N10 UNL     1     -34.309  17.614  -2.563  1.00 20.00     0.098 N 
ENDROOT
BRANCH   5   6
HETATM    6  C9  UNL     1     -33.794  17.037  -3.799  1.00 20.00     0.219 C 
HETATM    7  C6  UNL     1     -34.933  16.863  -4.798  1.00 20.00     0.043 C 
BRANCH   6   8
HETATM    8  C8  UNL     1     -33.088  15.701  -3.539  1.00 20.00     0.031 C 
HETATM    9  C5  UNL     1     -33.666  14.559  -4.365  1.00 20.00     0.007 C 
ENDBRANCH   6   8
ENDBRANCH   5   6
BRANCH   4  10
HETATM   10  C7  UNL     1     -32.245  18.647  -1.597  1.00 20.00     0.150 C 
HETATM   11 CL11 UNL     1     -30.981  18.381  -0.382  1.00 20.00    -0.128 Cl
ENDBRANCH   4  10
TORSDOF 3
ENDMDL
MODEL 8
REMARK VINA RESULT:      -3.4      1.918      2.350
REMARK  3 active torsions:
REMARK  status: ('A' for Active; 'I' for Inactive)
REMARK    1  A    between atoms: C4_4  and  C7_7 
REMARK    2  A    between atoms: C8_8  and  C9_9 
REMARK    3  A    between atoms: C9_9  and  N10_10 
ROOT
HETATM    1  C1  UNL     1     -33.006  14.793  -4.169  1.00 20.00     0.032 C 
HETATM    2  C2  UNL     1     -34.338  14.052  -4.214  1.00 20.00     0.038 C 
HETATM    3  C3  UNL     1     -33.287  16.071  -3.398  1.00 20.00     0.273 C 
HETATM    4  C4  UNL     1     -35.322  14.946  -3.456  1.00 20.00     0.237 C 
HETATM    5  N10 UNL     1     -34.722  16.280  -3.599  1.00 20.00     0.098 N 
ENDROOT
BRANCH   5   6
HETATM    6  C9  UNL     1     -35.258  17.257  -2.659  1.00 20.00     0.219 C 
HETATM    7  C6  UNL     1     -34.537  18.589  -2.836  1.00 20.00     0.043 C 
BRANCH   6   8
HETATM    8  C8  UNL     1     -35.141  16.762  -1.212  1.00 20.00     0.031 C 
HETATM    9  C5  UNL     1     -34.486  17.784  -0.291  1.00 20.00     0.007 C 
ENDBRANCH   6   8
ENDBRANCH   5   6
BRANCH   4  10
HETATM   10  C7  UNL     1     -36.730  14.850  -4.030  1.00 20.00     0.150 C 
HETATM   11 CL11 UNL     1     -36.798  15.634  -5.620  1.00 20.00    -0.128 Cl
ENDBRANCH   4  10
TORSDOF 3
ENDMDL
MODEL 9
REMARK VINA RESULT:      -3.4      2.208      3.047
REMARK  3 active torsions:
REMARK  status: ('A' for Active; 'I' for Inactive)
REMARK    1  A    between atoms: C4_4  and  C7_7 
REMARK    2  A    between atoms: C8_8  and  C9_9 
REMARK    3  A    between atoms: C9_9  and  N10_10 
ROOT
HETATM    1  C1  UNL     1     -37.439  14.488  -4.382  1.00 20.00     0.032 C 
HETATM    2  C2  UNL     1     -37.652  15.986  -4.573  1.00 20.00     0.038 C 
HETATM    3  C3  UNL     1     -35.970  14.337  -4.025  1.00 20.00     0.273 C 
HETATM    4  C4  UNL     1     -36.287  16.624  -4.308  1.00 20.00     0.237 C 
HETATM    5  N10 UNL     1     -35.355  15.530  -4.611  1.00 20.00     0.098 N 
ENDROOT
BRANCH   5   6
HETATM    6  C9  UNL     1     -34.013  15.752  -4.086  1.00 20.00     0.219 C 
HETATM    7  C6  UNL     1     -33.127  14.555  -4.415  1.00 20.00     0.043 C 
BRANCH   6   8
HETATM    8  C8  UNL     1     -34.040  16.011  -2.575  1.00 20.00     0.031 C 
HETATM    9  C5  UNL     1     -33.166  17.190  -2.164  1.00 20.00     0.007 C 
ENDBRANCH   6   8
ENDBRANCH   5   6
BRANCH   4  10
HETATM   10  C7  UNL     1     -36.066  17.863  -5.168  1.00 20.00     0.150 C 
HETATM   11 CL11 UNL     1     -35.411  19.184  -4.182  1.00 20.00    -0.128 Cl
ENDBRANCH   4  10
TORSDOF 3
ENDMDL
