MODEL 1
REMARK VINA RESULT:      -4.3      0.000      0.000
REMARK  4 active torsions:
REMARK  status: ('A' for Active; 'I' for Inactive)
REMARK    1  A    between atoms: C4_4  and  C5_5 
REMARK    2  A    between atoms: C5_5  and  C6_6 
REMARK    3  A    between atoms: C6_6  and  C7_7 
REMARK    4  A    between atoms: C7_7  and  O9_9 
ROOT
HETATM    1  C1  UNL     1     -37.070  14.036  -4.548  1.00 20.00     0.066 C 
HETATM    2  C6  UNL     1     -35.661  13.924  -4.983  1.00 20.00     0.121 C 
HETATM    3  N8  UNL     1     -38.176  14.123  -4.208  1.00 20.00    -0.197 NA
ENDROOT
BRANCH   2   4
HETATM    4  C5  UNL     1     -34.712  14.322  -3.832  1.00 20.00     0.021 C 
BRANCH   4   5
HETATM    5  C4  UNL     1     -35.213  15.537  -3.041  1.00 20.00    -0.003 C 
HETATM    6  C2  UNL     1     -34.063  16.276  -2.375  1.00 20.00     0.005 C 
ENDBRANCH   4   5
ENDBRANCH   2   4
BRANCH   2   7
HETATM    7  C7  UNL     1     -35.388  14.787  -6.235  1.00 20.00     0.131 C 
HETATM    8  C3  UNL     1     -33.903  14.997  -6.518  1.00 20.00     0.040 C 
BRANCH   7   9
HETATM    9  O9  UNL     1     -36.008  14.198  -7.376  1.00 20.00    -0.395 OA
HETATM   10  H22 UNL     1     -36.002  13.240  -7.228  1.00 20.00     0.210 HD
ENDBRANCH   7   9
ENDBRANCH   2   7
TORSDOF 4
ENDMDL
MODEL 2
REMARK VINA RESULT:      -4.3      1.437      1.639
REMARK  4 active torsions:
REMARK  status: ('A' for Active; 'I' for Inactive)
REMARK    1  A    between atoms: C4_4  and  C5_5 
REMARK    2  A    between atoms: C5_5  and  C6_6 
REMARK    3  A    between atoms: C6_6  and  C7_7 
REMARK    4  A    between atoms: C7_7  and  O9_9 
ROOT
HETATM    1  C1  UNL     1     -36.499  14.163  -4.380  1.00 20.00     0.066 C 
HETATM    2  C6  UNL     1     -35.133  14.717  -4.274  1.00 20.00     0.121 C 
HETATM    3  N8  UNL     1     -37.571  13.726  -4.463  1.00 20.00    -0.197 NA
ENDROOT
BRANCH   2   4
HETATM    4  C5  UNL     1     -35.158  16.062  -3.516  1.00 20.00     0.021 C 
BRANCH   4   5
HETATM    5  C4  UNL     1     -34.180  16.099  -2.336  1.00 20.00    -0.003 C 
HETATM    6  C2  UNL     1     -32.996  17.008  -2.625  1.00 20.00     0.005 C 
ENDBRANCH   4   5
ENDBRANCH   2   4
BRANCH   2   7
HETATM    7  C7  UNL     1     -34.486  14.892  -5.668  1.00 20.00     0.131 C 
HETATM    8  C3  UNL     1     -34.559  16.320  -6.198  1.00 20.00     0.040 C 
BRANCH   7   9
HETATM    9  O9  UNL     1     -33.125  14.470  -5.628  1.00 20.00    -0.395 OA
HETATM   10  H22 UNL     1     -32.661  14.976  -6.314  1.00 20.00     0.210 HD
ENDBRANCH   7   9
ENDBRANCH   2   7
TORSDOF 4
ENDMDL
MODEL 3
REMARK VINA RESULT:      -4.1      2.272      2.753
REMARK  4 active torsions:
REMARK  status: ('A' for Active; 'I' for Inactive)
REMARK    1  A    between atoms: C4_4  and  C5_5 
REMARK    2  A    between atoms: C5_5  and  C6_6 
REMARK    3  A    between atoms: C6_6  and  C7_7 
REMARK    4  A    between atoms: C7_7  and  O9_9 
ROOT
HETATM    1  C1  UNL     1     -35.728  13.814  -4.250  1.00 20.00     0.066 C 
HETATM    2  C6  UNL     1     -35.631  15.267  -3.994  1.00 20.00     0.121 C 
HETATM    3  N8  UNL     1     -35.804  12.674  -4.452  1.00 20.00    -0.197 NA
ENDROOT
BRANCH   2   4
HETATM    4  C5  UNL     1     -34.731  15.537  -2.769  1.00 20.00     0.021 C 
BRANCH   4   5
HETATM    5  C4  UNL     1     -33.354  16.093  -3.153  1.00 20.00    -0.003 C 
HETATM    6  C2  UNL     1     -32.965  17.267  -2.269  1.00 20.00     0.005 C 
ENDBRANCH   4   5
ENDBRANCH   2   4
BRANCH   2   7
HETATM    7  C7  UNL     1     -37.028  15.897  -3.790  1.00 20.00     0.131 C 
HETATM    8  C3  UNL     1     -37.472  16.782  -4.951  1.00 20.00     0.040 C 
BRANCH   7   9
HETATM    9  O9  UNL     1     -37.997  14.873  -3.579  1.00 20.00    -0.395 OA
HETATM   10  H22 UNL     1     -38.495  15.126  -2.786  1.00 20.00     0.210 HD
ENDBRANCH   7   9
ENDBRANCH   2   7
TORSDOF 4
ENDMDL
MODEL 4
REMARK VINA RESULT:      -4.1     11.790     12.624
REMARK  4 active torsions:
REMARK  status: ('A' for Active; 'I' for Inactive)
REMARK    1  A    between atoms: C4_4  and  C5_5 
REMARK    2  A    between atoms: C5_5  and  C6_6 
REMARK    3  A    between atoms: C6_6  and  C7_7 
REMARK    4  A    between atoms: C7_7  and  O9_9 
ROOT
HETATM    1  C1  UNL     1     -33.433   4.824   2.636  1.00 20.00     0.066 C 
HETATM    2  C6  UNL     1     -34.000   5.897   3.480  1.00 20.00     0.121 C 
HETATM    3  N8  UNL     1     -32.989   3.981   1.973  1.00 20.00    -0.197 NA
ENDROOT
BRANCH   2   4
HETATM    4  C5  UNL     1     -33.026   7.093   3.551  1.00 20.00     0.021 C 
BRANCH   4   5
HETATM    5  C4  UNL     1     -32.183   7.252   2.281  1.00 20.00    -0.003 C 
HETATM    6  C2  UNL     1     -32.820   8.236   1.313  1.00 20.00     0.005 C 
ENDBRANCH   4   5
ENDBRANCH   2   4
BRANCH   2   7
HETATM    7  C7  UNL     1     -34.331   5.382   4.899  1.00 20.00     0.131 C 
HETATM    8  C3  UNL     1     -34.282   6.468   5.968  1.00 20.00     0.040 C 
BRANCH   7   9
HETATM    9  O9  UNL     1     -35.620   4.771   4.905  1.00 20.00    -0.395 OA
HETATM   10  H22 UNL     1     -36.265   5.491   4.975  1.00 20.00     0.210 HD
ENDBRANCH   7   9
ENDBRANCH   2   7
TORSDOF 4
ENDMDL
MODEL 5
REMARK VINA RESULT:      -4.1      2.151      2.946
REMARK  4 active torsions:
REMARK  status: ('A' for Active; 'I' for Inactive)
REMARK    1  A    between atoms: C4_4  and  C5_5 
REMARK    2  A    between atoms: C5_5  and  C6_6 
REMARK    3  A    between atoms: C6_6  and  C7_7 
REMARK    4  A    between atoms: C7_7  and  O9_9 
ROOT
HETATM    1  C1  UNL     1     -34.453  14.919  -5.427  1.00 20.00     0.066 C 
HETATM    2  C6  UNL     1     -35.291  15.230  -4.250  1.00 20.00     0.121 C 
HETATM    3  N8  UNL     1     -33.796  14.676  -6.352  1.00 20.00    -0.197 NA
ENDROOT
BRANCH   2   4
HETATM    4  C5  UNL     1     -34.409  15.400  -2.994  1.00 20.00     0.021 C 
BRANCH   4   5
HETATM    5  C4  UNL     1     -33.197  16.308  -3.236  1.00 20.00    -0.003 C 
HETATM    6  C2  UNL     1     -33.025  17.313  -2.108  1.00 20.00     0.005 C 
ENDBRANCH   4   5
ENDBRANCH   2   4
BRANCH   2   7
HETATM    7  C7  UNL     1     -36.362  14.140  -4.017  1.00 20.00     0.131 C 
HETATM    8  C3  UNL     1     -37.761  14.557  -4.460  1.00 20.00     0.040 C 
BRANCH   7   9
HETATM    9  O9  UNL     1     -35.990  12.941  -4.694  1.00 20.00    -0.395 OA
HETATM   10  H22 UNL     1     -36.257  13.054  -5.619  1.00 20.00     0.210 HD
ENDBRANCH   7   9
ENDBRANCH   2   7
TORSDOF 4
ENDMDL
MODEL 6
REMARK VINA RESULT:      -4.0     17.740     19.279
REMARK  4 active torsions:
REMARK  status: ('A' for Active; 'I' for Inactive)
REMARK    1  A    between atoms: C4_4  and  C5_5 
REMARK    2  A    between atoms: C5_5  and  C6_6 
REMARK    3  A    between atoms: C6_6  and  C7_7 
REMARK    4  A    between atoms: C7_7  and  O9_9 
ROOT
HETATM    1  C1  UNL     1     -22.612  16.997   9.006  1.00 20.00     0.066 C 
HETATM    2  C6  UNL     1     -23.886  17.352   9.666  1.00 20.00     0.121 C 
HETATM    3  N8  UNL     1     -21.613  16.717   8.486  1.00 20.00    -0.197 NA
ENDROOT
BRANCH   2   4
HETATM    4  C5  UNL     1     -24.240  18.829   9.390  1.00 20.00     0.021 C 
BRANCH   4   5
HETATM    5  C4  UNL     1     -25.338  18.990   8.332  1.00 20.00    -0.003 C 
HETATM    6  C2  UNL     1     -24.747  19.261   6.958  1.00 20.00     0.005 C 
ENDBRANCH   4   5
ENDBRANCH   2   4
BRANCH   2   7
HETATM    7  C7  UNL     1     -23.824  17.084  11.188  1.00 20.00     0.131 C 
HETATM    8  C3  UNL     1     -24.607  15.848  11.620  1.00 20.00     0.040 C 
BRANCH   7   9
HETATM    9  O9  UNL     1     -22.467  16.954  11.604  1.00 20.00    -0.395 OA
HETATM   10  H22 UNL     1     -22.435  17.241  12.530  1.00 20.00     0.210 HD
ENDBRANCH   7   9
ENDBRANCH   2   7
TORSDOF 4
ENDMDL
MODEL 7
REMARK VINA RESULT:      -4.0     19.108     19.478
REMARK  4 active torsions:
REMARK  status: ('A' for Active; 'I' for Inactive)
REMARK    1  A    between atoms: C4_4  and  C5_5 
REMARK    2  A    between atoms: C5_5  and  C6_6 
REMARK    3  A    between atoms: C6_6  and  C7_7 
REMARK    4  A    between atoms: C7_7  and  O9_9 
ROOT
HETATM    1  C1  UNL     1     -24.303  16.522  11.364  1.00 20.00     0.066 C 
HETATM    2  C6  UNL     1     -23.915  17.795  10.720  1.00 20.00     0.121 C 
HETATM    3  N8  UNL     1     -24.607  15.523  11.870  1.00 20.00    -0.197 NA
ENDROOT
BRANCH   2   4
HETATM    4  C5  UNL     1     -25.162  18.668  10.464  1.00 20.00     0.021 C 
BRANCH   4   5
HETATM    5  C4  UNL     1     -25.874  19.083  11.756  1.00 20.00    -0.003 C 
HETATM    6  C2  UNL     1     -27.334  18.658  11.745  1.00 20.00     0.005 C 
ENDBRANCH   4   5
ENDBRANCH   2   4
BRANCH   2   7
HETATM    7  C7  UNL     1     -23.146  17.547   9.401  1.00 20.00     0.131 C 
HETATM    8  C3  UNL     1     -21.936  18.458   9.221  1.00 20.00     0.040 C 
BRANCH   7   9
HETATM    9  O9  UNL     1     -22.727  16.186   9.332  1.00 20.00    -0.395 OA
HETATM   10  H22 UNL     1     -21.822  16.159   9.680  1.00 20.00     0.210 HD
ENDBRANCH   7   9
ENDBRANCH   2   7
TORSDOF 4
ENDMDL
MODEL 8
REMARK VINA RESULT:      -4.0      1.275      1.391
REMARK  4 active torsions:
REMARK  status: ('A' for Active; 'I' for Inactive)
REMARK    1  A    between atoms: C4_4  and  C5_5 
REMARK    2  A    between atoms: C5_5  and  C6_6 
REMARK    3  A    between atoms: C6_6  and  C7_7 
REMARK    4  A    between atoms: C7_7  and  O9_9 
ROOT
HETATM    1  C1  UNL     1     -35.428  13.560  -4.591  1.00 20.00     0.066 C 
HETATM    2  C6  UNL     1     -34.752  14.792  -5.049  1.00 20.00     0.121 C 
HETATM    3  N8  UNL     1     -35.957  12.591  -4.232  1.00 20.00    -0.197 NA
ENDROOT
BRANCH   2   4
HETATM    4  C5  UNL     1     -35.159  15.988  -4.162  1.00 20.00     0.021 C 
BRANCH   4   5
HETATM    5  C4  UNL     1     -34.624  15.877  -2.730  1.00 20.00    -0.003 C 
HETATM    6  C2  UNL     1     -33.330  16.657  -2.561  1.00 20.00     0.005 C 
ENDBRANCH   4   5
ENDBRANCH   2   4
BRANCH   2   7
HETATM    7  C7  UNL     1     -35.065  15.087  -6.534  1.00 20.00     0.131 C 
HETATM    8  C3  UNL     1     -33.818  15.258  -7.397  1.00 20.00     0.040 C 
BRANCH   7   9
HETATM    9  O9  UNL     1     -35.874  14.046  -7.076  1.00 20.00    -0.395 OA
HETATM   10  H22 UNL     1     -35.770  14.090  -8.039  1.00 20.00     0.210 HD
ENDBRANCH   7   9
ENDBRANCH   2   7
TORSDOF 4
ENDMDL
MODEL 9
REMARK VINA RESULT:      -3.9      1.820      2.125
REMARK  4 active torsions:
REMARK  status: ('A' for Active; 'I' for Inactive)
REMARK    1  A    between atoms: C4_4  and  C5_5 
REMARK    2  A    between atoms: C5_5  and  C6_6 
REMARK    3  A    between atoms: C6_6  and  C7_7 
REMARK    4  A    between atoms: C7_7  and  O9_9 
ROOT
HETATM    1  C1  UNL     1     -36.690  16.212  -3.998  1.00 20.00     0.066 C 
HETATM    2  C6  UNL     1     -36.125  14.879  -3.695  1.00 20.00     0.121 C 
HETATM    3  N8  UNL     1     -37.135  17.257  -4.235  1.00 20.00    -0.197 NA
ENDROOT
BRANCH   2   4
HETATM    4  C5  UNL     1     -34.623  14.998  -3.360  1.00 20.00     0.021 C 
BRANCH   4   5
HETATM    5  C4  UNL     1     -34.329  16.083  -2.317  1.00 20.00    -0.003 C 
HETATM    6  C2  UNL     1     -33.089  16.883  -2.684  1.00 20.00     0.005 C 
ENDBRANCH   4   5
ENDBRANCH   2   4
BRANCH   2   7
HETATM    7  C7  UNL     1     -36.344  13.896  -4.867  1.00 20.00     0.131 C 
HETATM    8  C3  UNL     1     -35.720  14.363  -6.179  1.00 20.00     0.040 C 
BRANCH   7   9
HETATM    9  O9  UNL     1     -35.824  12.612  -4.528  1.00 20.00    -0.395 OA
HETATM   10  H22 UNL     1     -34.858  12.702  -4.512  1.00 20.00     0.210 HD
ENDBRANCH   7   9
ENDBRANCH   2   7
TORSDOF 4
ENDMDL
