MODEL 1
REMARK VINA RESULT:      -4.8      0.000      0.000
REMARK  4 active torsions:
REMARK  status: ('A' for Active; 'I' for Inactive)
REMARK    1  A    between atoms: C1_1  and  C8_8 
REMARK    2  A    between atoms: C1_1  and  C10_10 
REMARK    3  A    between atoms: C5_5  and  C9_9 
REMARK    4  A    between atoms: C9_9  and  C10_10 
ROOT
HETATM    1  C7  UNL     1     -33.237   4.990   2.431  1.00 20.00     0.018 C 
HETATM    2  C10 UNL     1     -33.350   6.451   2.862  1.00 20.00     0.051 C 
ENDROOT
BRANCH   2   3
HETATM    3  C1  UNL     1     -33.828   6.493   4.313  1.00 20.00     0.130 C 
HETATM    4  O11 UNL     1     -33.342   7.274   5.131  1.00 20.00    -0.298 OA
BRANCH   3   5
HETATM    5  C8  UNL     1     -34.957   5.541   4.673  1.00 20.00     0.074 C 
HETATM    6  C6  UNL     1     -34.853   5.022   6.097  1.00 20.00     0.013 C 
ENDBRANCH   3   5
ENDBRANCH   2   3
BRANCH   2   7
HETATM    7  C9  UNL     1     -32.009   7.176   2.682  1.00 20.00     0.016 C 
BRANCH   7   8
HETATM    8  C5  UNL     1     -32.080   8.177   1.548  1.00 20.00    -0.014 C 
HETATM    9  C3  UNL     1     -33.330   9.095   1.506  1.00 20.00     0.005 C 
HETATM   10  C2  UNL     1     -33.275   8.975  -0.031  1.00 20.00     0.001 C 
HETATM   11  C4  UNL     1     -32.541   7.634   0.170  1.00 20.00     0.005 C 
ENDBRANCH   7   8
ENDBRANCH   2   7
TORSDOF 4
ENDMDL
MODEL 2
REMARK VINA RESULT:      -4.7     10.541     11.401
REMARK  4 active torsions:
REMARK  status: ('A' for Active; 'I' for Inactive)
REMARK    1  A    between atoms: C1_1  and  C8_8 
REMARK    2  A    between atoms: C1_1  and  C10_10 
REMARK    3  A    between atoms: C5_5  and  C9_9 
REMARK    4  A    between atoms: C9_9  and  C10_10 
ROOT
HETATM    1  C7  UNL     1     -34.665  14.858  -6.345  1.00 20.00     0.018 C 
HETATM    2  C10 UNL     1     -35.074  14.951  -4.877  1.00 20.00     0.051 C 
ENDROOT
BRANCH   2   3
HETATM    3  C1  UNL     1     -36.156  13.906  -4.608  1.00 20.00     0.130 C 
HETATM    4  O11 UNL     1     -35.906  12.700  -4.614  1.00 20.00    -0.298 OA
BRANCH   3   5
HETATM    5  C8  UNL     1     -37.545  14.443  -4.301  1.00 20.00     0.074 C 
HETATM    6  C6  UNL     1     -37.633  15.952  -4.446  1.00 20.00     0.013 C 
ENDBRANCH   3   5
ENDBRANCH   2   3
BRANCH   2   7
HETATM    7  C9  UNL     1     -33.858  14.761  -3.960  1.00 20.00     0.016 C 
BRANCH   7   8
HETATM    8  C5  UNL     1     -33.729  15.910  -2.982  1.00 20.00    -0.014 C 
HETATM    9  C3  UNL     1     -34.886  16.093  -1.965  1.00 20.00     0.005 C 
HETATM   10  C2  UNL     1     -34.686  17.615  -2.123  1.00 20.00     0.001 C 
HETATM   11  C4  UNL     1     -34.091  17.320  -3.516  1.00 20.00     0.005 C 
ENDBRANCH   7   8
ENDBRANCH   2   7
TORSDOF 4
ENDMDL
MODEL 3
REMARK VINA RESULT:      -4.6      1.138      4.635
REMARK  4 active torsions:
REMARK  status: ('A' for Active; 'I' for Inactive)
REMARK    1  A    between atoms: C1_1  and  C8_8 
REMARK    2  A    between atoms: C1_1  and  C10_10 
REMARK    3  A    between atoms: C5_5  and  C9_9 
REMARK    4  A    between atoms: C9_9  and  C10_10 
ROOT
HETATM    1  C7  UNL     1     -33.037   4.863   1.960  1.00 20.00     0.018 C 
HETATM    2  C10 UNL     1     -33.142   5.966   3.011  1.00 20.00     0.051 C 
ENDROOT
BRANCH   2   3
HETATM    3  C1  UNL     1     -32.271   7.141   2.568  1.00 20.00     0.130 C 
HETATM    4  O11 UNL     1     -31.514   7.717   3.351  1.00 20.00    -0.298 OA
BRANCH   3   5
HETATM    5  C8  UNL     1     -32.368   7.531   1.102  1.00 20.00     0.074 C 
HETATM    6  C6  UNL     1     -32.942   8.923   0.904  1.00 20.00     0.013 C 
ENDBRANCH   3   5
ENDBRANCH   2   3
BRANCH   2   7
HETATM    7  C9  UNL     1     -34.603   6.385   3.216  1.00 20.00     0.016 C 
BRANCH   7   8
HETATM    8  C5  UNL     1     -35.081   6.030   4.609  1.00 20.00    -0.014 C 
HETATM    9  C3  UNL     1     -34.182   6.482   5.789  1.00 20.00     0.005 C 
HETATM   10  C2  UNL     1     -34.559   5.158   6.486  1.00 20.00     0.001 C 
HETATM   11  C4  UNL     1     -34.823   4.577   5.082  1.00 20.00     0.005 C 
ENDBRANCH   7   8
ENDBRANCH   2   7
TORSDOF 4
ENDMDL
MODEL 4
REMARK VINA RESULT:      -4.6     10.389     11.678
REMARK  4 active torsions:
REMARK  status: ('A' for Active; 'I' for Inactive)
REMARK    1  A    between atoms: C1_1  and  C8_8 
REMARK    2  A    between atoms: C1_1  and  C10_10 
REMARK    3  A    between atoms: C5_5  and  C9_9 
REMARK    4  A    between atoms: C9_9  and  C10_10 
ROOT
HETATM    1  C7  UNL     1     -36.674  16.342  -4.356  1.00 20.00     0.018 C 
HETATM    2  C10 UNL     1     -36.322  14.985  -3.750  1.00 20.00     0.051 C 
ENDROOT
BRANCH   2   3
HETATM    3  C1  UNL     1     -35.967  14.025  -4.884  1.00 20.00     0.130 C 
HETATM    4  O11 UNL     1     -35.967  12.804  -4.723  1.00 20.00    -0.298 OA
BRANCH   3   5
HETATM    5  C8  UNL     1     -35.649  14.663  -6.227  1.00 20.00     0.074 C 
HETATM    6  C6  UNL     1     -34.164  14.915  -6.418  1.00 20.00     0.013 C 
ENDBRANCH   3   5
ENDBRANCH   2   3
BRANCH   2   7
HETATM    7  C9  UNL     1     -35.176  15.122  -2.739  1.00 20.00     0.016 C 
BRANCH   7   8
HETATM    8  C5  UNL     1     -34.484  16.462  -2.878  1.00 20.00    -0.014 C 
HETATM    9  C3  UNL     1     -32.964  16.433  -3.186  1.00 20.00     0.005 C 
HETATM   10  C2  UNL     1     -32.831  17.668  -2.271  1.00 20.00     0.001 C 
HETATM   11  C4  UNL     1     -34.115  17.193  -1.562  1.00 20.00     0.005 C 
ENDBRANCH   7   8
ENDBRANCH   2   7
TORSDOF 4
ENDMDL
MODEL 5
REMARK VINA RESULT:      -4.5     10.704     11.809
REMARK  4 active torsions:
REMARK  status: ('A' for Active; 'I' for Inactive)
REMARK    1  A    between atoms: C1_1  and  C8_8 
REMARK    2  A    between atoms: C1_1  and  C10_10 
REMARK    3  A    between atoms: C5_5  and  C9_9 
REMARK    4  A    between atoms: C9_9  and  C10_10 
ROOT
HETATM    1  C7  UNL     1     -32.438  19.255  -2.942  1.00 20.00     0.018 C 
HETATM    2  C10 UNL     1     -32.497  18.001  -2.073  1.00 20.00     0.051 C 
ENDROOT
BRANCH   2   3
HETATM    3  C1  UNL     1     -31.804  18.301  -0.743  1.00 20.00     0.130 C 
HETATM    4  O11 UNL     1     -30.579  18.378  -0.655  1.00 20.00    -0.298 OA
BRANCH   3   5
HETATM    5  C8  UNL     1     -32.718  18.532   0.450  1.00 20.00     0.074 C 
HETATM    6  C6  UNL     1     -32.009  18.328   1.777  1.00 20.00     0.013 C 
ENDBRANCH   3   5
ENDBRANCH   2   3
BRANCH   2   7
HETATM    7  C9  UNL     1     -33.949  17.548  -1.869  1.00 20.00     0.016 C 
BRANCH   7   8
HETATM    8  C5  UNL     1     -34.122  16.091  -2.245  1.00 20.00    -0.014 C 
HETATM    9  C3  UNL     1     -33.390  15.611  -3.526  1.00 20.00     0.005 C 
HETATM   10  C2  UNL     1     -34.616  14.716  -3.801  1.00 20.00     0.001 C 
HETATM   11  C4  UNL     1     -35.443  15.712  -2.963  1.00 20.00     0.005 C 
ENDBRANCH   7   8
ENDBRANCH   2   7
TORSDOF 4
ENDMDL
MODEL 6
REMARK VINA RESULT:      -4.5      1.224      1.285
REMARK  4 active torsions:
REMARK  status: ('A' for Active; 'I' for Inactive)
REMARK    1  A    between atoms: C1_1  and  C8_8 
REMARK    2  A    between atoms: C1_1  and  C10_10 
REMARK    3  A    between atoms: C5_5  and  C9_9 
REMARK    4  A    between atoms: C9_9  and  C10_10 
ROOT
HETATM    1  C7  UNL     1     -32.918   4.526   2.214  1.00 20.00     0.018 C 
HETATM    2  C10 UNL     1     -33.568   5.843   2.634  1.00 20.00     0.051 C 
ENDROOT
BRANCH   2   3
HETATM    3  C1  UNL     1     -34.320   5.615   3.945  1.00 20.00     0.130 C 
HETATM    4  O11 UNL     1     -35.004   4.609   4.132  1.00 20.00    -0.298 OA
BRANCH   3   5
HETATM    5  C8  UNL     1     -34.143   6.683   5.013  1.00 20.00     0.074 C 
HETATM    6  C6  UNL     1     -34.415   6.162   6.413  1.00 20.00     0.013 C 
ENDBRANCH   3   5
ENDBRANCH   2   3
BRANCH   2   7
HETATM    7  C9  UNL     1     -32.515   6.951   2.767  1.00 20.00     0.016 C 
BRANCH   7   8
HETATM    8  C5  UNL     1     -32.338   7.693   1.459  1.00 20.00    -0.014 C 
HETATM    9  C3  UNL     1     -32.864   9.152   1.410  1.00 20.00     0.005 C 
HETATM   10  C2  UNL     1     -33.291   8.871  -0.046  1.00 20.00     0.001 C 
HETATM   11  C4  UNL     1     -33.363   7.379   0.338  1.00 20.00     0.005 C 
ENDBRANCH   7   8
ENDBRANCH   2   7
TORSDOF 4
ENDMDL
MODEL 7
REMARK VINA RESULT:      -4.5     10.500     11.721
REMARK  4 active torsions:
REMARK  status: ('A' for Active; 'I' for Inactive)
REMARK    1  A    between atoms: C1_1  and  C8_8 
REMARK    2  A    between atoms: C1_1  and  C10_10 
REMARK    3  A    between atoms: C5_5  and  C9_9 
REMARK    4  A    between atoms: C9_9  and  C10_10 
ROOT
HETATM    1  C7  UNL     1     -35.642  14.615  -6.269  1.00 20.00     0.018 C 
HETATM    2  C10 UNL     1     -35.858  15.083  -4.832  1.00 20.00     0.051 C 
ENDROOT
BRANCH   2   3
HETATM    3  C1  UNL     1     -37.318  14.832  -4.455  1.00 20.00     0.130 C 
HETATM    4  O11 UNL     1     -37.788  13.695  -4.410  1.00 20.00    -0.298 OA
BRANCH   3   5
HETATM    5  C8  UNL     1     -38.140  16.062  -4.105  1.00 20.00     0.074 C 
HETATM    6  C6  UNL     1     -37.398  17.358  -4.380  1.00 20.00     0.013 C 
ENDBRANCH   3   5
ENDBRANCH   2   3
BRANCH   2   7
HETATM    7  C9  UNL     1     -34.892  14.369  -3.877  1.00 20.00     0.016 C 
BRANCH   7   8
HETATM    8  C5  UNL     1     -34.119  15.366  -3.039  1.00 20.00    -0.014 C 
HETATM    9  C3  UNL     1     -34.926  16.153  -1.973  1.00 20.00     0.005 C 
HETATM   10  C2  UNL     1     -34.038  17.370  -2.307  1.00 20.00     0.001 C 
HETATM   11  C4  UNL     1     -33.817  16.738  -3.696  1.00 20.00     0.005 C 
ENDBRANCH   7   8
ENDBRANCH   2   7
TORSDOF 4
ENDMDL
MODEL 8
REMARK VINA RESULT:      -4.3     10.483     12.084
REMARK  4 active torsions:
REMARK  status: ('A' for Active; 'I' for Inactive)
REMARK    1  A    between atoms: C1_1  and  C8_8 
REMARK    2  A    between atoms: C1_1  and  C10_10 
REMARK    3  A    between atoms: C5_5  and  C9_9 
REMARK    4  A    between atoms: C9_9  and  C10_10 
ROOT
HETATM    1  C7  UNL     1     -37.325  14.547  -4.385  1.00 20.00     0.018 C 
HETATM    2  C10 UNL     1     -35.950  14.047  -4.825  1.00 20.00     0.051 C 
ENDROOT
BRANCH   2   3
HETATM    3  C1  UNL     1     -35.536  14.812  -6.082  1.00 20.00     0.130 C 
HETATM    4  O11 UNL     1     -34.471  14.585  -6.656  1.00 20.00    -0.298 OA
BRANCH   3   5
HETATM    5  C8  UNL     1     -36.530  15.841  -6.596  1.00 20.00     0.074 C 
HETATM    6  C6  UNL     1     -35.988  17.259  -6.538  1.00 20.00     0.013 C 
ENDBRANCH   3   5
ENDBRANCH   2   3
BRANCH   2   7
HETATM    7  C9  UNL     1     -34.925  14.209  -3.695  1.00 20.00     0.016 C 
BRANCH   7   8
HETATM    8  C5  UNL     1     -34.714  15.671  -3.358  1.00 20.00    -0.014 C 
HETATM    9  C3  UNL     1     -33.247  16.133  -3.152  1.00 20.00     0.005 C 
HETATM   10  C2  UNL     1     -33.774  17.060  -2.037  1.00 20.00     0.001 C 
HETATM   11  C4  UNL     1     -34.959  16.085  -1.884  1.00 20.00     0.005 C 
ENDBRANCH   7   8
ENDBRANCH   2   7
TORSDOF 4
ENDMDL
MODEL 9
REMARK VINA RESULT:      -4.2     10.379     11.587
REMARK  4 active torsions:
REMARK  status: ('A' for Active; 'I' for Inactive)
REMARK    1  A    between atoms: C1_1  and  C8_8 
REMARK    2  A    between atoms: C1_1  and  C10_10 
REMARK    3  A    between atoms: C5_5  and  C9_9 
REMARK    4  A    between atoms: C9_9  and  C10_10 
ROOT
HETATM    1  C7  UNL     1     -33.133  14.386  -4.420  1.00 20.00     0.018 C 
HETATM    2  C10 UNL     1     -34.547  14.953  -4.317  1.00 20.00     0.051 C 
ENDROOT
BRANCH   2   3
HETATM    3  C1  UNL     1     -35.497  14.029  -5.078  1.00 20.00     0.130 C 
HETATM    4  O11 UNL     1     -35.896  12.970  -4.593  1.00 20.00    -0.298 OA
BRANCH   3   5
HETATM    5  C8  UNL     1     -35.945  14.511  -6.449  1.00 20.00     0.074 C 
HETATM    6  C6  UNL     1     -35.976  16.025  -6.555  1.00 20.00     0.013 C 
ENDBRANCH   3   5
ENDBRANCH   2   3
BRANCH   2   7
HETATM    7  C9  UNL     1     -34.963  15.114  -2.848  1.00 20.00     0.016 C 
BRANCH   7   8
HETATM    8  C5  UNL     1     -34.859  16.559  -2.408  1.00 20.00    -0.014 C 
HETATM    9  C3  UNL     1     -33.438  17.085  -2.075  1.00 20.00     0.005 C 
HETATM   10  C2  UNL     1     -34.089  17.908  -0.944  1.00 20.00     0.001 C 
HETATM   11  C4  UNL     1     -35.223  16.863  -0.932  1.00 20.00     0.005 C 
ENDBRANCH   7   8
ENDBRANCH   2   7
TORSDOF 4
ENDMDL
