MODEL 1
REMARK VINA RESULT:      -4.1      0.000      0.000
REMARK  4 active torsions:
REMARK  status: ('A' for Active; 'I' for Inactive)
REMARK    1  A    between atoms: C1_1  and  C7_7 
REMARK    2  A    between atoms: C6_6  and  C8_8 
REMARK    3  A    between atoms: C6_6  and  O10_10 
REMARK    4  A    between atoms: C7_7  and  C8_8 
ROOT
HETATM    1  C3  UNL     1     -33.272  14.368  -4.529  1.00 20.00     0.018 C 
HETATM    2  C7  UNL     1     -34.515  14.544  -3.653  1.00 20.00     0.056 C 
ENDROOT
BRANCH   2   3
HETATM    3  C1  UNL     1     -35.720  13.846  -4.290  1.00 20.00     0.127 C 
HETATM    4  C2  UNL     1     -36.896  14.712  -4.665  1.00 20.00     0.091 C 
HETATM    5  O9  UNL     1     -35.755  12.629  -4.472  1.00 20.00    -0.298 OA
ENDBRANCH   2   3
BRANCH   2   6
HETATM    6  C8  UNL     1     -34.848  16.017  -3.313  1.00 20.00     0.016 C 
HETATM    7  C4  UNL     1     -35.027  16.210  -1.801  1.00 20.00     0.013 C 
BRANCH   6   8
HETATM    8  C6  UNL     1     -33.816  17.011  -3.864  1.00 20.00     0.172 C 
BRANCH   8   9
HETATM    9  O10 UNL     1     -32.933  17.411  -2.822  1.00 20.00    -0.396 OA
HETATM   10  C5  UNL     1     -32.592  18.785  -2.928  1.00 20.00     0.201 C 
ENDBRANCH   8   9
ENDBRANCH   6   8
ENDBRANCH   2   6
TORSDOF 4
ENDMDL
MODEL 2
REMARK VINA RESULT:      -4.1      1.359      1.747
REMARK  4 active torsions:
REMARK  status: ('A' for Active; 'I' for Inactive)
REMARK    1  A    between atoms: C1_1  and  C7_7 
REMARK    2  A    between atoms: C6_6  and  C8_8 
REMARK    3  A    between atoms: C6_6  and  O10_10 
REMARK    4  A    between atoms: C7_7  and  C8_8 
ROOT
HETATM    1  C3  UNL     1     -33.446  14.455  -4.435  1.00 20.00     0.018 C 
HETATM    2  C7  UNL     1     -34.713  14.566  -3.583  1.00 20.00     0.056 C 
ENDROOT
BRANCH   2   3
HETATM    3  C1  UNL     1     -35.867  13.804  -4.243  1.00 20.00     0.127 C 
HETATM    4  C2  UNL     1     -37.143  14.569  -4.488  1.00 20.00     0.091 C 
HETATM    5  O9  UNL     1     -35.783  12.614  -4.543  1.00 20.00    -0.298 OA
ENDBRANCH   2   3
BRANCH   2   6
HETATM    6  C8  UNL     1     -35.131  16.019  -3.252  1.00 20.00     0.016 C 
HETATM    7  C4  UNL     1     -34.989  16.308  -1.751  1.00 20.00     0.013 C 
BRANCH   6   8
HETATM    8  C6  UNL     1     -34.370  17.067  -4.076  1.00 20.00     0.172 C 
BRANCH   8   9
HETATM    9  O10 UNL     1     -35.253  17.669  -5.018  1.00 20.00    -0.396 OA
HETATM   10  C5  UNL     1     -34.954  17.262  -6.344  1.00 20.00     0.201 C 
ENDBRANCH   8   9
ENDBRANCH   6   8
ENDBRANCH   2   6
TORSDOF 4
ENDMDL
MODEL 3
REMARK VINA RESULT:      -4.1     10.527     11.450
REMARK  4 active torsions:
REMARK  status: ('A' for Active; 'I' for Inactive)
REMARK    1  A    between atoms: C1_1  and  C7_7 
REMARK    2  A    between atoms: C6_6  and  C8_8 
REMARK    3  A    between atoms: C6_6  and  O10_10 
REMARK    4  A    between atoms: C7_7  and  C8_8 
ROOT
HETATM    1  C3  UNL     1     -33.496   4.684   2.489  1.00 20.00     0.018 C 
HETATM    2  C7  UNL     1     -33.328   5.702   3.620  1.00 20.00     0.056 C 
ENDROOT
BRANCH   2   3
HETATM    3  C1  UNL     1     -34.571   5.716   4.514  1.00 20.00     0.127 C 
HETATM    4  C2  UNL     1     -34.374   6.105   5.957  1.00 20.00     0.091 C 
HETATM    5  O9  UNL     1     -35.685   5.402   4.096  1.00 20.00    -0.298 OA
ENDBRANCH   2   3
BRANCH   2   6
HETATM    6  C8  UNL     1     -32.978   7.132   3.140  1.00 20.00     0.016 C 
HETATM    7  C4  UNL     1     -31.827   7.727   3.964  1.00 20.00     0.013 C 
BRANCH   6   8
HETATM    8  C6  UNL     1     -32.659   7.202   1.640  1.00 20.00     0.172 C 
BRANCH   8   9
HETATM    9  O10 UNL     1     -32.587   8.564   1.229  1.00 20.00    -0.396 OA
HETATM   10  C5  UNL     1     -33.220   8.763  -0.026  1.00 20.00     0.201 C 
ENDBRANCH   8   9
ENDBRANCH   6   8
ENDBRANCH   2   6
TORSDOF 4
ENDMDL
MODEL 4
REMARK VINA RESULT:      -4.0     11.030     12.037
REMARK  4 active torsions:
REMARK  status: ('A' for Active; 'I' for Inactive)
REMARK    1  A    between atoms: C1_1  and  C7_7 
REMARK    2  A    between atoms: C6_6  and  C8_8 
REMARK    3  A    between atoms: C6_6  and  O10_10 
REMARK    4  A    between atoms: C7_7  and  C8_8 
ROOT
HETATM    1  C3  UNL     1     -33.638   7.393   5.375  1.00 20.00     0.018 C 
HETATM    2  C7  UNL     1     -34.028   6.459   4.227  1.00 20.00     0.056 C 
ENDROOT
BRANCH   2   3
HETATM    3  C1  UNL     1     -34.678   5.185   4.774  1.00 20.00     0.127 C 
HETATM    4  C2  UNL     1     -34.732   5.031   6.273  1.00 20.00     0.091 C 
HETATM    5  O9  UNL     1     -35.119   4.303   4.038  1.00 20.00    -0.298 OA
ENDBRANCH   2   3
BRANCH   2   6
HETATM    6  C8  UNL     1     -32.865   6.114   3.265  1.00 20.00     0.016 C 
HETATM    7  C4  UNL     1     -33.321   5.137   2.172  1.00 20.00     0.013 C 
BRANCH   6   8
HETATM    8  C6  UNL     1     -32.212   7.355   2.640  1.00 20.00     0.172 C 
BRANCH   8   9
HETATM    9  O10 UNL     1     -32.567   7.441   1.264  1.00 20.00    -0.396 OA
HETATM   10  C5  UNL     1     -32.899   8.770   0.893  1.00 20.00     0.201 C 
ENDBRANCH   8   9
ENDBRANCH   6   8
ENDBRANCH   2   6
TORSDOF 4
ENDMDL
MODEL 5
REMARK VINA RESULT:      -4.0      2.102      3.937
REMARK  4 active torsions:
REMARK  status: ('A' for Active; 'I' for Inactive)
REMARK    1  A    between atoms: C1_1  and  C7_7 
REMARK    2  A    between atoms: C6_6  and  C8_8 
REMARK    3  A    between atoms: C6_6  and  O10_10 
REMARK    4  A    between atoms: C7_7  and  C8_8 
ROOT
HETATM    1  C3  UNL     1     -34.231  16.100  -2.457  1.00 20.00     0.018 C 
HETATM    2  C7  UNL     1     -35.187  15.055  -3.037  1.00 20.00     0.056 C 
ENDROOT
BRANCH   2   3
HETATM    3  C1  UNL     1     -34.419  14.057  -3.910  1.00 20.00     0.127 C 
HETATM    4  C2  UNL     1     -33.292  14.605  -4.749  1.00 20.00     0.091 C 
HETATM    5  O9  UNL     1     -34.712  12.863  -3.957  1.00 20.00    -0.298 OA
ENDBRANCH   2   3
BRANCH   2   6
HETATM    6  C8  UNL     1     -36.388  15.652  -3.811  1.00 20.00     0.016 C 
HETATM    7  C4  UNL     1     -36.018  16.996  -4.455  1.00 20.00     0.013 C 
BRANCH   6   8
HETATM    8  C6  UNL     1     -36.966  14.692  -4.861  1.00 20.00     0.172 C 
BRANCH   8   9
HETATM    9  O10 UNL     1     -38.081  13.998  -4.312  1.00 20.00    -0.396 OA
HETATM   10  C5  UNL     1     -39.227  14.832  -4.237  1.00 20.00     0.201 C 
ENDBRANCH   8   9
ENDBRANCH   6   8
ENDBRANCH   2   6
TORSDOF 4
ENDMDL
MODEL 6
REMARK VINA RESULT:      -3.9      1.507      2.296
REMARK  4 active torsions:
REMARK  status: ('A' for Active; 'I' for Inactive)
REMARK    1  A    between atoms: C1_1  and  C7_7 
REMARK    2  A    between atoms: C6_6  and  C8_8 
REMARK    3  A    between atoms: C6_6  and  O10_10 
REMARK    4  A    between atoms: C7_7  and  C8_8 
ROOT
HETATM    1  C3  UNL     1     -35.640  16.242  -5.207  1.00 20.00     0.018 C 
HETATM    2  C7  UNL     1     -35.068  14.859  -4.884  1.00 20.00     0.056 C 
ENDROOT
BRANCH   2   3
HETATM    3  C1  UNL     1     -36.199  13.874  -4.576  1.00 20.00     0.127 C 
HETATM    4  C2  UNL     1     -37.563  14.458  -4.303  1.00 20.00     0.091 C 
HETATM    5  O9  UNL     1     -36.017  12.658  -4.522  1.00 20.00    -0.298 OA
ENDBRANCH   2   3
BRANCH   2   6
HETATM    6  C8  UNL     1     -34.012  14.857  -3.751  1.00 20.00     0.016 C 
HETATM    7  C4  UNL     1     -32.598  14.651  -4.312  1.00 20.00     0.013 C 
BRANCH   6   8
HETATM    8  C6  UNL     1     -34.065  16.118  -2.876  1.00 20.00     0.172 C 
BRANCH   8   9
HETATM    9  O10 UNL     1     -34.982  15.919  -1.805  1.00 20.00    -0.396 OA
HETATM   10  C5  UNL     1     -35.597  17.138  -1.414  1.00 20.00     0.201 C 
ENDBRANCH   8   9
ENDBRANCH   6   8
ENDBRANCH   2   6
TORSDOF 4
ENDMDL
MODEL 7
REMARK VINA RESULT:      -3.9     16.451     17.961
REMARK  4 active torsions:
REMARK  status: ('A' for Active; 'I' for Inactive)
REMARK    1  A    between atoms: C1_1  and  C7_7 
REMARK    2  A    between atoms: C6_6  and  C8_8 
REMARK    3  A    between atoms: C6_6  and  O10_10 
REMARK    4  A    between atoms: C7_7  and  C8_8 
ROOT
HETATM    1  C3  UNL     1     -24.693  18.871   8.972  1.00 20.00     0.018 C 
HETATM    2  C7  UNL     1     -23.315  18.393   9.438  1.00 20.00     0.056 C 
ENDROOT
BRANCH   2   3
HETATM    3  C1  UNL     1     -22.504  17.867   8.250  1.00 20.00     0.127 C 
HETATM    4  C2  UNL     1     -21.293  17.025   8.565  1.00 20.00     0.091 C 
HETATM    5  O9  UNL     1     -22.796  18.131   7.085  1.00 20.00    -0.298 OA
ENDBRANCH   2   3
BRANCH   2   6
HETATM    6  C8  UNL     1     -23.359  17.348  10.580  1.00 20.00     0.016 C 
HETATM    7  C4  UNL     1     -22.458  17.769  11.750  1.00 20.00     0.013 C 
BRANCH   6   8
HETATM    8  C6  UNL     1     -24.783  17.056  11.075  1.00 20.00     0.172 C 
BRANCH   8   9
HETATM    9  O10 UNL     1     -25.050  17.824  12.243  1.00 20.00    -0.396 OA
HETATM   10  C5  UNL     1     -26.393  18.286  12.266  1.00 20.00     0.201 C 
ENDBRANCH   8   9
ENDBRANCH   6   8
ENDBRANCH   2   6
TORSDOF 4
ENDMDL
MODEL 8
REMARK VINA RESULT:      -3.8      1.171      4.467
REMARK  4 active torsions:
REMARK  status: ('A' for Active; 'I' for Inactive)
REMARK    1  A    between atoms: C1_1  and  C7_7 
REMARK    2  A    between atoms: C6_6  and  C8_8 
REMARK    3  A    between atoms: C6_6  and  O10_10 
REMARK    4  A    between atoms: C7_7  and  C8_8 
ROOT
HETATM    1  C3  UNL     1     -35.177  16.143  -1.933  1.00 20.00     0.018 C 
HETATM    2  C7  UNL     1     -33.865  15.947  -2.698  1.00 20.00     0.056 C 
ENDROOT
BRANCH   2   3
HETATM    3  C1  UNL     1     -33.177  17.296  -2.930  1.00 20.00     0.127 C 
HETATM    4  C2  UNL     1     -32.431  17.895  -1.764  1.00 20.00     0.091 C 
HETATM    5  O9  UNL     1     -33.242  17.892  -4.005  1.00 20.00    -0.298 OA
ENDBRANCH   2   3
BRANCH   2   6
HETATM    6  C8  UNL     1     -34.016  15.170  -4.029  1.00 20.00     0.016 C 
HETATM    7  C4  UNL     1     -32.716  14.440  -4.394  1.00 20.00     0.013 C 
BRANCH   6   8
HETATM    8  C6  UNL     1     -35.200  14.192  -4.025  1.00 20.00     0.172 C 
BRANCH   8   9
HETATM    9  O10 UNL     1     -35.486  13.781  -5.357  1.00 20.00    -0.396 OA
HETATM   10  C5  UNL     1     -35.888  14.877  -6.165  1.00 20.00     0.201 C 
ENDBRANCH   8   9
ENDBRANCH   6   8
ENDBRANCH   2   6
TORSDOF 4
ENDMDL
MODEL 9
REMARK VINA RESULT:      -3.8     17.121     18.234
REMARK  4 active torsions:
REMARK  status: ('A' for Active; 'I' for Inactive)
REMARK    1  A    between atoms: C1_1  and  C7_7 
REMARK    2  A    between atoms: C6_6  and  C8_8 
REMARK    3  A    between atoms: C6_6  and  O10_10 
REMARK    4  A    between atoms: C7_7  and  C8_8 
ROOT
HETATM    1  C3  UNL     1     -24.839  15.525  11.599  1.00 20.00     0.018 C 
HETATM    2  C7  UNL     1     -24.650  16.937  12.159  1.00 20.00     0.056 C 
ENDROOT
BRANCH   2   3
HETATM    3  C1  UNL     1     -25.981  17.693  12.159  1.00 20.00     0.127 C 
HETATM    4  C2  UNL     1     -25.921  19.189  11.973  1.00 20.00     0.091 C 
HETATM    5  O9  UNL     1     -27.061  17.126  12.327  1.00 20.00    -0.298 OA
ENDBRANCH   2   3
BRANCH   2   6
HETATM    6  C8  UNL     1     -23.549  17.760  11.446  1.00 20.00     0.016 C 
HETATM    7  C4  UNL     1     -22.301  17.899  12.330  1.00 20.00     0.013 C 
BRANCH   6   8
HETATM    8  C6  UNL     1     -23.172  17.196  10.068  1.00 20.00     0.172 C 
BRANCH   8   9
HETATM    9  O10 UNL     1     -23.961  17.823   9.063  1.00 20.00    -0.396 OA
HETATM   10  C5  UNL     1     -23.694  19.215   8.984  1.00 20.00     0.201 C 
ENDBRANCH   8   9
ENDBRANCH   6   8
ENDBRANCH   2   6
TORSDOF 4
ENDMDL
