MODEL 1
REMARK VINA RESULT:      -4.7      0.000      0.000
REMARK  4 active torsions:
REMARK  status: ('A' for Active; 'I' for Inactive)
REMARK    1  A    between atoms: C1_1  and  C10_10 
REMARK    2  A    between atoms: C5_5  and  C8_8 
REMARK    3  A    between atoms: C8_8  and  C10_10 
REMARK    4  A    between atoms: C9_9  and  C10_10 
ROOT
HETATM    1  C10 UNL     1     -35.266  14.990  -5.040  1.00 20.00     0.055 C 
ENDROOT
BRANCH   1   2
HETATM    2  C1  UNL     1     -36.275  13.919  -4.627  1.00 20.00     0.127 C 
HETATM    3  C6  UNL     1     -37.666  14.392  -4.290  1.00 20.00     0.091 C 
HETATM    4  O11 UNL     1     -35.976  12.727  -4.566  1.00 20.00    -0.298 OA
ENDBRANCH   1   2
BRANCH   1   5
HETATM    5  C8  UNL     1     -33.882  14.658  -4.457  1.00 20.00     0.016 C 
BRANCH   5   6
HETATM    6  C5  UNL     1     -33.496  15.561  -3.304  1.00 20.00    -0.014 C 
HETATM    7  C3  UNL     1     -34.627  15.948  -2.315  1.00 20.00     0.005 C 
HETATM    8  C2  UNL     1     -33.967  17.338  -2.220  1.00 20.00     0.001 C 
HETATM    9  C4  UNL     1     -33.373  17.074  -3.619  1.00 20.00     0.005 C 
ENDBRANCH   5   6
ENDBRANCH   1   5
BRANCH   1  10
HETATM   10  C9  UNL     1     -35.197  15.080  -6.572  1.00 20.00     0.007 C 
HETATM   11  C7  UNL     1     -33.751  15.058  -7.064  1.00 20.00     0.006 C 
ENDBRANCH   1  10
TORSDOF 4
ENDMDL
MODEL 2
REMARK VINA RESULT:      -4.5      0.852      1.548
REMARK  4 active torsions:
REMARK  status: ('A' for Active; 'I' for Inactive)
REMARK    1  A    between atoms: C1_1  and  C10_10 
REMARK    2  A    between atoms: C5_5  and  C8_8 
REMARK    3  A    between atoms: C8_8  and  C10_10 
REMARK    4  A    between atoms: C9_9  and  C10_10 
ROOT
HETATM    1  C10 UNL     1     -35.150  15.073  -4.298  1.00 20.00     0.055 C 
ENDROOT
BRANCH   1   2
HETATM    2  C1  UNL     1     -36.212  13.982  -4.426  1.00 20.00     0.127 C 
HETATM    3  C6  UNL     1     -37.651  14.424  -4.361  1.00 20.00     0.091 C 
HETATM    4  O11 UNL     1     -35.917  12.796  -4.572  1.00 20.00    -0.298 OA
ENDBRANCH   1   2
BRANCH   1   5
HETATM    5  C8  UNL     1     -34.792  15.284  -2.818  1.00 20.00     0.016 C 
BRANCH   5   6
HETATM    6  C5  UNL     1     -34.496  16.731  -2.484  1.00 20.00    -0.014 C 
HETATM    7  C3  UNL     1     -33.005  17.108  -2.279  1.00 20.00     0.005 C 
HETATM    8  C2  UNL     1     -33.476  18.068  -1.168  1.00 20.00     0.001 C 
HETATM    9  C4  UNL     1     -34.717  17.165  -1.012  1.00 20.00     0.005 C 
ENDBRANCH   5   6
ENDBRANCH   1   5
BRANCH   1  10
HETATM   10  C9  UNL     1     -33.901  14.684  -5.104  1.00 20.00     0.007 C 
HETATM   11  C7  UNL     1     -34.057  15.050  -6.578  1.00 20.00     0.006 C 
ENDBRANCH   1  10
TORSDOF 4
ENDMDL
MODEL 3
REMARK VINA RESULT:      -4.5      1.036      3.272
REMARK  4 active torsions:
REMARK  status: ('A' for Active; 'I' for Inactive)
REMARK    1  A    between atoms: C1_1  and  C10_10 
REMARK    2  A    between atoms: C5_5  and  C8_8 
REMARK    3  A    between atoms: C8_8  and  C10_10 
REMARK    4  A    between atoms: C9_9  and  C10_10 
ROOT
HETATM    1  C10 UNL     1     -34.562  14.382  -3.734  1.00 20.00     0.055 C 
ENDROOT
BRANCH   1   2
HETATM    2  C1  UNL     1     -35.858  13.757  -4.248  1.00 20.00     0.127 C 
HETATM    3  C6  UNL     1     -37.092  14.622  -4.205  1.00 20.00     0.091 C 
HETATM    4  O11 UNL     1     -35.904  12.604  -4.675  1.00 20.00    -0.298 OA
ENDBRANCH   1   2
BRANCH   1   5
HETATM    5  C8  UNL     1     -33.682  14.812  -4.920  1.00 20.00     0.016 C 
BRANCH   5   6
HETATM    6  C5  UNL     1     -34.487  15.331  -6.093  1.00 20.00    -0.014 C 
HETATM    7  C3  UNL     1     -33.836  15.202  -7.495  1.00 20.00     0.005 C 
HETATM    8  C2  UNL     1     -34.474  16.564  -7.835  1.00 20.00     0.001 C 
HETATM    9  C4  UNL     1     -34.470  16.864  -6.322  1.00 20.00     0.005 C 
ENDBRANCH   5   6
ENDBRANCH   1   5
BRANCH   1  10
HETATM   10  C9  UNL     1     -34.882  15.588  -2.837  1.00 20.00     0.007 C 
HETATM   11  C7  UNL     1     -33.635  16.429  -2.574  1.00 20.00     0.006 C 
ENDBRANCH   1  10
TORSDOF 4
ENDMDL
MODEL 4
REMARK VINA RESULT:      -4.5     16.333     18.505
REMARK  4 active torsions:
REMARK  status: ('A' for Active; 'I' for Inactive)
REMARK    1  A    between atoms: C1_1  and  C10_10 
REMARK    2  A    between atoms: C5_5  and  C8_8 
REMARK    3  A    between atoms: C8_8  and  C10_10 
REMARK    4  A    between atoms: C9_9  and  C10_10 
ROOT
HETATM    1  C10 UNL     1     -23.586  17.971   9.251  1.00 20.00     0.055 C 
ENDROOT
BRANCH   1   2
HETATM    2  C1  UNL     1     -22.539  17.679   8.177  1.00 20.00     0.127 C 
HETATM    3  C6  UNL     1     -21.295  16.952   8.621  1.00 20.00     0.091 C 
HETATM    4  O11 UNL     1     -22.693  18.019   7.004  1.00 20.00    -0.298 OA
ENDBRANCH   1   2
BRANCH   1   5
HETATM    5  C8  UNL     1     -22.906  18.096  10.625  1.00 20.00     0.016 C 
BRANCH   5   6
HETATM    6  C5  UNL     1     -23.611  17.303  11.705  1.00 20.00    -0.014 C 
HETATM    7  C3  UNL     1     -24.407  16.054  11.245  1.00 20.00     0.005 C 
HETATM    8  C2  UNL     1     -25.447  16.409  12.327  1.00 20.00     0.001 C 
HETATM    9  C4  UNL     1     -24.961  17.869  12.214  1.00 20.00     0.005 C 
ENDBRANCH   5   6
ENDBRANCH   1   5
BRANCH   1  10
HETATM   10  C9  UNL     1     -24.344  19.262   8.905  1.00 20.00     0.007 C 
HETATM   11  C7  UNL     1     -25.694  18.956   8.262  1.00 20.00     0.006 C 
ENDBRANCH   1  10
TORSDOF 4
ENDMDL
MODEL 5
REMARK VINA RESULT:      -4.3      1.325      2.548
REMARK  4 active torsions:
REMARK  status: ('A' for Active; 'I' for Inactive)
REMARK    1  A    between atoms: C1_1  and  C10_10 
REMARK    2  A    between atoms: C5_5  and  C8_8 
REMARK    3  A    between atoms: C8_8  and  C10_10 
REMARK    4  A    between atoms: C9_9  and  C10_10 
ROOT
HETATM    1  C10 UNL     1     -36.126  14.965  -3.718  1.00 20.00     0.055 C 
ENDROOT
BRANCH   1   2
HETATM    2  C1  UNL     1     -35.952  13.918  -4.817  1.00 20.00     0.127 C 
HETATM    3  C6  UNL     1     -35.780  14.432  -6.223  1.00 20.00     0.091 C 
HETATM    4  O11 UNL     1     -35.955  12.711  -4.577  1.00 20.00    -0.298 OA
ENDBRANCH   1   2
BRANCH   1   5
HETATM    5  C8  UNL     1     -34.774  15.242  -3.039  1.00 20.00     0.016 C 
BRANCH   5   6
HETATM    6  C5  UNL     1     -34.662  16.653  -2.503  1.00 20.00    -0.014 C 
HETATM    7  C3  UNL     1     -33.243  17.136  -2.103  1.00 20.00     0.005 C 
HETATM    8  C2  UNL     1     -33.909  17.893  -0.937  1.00 20.00     0.001 C 
HETATM    9  C4  UNL     1     -35.058  16.866  -1.020  1.00 20.00     0.005 C 
ENDBRANCH   5   6
ENDBRANCH   1   5
BRANCH   1  10
HETATM   10  C9  UNL     1     -36.703  16.258  -4.314  1.00 20.00     0.007 C 
HETATM   11  C7  UNL     1     -38.158  16.460  -3.896  1.00 20.00     0.006 C 
ENDBRANCH   1  10
TORSDOF 4
ENDMDL
MODEL 6
REMARK VINA RESULT:      -4.3      1.406      2.684
REMARK  4 active torsions:
REMARK  status: ('A' for Active; 'I' for Inactive)
REMARK    1  A    between atoms: C1_1  and  C10_10 
REMARK    2  A    between atoms: C5_5  and  C8_8 
REMARK    3  A    between atoms: C8_8  and  C10_10 
REMARK    4  A    between atoms: C9_9  and  C10_10 
ROOT
HETATM    1  C10 UNL     1     -35.026  14.284  -3.831  1.00 20.00     0.055 C 
ENDROOT
BRANCH   1   2
HETATM    2  C1  UNL     1     -33.847  14.431  -4.792  1.00 20.00     0.127 C 
HETATM    3  C6  UNL     1     -34.124  15.110  -6.108  1.00 20.00     0.091 C 
HETATM    4  O11 UNL     1     -32.722  14.015  -4.514  1.00 20.00    -0.298 OA
ENDBRANCH   1   2
BRANCH   1   5
HETATM    5  C8  UNL     1     -35.396  15.655  -3.242  1.00 20.00     0.016 C 
BRANCH   5   6
HETATM    6  C5  UNL     1     -34.471  16.085  -2.123  1.00 20.00    -0.014 C 
HETATM    7  C3  UNL     1     -35.071  17.027  -1.047  1.00 20.00     0.005 C 
HETATM    8  C2  UNL     1     -33.700  17.731  -1.003  1.00 20.00     0.001 C 
HETATM    9  C4  UNL     1     -33.476  17.230  -2.445  1.00 20.00     0.005 C 
ENDBRANCH   5   6
ENDBRANCH   1   5
BRANCH   1  10
HETATM   10  C9  UNL     1     -36.228  13.672  -4.568  1.00 20.00     0.007 C 
HETATM   11  C7  UNL     1     -37.498  14.485  -4.326  1.00 20.00     0.006 C 
ENDBRANCH   1  10
TORSDOF 4
ENDMDL
MODEL 7
REMARK VINA RESULT:      -4.2      3.176      5.314
REMARK  4 active torsions:
REMARK  status: ('A' for Active; 'I' for Inactive)
REMARK    1  A    between atoms: C1_1  and  C10_10 
REMARK    2  A    between atoms: C5_5  and  C8_8 
REMARK    3  A    between atoms: C8_8  and  C10_10 
REMARK    4  A    between atoms: C9_9  and  C10_10 
ROOT
HETATM    1  C10 UNL     1     -32.564  18.007  -2.181  1.00 20.00     0.055 C 
ENDROOT
BRANCH   1   2
HETATM    2  C1  UNL     1     -31.864  18.297  -0.854  1.00 20.00     0.127 C 
HETATM    3  C6  UNL     1     -32.747  18.478   0.354  1.00 20.00     0.091 C 
HETATM    4  O11 UNL     1     -30.639  18.383  -0.766  1.00 20.00    -0.298 OA
ENDBRANCH   1   2
BRANCH   1   5
HETATM    5  C8  UNL     1     -34.010  17.553  -1.923  1.00 20.00     0.016 C 
BRANCH   5   6
HETATM    6  C5  UNL     1     -34.247  16.104  -2.293  1.00 20.00    -0.014 C 
HETATM    7  C3  UNL     1     -33.408  15.540  -3.470  1.00 20.00     0.005 C 
HETATM    8  C2  UNL     1     -34.656  14.729  -3.874  1.00 20.00     0.001 C 
HETATM    9  C4  UNL     1     -35.499  15.803  -3.156  1.00 20.00     0.005 C 
ENDBRANCH   5   6
ENDBRANCH   1   5
BRANCH   1  10
HETATM   10  C9  UNL     1     -32.544  19.263  -3.067  1.00 20.00     0.007 C 
HETATM   11  C7  UNL     1     -33.238  19.008  -4.404  1.00 20.00     0.006 C 
ENDBRANCH   1  10
TORSDOF 4
ENDMDL
MODEL 8
REMARK VINA RESULT:      -4.2     10.772     11.643
REMARK  4 active torsions:
REMARK  status: ('A' for Active; 'I' for Inactive)
REMARK    1  A    between atoms: C1_1  and  C10_10 
REMARK    2  A    between atoms: C5_5  and  C8_8 
REMARK    3  A    between atoms: C8_8  and  C10_10 
REMARK    4  A    between atoms: C9_9  and  C10_10 
ROOT
HETATM    1  C10 UNL     1     -33.975   6.350   3.633  1.00 20.00     0.055 C 
ENDROOT
BRANCH   1   2
HETATM    2  C1  UNL     1     -33.843   6.561   5.141  1.00 20.00     0.127 C 
HETATM    3  C6  UNL     1     -34.667   5.663   6.027  1.00 20.00     0.091 C 
HETATM    4  O11 UNL     1     -33.104   7.422   5.619  1.00 20.00    -0.298 OA
ENDBRANCH   1   2
BRANCH   1   5
HETATM    5  C8  UNL     1     -32.770   6.974   2.909  1.00 20.00     0.016 C 
BRANCH   5   6
HETATM    6  C5  UNL     1     -33.147   7.637   1.601  1.00 20.00    -0.014 C 
HETATM    7  C3  UNL     1     -32.026   7.763   0.536  1.00 20.00     0.005 C 
HETATM    8  C2  UNL     1     -32.633   9.131   0.166  1.00 20.00     0.001 C 
HETATM    9  C4  UNL     1     -33.204   9.186   1.599  1.00 20.00     0.005 C 
ENDBRANCH   5   6
ENDBRANCH   1   5
BRANCH   1  10
HETATM   10  C9  UNL     1     -34.072   4.848   3.322  1.00 20.00     0.007 C 
HETATM   11  C7  UNL     1     -33.038   4.431   2.279  1.00 20.00     0.006 C 
ENDBRANCH   1  10
TORSDOF 4
ENDMDL
MODEL 9
REMARK VINA RESULT:      -4.2      1.420      1.580
REMARK  4 active torsions:
REMARK  status: ('A' for Active; 'I' for Inactive)
REMARK    1  A    between atoms: C1_1  and  C10_10 
REMARK    2  A    between atoms: C5_5  and  C8_8 
REMARK    3  A    between atoms: C8_8  and  C10_10 
REMARK    4  A    between atoms: C9_9  and  C10_10 
ROOT
HETATM    1  C10 UNL     1     -34.943  15.676  -5.203  1.00 20.00     0.055 C 
ENDROOT
BRANCH   1   2
HETATM    2  C1  UNL     1     -35.817  14.512  -5.667  1.00 20.00     0.127 C 
HETATM    3  C6  UNL     1     -36.319  13.572  -4.601  1.00 20.00     0.091 C 
HETATM    4  O11 UNL     1     -36.100  14.339  -6.853  1.00 20.00    -0.298 OA
ENDBRANCH   1   2
BRANCH   1   5
HETATM    5  C8  UNL     1     -33.677  15.140  -4.516  1.00 20.00     0.016 C 
BRANCH   5   6
HETATM    6  C5  UNL     1     -33.505  15.664  -3.106  1.00 20.00    -0.014 C 
HETATM    7  C3  UNL     1     -34.801  16.024  -2.334  1.00 20.00     0.005 C 
HETATM    8  C2  UNL     1     -34.020  17.203  -1.719  1.00 20.00     0.001 C 
HETATM    9  C4  UNL     1     -33.110  17.157  -2.963  1.00 20.00     0.005 C 
ENDBRANCH   5   6
ENDBRANCH   1   5
BRANCH   1  10
HETATM   10  C9  UNL     1     -34.571  16.561  -6.403  1.00 20.00     0.007 C 
HETATM   11  C7  UNL     1     -34.920  18.025  -6.141  1.00 20.00     0.006 C 
ENDBRANCH   1  10
TORSDOF 4
ENDMDL
