MODEL 1
REMARK VINA RESULT:      -6.3      0.000      0.000
REMARK  3 active torsions:
REMARK  status: ('A' for Active; 'I' for Inactive)
REMARK    1  A    between atoms: C7_7  and  C9_9 
REMARK    2  A    between atoms: C8_8  and  C10_10 
REMARK    3  A    between atoms: C9_9  and  C10_10 
ROOT
HETATM    1  C1  UNL     1     -34.415   5.028   4.482  1.00 20.00     0.131 C 
HETATM    2  C2  UNL     1     -34.477   5.212   5.978  1.00 20.00     0.079 C 
HETATM    3  C3  UNL     1     -34.295   6.718   6.120  1.00 20.00     0.008 C 
HETATM    4  C4  UNL     1     -33.406   7.104   4.944  1.00 20.00     0.013 C 
HETATM    5  C7  UNL     1     -33.959   6.287   3.774  1.00 20.00     0.055 C 
HETATM    6  O11 UNL     1     -34.701   3.980   3.917  1.00 20.00    -0.298 OA
ENDROOT
BRANCH   5   7
HETATM    7  C9  UNL     1     -32.927   6.021   2.698  1.00 20.00     0.012 C 
BRANCH   7   8
HETATM    8  C10 UNL     1     -32.294   7.318   2.190  1.00 20.00     0.005 C 
BRANCH   8   9
HETATM    9  C8  UNL     1     -33.248   8.093   1.294  1.00 20.00    -0.014 A 
HETATM   10  C5  UNL     1     -32.896   9.481   0.835  1.00 20.00     0.005 A 
HETATM   11  C6  UNL     1     -32.898   8.341  -0.146  1.00 20.00     0.005 A 
ENDBRANCH   8   9
ENDBRANCH   7   8
ENDBRANCH   5   7
TORSDOF 3
ENDMDL
MODEL 2
REMARK VINA RESULT:      -5.3      1.486      2.057
REMARK  3 active torsions:
REMARK  status: ('A' for Active; 'I' for Inactive)
REMARK    1  A    between atoms: C7_7  and  C9_9 
REMARK    2  A    between atoms: C8_8  and  C10_10 
REMARK    3  A    between atoms: C9_9  and  C10_10 
ROOT
HETATM    1  C1  UNL     1     -33.931   6.409   4.966  1.00 20.00     0.131 C 
HETATM    2  C2  UNL     1     -35.035   5.383   5.034  1.00 20.00     0.079 C 
HETATM    3  C3  UNL     1     -34.539   4.319   4.064  1.00 20.00     0.008 C 
HETATM    4  C4  UNL     1     -33.748   5.097   3.020  1.00 20.00     0.013 C 
HETATM    5  C7  UNL     1     -32.962   6.125   3.837  1.00 20.00     0.055 C 
HETATM    6  O11 UNL     1     -33.839   7.356   5.736  1.00 20.00    -0.298 OA
ENDROOT
BRANCH   5   7
HETATM    7  C9  UNL     1     -32.601   7.362   3.040  1.00 20.00     0.012 C 
BRANCH   7   8
HETATM    8  C10 UNL     1     -32.542   7.070   1.540  1.00 20.00     0.005 C 
BRANCH   8   9
HETATM    9  C8  UNL     1     -32.334   8.340   0.730  1.00 20.00    -0.014 A 
HETATM   10  C5  UNL     1     -33.353   8.763  -0.292  1.00 20.00     0.005 A 
HETATM   11  C6  UNL     1     -33.195   9.547   0.980  1.00 20.00     0.005 A 
ENDBRANCH   8   9
ENDBRANCH   7   8
ENDBRANCH   5   7
TORSDOF 3
ENDMDL
MODEL 3
REMARK VINA RESULT:      -4.9     11.023     12.054
REMARK  3 active torsions:
REMARK  status: ('A' for Active; 'I' for Inactive)
REMARK    1  A    between atoms: C7_7  and  C9_9 
REMARK    2  A    between atoms: C8_8  and  C10_10 
REMARK    3  A    between atoms: C9_9  and  C10_10 
ROOT
HETATM    1  C1  UNL     1     -36.430  13.884  -4.833  1.00 20.00     0.131 C 
HETATM    2  C2  UNL     1     -37.723  14.449  -4.302  1.00 20.00     0.079 C 
HETATM    3  C3  UNL     1     -37.925  15.669  -5.191  1.00 20.00     0.008 C 
HETATM    4  C4  UNL     1     -36.512  16.133  -5.524  1.00 20.00     0.013 C 
HETATM    5  C7  UNL     1     -35.748  14.835  -5.795  1.00 20.00     0.055 C 
HETATM    6  O11 UNL     1     -35.990  12.786  -4.516  1.00 20.00    -0.298 OA
ENDROOT
BRANCH   5   7
HETATM    7  C9  UNL     1     -34.259  14.963  -5.546  1.00 20.00     0.012 C 
BRANCH   7   8
HETATM    8  C10 UNL     1     -33.935  16.179  -4.675  1.00 20.00     0.005 C 
BRANCH   8   9
HETATM    9  C8  UNL     1     -33.720  15.786  -3.222  1.00 20.00    -0.014 A 
HETATM   10  C5  UNL     1     -33.635  16.843  -2.156  1.00 20.00     0.005 A 
HETATM   11  C6  UNL     1     -34.834  15.939  -2.225  1.00 20.00     0.005 A 
ENDBRANCH   8   9
ENDBRANCH   7   8
ENDBRANCH   5   7
TORSDOF 3
ENDMDL
MODEL 4
REMARK VINA RESULT:      -4.7     11.408     12.320
REMARK  3 active torsions:
REMARK  status: ('A' for Active; 'I' for Inactive)
REMARK    1  A    between atoms: C7_7  and  C9_9 
REMARK    2  A    between atoms: C8_8  and  C10_10 
REMARK    3  A    between atoms: C9_9  and  C10_10 
ROOT
HETATM    1  C1  UNL     1     -31.528  18.364  -0.142  1.00 20.00     0.131 C 
HETATM    2  C2  UNL     1     -32.001  18.783   1.227  1.00 20.00     0.079 C 
HETATM    3  C3  UNL     1     -33.473  18.389   1.188  1.00 20.00     0.008 C 
HETATM    4  C4  UNL     1     -33.871  18.556  -0.273  1.00 20.00     0.013 C 
HETATM    5  C7  UNL     1     -32.681  17.990  -1.051  1.00 20.00     0.055 C 
HETATM    6  O11 UNL     1     -30.349  18.335  -0.471  1.00 20.00    -0.298 OA
ENDROOT
BRANCH   5   7
HETATM    7  C9  UNL     1     -32.553  18.575  -2.442  1.00 20.00     0.012 C 
BRANCH   7   8
HETATM    8  C10 UNL     1     -33.177  17.661  -3.499  1.00 20.00     0.005 C 
BRANCH   8   9
HETATM    9  C8  UNL     1     -33.197  16.210  -3.044  1.00 20.00    -0.014 A 
HETATM   10  C5  UNL     1     -34.481  15.428  -3.063  1.00 20.00     0.005 A 
HETATM   11  C6  UNL     1     -33.390  15.107  -4.046  1.00 20.00     0.005 A 
ENDBRANCH   8   9
ENDBRANCH   7   8
ENDBRANCH   5   7
TORSDOF 3
ENDMDL
MODEL 5
REMARK VINA RESULT:      -4.6     10.933     11.869
REMARK  3 active torsions:
REMARK  status: ('A' for Active; 'I' for Inactive)
REMARK    1  A    between atoms: C7_7  and  C9_9 
REMARK    2  A    between atoms: C8_8  and  C10_10 
REMARK    3  A    between atoms: C9_9  and  C10_10 
ROOT
HETATM    1  C1  UNL     1     -36.403  13.966  -4.468  1.00 20.00     0.131 C 
HETATM    2  C2  UNL     1     -37.845  14.394  -4.362  1.00 20.00     0.079 C 
HETATM    3  C3  UNL     1     -37.741  15.904  -4.540  1.00 20.00     0.008 C 
HETATM    4  C4  UNL     1     -36.383  16.262  -3.951  1.00 20.00     0.013 C 
HETATM    5  C7  UNL     1     -35.456  15.149  -4.443  1.00 20.00     0.055 C 
HETATM    6  O11 UNL     1     -36.049  12.798  -4.562  1.00 20.00    -0.298 OA
ENDROOT
BRANCH   5   7
HETATM    7  C9  UNL     1     -34.261  14.932  -3.539  1.00 20.00     0.012 C 
BRANCH   7   8
HETATM    8  C10 UNL     1     -34.162  16.015  -2.463  1.00 20.00     0.005 C 
BRANCH   8   9
HETATM    9  C8  UNL     1     -32.979  16.939  -2.704  1.00 20.00    -0.014 A 
HETATM   10  C5  UNL     1     -33.189  18.423  -2.827  1.00 20.00     0.005 A 
HETATM   11  C6  UNL     1     -32.503  17.858  -1.615  1.00 20.00     0.005 A 
ENDBRANCH   8   9
ENDBRANCH   7   8
ENDBRANCH   5   7
TORSDOF 3
ENDMDL
MODEL 6
REMARK VINA RESULT:      -4.5     15.707     16.529
REMARK  3 active torsions:
REMARK  status: ('A' for Active; 'I' for Inactive)
REMARK    1  A    between atoms: C7_7  and  C9_9 
REMARK    2  A    between atoms: C8_8  and  C10_10 
REMARK    3  A    between atoms: C9_9  and  C10_10 
ROOT
HETATM    1  C1  UNL     1     -25.531  16.772  11.979  1.00 20.00     0.131 C 
HETATM    2  C2  UNL     1     -26.977  17.023  12.324  1.00 20.00     0.079 C 
HETATM    3  C3  UNL     1     -27.142  18.490  11.949  1.00 20.00     0.008 C 
HETATM    4  C4  UNL     1     -25.771  19.103  12.204  1.00 20.00     0.013 C 
HETATM    5  C7  UNL     1     -24.790  18.057  11.670  1.00 20.00     0.055 C 
HETATM    6  O11 UNL     1     -25.024  15.658  11.956  1.00 20.00    -0.298 OA
ENDROOT
BRANCH   5   7
HETATM    7  C9  UNL     1     -23.429  18.130  12.332  1.00 20.00     0.012 C 
BRANCH   7   8
HETATM    8  C10 UNL     1     -22.320  17.640  11.399  1.00 20.00     0.005 C 
BRANCH   8   9
HETATM    9  C8  UNL     1     -22.537  18.116   9.971  1.00 20.00    -0.014 A 
HETATM   10  C5  UNL     1     -21.483  17.880   8.925  1.00 20.00     0.005 A 
HETATM   11  C6  UNL     1     -22.780  17.122   8.871  1.00 20.00     0.005 A 
ENDBRANCH   8   9
ENDBRANCH   7   8
ENDBRANCH   5   7
TORSDOF 3
ENDMDL
MODEL 7
REMARK VINA RESULT:      -4.5     10.988     12.365
REMARK  3 active torsions:
REMARK  status: ('A' for Active; 'I' for Inactive)
REMARK    1  A    between atoms: C7_7  and  C9_9 
REMARK    2  A    between atoms: C8_8  and  C10_10 
REMARK    3  A    between atoms: C9_9  and  C10_10 
ROOT
HETATM    1  C1  UNL     1     -35.757  14.391  -5.426  1.00 20.00     0.131 C 
HETATM    2  C2  UNL     1     -36.721  15.409  -5.981  1.00 20.00     0.079 C 
HETATM    3  C3  UNL     1     -35.787  16.359  -6.721  1.00 20.00     0.008 C 
HETATM    4  C4  UNL     1     -34.489  16.310  -5.925  1.00 20.00     0.013 C 
HETATM    5  C7  UNL     1     -34.315  14.829  -5.584  1.00 20.00     0.055 C 
HETATM    6  O11 UNL     1     -36.108  13.338  -4.910  1.00 20.00    -0.298 OA
ENDROOT
BRANCH   5   7
HETATM    7  C9  UNL     1     -33.487  14.602  -4.336  1.00 20.00     0.012 C 
BRANCH   7   8
HETATM    8  C10 UNL     1     -33.456  15.846  -3.446  1.00 20.00     0.005 C 
BRANCH   8   9
HETATM    9  C8  UNL     1     -34.518  15.786  -2.360  1.00 20.00    -0.014 A 
HETATM   10  C5  UNL     1     -34.686  16.931  -1.400  1.00 20.00     0.005 A 
HETATM   11  C6  UNL     1     -35.735  16.664  -2.444  1.00 20.00     0.005 A 
ENDBRANCH   8   9
ENDBRANCH   7   8
ENDBRANCH   5   7
TORSDOF 3
ENDMDL
MODEL 8
REMARK VINA RESULT:      -4.4     11.402     12.235
REMARK  3 active torsions:
REMARK  status: ('A' for Active; 'I' for Inactive)
REMARK    1  A    between atoms: C7_7  and  C9_9 
REMARK    2  A    between atoms: C8_8  and  C10_10 
REMARK    3  A    between atoms: C9_9  and  C10_10 
ROOT
HETATM    1  C1  UNL     1     -31.435  18.416   0.149  1.00 20.00     0.131 C 
HETATM    2  C2  UNL     1     -31.015  18.562   1.590  1.00 20.00     0.079 C 
HETATM    3  C3  UNL     1     -32.280  18.147   2.332  1.00 20.00     0.008 C 
HETATM    4  C4  UNL     1     -33.416  18.573   1.410  1.00 20.00     0.013 C 
HETATM    5  C7  UNL     1     -32.926  18.189   0.012  1.00 20.00     0.055 C 
HETATM    6  O11 UNL     1     -30.654  18.476  -0.793  1.00 20.00    -0.298 OA
ENDROOT
BRANCH   5   7
HETATM    7  C9  UNL     1     -33.554  19.025  -1.084  1.00 20.00     0.012 C 
BRANCH   7   8
HETATM    8  C10 UNL     1     -34.433  18.178  -2.006  1.00 20.00     0.005 C 
BRANCH   8   9
HETATM    9  C8  UNL     1     -34.079  16.702  -1.918  1.00 20.00    -0.014 A 
HETATM   10  C5  UNL     1     -34.882  15.683  -2.679  1.00 20.00     0.005 A 
HETATM   11  C6  UNL     1     -33.473  15.998  -3.099  1.00 20.00     0.005 A 
ENDBRANCH   8   9
ENDBRANCH   7   8
ENDBRANCH   5   7
TORSDOF 3
ENDMDL
MODEL 9
REMARK VINA RESULT:      -4.4     11.221     12.026
REMARK  3 active torsions:
REMARK  status: ('A' for Active; 'I' for Inactive)
REMARK    1  A    between atoms: C7_7  and  C9_9 
REMARK    2  A    between atoms: C8_8  and  C10_10 
REMARK    3  A    between atoms: C9_9  and  C10_10 
ROOT
HETATM    1  C1  UNL     1     -32.997  18.370   1.215  1.00 20.00     0.131 C 
HETATM    2  C2  UNL     1     -31.690  18.274   1.962  1.00 20.00     0.079 C 
HETATM    3  C3  UNL     1     -30.691  18.755   0.916  1.00 20.00     0.008 C 
HETATM    4  C4  UNL     1     -31.297  18.323  -0.413  1.00 20.00     0.013 C 
HETATM    5  C7  UNL     1     -32.788  18.633  -0.262  1.00 20.00     0.055 C 
HETATM    6  O11 UNL     1     -34.091  18.247   1.749  1.00 20.00    -0.298 OA
ENDROOT
BRANCH   5   7
HETATM    7  C9  UNL     1     -33.664  17.770  -1.147  1.00 20.00     0.012 C 
BRANCH   7   8
HETATM    8  C10 UNL     1     -32.899  17.254  -2.367  1.00 20.00     0.005 C 
BRANCH   8   9
HETATM    9  C8  UNL     1     -33.825  16.572  -3.362  1.00 20.00    -0.014 A 
HETATM   10  C5  UNL     1     -33.545  15.166  -3.818  1.00 20.00     0.005 A 
HETATM   11  C6  UNL     1     -34.716  15.447  -2.918  1.00 20.00     0.005 A 
ENDBRANCH   8   9
ENDBRANCH   7   8
ENDBRANCH   5   7
TORSDOF 3
ENDMDL
