MODEL 1
REMARK VINA RESULT:      -4.4      0.000      0.000
REMARK  2 active torsions:
REMARK  status: ('A' for Active; 'I' for Inactive)
REMARK    1  A    between atoms: C4_4  and  C5_5 
REMARK    2  A    between atoms: C5_5  and  C6_6 
ROOT
HETATM    1  C1  UNL     1     -33.625   6.694   4.430  1.00 20.00     0.038 A 
HETATM    2  C2  UNL     1     -34.298   4.555   3.818  1.00 20.00     0.074 A 
HETATM    3  C3  UNL     1     -34.361   5.529   4.791  1.00 20.00     0.041 A 
HETATM    4  C4  UNL     1     -33.027   6.567   3.194  1.00 20.00    -0.015 A 
HETATM    5  S7  UNL     1     -33.356   5.048   2.476  1.00 20.00    -0.105 SA
HETATM    6 CL8  UNL     1     -35.211   5.388   6.266  1.00 20.00    -0.084 Cl
ENDROOT
BRANCH   4   7
HETATM    7  C5  UNL     1     -32.186   7.546   2.473  1.00 20.00     0.061 C 
BRANCH   7   8
HETATM    8  C6  UNL     1     -32.588   7.781   1.009  1.00 20.00     0.119 C 
HETATM    9 CL9  UNL     1     -32.919   9.501   0.687  1.00 20.00    -0.130 Cl
ENDBRANCH   7   8
ENDBRANCH   4   7
TORSDOF 2
ENDMDL
MODEL 2
REMARK VINA RESULT:      -3.9     16.077     16.943
REMARK  2 active torsions:
REMARK  status: ('A' for Active; 'I' for Inactive)
REMARK    1  A    between atoms: C4_4  and  C5_5 
REMARK    2  A    between atoms: C5_5  and  C6_6 
ROOT
HETATM    1  C1  UNL     1     -23.536  16.705   9.701  1.00 20.00     0.038 A 
HETATM    2  C2  UNL     1     -21.753  17.968  10.494  1.00 20.00     0.074 A 
HETATM    3  C3  UNL     1     -22.309  17.359   9.391  1.00 20.00     0.041 A 
HETATM    4  C4  UNL     1     -23.872  16.840  11.031  1.00 20.00    -0.015 A 
HETATM    5  S7  UNL     1     -22.710  17.752  11.897  1.00 20.00    -0.105 SA
HETATM    6 CL8  UNL     1     -21.633  17.367   7.821  1.00 20.00    -0.084 Cl
ENDROOT
BRANCH   4   7
HETATM    7  C5  UNL     1     -25.057  16.310  11.740  1.00 20.00     0.061 C 
BRANCH   7   8
HETATM    8  C6  UNL     1     -25.983  17.384  12.332  1.00 20.00     0.119 C 
HETATM    9 CL9  UNL     1     -26.146  18.783  11.243  1.00 20.00    -0.130 Cl
ENDBRANCH   7   8
ENDBRANCH   4   7
TORSDOF 2
ENDMDL
MODEL 3
REMARK VINA RESULT:      -3.7     16.027     16.774
REMARK  2 active torsions:
REMARK  status: ('A' for Active; 'I' for Inactive)
REMARK    1  A    between atoms: C4_4  and  C5_5 
REMARK    2  A    between atoms: C5_5  and  C6_6 
ROOT
HETATM    1  C1  UNL     1     -24.646  18.761   9.465  1.00 20.00     0.038 A 
HETATM    2  C2  UNL     1     -22.861  17.974   8.201  1.00 20.00     0.074 A 
HETATM    3  C3  UNL     1     -24.074  18.627   8.167  1.00 20.00     0.041 A 
HETATM    4  C4  UNL     1     -23.848  18.206  10.442  1.00 20.00    -0.015 A 
HETATM    5  S7  UNL     1     -22.417  17.527   9.793  1.00 20.00    -0.105 SA
HETATM    6 CL8  UNL     1     -24.831  19.217   6.753  1.00 20.00    -0.084 Cl
ENDROOT
BRANCH   4   7
HETATM    7  C5  UNL     1     -24.089  18.141  11.900  1.00 20.00     0.061 C 
BRANCH   7   8
HETATM    8  C6  UNL     1     -25.130  17.097  12.332  1.00 20.00     0.119 C 
HETATM    9 CL9  UNL     1     -24.735  15.478  11.704  1.00 20.00    -0.130 Cl
ENDBRANCH   7   8
ENDBRANCH   4   7
TORSDOF 2
ENDMDL
MODEL 4
REMARK VINA RESULT:      -3.7     16.124     16.936
REMARK  2 active torsions:
REMARK  status: ('A' for Active; 'I' for Inactive)
REMARK    1  A    between atoms: C4_4  and  C5_5 
REMARK    2  A    between atoms: C5_5  and  C6_6 
ROOT
HETATM    1  C1  UNL     1     -22.578  17.578   9.830  1.00 20.00     0.038 A 
HETATM    2  C2  UNL     1     -23.730  18.479   8.024  1.00 20.00     0.074 A 
HETATM    3  C3  UNL     1     -22.616  17.772   8.419  1.00 20.00     0.041 A 
HETATM    4  C4  UNL     1     -23.665  18.144  10.460  1.00 20.00    -0.015 A 
HETATM    5  S7  UNL     1     -24.725  18.905   9.351  1.00 20.00    -0.105 SA
HETATM    6 CL8  UNL     1     -21.403  17.183   7.369  1.00 20.00    -0.084 Cl
ENDROOT
BRANCH   4   7
HETATM    7  C5  UNL     1     -23.988  18.160  11.903  1.00 20.00     0.061 C 
BRANCH   7   8
HETATM    8  C6  UNL     1     -25.063  17.149  12.331  1.00 20.00     0.119 C 
HETATM    9 CL9  UNL     1     -24.672  15.502  11.776  1.00 20.00    -0.130 Cl
ENDBRANCH   7   8
ENDBRANCH   4   7
TORSDOF 2
ENDMDL
MODEL 5
REMARK VINA RESULT:      -3.6      9.496     10.028
REMARK  2 active torsions:
REMARK  status: ('A' for Active; 'I' for Inactive)
REMARK    1  A    between atoms: C4_4  and  C5_5 
REMARK    2  A    between atoms: C5_5  and  C6_6 
ROOT
HETATM    1  C1  UNL     1     -41.190   7.061  -0.857  1.00 20.00     0.038 A 
HETATM    2  C2  UNL     1     -42.652   7.213   0.943  1.00 20.00     0.074 A 
HETATM    3  C3  UNL     1     -41.770   7.900   0.139  1.00 20.00     0.041 A 
HETATM    4  C4  UNL     1     -41.652   5.765  -0.776  1.00 20.00    -0.015 A 
HETATM    5  S7  UNL     1     -42.780   5.565   0.497  1.00 20.00    -0.105 SA
HETATM    6 CL8  UNL     1     -41.392   9.559   0.289  1.00 20.00    -0.084 Cl
ENDROOT
BRANCH   4   7
HETATM    7  C5  UNL     1     -41.294   4.606  -1.621  1.00 20.00     0.061 C 
BRANCH   7   8
HETATM    8  C6  UNL     1     -42.485   3.930  -2.318  1.00 20.00     0.119 C 
HETATM    9 CL9  UNL     1     -41.948   2.730  -3.519  1.00 20.00    -0.130 Cl
ENDBRANCH   7   8
ENDBRANCH   4   7
TORSDOF 2
ENDMDL
MODEL 6
REMARK VINA RESULT:      -3.6     11.418     12.084
REMARK  2 active torsions:
REMARK  status: ('A' for Active; 'I' for Inactive)
REMARK    1  A    between atoms: C4_4  and  C5_5 
REMARK    2  A    between atoms: C5_5  and  C6_6 
ROOT
HETATM    1  C1  UNL     1     -33.009  16.669  -2.645  1.00 20.00     0.038 A 
HETATM    2  C2  UNL     1     -35.115  15.690  -2.565  1.00 20.00     0.074 A 
HETATM    3  C3  UNL     1     -33.888  15.689  -3.190  1.00 20.00     0.041 A 
HETATM    4  C4  UNL     1     -33.598  17.382  -1.623  1.00 20.00    -0.015 A 
HETATM    5  S7  UNL     1     -35.204  16.868  -1.325  1.00 20.00    -0.105 SA
HETATM    6 CL8  UNL     1     -33.440  14.651  -4.471  1.00 20.00    -0.084 Cl
ENDROOT
BRANCH   4   7
HETATM    7  C5  UNL     1     -33.021  18.475  -0.811  1.00 20.00     0.061 C 
BRANCH   7   8
HETATM    8  C6  UNL     1     -31.485  18.532  -0.813  1.00 20.00     0.119 C 
HETATM    9 CL9  UNL     1     -30.810  18.104   0.777  1.00 20.00    -0.130 Cl
ENDBRANCH   7   8
ENDBRANCH   4   7
TORSDOF 2
ENDMDL
MODEL 7
REMARK VINA RESULT:      -3.6     11.307     11.793
REMARK  2 active torsions:
REMARK  status: ('A' for Active; 'I' for Inactive)
REMARK    1  A    between atoms: C4_4  and  C5_5 
REMARK    2  A    between atoms: C5_5  and  C6_6 
ROOT
HETATM    1  C1  UNL     1     -35.166  15.642  -2.619  1.00 20.00     0.038 A 
HETATM    2  C2  UNL     1     -32.991  16.119  -3.285  1.00 20.00     0.074 A 
HETATM    3  C3  UNL     1     -33.989  16.409  -2.381  1.00 20.00     0.041 A 
HETATM    4  C4  UNL     1     -35.023  14.794  -3.696  1.00 20.00    -0.015 A 
HETATM    5  S7  UNL     1     -33.474  14.925  -4.414  1.00 20.00    -0.105 SA
HETATM    6 CL8  UNL     1     -33.864  17.548  -1.113  1.00 20.00    -0.084 Cl
ENDROOT
BRANCH   4   7
HETATM    7  C5  UNL     1     -36.008  13.845  -4.258  1.00 20.00     0.061 C 
BRANCH   7   8
HETATM    8  C6  UNL     1     -37.425  14.416  -4.427  1.00 20.00     0.119 C 
HETATM    9 CL9  UNL     1     -37.433  15.846  -5.487  1.00 20.00    -0.130 Cl
ENDBRANCH   7   8
ENDBRANCH   4   7
TORSDOF 2
ENDMDL
MODEL 8
REMARK VINA RESULT:      -3.5     11.339     11.695
REMARK  2 active torsions:
REMARK  status: ('A' for Active; 'I' for Inactive)
REMARK    1  A    between atoms: C4_4  and  C5_5 
REMARK    2  A    between atoms: C5_5  and  C6_6 
ROOT
HETATM    1  C1  UNL     1     -35.009  16.023  -1.911  1.00 20.00     0.038 A 
HETATM    2  C2  UNL     1     -33.783  17.904  -1.312  1.00 20.00     0.074 A 
HETATM    3  C3  UNL     1     -34.878  17.123  -1.015  1.00 20.00     0.041 A 
HETATM    4  C4  UNL     1     -34.009  16.004  -2.859  1.00 20.00    -0.015 A 
HETATM    5  S7  UNL     1     -32.918  17.310  -2.665  1.00 20.00    -0.105 SA
HETATM    6 CL8  UNL     1     -35.971  17.411   0.266  1.00 20.00    -0.084 Cl
ENDROOT
BRANCH   4   7
HETATM    7  C5  UNL     1     -33.796  15.034  -3.955  1.00 20.00     0.061 C 
BRANCH   7   8
HETATM    8  C6  UNL     1     -34.983  14.887  -4.919  1.00 20.00     0.119 C 
HETATM    9 CL9  UNL     1     -36.051  13.542  -4.444  1.00 20.00    -0.130 Cl
ENDBRANCH   7   8
ENDBRANCH   4   7
TORSDOF 2
ENDMDL
MODEL 9
REMARK VINA RESULT:      -3.5     11.683     12.120
REMARK  2 active torsions:
REMARK  status: ('A' for Active; 'I' for Inactive)
REMARK    1  A    between atoms: C4_4  and  C5_5 
REMARK    2  A    between atoms: C5_5  and  C6_6 
ROOT
HETATM    1  C1  UNL     1     -32.986  16.822  -2.500  1.00 20.00     0.038 A 
HETATM    2  C2  UNL     1     -34.198  17.849  -0.803  1.00 20.00     0.074 A 
HETATM    3  C3  UNL     1     -32.996  17.813  -1.476  1.00 20.00     0.041 A 
HETATM    4  C4  UNL     1     -34.181  16.139  -2.572  1.00 20.00    -0.015 A 
HETATM    5  S7  UNL     1     -35.307  16.692  -1.407  1.00 20.00    -0.105 SA
HETATM    6 CL8  UNL     1     -31.657  18.821  -1.147  1.00 20.00    -0.084 Cl
ENDROOT
BRANCH   4   7
HETATM    7  C5  UNL     1     -34.563  15.046  -3.492  1.00 20.00     0.061 C 
BRANCH   7   8
HETATM    8  C6  UNL     1     -33.457  14.614  -4.468  1.00 20.00     0.119 C 
HETATM    9 CL9  UNL     1     -33.914  14.930  -6.159  1.00 20.00    -0.130 Cl
ENDBRANCH   7   8
ENDBRANCH   4   7
TORSDOF 2
ENDMDL
