MODEL 1
REMARK VINA RESULT:      -5.4      0.000      0.000
REMARK  5 active torsions:
REMARK  status: ('A' for Active; 'I' for Inactive)
REMARK    1  A    between atoms: C1_1  and  C7_7 
REMARK    2  A    between atoms: C1_1  and  C10_10 
REMARK    3  A    between atoms: C4_4  and  C8_8 
REMARK    4  A    between atoms: C8_8  and  C9_9 
REMARK    5  A    between atoms: C9_9  and  C10_10 
ROOT
HETATM    1  C6  UNL     1     -32.914   4.450   1.961  1.00 20.00     0.018 C 
HETATM    2  C10 UNL     1     -33.710   5.500   2.731  1.00 20.00     0.051 C 
ENDROOT
BRANCH   2   3
HETATM    3  C1  UNL     1     -34.377   4.819   3.926  1.00 20.00     0.130 C 
HETATM    4  O11 UNL     1     -34.292   3.606   4.108  1.00 20.00    -0.298 OA
BRANCH   3   5
HETATM    5  C7  UNL     1     -35.176   5.725   4.850  1.00 20.00     0.074 C 
HETATM    6  C5  UNL     1     -34.494   5.939   6.190  1.00 20.00     0.013 C 
ENDBRANCH   3   5
ENDBRANCH   2   3
BRANCH   2   7
HETATM    7  C9  UNL     1     -32.805   6.661   3.171  1.00 20.00     0.012 C 
BRANCH   7   8
HETATM    8  C8  UNL     1     -32.199   7.414   1.983  1.00 20.00     0.005 C 
BRANCH   8   9
HETATM    9  C4  UNL     1     -33.234   8.204   1.243  1.00 20.00    -0.014 A 
HETATM   10  C2  UNL     1     -32.903   9.568   0.703  1.00 20.00     0.005 A 
HETATM   11  C3  UNL     1     -33.107   8.416  -0.240  1.00 20.00     0.005 A 
ENDBRANCH   8   9
ENDBRANCH   7   8
ENDBRANCH   2   7
TORSDOF 5
ENDMDL
MODEL 2
REMARK VINA RESULT:      -5.0      1.374      1.415
REMARK  5 active torsions:
REMARK  status: ('A' for Active; 'I' for Inactive)
REMARK    1  A    between atoms: C1_1  and  C7_7 
REMARK    2  A    between atoms: C1_1  and  C10_10 
REMARK    3  A    between atoms: C4_4  and  C8_8 
REMARK    4  A    between atoms: C8_8  and  C9_9 
REMARK    5  A    between atoms: C9_9  and  C10_10 
ROOT
HETATM    1  C6  UNL     1     -33.338   4.859   2.582  1.00 20.00     0.018 C 
HETATM    2  C10 UNL     1     -33.423   6.319   3.019  1.00 20.00     0.051 C 
ENDROOT
BRANCH   2   3
HETATM    3  C1  UNL     1     -33.932   6.363   4.459  1.00 20.00     0.130 C 
HETATM    4  O11 UNL     1     -33.464   7.143   5.287  1.00 20.00    -0.298 OA
BRANCH   3   5
HETATM    5  C7  UNL     1     -35.022   5.363   4.812  1.00 20.00     0.074 C 
HETATM    6  C5  UNL     1     -34.905   4.850   6.236  1.00 20.00     0.013 C 
ENDBRANCH   3   5
ENDBRANCH   2   3
BRANCH   2   7
HETATM    7  C9  UNL     1     -32.060   7.014   2.878  1.00 20.00     0.012 C 
BRANCH   7   8
HETATM    8  C8  UNL     1     -31.872   7.659   1.501  1.00 20.00     0.005 C 
BRANCH   8   9
HETATM    9  C4  UNL     1     -33.110   8.371   1.050  1.00 20.00    -0.014 A 
HETATM   10  C2  UNL     1     -33.023   9.770   0.504  1.00 20.00     0.005 A 
HETATM   11  C3  UNL     1     -33.347   8.624  -0.413  1.00 20.00     0.005 A 
ENDBRANCH   8   9
ENDBRANCH   7   8
ENDBRANCH   2   7
TORSDOF 5
ENDMDL
MODEL 3
REMARK VINA RESULT:      -4.6     10.863     11.624
REMARK  5 active torsions:
REMARK  status: ('A' for Active; 'I' for Inactive)
REMARK    1  A    between atoms: C1_1  and  C7_7 
REMARK    2  A    between atoms: C1_1  and  C10_10 
REMARK    3  A    between atoms: C4_4  and  C8_8 
REMARK    4  A    between atoms: C8_8  and  C9_9 
REMARK    5  A    between atoms: C9_9  and  C10_10 
ROOT
HETATM    1  C6  UNL     1     -34.557  14.833  -6.239  1.00 20.00     0.018 C 
HETATM    2  C10 UNL     1     -35.069  14.966  -4.807  1.00 20.00     0.051 C 
ENDROOT
BRANCH   2   3
HETATM    3  C1  UNL     1     -36.139  13.899  -4.577  1.00 20.00     0.130 C 
HETATM    4  O11 UNL     1     -35.877  12.698  -4.633  1.00 20.00    -0.298 OA
BRANCH   3   5
HETATM    5  C7  UNL     1     -37.545  14.411  -4.310  1.00 20.00     0.074 C 
HETATM    6  C5  UNL     1     -37.756  15.829  -4.813  1.00 20.00     0.013 C 
ENDBRANCH   3   5
ENDBRANCH   2   3
BRANCH   2   7
HETATM    7  C9  UNL     1     -33.916  14.841  -3.799  1.00 20.00     0.012 C 
BRANCH   7   8
HETATM    8  C8  UNL     1     -33.844  16.034  -2.841  1.00 20.00     0.005 C 
BRANCH   8   9
HETATM    9  C4  UNL     1     -35.055  16.111  -1.962  1.00 20.00    -0.014 A 
HETATM   10  C2  UNL     1     -35.071  17.035  -0.776  1.00 20.00     0.005 A 
HETATM   11  C3  UNL     1     -35.923  17.338  -1.976  1.00 20.00     0.005 A 
ENDBRANCH   8   9
ENDBRANCH   7   8
ENDBRANCH   2   7
TORSDOF 5
ENDMDL
MODEL 4
REMARK VINA RESULT:      -4.4     10.891     11.682
REMARK  5 active torsions:
REMARK  status: ('A' for Active; 'I' for Inactive)
REMARK    1  A    between atoms: C1_1  and  C7_7 
REMARK    2  A    between atoms: C1_1  and  C10_10 
REMARK    3  A    between atoms: C4_4  and  C8_8 
REMARK    4  A    between atoms: C8_8  and  C9_9 
REMARK    5  A    between atoms: C9_9  and  C10_10 
ROOT
HETATM    1  C6  UNL     1     -34.510  14.926  -5.974  1.00 20.00     0.018 C 
HETATM    2  C10 UNL     1     -35.237  15.096  -4.643  1.00 20.00     0.051 C 
ENDROOT
BRANCH   2   3
HETATM    3  C1  UNL     1     -36.285  13.989  -4.521  1.00 20.00     0.130 C 
HETATM    4  O11 UNL     1     -35.978  12.800  -4.585  1.00 20.00    -0.298 OA
BRANCH   3   5
HETATM    5  C7  UNL     1     -37.724  14.449  -4.352  1.00 20.00     0.074 C 
HETATM    6  C5  UNL     1     -37.849  15.959  -4.261  1.00 20.00     0.013 C 
ENDBRANCH   3   5
ENDBRANCH   2   3
BRANCH   2   7
HETATM    7  C9  UNL     1     -34.246  15.071  -3.470  1.00 20.00     0.012 C 
BRANCH   7   8
HETATM    8  C8  UNL     1     -34.755  15.855  -2.257  1.00 20.00     0.005 C 
BRANCH   8   9
HETATM    9  C4  UNL     1     -34.238  17.261  -2.250  1.00 20.00    -0.014 A 
HETATM   10  C2  UNL     1     -33.748  17.882  -0.971  1.00 20.00     0.005 A 
HETATM   11  C3  UNL     1     -32.772  17.527  -2.058  1.00 20.00     0.005 A 
ENDBRANCH   8   9
ENDBRANCH   7   8
ENDBRANCH   2   7
TORSDOF 5
ENDMDL
MODEL 5
REMARK VINA RESULT:      -4.3      1.681      4.781
REMARK  5 active torsions:
REMARK  status: ('A' for Active; 'I' for Inactive)
REMARK    1  A    between atoms: C1_1  and  C7_7 
REMARK    2  A    between atoms: C1_1  and  C10_10 
REMARK    3  A    between atoms: C4_4  and  C8_8 
REMARK    4  A    between atoms: C8_8  and  C9_9 
REMARK    5  A    between atoms: C9_9  and  C10_10 
ROOT
HETATM    1  C6  UNL     1     -33.058   4.804   1.802  1.00 20.00     0.018 C 
HETATM    2  C10 UNL     1     -33.122   5.780   2.974  1.00 20.00     0.051 C 
ENDROOT
BRANCH   2   3
HETATM    3  C1  UNL     1     -32.378   7.055   2.581  1.00 20.00     0.130 C 
HETATM    4  O11 UNL     1     -31.731   7.705   3.401  1.00 20.00    -0.298 OA
BRANCH   3   5
HETATM    5  C7  UNL     1     -32.514   7.488   1.129  1.00 20.00     0.074 C 
HETATM    6  C5  UNL     1     -32.860   8.960   0.988  1.00 20.00     0.013 C 
ENDBRANCH   3   5
ENDBRANCH   2   3
BRANCH   2   7
HETATM    7  C9  UNL     1     -34.578   6.071   3.367  1.00 20.00     0.012 C 
BRANCH   7   8
HETATM    8  C8  UNL     1     -35.155   5.006   4.305  1.00 20.00     0.005 C 
BRANCH   8   9
HETATM    9  C4  UNL     1     -35.044   5.416   5.741  1.00 20.00    -0.014 A 
HETATM   10  C2  UNL     1     -33.761   5.194   6.495  1.00 20.00     0.005 A 
HETATM   11  C3  UNL     1     -34.186   6.588   6.129  1.00 20.00     0.005 A 
ENDBRANCH   8   9
ENDBRANCH   7   8
ENDBRANCH   2   7
TORSDOF 5
ENDMDL
MODEL 6
REMARK VINA RESULT:      -4.3     10.824     12.072
REMARK  5 active torsions:
REMARK  status: ('A' for Active; 'I' for Inactive)
REMARK    1  A    between atoms: C1_1  and  C7_7 
REMARK    2  A    between atoms: C1_1  and  C10_10 
REMARK    3  A    between atoms: C4_4  and  C8_8 
REMARK    4  A    between atoms: C8_8  and  C9_9 
REMARK    5  A    between atoms: C9_9  and  C10_10 
ROOT
HETATM    1  C6  UNL     1     -36.451  16.352  -4.072  1.00 20.00     0.018 C 
HETATM    2  C10 UNL     1     -35.892  15.001  -3.632  1.00 20.00     0.051 C 
ENDROOT
BRANCH   2   3
HETATM    3  C1  UNL     1     -35.916  14.055  -4.831  1.00 20.00     0.130 C 
HETATM    4  O11 UNL     1     -35.977  12.834  -4.690  1.00 20.00    -0.298 OA
BRANCH   3   5
HETATM    5  C7  UNL     1     -35.825  14.709  -6.200  1.00 20.00     0.074 C 
HETATM    6  C5  UNL     1     -34.390  14.940  -6.643  1.00 20.00     0.013 C 
ENDBRANCH   3   5
ENDBRANCH   2   3
BRANCH   2   7
HETATM    7  C9  UNL     1     -34.476  15.155  -3.058  1.00 20.00     0.012 C 
BRANCH   7   8
HETATM    8  C8  UNL     1     -34.302  16.457  -2.270  1.00 20.00     0.005 C 
BRANCH   8   9
HETATM    9  C4  UNL     1     -32.954  17.068  -2.502  1.00 20.00    -0.014 A 
HETATM   10  C2  UNL     1     -32.833  18.526  -2.852  1.00 20.00     0.005 A 
HETATM   11  C3  UNL     1     -32.379  18.035  -1.506  1.00 20.00     0.005 A 
ENDBRANCH   8   9
ENDBRANCH   7   8
ENDBRANCH   2   7
TORSDOF 5
ENDMDL
MODEL 7
REMARK VINA RESULT:      -4.3     11.142     12.351
REMARK  5 active torsions:
REMARK  status: ('A' for Active; 'I' for Inactive)
REMARK    1  A    between atoms: C1_1  and  C7_7 
REMARK    2  A    between atoms: C1_1  and  C10_10 
REMARK    3  A    between atoms: C4_4  and  C8_8 
REMARK    4  A    between atoms: C8_8  and  C9_9 
REMARK    5  A    between atoms: C9_9  and  C10_10 
ROOT
HETATM    1  C6  UNL     1     -32.525  18.842  -3.003  1.00 20.00     0.018 C 
HETATM    2  C10 UNL     1     -32.674  17.812  -1.886  1.00 20.00     0.051 C 
ENDROOT
BRANCH   2   3
HETATM    3  C1  UNL     1     -31.853  18.281  -0.685  1.00 20.00     0.130 C 
HETATM    4  O11 UNL     1     -30.627  18.367  -0.735  1.00 20.00    -0.298 OA
BRANCH   3   5
HETATM    5  C7  UNL     1     -32.638  18.598   0.577  1.00 20.00     0.074 C 
HETATM    6  C5  UNL     1     -31.875  18.249   1.843  1.00 20.00     0.013 C 
ENDBRANCH   3   5
ENDBRANCH   2   3
BRANCH   2   7
HETATM    7  C9  UNL     1     -34.152  17.611  -1.520  1.00 20.00     0.012 C 
BRANCH   7   8
HETATM    8  C8  UNL     1     -34.672  16.228  -1.923  1.00 20.00     0.005 C 
BRANCH   8   9
HETATM    9  C4  UNL     1     -33.919  15.673  -3.093  1.00 20.00    -0.014 A 
HETATM   10  C2  UNL     1     -34.464  14.498  -3.856  1.00 20.00     0.005 A 
HETATM   11  C3  UNL     1     -34.444  15.861  -4.489  1.00 20.00     0.005 A 
ENDBRANCH   8   9
ENDBRANCH   7   8
ENDBRANCH   2   7
TORSDOF 5
ENDMDL
MODEL 8
REMARK VINA RESULT:      -4.3     11.002     12.313
REMARK  5 active torsions:
REMARK  status: ('A' for Active; 'I' for Inactive)
REMARK    1  A    between atoms: C1_1  and  C7_7 
REMARK    2  A    between atoms: C1_1  and  C10_10 
REMARK    3  A    between atoms: C4_4  and  C8_8 
REMARK    4  A    between atoms: C8_8  and  C9_9 
REMARK    5  A    between atoms: C9_9  and  C10_10 
ROOT
HETATM    1  C6  UNL     1     -37.130  14.608  -4.197  1.00 20.00     0.018 C 
HETATM    2  C10 UNL     1     -35.791  14.051  -4.675  1.00 20.00     0.051 C 
ENDROOT
BRANCH   2   3
HETATM    3  C1  UNL     1     -35.538  14.555  -6.095  1.00 20.00     0.130 C 
HETATM    4  O11 UNL     1     -36.280  14.256  -7.029  1.00 20.00    -0.298 OA
BRANCH   3   5
HETATM    5  C7  UNL     1     -34.300  15.416  -6.287  1.00 20.00     0.074 C 
HETATM    6  C5  UNL     1     -34.633  16.885  -6.479  1.00 20.00     0.013 C 
ENDBRANCH   3   5
ENDBRANCH   2   3
BRANCH   2   7
HETATM    7  C9  UNL     1     -34.658  14.452  -3.719  1.00 20.00     0.012 C 
BRANCH   7   8
HETATM    8  C8  UNL     1     -35.126  15.422  -2.630  1.00 20.00     0.005 C 
BRANCH   8   9
HETATM    9  C4  UNL     1     -34.448  16.753  -2.747  1.00 20.00    -0.014 A 
HETATM   10  C2  UNL     1     -33.706  17.330  -1.573  1.00 20.00     0.005 A 
HETATM   11  C3  UNL     1     -32.948  16.838  -2.774  1.00 20.00     0.005 A 
ENDBRANCH   8   9
ENDBRANCH   7   8
ENDBRANCH   2   7
TORSDOF 5
ENDMDL
MODEL 9
REMARK VINA RESULT:      -4.2      2.004      5.056
REMARK  5 active torsions:
REMARK  status: ('A' for Active; 'I' for Inactive)
REMARK    1  A    between atoms: C1_1  and  C7_7 
REMARK    2  A    between atoms: C1_1  and  C10_10 
REMARK    3  A    between atoms: C4_4  and  C8_8 
REMARK    4  A    between atoms: C8_8  and  C9_9 
REMARK    5  A    between atoms: C9_9  and  C10_10 
ROOT
HETATM    1  C6  UNL     1     -31.620   7.404   3.525  1.00 20.00     0.018 C 
HETATM    2  C10 UNL     1     -32.802   7.274   2.569  1.00 20.00     0.051 C 
ENDROOT
BRANCH   2   3
HETATM    3  C1  UNL     1     -32.435   7.955   1.251  1.00 20.00     0.130 C 
HETATM    4  O11 UNL     1     -31.544   7.518   0.524  1.00 20.00    -0.298 OA
BRANCH   3   5
HETATM    5  C7  UNL     1     -33.211   9.218   0.914  1.00 20.00     0.074 C 
HETATM    6  C5  UNL     1     -33.695   9.240  -0.525  1.00 20.00     0.013 C 
ENDBRANCH   3   5
ENDBRANCH   2   3
BRANCH   2   7
HETATM    7  C9  UNL     1     -33.179   5.799   2.361  1.00 20.00     0.012 C 
BRANCH   7   8
HETATM    8  C8  UNL     1     -33.473   5.078   3.680  1.00 20.00     0.005 C 
BRANCH   8   9
HETATM    9  C4  UNL     1     -34.554   5.764   4.456  1.00 20.00    -0.014 A 
HETATM   10  C2  UNL     1     -35.032   5.189   5.761  1.00 20.00     0.005 A 
HETATM   11  C3  UNL     1     -34.233   6.462   5.748  1.00 20.00     0.005 A 
ENDBRANCH   8   9
ENDBRANCH   7   8
ENDBRANCH   2   7
TORSDOF 5
ENDMDL
