MODEL 1
REMARK VINA RESULT:      -4.8      0.000      0.000
REMARK  5 active torsions:
REMARK  status: ('A' for Active; 'I' for Inactive)
REMARK    1  A    between atoms: C1_1  and  C10_10 
REMARK    2  A    between atoms: C4_4  and  C8_8 
REMARK    3  A    between atoms: C8_8  and  C9_9 
REMARK    4  A    between atoms: C9_9  and  C10_10 
REMARK    5  A    between atoms: C10_10  and  C11_11 
ROOT
HETATM    1  C10 UNL     1     -35.101  14.849  -5.129  1.00 20.00     0.058 C 
ENDROOT
BRANCH   1   2
HETATM    2  C1  UNL     1     -36.150  13.856  -4.620  1.00 20.00     0.127 C 
HETATM    3  C5  UNL     1     -37.491  14.425  -4.229  1.00 20.00     0.091 C 
HETATM    4  O12 UNL     1     -35.921  12.652  -4.511  1.00 20.00    -0.298 OA
ENDBRANCH   1   2
BRANCH   1   5
HETATM    5  C9  UNL     1     -33.706  14.524  -4.558  1.00 20.00     0.013 C 
BRANCH   5   6
HETATM    6  C8  UNL     1     -33.188  15.625  -3.625  1.00 20.00     0.005 C 
BRANCH   6   7
HETATM    7  C4  UNL     1     -34.302  16.481  -3.105  1.00 20.00    -0.014 A 
HETATM    8  C2  UNL     1     -34.978  16.139  -1.806  1.00 20.00     0.005 A 
HETATM    9  C3  UNL     1     -34.089  17.348  -1.896  1.00 20.00     0.005 A 
ENDBRANCH   6   7
ENDBRANCH   5   6
ENDBRANCH   1   5
BRANCH   1  10
HETATM   10  C11 UNL     1     -35.156  14.905  -6.678  1.00 20.00    -0.012 C 
HETATM   11  C6  UNL     1     -36.139  15.946  -7.222  1.00 20.00     0.010 C 
HETATM   12  C7  UNL     1     -33.766  15.146  -7.276  1.00 20.00     0.010 C 
ENDBRANCH   1  10
TORSDOF 5
ENDMDL
MODEL 2
REMARK VINA RESULT:      -4.5      1.241      1.544
REMARK  5 active torsions:
REMARK  status: ('A' for Active; 'I' for Inactive)
REMARK    1  A    between atoms: C1_1  and  C10_10 
REMARK    2  A    between atoms: C4_4  and  C8_8 
REMARK    3  A    between atoms: C8_8  and  C9_9 
REMARK    4  A    between atoms: C9_9  and  C10_10 
REMARK    5  A    between atoms: C10_10  and  C11_11 
ROOT
HETATM    1  C10 UNL     1     -35.891  15.245  -4.705  1.00 20.00     0.058 C 
ENDROOT
BRANCH   1   2
HETATM    2  C1  UNL     1     -37.338  14.817  -4.441  1.00 20.00     0.127 C 
HETATM    3  C5  UNL     1     -38.329  15.914  -4.145  1.00 20.00     0.091 C 
HETATM    4  O12 UNL     1     -37.688  13.636  -4.446  1.00 20.00    -0.298 OA
ENDBRANCH   1   2
BRANCH   1   5
HETATM    5  C9  UNL     1     -34.938  14.668  -3.641  1.00 20.00     0.013 C 
BRANCH   5   6
HETATM    6  C8  UNL     1     -34.557  15.705  -2.577  1.00 20.00     0.005 C 
BRANCH   6   7
HETATM    7  C4  UNL     1     -33.246  16.360  -2.887  1.00 20.00    -0.014 A 
HETATM    8  C2  UNL     1     -33.210  17.706  -3.557  1.00 20.00     0.005 A 
HETATM    9  C3  UNL     1     -32.805  17.573  -2.115  1.00 20.00     0.005 A 
ENDBRANCH   6   7
ENDBRANCH   5   6
ENDBRANCH   1   5
BRANCH   1  10
HETATM   10  C11 UNL     1     -35.508  14.883  -6.164  1.00 20.00    -0.012 C 
HETATM   11  C6  UNL     1     -36.249  15.711  -7.219  1.00 20.00     0.010 C 
HETATM   12  C7  UNL     1     -33.996  14.997  -6.387  1.00 20.00     0.010 C 
ENDBRANCH   1  10
TORSDOF 5
ENDMDL
MODEL 3
REMARK VINA RESULT:      -4.3      1.098      1.292
REMARK  5 active torsions:
REMARK  status: ('A' for Active; 'I' for Inactive)
REMARK    1  A    between atoms: C1_1  and  C10_10 
REMARK    2  A    between atoms: C4_4  and  C8_8 
REMARK    3  A    between atoms: C8_8  and  C9_9 
REMARK    4  A    between atoms: C9_9  and  C10_10 
REMARK    5  A    between atoms: C10_10  and  C11_11 
ROOT
HETATM    1  C10 UNL     1     -35.765  15.222  -4.799  1.00 20.00     0.058 C 
ENDROOT
BRANCH   1   2
HETATM    2  C1  UNL     1     -37.195  14.781  -4.475  1.00 20.00     0.127 C 
HETATM    3  C5  UNL     1     -38.181  15.870  -4.134  1.00 20.00     0.091 C 
HETATM    4  O12 UNL     1     -37.537  13.599  -4.470  1.00 20.00    -0.298 OA
ENDBRANCH   1   2
BRANCH   1   5
HETATM    5  C9  UNL     1     -34.765  14.659  -3.769  1.00 20.00     0.013 C 
BRANCH   5   6
HETATM    6  C8  UNL     1     -34.159  15.758  -2.886  1.00 20.00     0.005 C 
BRANCH   6   7
HETATM    7  C4  UNL     1     -35.135  16.240  -1.856  1.00 20.00    -0.014 A 
HETATM    8  C2  UNL     1     -34.707  17.235  -0.814  1.00 20.00     0.005 A 
HETATM    9  C3  UNL     1     -35.652  17.651  -1.907  1.00 20.00     0.005 A 
ENDBRANCH   6   7
ENDBRANCH   5   6
ENDBRANCH   1   5
BRANCH   1  10
HETATM   10  C11 UNL     1     -35.435  14.855  -6.269  1.00 20.00    -0.012 C 
HETATM   11  C6  UNL     1     -36.211  15.682  -7.299  1.00 20.00     0.010 C 
HETATM   12  C7  UNL     1     -33.932  14.963  -6.547  1.00 20.00     0.010 C 
ENDBRANCH   1  10
TORSDOF 5
ENDMDL
MODEL 4
REMARK VINA RESULT:      -4.2      1.321      1.529
REMARK  5 active torsions:
REMARK  status: ('A' for Active; 'I' for Inactive)
REMARK    1  A    between atoms: C1_1  and  C10_10 
REMARK    2  A    between atoms: C4_4  and  C8_8 
REMARK    3  A    between atoms: C8_8  and  C9_9 
REMARK    4  A    between atoms: C9_9  and  C10_10 
REMARK    5  A    between atoms: C10_10  and  C11_11 
ROOT
HETATM    1  C10 UNL     1     -34.813  15.436  -4.308  1.00 20.00     0.058 C 
ENDROOT
BRANCH   1   2
HETATM    2  C1  UNL     1     -35.256  13.970  -4.271  1.00 20.00     0.127 C 
HETATM    3  C5  UNL     1     -36.702  13.688  -4.596  1.00 20.00     0.091 C 
HETATM    4  O12 UNL     1     -34.488  13.056  -3.972  1.00 20.00    -0.298 OA
ENDBRANCH   1   2
BRANCH   1   5
HETATM    5  C9  UNL     1     -33.470  15.629  -3.578  1.00 20.00     0.013 C 
BRANCH   5   6
HETATM    6  C8  UNL     1     -33.600  16.541  -2.352  1.00 20.00     0.005 C 
BRANCH   6   7
HETATM    7  C4  UNL     1     -34.976  16.482  -1.761  1.00 20.00    -0.014 A 
HETATM    8  C2  UNL     1     -35.242  17.063  -0.401  1.00 20.00     0.005 A 
HETATM    9  C3  UNL     1     -35.795  17.735  -1.627  1.00 20.00     0.005 A 
ENDBRANCH   6   7
ENDBRANCH   5   6
ENDBRANCH   1   5
BRANCH   1  10
HETATM   10  C11 UNL     1     -34.814  15.934  -5.777  1.00 20.00    -0.012 C 
HETATM   11  C6  UNL     1     -34.459  17.418  -5.924  1.00 20.00     0.010 C 
HETATM   12  C7  UNL     1     -33.881  15.091  -6.653  1.00 20.00     0.010 C 
ENDBRANCH   1  10
TORSDOF 5
ENDMDL
MODEL 5
REMARK VINA RESULT:      -4.2      1.148      2.021
REMARK  5 active torsions:
REMARK  status: ('A' for Active; 'I' for Inactive)
REMARK    1  A    between atoms: C1_1  and  C10_10 
REMARK    2  A    between atoms: C4_4  and  C8_8 
REMARK    3  A    between atoms: C8_8  and  C9_9 
REMARK    4  A    between atoms: C9_9  and  C10_10 
REMARK    5  A    between atoms: C10_10  and  C11_11 
ROOT
HETATM    1  C10 UNL     1     -35.578  15.388  -4.135  1.00 20.00     0.058 C 
ENDROOT
BRANCH   1   2
HETATM    2  C1  UNL     1     -36.969  14.774  -4.312  1.00 20.00     0.127 C 
HETATM    3  C5  UNL     1     -38.145  15.715  -4.221  1.00 20.00     0.091 C 
HETATM    4  O12 UNL     1     -37.140  13.570  -4.501  1.00 20.00    -0.298 OA
ENDBRANCH   1   2
BRANCH   1   5
HETATM    5  C9  UNL     1     -35.112  15.295  -2.669  1.00 20.00     0.013 C 
BRANCH   5   6
HETATM    6  C8  UNL     1     -34.920  16.677  -2.031  1.00 20.00     0.005 C 
BRANCH   6   7
HETATM    7  C4  UNL     1     -33.479  17.087  -2.022  1.00 20.00    -0.014 A 
HETATM    8  C2  UNL     1     -32.918  17.908  -3.149  1.00 20.00     0.005 A 
HETATM    9  C3  UNL     1     -33.104  18.525  -1.790  1.00 20.00     0.005 A 
ENDBRANCH   6   7
ENDBRANCH   5   6
ENDBRANCH   1   5
BRANCH   1  10
HETATM   10  C11 UNL     1     -34.600  14.746  -5.154  1.00 20.00    -0.012 C 
HETATM   11  C6  UNL     1     -34.390  15.584  -6.419  1.00 20.00     0.010 C 
HETATM   12  C7  UNL     1     -33.245  14.437  -4.508  1.00 20.00     0.010 C 
ENDBRANCH   1  10
TORSDOF 5
ENDMDL
MODEL 6
REMARK VINA RESULT:      -4.2      1.392      2.845
REMARK  5 active torsions:
REMARK  status: ('A' for Active; 'I' for Inactive)
REMARK    1  A    between atoms: C1_1  and  C10_10 
REMARK    2  A    between atoms: C4_4  and  C8_8 
REMARK    3  A    between atoms: C8_8  and  C9_9 
REMARK    4  A    between atoms: C9_9  and  C10_10 
REMARK    5  A    between atoms: C10_10  and  C11_11 
ROOT
HETATM    1  C10 UNL     1     -36.881  14.946  -3.999  1.00 20.00     0.058 C 
ENDROOT
BRANCH   1   2
HETATM    2  C1  UNL     1     -36.134  13.955  -4.897  1.00 20.00     0.127 C 
HETATM    3  C5  UNL     1     -35.617  14.485  -6.211  1.00 20.00     0.091 C 
HETATM    4  O12 UNL     1     -35.973  12.775  -4.586  1.00 20.00    -0.298 OA
ENDBRANCH   1   2
BRANCH   1   5
HETATM    5  C9  UNL     1     -35.936  16.050  -3.484  1.00 20.00     0.013 C 
BRANCH   5   6
HETATM    6  C8  UNL     1     -34.763  15.482  -2.676  1.00 20.00     0.005 C 
BRANCH   6   7
HETATM    7  C4  UNL     1     -33.460  16.101  -3.080  1.00 20.00    -0.014 A 
HETATM    8  C2  UNL     1     -33.431  17.474  -3.691  1.00 20.00     0.005 A 
HETATM    9  C3  UNL     1     -32.899  17.258  -2.302  1.00 20.00     0.005 A 
ENDBRANCH   6   7
ENDBRANCH   5   6
ENDBRANCH   1   5
BRANCH   1  10
HETATM   10  C11 UNL     1     -38.129  15.478  -4.749  1.00 20.00    -0.012 C 
HETATM   11  C6  UNL     1     -39.455  14.946  -4.195  1.00 20.00     0.010 C 
HETATM   12  C7  UNL     1     -38.156  17.010  -4.770  1.00 20.00     0.010 C 
ENDBRANCH   1  10
TORSDOF 5
ENDMDL
MODEL 7
REMARK VINA RESULT:      -4.1      1.385      4.005
REMARK  5 active torsions:
REMARK  status: ('A' for Active; 'I' for Inactive)
REMARK    1  A    between atoms: C1_1  and  C10_10 
REMARK    2  A    between atoms: C4_4  and  C8_8 
REMARK    3  A    between atoms: C8_8  and  C9_9 
REMARK    4  A    between atoms: C9_9  and  C10_10 
REMARK    5  A    between atoms: C10_10  and  C11_11 
ROOT
HETATM    1  C10 UNL     1     -34.742  15.469  -4.186  1.00 20.00     0.058 C 
ENDROOT
BRANCH   1   2
HETATM    2  C1  UNL     1     -35.219  14.014  -4.212  1.00 20.00     0.127 C 
HETATM    3  C5  UNL     1     -36.672  13.780  -4.542  1.00 20.00     0.091 C 
HETATM    4  O12 UNL     1     -34.472  13.069  -3.959  1.00 20.00    -0.298 OA
ENDBRANCH   1   2
BRANCH   1   5
HETATM    5  C9  UNL     1     -35.883  16.434  -4.563  1.00 20.00     0.013 C 
BRANCH   5   6
HETATM    6  C8  UNL     1     -35.679  17.063  -5.947  1.00 20.00     0.005 C 
BRANCH   6   7
HETATM    7  C4  UNL     1     -34.392  16.619  -6.573  1.00 20.00    -0.014 A 
HETATM    8  C2  UNL     1     -34.405  15.717  -7.775  1.00 20.00     0.005 A 
HETATM    9  C3  UNL     1     -33.982  17.153  -7.918  1.00 20.00     0.005 A 
ENDBRANCH   6   7
ENDBRANCH   5   6
ENDBRANCH   1   5
BRANCH   1  10
HETATM   10  C11 UNL     1     -34.085  15.768  -2.813  1.00 20.00    -0.012 C 
HETATM   11  C6  UNL     1     -32.950  16.795  -2.885  1.00 20.00     0.010 C 
HETATM   12  C7  UNL     1     -35.126  16.220  -1.784  1.00 20.00     0.010 C 
ENDBRANCH   1  10
TORSDOF 5
ENDMDL
MODEL 8
REMARK VINA RESULT:      -4.1      1.840      3.248
REMARK  5 active torsions:
REMARK  status: ('A' for Active; 'I' for Inactive)
REMARK    1  A    between atoms: C1_1  and  C10_10 
REMARK    2  A    between atoms: C4_4  and  C8_8 
REMARK    3  A    between atoms: C8_8  and  C9_9 
REMARK    4  A    between atoms: C9_9  and  C10_10 
REMARK    5  A    between atoms: C10_10  and  C11_11 
ROOT
HETATM    1  C10 UNL     1     -35.286  15.119  -4.618  1.00 20.00     0.058 C 
ENDROOT
BRANCH   1   2
HETATM    2  C1  UNL     1     -36.311  13.987  -4.503  1.00 20.00     0.127 C 
HETATM    3  C5  UNL     1     -37.752  14.390  -4.313  1.00 20.00     0.091 C 
HETATM    4  O12 UNL     1     -35.989  12.799  -4.541  1.00 20.00    -0.298 OA
ENDBRANCH   1   2
BRANCH   1   5
HETATM    5  C9  UNL     1     -35.974  16.458  -4.949  1.00 20.00     0.013 C 
BRANCH   5   6
HETATM    6  C8  UNL     1     -35.257  17.218  -6.073  1.00 20.00     0.005 C 
BRANCH   6   7
HETATM    7  C4  UNL     1     -34.982  18.641  -5.691  1.00 20.00    -0.014 A 
HETATM    8  C2  UNL     1     -34.646  18.992  -4.269  1.00 20.00     0.005 A 
HETATM    9  C3  UNL     1     -33.586  19.071  -5.332  1.00 20.00     0.005 A 
ENDBRANCH   6   7
ENDBRANCH   5   6
ENDBRANCH   1   5
BRANCH   1  10
HETATM   10  C11 UNL     1     -34.414  15.154  -3.336  1.00 20.00    -0.012 C 
HETATM   11  C6  UNL     1     -33.001  15.700  -3.566  1.00 20.00     0.010 C 
HETATM   12  C7  UNL     1     -35.098  15.949  -2.218  1.00 20.00     0.010 C 
ENDBRANCH   1  10
TORSDOF 5
ENDMDL
MODEL 9
REMARK VINA RESULT:      -4.0     15.873     18.425
REMARK  5 active torsions:
REMARK  status: ('A' for Active; 'I' for Inactive)
REMARK    1  A    between atoms: C1_1  and  C10_10 
REMARK    2  A    between atoms: C4_4  and  C8_8 
REMARK    3  A    between atoms: C8_8  and  C9_9 
REMARK    4  A    between atoms: C9_9  and  C10_10 
REMARK    5  A    between atoms: C10_10  and  C11_11 
ROOT
HETATM    1  C10 UNL     1     -23.740  18.755   8.716  1.00 20.00     0.058 C 
ENDROOT
BRANCH   1   2
HETATM    2  C1  UNL     1     -24.330  18.980   7.321  1.00 20.00     0.127 C 
HETATM    3  C5  UNL     1     -25.809  19.263   7.246  1.00 20.00     0.091 C 
HETATM    4  O12 UNL     1     -23.648  18.917   6.298  1.00 20.00    -0.298 OA
ENDBRANCH   1   2
BRANCH   1   5
HETATM    5  C9  UNL     1     -24.704  17.942   9.603  1.00 20.00     0.013 C 
BRANCH   5   6
HETATM    6  C8  UNL     1     -24.871  18.558  10.997  1.00 20.00     0.005 C 
BRANCH   6   7
HETATM    7  C4  UNL     1     -24.593  17.560  12.080  1.00 20.00    -0.014 A 
HETATM    8  C2  UNL     1     -24.240  16.141  11.731  1.00 20.00     0.005 A 
HETATM    9  C3  UNL     1     -23.194  17.057  12.304  1.00 20.00     0.005 A 
ENDBRANCH   6   7
ENDBRANCH   5   6
ENDBRANCH   1   5
BRANCH   1  10
HETATM   10  C11 UNL     1     -22.325  18.133   8.581  1.00 20.00    -0.012 C 
HETATM   11  C6  UNL     1     -21.344  18.592   9.664  1.00 20.00     0.010 C 
HETATM   12  C7  UNL     1     -22.390  16.602   8.557  1.00 20.00     0.010 C 
ENDBRANCH   1  10
TORSDOF 5
ENDMDL
