MODEL 1
REMARK VINA RESULT:      -4.9      0.000      0.000
REMARK  1 active torsions:
REMARK  status: ('A' for Active; 'I' for Inactive)
REMARK    1  A    between atoms: C7_7  and  N12_12 
ROOT
HETATM    1  C1  UNL     1     -33.951  14.729  -4.546  1.00 20.00     0.134 C 
HETATM    2  C2  UNL     1     -32.869  15.437  -3.760  1.00 20.00     0.106 C 
HETATM    3  C4  UNL     1     -33.414  16.667  -3.057  1.00 20.00     0.243 C 
HETATM    4  C5  UNL     1     -35.235  14.422  -3.782  1.00 20.00     0.082 C 
HETATM    5  C8  UNL     1     -35.773  15.700  -3.109  1.00 20.00     0.195 C 
HETATM    6  C9  UNL     1     -36.270  13.738  -4.672  1.00 20.00     0.020 C 
HETATM    7  C11 UNL     1     -36.350  16.730  -4.083  1.00 20.00     0.041 C 
HETATM    8  N12 UNL     1     -34.645  16.293  -2.269  1.00 20.00    -0.061 N 
HETATM    9  O13 UNL     1     -33.753  14.356  -5.701  1.00 20.00    -0.297 OA
HETATM   10  H33 UNL     1     -34.360  15.552  -1.612  1.00 20.00     0.280 HD
ENDROOT
BRANCH   8  11
HETATM   11  C7  UNL     1     -35.096  17.427  -1.372  1.00 20.00     0.193 A 
HETATM   12  C3  UNL     1     -34.117  17.939  -0.350  1.00 20.00     0.040 A 
HETATM   13  C6  UNL     1     -35.302  17.120   0.087  1.00 20.00     0.014 A 
HETATM   14  C10 UNL     1     -36.421  17.763   0.835  1.00 20.00     0.012 C 
ENDBRANCH   8  11
TORSDOF 1
ENDMDL
MODEL 2
REMARK VINA RESULT:      -4.7      1.020      1.255
REMARK  1 active torsions:
REMARK  status: ('A' for Active; 'I' for Inactive)
REMARK    1  A    between atoms: C7_7  and  N12_12 
ROOT
HETATM    1  C1  UNL     1     -34.262  14.688  -4.614  1.00 20.00     0.134 C 
HETATM    2  C2  UNL     1     -32.982  15.192  -3.984  1.00 20.00     0.106 C 
HETATM    3  C4  UNL     1     -33.220  16.470  -3.201  1.00 20.00     0.243 C 
HETATM    4  C5  UNL     1     -35.461  14.565  -3.678  1.00 20.00     0.082 C 
HETATM    5  C8  UNL     1     -35.687  15.890  -2.926  1.00 20.00     0.195 C 
HETATM    6  C9  UNL     1     -36.705  14.080  -4.418  1.00 20.00     0.020 C 
HETATM    7  C11 UNL     1     -36.220  17.028  -3.801  1.00 20.00     0.041 C 
HETATM    8  N12 UNL     1     -34.374  16.272  -2.250  1.00 20.00    -0.061 N 
HETATM    9  O13 UNL     1     -34.289  14.324  -5.789  1.00 20.00    -0.297 OA
HETATM   10  H33 UNL     1     -34.122  15.475  -1.645  1.00 20.00     0.280 HD
ENDROOT
BRANCH   8  11
HETATM   11  C7  UNL     1     -34.507  17.435  -1.289  1.00 20.00     0.193 A 
HETATM   12  C3  UNL     1     -33.968  18.769  -1.730  1.00 20.00     0.040 A 
HETATM   13  C6  UNL     1     -33.246  17.978  -0.673  1.00 20.00     0.014 A 
HETATM   14  C10 UNL     1     -33.246  18.444   0.743  1.00 20.00     0.012 C 
ENDBRANCH   8  11
TORSDOF 1
ENDMDL
MODEL 3
REMARK VINA RESULT:      -4.7      1.663      3.009
REMARK  1 active torsions:
REMARK  status: ('A' for Active; 'I' for Inactive)
REMARK    1  A    between atoms: C7_7  and  N12_12 
ROOT
HETATM    1  C1  UNL     1     -35.925  14.887  -5.990  1.00 20.00     0.134 C 
HETATM    2  C2  UNL     1     -36.820  15.155  -4.800  1.00 20.00     0.106 C 
HETATM    3  C4  UNL     1     -36.029  15.156  -3.505  1.00 20.00     0.243 C 
HETATM    4  C5  UNL     1     -34.675  15.756  -6.091  1.00 20.00     0.082 C 
HETATM    5  C8  UNL     1     -33.884  15.707  -4.770  1.00 20.00     0.195 C 
HETATM    6  C9  UNL     1     -33.828  15.384  -7.306  1.00 20.00     0.020 C 
HETATM    7  C11 UNL     1     -33.189  14.370  -4.501  1.00 20.00     0.041 C 
HETATM    8  N12 UNL     1     -34.841  16.078  -3.640  1.00 20.00    -0.061 N 
HETATM    9  O13 UNL     1     -36.249  14.075  -6.856  1.00 20.00    -0.297 OA
HETATM   10  H33 UNL     1     -35.217  17.008  -3.879  1.00 20.00     0.280 HD
ENDROOT
BRANCH   8  11
HETATM   11  C7  UNL     1     -34.149  16.291  -2.310  1.00 20.00     0.193 A 
HETATM   12  C3  UNL     1     -34.937  16.953  -1.213  1.00 20.00     0.040 A 
HETATM   13  C6  UNL     1     -33.835  17.707  -1.908  1.00 20.00     0.014 A 
HETATM   14  C10 UNL     1     -32.568  18.014  -1.186  1.00 20.00     0.012 C 
ENDBRANCH   8  11
TORSDOF 1
ENDMDL
MODEL 4
REMARK VINA RESULT:      -4.5      1.874      2.370
REMARK  1 active torsions:
REMARK  status: ('A' for Active; 'I' for Inactive)
REMARK    1  A    between atoms: C7_7  and  N12_12 
ROOT
HETATM    1  C1  UNL     1     -35.920  13.959  -4.464  1.00 20.00     0.134 C 
HETATM    2  C2  UNL     1     -34.503  13.895  -3.939  1.00 20.00     0.106 C 
HETATM    3  C4  UNL     1     -33.905  15.282  -3.797  1.00 20.00     0.243 C 
HETATM    4  C5  UNL     1     -36.860  14.909  -3.728  1.00 20.00     0.082 C 
HETATM    5  C8  UNL     1     -36.231  16.313  -3.632  1.00 20.00     0.195 C 
HETATM    6  C9  UNL     1     -38.252  14.922  -4.356  1.00 20.00     0.020 C 
HETATM    7  C11 UNL     1     -36.170  17.068  -4.963  1.00 20.00     0.041 C 
HETATM    8  N12 UNL     1     -34.846  16.160  -3.010  1.00 20.00    -0.061 N 
HETATM    9  O13 UNL     1     -36.293  13.219  -5.374  1.00 20.00    -0.297 OA
HETATM   10  H33 UNL     1     -34.992  15.694  -2.102  1.00 20.00     0.280 HD
ENDROOT
BRANCH   8  11
HETATM   11  C7  UNL     1     -34.201  17.481  -2.646  1.00 20.00     0.193 A 
HETATM   12  C3  UNL     1     -32.971  17.890  -3.411  1.00 20.00     0.040 A 
HETATM   13  C6  UNL     1     -32.853  17.437  -1.980  1.00 20.00     0.014 A 
HETATM   14  C10 UNL     1     -32.516  18.419  -0.910  1.00 20.00     0.012 C 
ENDBRANCH   8  11
TORSDOF 1
ENDMDL
MODEL 5
REMARK VINA RESULT:      -4.3      1.578      2.289
REMARK  1 active torsions:
REMARK  status: ('A' for Active; 'I' for Inactive)
REMARK    1  A    between atoms: C7_7  and  N12_12 
ROOT
HETATM    1  C1  UNL     1     -36.137  14.561  -5.631  1.00 20.00     0.134 C 
HETATM    2  C2  UNL     1     -35.793  13.978  -4.278  1.00 20.00     0.106 C 
HETATM    3  C4  UNL     1     -35.089  14.997  -3.402  1.00 20.00     0.243 C 
HETATM    4  C5  UNL     1     -36.873  15.897  -5.612  1.00 20.00     0.082 C 
HETATM    5  C8  UNL     1     -36.112  16.912  -4.739  1.00 20.00     0.195 C 
HETATM    6  C9  UNL     1     -37.143  16.411  -7.024  1.00 20.00     0.020 C 
HETATM    7  C11 UNL     1     -34.797  17.406  -5.348  1.00 20.00     0.041 C 
HETATM    8  N12 UNL     1     -35.891  16.275  -3.370  1.00 20.00    -0.061 N 
HETATM    9  O13 UNL     1     -35.905  13.938  -6.667  1.00 20.00    -0.297 OA
HETATM   10  H33 UNL     1     -36.827  16.025  -3.017  1.00 20.00     0.280 HD
ENDROOT
BRANCH   8  11
HETATM   11  C7  UNL     1     -35.354  17.242  -2.335  1.00 20.00     0.193 A 
HETATM   12  C3  UNL     1     -33.963  17.002  -1.812  1.00 20.00     0.040 A 
HETATM   13  C6  UNL     1     -35.156  16.725  -0.936  1.00 20.00     0.014 A 
HETATM   14  C10 UNL     1     -35.446  17.604   0.233  1.00 20.00     0.012 C 
ENDBRANCH   8  11
TORSDOF 1
ENDMDL
MODEL 6
REMARK VINA RESULT:      -4.3      2.449      5.125
REMARK  1 active torsions:
REMARK  status: ('A' for Active; 'I' for Inactive)
REMARK    1  A    between atoms: C7_7  and  N12_12 
ROOT
HETATM    1  C1  UNL     1     -34.036  18.133  -0.439  1.00 20.00     0.134 C 
HETATM    2  C2  UNL     1     -35.182  17.149  -0.360  1.00 20.00     0.106 C 
HETATM    3  C4  UNL     1     -35.616  16.696  -1.742  1.00 20.00     0.243 C 
HETATM    4  C5  UNL     1     -32.847  17.702  -1.294  1.00 20.00     0.082 C 
HETATM    5  C8  UNL     1     -33.325  17.280  -2.697  1.00 20.00     0.195 C 
HETATM    6  C9  UNL     1     -31.764  18.777  -1.332  1.00 20.00     0.020 C 
HETATM    7  C11 UNL     1     -33.805  18.439  -3.574  1.00 20.00     0.041 C 
HETATM    8  N12 UNL     1     -34.412  16.224  -2.520  1.00 20.00    -0.061 N 
HETATM    9  O13 UNL     1     -34.045  19.171   0.221  1.00 20.00    -0.297 OA
HETATM   10  H33 UNL     1     -33.985  15.465  -1.968  1.00 20.00     0.280 HD
ENDROOT
BRANCH   8  11
HETATM   11  C7  UNL     1     -34.816  15.553  -3.816  1.00 20.00     0.193 A 
HETATM   12  C3  UNL     1     -34.734  14.052  -3.879  1.00 20.00     0.040 A 
HETATM   13  C6  UNL     1     -33.732  14.892  -4.625  1.00 20.00     0.014 A 
HETATM   14  C10 UNL     1     -33.768  14.954  -6.113  1.00 20.00     0.012 C 
ENDBRANCH   8  11
TORSDOF 1
ENDMDL
MODEL 7
REMARK VINA RESULT:      -4.2      2.011      3.562
REMARK  1 active torsions:
REMARK  status: ('A' for Active; 'I' for Inactive)
REMARK    1  A    between atoms: C7_7  and  N12_12 
ROOT
HETATM    1  C1  UNL     1     -35.210  13.732  -4.250  1.00 20.00     0.134 C 
HETATM    2  C2  UNL     1     -36.686  13.937  -4.512  1.00 20.00     0.106 C 
HETATM    3  C4  UNL     1     -37.189  15.214  -3.863  1.00 20.00     0.243 C 
HETATM    4  C5  UNL     1     -34.307  14.922  -4.563  1.00 20.00     0.082 C 
HETATM    5  C8  UNL     1     -34.833  16.189  -3.863  1.00 20.00     0.195 C 
HETATM    6  C9  UNL     1     -32.847  14.621  -4.234  1.00 20.00     0.020 C 
HETATM    7  C11 UNL     1     -34.657  16.188  -2.342  1.00 20.00     0.041 C 
HETATM    8  N12 UNL     1     -36.297  16.365  -4.257  1.00 20.00    -0.061 N 
HETATM    9  O13 UNL     1     -34.777  12.639  -3.888  1.00 20.00    -0.297 OA
HETATM   10  H33 UNL     1     -36.311  16.409  -5.287  1.00 20.00     0.280 HD
ENDROOT
BRANCH   8  11
HETATM   11  C7  UNL     1     -36.881  17.694  -3.823  1.00 20.00     0.193 A 
HETATM   12  C3  UNL     1     -37.830  17.690  -2.655  1.00 20.00     0.040 A 
HETATM   13  C6  UNL     1     -38.353  17.914  -4.049  1.00 20.00     0.014 A 
HETATM   14  C10 UNL     1     -38.853  19.258  -4.454  1.00 20.00     0.012 C 
ENDBRANCH   8  11
TORSDOF 1
ENDMDL
MODEL 8
REMARK VINA RESULT:      -4.1      2.337      3.902
REMARK  1 active torsions:
REMARK  status: ('A' for Active; 'I' for Inactive)
REMARK    1  A    between atoms: C7_7  and  N12_12 
ROOT
HETATM    1  C1  UNL     1     -34.113  16.082  -2.695  1.00 20.00     0.134 C 
HETATM    2  C2  UNL     1     -35.279  16.625  -1.898  1.00 20.00     0.106 C 
HETATM    3  C4  UNL     1     -36.480  16.888  -2.788  1.00 20.00     0.243 C 
HETATM    4  C5  UNL     1     -34.422  14.890  -3.597  1.00 20.00     0.082 C 
HETATM    5  C8  UNL     1     -35.626  15.207  -4.505  1.00 20.00     0.195 C 
HETATM    6  C9  UNL     1     -33.189  14.442  -4.377  1.00 20.00     0.020 C 
HETATM    7  C11 UNL     1     -35.333  16.232  -5.604  1.00 20.00     0.041 C 
HETATM    8  N12 UNL     1     -36.777  15.659  -3.611  1.00 20.00    -0.061 N 
HETATM    9  O13 UNL     1     -32.978  16.532  -2.544  1.00 20.00    -0.297 OA
HETATM   10  H33 UNL     1     -36.936  14.890  -2.943  1.00 20.00     0.280 HD
ENDROOT
BRANCH   8  11
HETATM   11  C7  UNL     1     -38.095  15.787  -4.346  1.00 20.00     0.193 A 
HETATM   12  C3  UNL     1     -38.677  17.167  -4.497  1.00 20.00     0.040 A 
HETATM   13  C6  UNL     1     -39.304  16.185  -3.543  1.00 20.00     0.014 A 
HETATM   14  C10 UNL     1     -40.634  15.588  -3.850  1.00 20.00     0.012 C 
ENDBRANCH   8  11
TORSDOF 1
ENDMDL
MODEL 9
REMARK VINA RESULT:      -4.1      2.305      3.254
REMARK  1 active torsions:
REMARK  status: ('A' for Active; 'I' for Inactive)
REMARK    1  A    between atoms: C7_7  and  N12_12 
ROOT
HETATM    1  C1  UNL     1     -33.859  17.451  -3.823  1.00 20.00     0.134 C 
HETATM    2  C2  UNL     1     -32.771  18.501  -3.858  1.00 20.00     0.106 C 
HETATM    3  C4  UNL     1     -32.698  19.263  -2.547  1.00 20.00     0.243 C 
HETATM    4  C5  UNL     1     -33.839  16.511  -2.622  1.00 20.00     0.082 C 
HETATM    5  C8  UNL     1     -33.796  17.321  -1.312  1.00 20.00     0.195 C 
HETATM    6  C9  UNL     1     -34.994  15.514  -2.668  1.00 20.00     0.020 C 
HETATM    7  C11 UNL     1     -35.099  18.054  -0.982  1.00 20.00     0.041 C 
HETATM    8  N12 UNL     1     -32.618  18.287  -1.400  1.00 20.00    -0.061 N 
HETATM    9  O13 UNL     1     -34.649  17.326  -4.759  1.00 20.00    -0.297 OA
HETATM   10  H33 UNL     1     -31.784  17.703  -1.569  1.00 20.00     0.280 HD
ENDROOT
BRANCH   8  11
HETATM   11  C7  UNL     1     -32.316  18.989  -0.092  1.00 20.00     0.193 A 
HETATM   12  C3  UNL     1     -30.923  18.864   0.461  1.00 20.00     0.040 A 
HETATM   13  C6  UNL     1     -32.062  18.130   1.117  1.00 20.00     0.014 A 
HETATM   14  C10 UNL     1     -32.557  18.560   2.456  1.00 20.00     0.012 C 
ENDBRANCH   8  11
TORSDOF 1
ENDMDL
