MODEL 1
REMARK VINA RESULT:      -5.9      0.000      0.000
REMARK  3 active torsions:
REMARK  status: ('A' for Active; 'I' for Inactive)
REMARK    1  A    between atoms: C7_7  and  C9_9 
REMARK    2  A    between atoms: C8_8  and  C10_10 
REMARK    3  A    between atoms: C9_9  and  C10_10 
ROOT
HETATM    1  C1  UNL     1     -34.000   6.570   5.258  1.00 20.00     0.131 C 
HETATM    2  C2  UNL     1     -34.677   5.288   5.675  1.00 20.00     0.079 C 
HETATM    3  C3  UNL     1     -35.061   4.682   4.330  1.00 20.00     0.008 C 
HETATM    4  C4  UNL     1     -33.974   5.158   3.375  1.00 20.00     0.013 C 
HETATM    5  C7  UNL     1     -33.748   6.621   3.765  1.00 20.00     0.055 C 
HETATM    6  O11 UNL     1     -33.693   7.460   6.042  1.00 20.00    -0.298 OA
ENDROOT
BRANCH   5   7
HETATM    7  C9  UNL     1     -32.361   7.120   3.414  1.00 20.00     0.012 C 
BRANCH   7   8
HETATM    8  C10 UNL     1     -32.179   7.268   1.904  1.00 20.00     0.005 C 
BRANCH   8   9
HETATM    9  C8  UNL     1     -33.209   8.213   1.305  1.00 20.00    -0.014 A 
HETATM   10  C5  UNL     1     -32.778   9.528   0.715  1.00 20.00     0.005 A 
HETATM   11  C6  UNL     1     -33.267   8.425  -0.183  1.00 20.00     0.005 A 
ENDBRANCH   8   9
ENDBRANCH   7   8
ENDBRANCH   5   7
TORSDOF 3
ENDMDL
MODEL 2
REMARK VINA RESULT:      -5.5      1.506      1.896
REMARK  3 active torsions:
REMARK  status: ('A' for Active; 'I' for Inactive)
REMARK    1  A    between atoms: C7_7  and  C9_9 
REMARK    2  A    between atoms: C8_8  and  C10_10 
REMARK    3  A    between atoms: C9_9  and  C10_10 
ROOT
HETATM    1  C1  UNL     1     -34.204   4.819   4.361  1.00 20.00     0.131 C 
HETATM    2  C2  UNL     1     -34.991   5.267   5.567  1.00 20.00     0.079 C 
HETATM    3  C3  UNL     1     -34.233   6.518   5.993  1.00 20.00     0.008 C 
HETATM    4  C4  UNL     1     -33.685   7.091   4.692  1.00 20.00     0.013 C 
HETATM    5  C7  UNL     1     -33.199   5.864   3.918  1.00 20.00     0.055 C 
HETATM    6  O11 UNL     1     -34.366   3.737   3.810  1.00 20.00    -0.298 OA
ENDROOT
BRANCH   5   7
HETATM    7  C9  UNL     1     -33.188   6.076   2.417  1.00 20.00     0.012 C 
BRANCH   7   8
HETATM    8  C10 UNL     1     -32.447   7.357   2.034  1.00 20.00     0.005 C 
BRANCH   8   9
HETATM    9  C8  UNL     1     -33.319   8.283   1.203  1.00 20.00    -0.014 A 
HETATM   10  C5  UNL     1     -32.784   9.605   0.727  1.00 20.00     0.005 A 
HETATM   11  C6  UNL     1     -33.024   8.493  -0.256  1.00 20.00     0.005 A 
ENDBRANCH   8   9
ENDBRANCH   7   8
ENDBRANCH   5   7
TORSDOF 3
ENDMDL
MODEL 3
REMARK VINA RESULT:      -4.6     10.949     11.827
REMARK  3 active torsions:
REMARK  status: ('A' for Active; 'I' for Inactive)
REMARK    1  A    between atoms: C7_7  and  C9_9 
REMARK    2  A    between atoms: C8_8  and  C10_10 
REMARK    3  A    between atoms: C9_9  and  C10_10 
ROOT
HETATM    1  C1  UNL     1     -31.418  18.378   0.113  1.00 20.00     0.131 C 
HETATM    2  C2  UNL     1     -31.538  18.304   1.615  1.00 20.00     0.079 C 
HETATM    3  C3  UNL     1     -32.986  18.721   1.837  1.00 20.00     0.008 C 
HETATM    4  C4  UNL     1     -33.718  18.232   0.594  1.00 20.00     0.013 C 
HETATM    5  C7  UNL     1     -32.765  18.566  -0.556  1.00 20.00     0.055 C 
HETATM    6  O11 UNL     1     -30.353  18.294  -0.486  1.00 20.00    -0.298 OA
ENDROOT
BRANCH   5   7
HETATM    7  C9  UNL     1     -32.956  17.671  -1.764  1.00 20.00     0.012 C 
BRANCH   7   8
HETATM    8  C10 UNL     1     -34.433  17.359  -2.006  1.00 20.00     0.005 C 
BRANCH   8   9
HETATM    9  C8  UNL     1     -34.662  15.875  -2.241  1.00 20.00    -0.014 A 
HETATM   10  C5  UNL     1     -35.597  15.414  -3.324  1.00 20.00     0.005 A 
HETATM   11  C6  UNL     1     -34.115  15.210  -3.473  1.00 20.00     0.005 A 
ENDBRANCH   8   9
ENDBRANCH   7   8
ENDBRANCH   5   7
TORSDOF 3
ENDMDL
MODEL 4
REMARK VINA RESULT:      -4.5     10.739     12.055
REMARK  3 active torsions:
REMARK  status: ('A' for Active; 'I' for Inactive)
REMARK    1  A    between atoms: C7_7  and  C9_9 
REMARK    2  A    between atoms: C8_8  and  C10_10 
REMARK    3  A    between atoms: C9_9  and  C10_10 
ROOT
HETATM    1  C1  UNL     1     -35.951  14.004  -4.960  1.00 20.00     0.131 C 
HETATM    2  C2  UNL     1     -36.020  14.362  -6.424  1.00 20.00     0.079 C 
HETATM    3  C3  UNL     1     -36.366  15.844  -6.370  1.00 20.00     0.008 C 
HETATM    4  C4  UNL     1     -35.710  16.342  -5.088  1.00 20.00     0.013 C 
HETATM    5  C7  UNL     1     -35.987  15.232  -4.072  1.00 20.00     0.055 C 
HETATM    6  O11 UNL     1     -35.874  12.853  -4.547  1.00 20.00    -0.298 OA
ENDROOT
BRANCH   5   7
HETATM    7  C9  UNL     1     -34.965  15.184  -2.954  1.00 20.00     0.012 C 
BRANCH   7   8
HETATM    8  C10 UNL     1     -33.593  15.671  -3.421  1.00 20.00     0.005 C 
BRANCH   8   9
HETATM    9  C8  UNL     1     -33.029  16.735  -2.493  1.00 20.00    -0.014 A 
HETATM   10  C5  UNL     1     -33.046  18.182  -2.900  1.00 20.00     0.005 A 
HETATM   11  C6  UNL     1     -33.950  17.700  -1.800  1.00 20.00     0.005 A 
ENDBRANCH   8   9
ENDBRANCH   7   8
ENDBRANCH   5   7
TORSDOF 3
ENDMDL
MODEL 5
REMARK VINA RESULT:      -4.4     11.047     11.924
REMARK  3 active torsions:
REMARK  status: ('A' for Active; 'I' for Inactive)
REMARK    1  A    between atoms: C7_7  and  C9_9 
REMARK    2  A    between atoms: C8_8  and  C10_10 
REMARK    3  A    between atoms: C9_9  and  C10_10 
ROOT
HETATM    1  C1  UNL     1     -34.485  14.650  -5.278  1.00 20.00     0.131 C 
HETATM    2  C2  UNL     1     -35.963  14.559  -5.568  1.00 20.00     0.079 C 
HETATM    3  C3  UNL     1     -36.547  14.375  -4.173  1.00 20.00     0.008 C 
HETATM    4  C4  UNL     1     -35.593  15.133  -3.258  1.00 20.00     0.013 C 
HETATM    5  C7  UNL     1     -34.204  14.782  -3.795  1.00 20.00     0.055 C 
HETATM    6  O11 UNL     1     -33.622  14.621  -6.147  1.00 20.00    -0.298 OA
ENDROOT
BRANCH   5   7
HETATM    7  C9  UNL     1     -33.163  15.838  -3.481  1.00 20.00     0.012 C 
BRANCH   7   8
HETATM    8  C10 UNL     1     -33.599  16.731  -2.319  1.00 20.00     0.005 C 
BRANCH   8   9
HETATM    9  C8  UNL     1     -32.762  17.998  -2.241  1.00 20.00    -0.014 A 
HETATM   10  C5  UNL     1     -33.068  19.047  -1.208  1.00 20.00     0.005 A 
HETATM   11  C6  UNL     1     -31.822  18.214  -1.088  1.00 20.00     0.005 A 
ENDBRANCH   8   9
ENDBRANCH   7   8
ENDBRANCH   5   7
TORSDOF 3
ENDMDL
MODEL 6
REMARK VINA RESULT:      -4.2     10.993     11.720
REMARK  3 active torsions:
REMARK  status: ('A' for Active; 'I' for Inactive)
REMARK    1  A    between atoms: C7_7  and  C9_9 
REMARK    2  A    between atoms: C8_8  and  C10_10 
REMARK    3  A    between atoms: C9_9  and  C10_10 
ROOT
HETATM    1  C1  UNL     1     -33.273  17.654  -1.650  1.00 20.00     0.131 C 
HETATM    2  C2  UNL     1     -34.047  17.713  -0.356  1.00 20.00     0.079 C 
HETATM    3  C3  UNL     1     -35.395  17.137  -0.769  1.00 20.00     0.008 C 
HETATM    4  C4  UNL     1     -35.062  16.141  -1.872  1.00 20.00     0.013 C 
HETATM    5  C7  UNL     1     -34.001  16.856  -2.712  1.00 20.00     0.055 C 
HETATM    6  O11 UNL     1     -32.184  18.192  -1.812  1.00 20.00    -0.298 OA
ENDROOT
BRANCH   5   7
HETATM    7  C9  UNL     1     -33.094  15.899  -3.459  1.00 20.00     0.012 C 
BRANCH   7   8
HETATM    8  C10 UNL     1     -33.880  14.745  -4.081  1.00 20.00     0.005 C 
BRANCH   8   9
HETATM    9  C8  UNL     1     -33.958  14.870  -5.594  1.00 20.00    -0.014 A 
HETATM   10  C5  UNL     1     -35.287  14.796  -6.294  1.00 20.00     0.005 A 
HETATM   11  C6  UNL     1     -34.547  16.103  -6.222  1.00 20.00     0.005 A 
ENDBRANCH   8   9
ENDBRANCH   7   8
ENDBRANCH   5   7
TORSDOF 3
ENDMDL
MODEL 7
REMARK VINA RESULT:      -4.2     10.817     11.652
REMARK  3 active torsions:
REMARK  status: ('A' for Active; 'I' for Inactive)
REMARK    1  A    between atoms: C7_7  and  C9_9 
REMARK    2  A    between atoms: C8_8  and  C10_10 
REMARK    3  A    between atoms: C9_9  and  C10_10 
ROOT
HETATM    1  C1  UNL     1     -33.478  16.281  -2.826  1.00 20.00     0.131 C 
HETATM    2  C2  UNL     1     -33.373  15.494  -4.108  1.00 20.00     0.079 C 
HETATM    3  C3  UNL     1     -34.512  14.492  -3.958  1.00 20.00     0.008 C 
HETATM    4  C4  UNL     1     -35.561  15.230  -3.137  1.00 20.00     0.013 C 
HETATM    5  C7  UNL     1     -34.751  15.963  -2.067  1.00 20.00     0.055 C 
HETATM    6  O11 UNL     1     -32.629  17.081  -2.451  1.00 20.00    -0.298 OA
ENDROOT
BRANCH   5   7
HETATM    7  C9  UNL     1     -35.449  17.200  -1.538  1.00 20.00     0.012 C 
BRANCH   7   8
HETATM    8  C10 UNL     1     -35.560  17.176  -0.013  1.00 20.00     0.005 C 
BRANCH   8   9
HETATM    9  C8  UNL     1     -34.827  18.347   0.621  1.00 20.00    -0.014 A 
HETATM   10  C5  UNL     1     -34.150  18.186   1.954  1.00 20.00     0.005 A 
HETATM   11  C6  UNL     1     -33.326  18.343   0.707  1.00 20.00     0.005 A 
ENDBRANCH   8   9
ENDBRANCH   7   8
ENDBRANCH   5   7
TORSDOF 3
ENDMDL
MODEL 8
REMARK VINA RESULT:      -4.1     11.073     12.229
REMARK  3 active torsions:
REMARK  status: ('A' for Active; 'I' for Inactive)
REMARK    1  A    between atoms: C7_7  and  C9_9 
REMARK    2  A    between atoms: C8_8  and  C10_10 
REMARK    3  A    between atoms: C9_9  and  C10_10 
ROOT
HETATM    1  C1  UNL     1     -33.429  17.140  -3.338  1.00 20.00     0.131 C 
HETATM    2  C2  UNL     1     -33.978  16.154  -4.340  1.00 20.00     0.079 C 
HETATM    3  C3  UNL     1     -34.582  15.087  -3.436  1.00 20.00     0.008 C 
HETATM    4  C4  UNL     1     -35.035  15.850  -2.198  1.00 20.00     0.013 C 
HETATM    5  C7  UNL     1     -33.896  16.836  -1.929  1.00 20.00     0.055 C 
HETATM    6  O11 UNL     1     -32.695  18.073  -3.638  1.00 20.00    -0.298 OA
ENDROOT
BRANCH   5   7
HETATM    7  C9  UNL     1     -34.347  18.071  -1.175  1.00 20.00     0.012 C 
BRANCH   7   8
HETATM    8  C10 UNL     1     -33.604  18.224   0.152  1.00 20.00     0.005 C 
BRANCH   8   9
HETATM    9  C8  UNL     1     -32.303  18.993  -0.018  1.00 20.00    -0.014 A 
HETATM   10  C5  UNL     1     -31.222  18.894   1.022  1.00 20.00     0.005 A 
HETATM   11  C6  UNL     1     -31.027  18.262  -0.328  1.00 20.00     0.005 A 
ENDBRANCH   8   9
ENDBRANCH   7   8
ENDBRANCH   5   7
TORSDOF 3
ENDMDL
MODEL 9
REMARK VINA RESULT:      -4.1     10.794     12.177
REMARK  3 active torsions:
REMARK  status: ('A' for Active; 'I' for Inactive)
REMARK    1  A    between atoms: C7_7  and  C9_9 
REMARK    2  A    between atoms: C8_8  and  C10_10 
REMARK    3  A    between atoms: C9_9  and  C10_10 
ROOT
HETATM    1  C1  UNL     1     -35.457  16.845  -2.956  1.00 20.00     0.131 C 
HETATM    2  C2  UNL     1     -34.780  18.192  -2.908  1.00 20.00     0.079 C 
HETATM    3  C3  UNL     1     -33.408  17.837  -2.350  1.00 20.00     0.008 C 
HETATM    4  C4  UNL     1     -33.142  16.428  -2.863  1.00 20.00     0.013 C 
HETATM    5  C7  UNL     1     -34.484  15.711  -2.700  1.00 20.00     0.055 C 
HETATM    6  O11 UNL     1     -36.652  16.695  -3.177  1.00 20.00    -0.298 OA
ENDROOT
BRANCH   5   7
HETATM    7  C9  UNL     1     -34.658  14.553  -3.661  1.00 20.00     0.012 C 
BRANCH   7   8
HETATM    8  C10 UNL     1     -33.768  14.705  -4.895  1.00 20.00     0.005 C 
BRANCH   8   9
HETATM    9  C8  UNL     1     -34.581  15.042  -6.135  1.00 20.00    -0.014 A 
HETATM   10  C5  UNL     1     -34.529  16.425  -6.723  1.00 20.00     0.005 A 
HETATM   11  C6  UNL     1     -33.892  15.274  -7.451  1.00 20.00     0.005 A 
ENDBRANCH   8   9
ENDBRANCH   7   8
ENDBRANCH   5   7
TORSDOF 3
ENDMDL
