MODEL 1
REMARK VINA RESULT:      -4.5      0.000      0.000
REMARK  4 active torsions:
REMARK  status: ('A' for Active; 'I' for Inactive)
REMARK    1  A    between atoms: C1_1  and  C6_6 
REMARK    2  A    between atoms: C4_4  and  C6_6 
REMARK    3  A    between atoms: C5_5  and  C6_6 
REMARK    4  A    between atoms: C5_5  and  C7_7 
ROOT
HETATM    1  C6  UNL     1     -34.672  14.428  -3.635  1.00 20.00     0.059 C 
ENDROOT
BRANCH   1   2
HETATM    2  C1  UNL     1     -35.897  13.751  -4.246  1.00 20.00     0.127 C 
HETATM    3  C2  UNL     1     -37.147  14.585  -4.361  1.00 20.00     0.091 C 
HETATM    4  O8  UNL     1     -35.874  12.582  -4.630  1.00 20.00    -0.298 OA
ENDBRANCH   1   2
BRANCH   1   5
HETATM    5  C4  UNL     1     -35.085  15.761  -2.988  1.00 20.00     0.008 C 
HETATM    6  C3  UNL     1     -33.921  16.482  -2.320  1.00 20.00     0.006 C 
ENDBRANCH   1   5
BRANCH   1   7
HETATM    7  C5  UNL     1     -33.599  14.668  -4.714  1.00 20.00     0.083 C 
BRANCH   7   8
HETATM    8  C7  UNL     1     -34.166  15.144  -6.042  1.00 20.00     0.353 C 
HETATM    9  F9  UNL     1     -33.408  14.705  -7.074  1.00 20.00    -0.214 F 
HETATM   10  F10 UNL     1     -34.166  16.498  -6.094  1.00 20.00    -0.214 F 
ENDBRANCH   7   8
ENDBRANCH   1   7
TORSDOF 4
ENDMDL
MODEL 2
REMARK VINA RESULT:      -4.4     11.180     11.795
REMARK  4 active torsions:
REMARK  status: ('A' for Active; 'I' for Inactive)
REMARK    1  A    between atoms: C1_1  and  C6_6 
REMARK    2  A    between atoms: C4_4  and  C6_6 
REMARK    3  A    between atoms: C5_5  and  C6_6 
REMARK    4  A    between atoms: C5_5  and  C7_7 
ROOT
HETATM    1  C6  UNL     1     -33.865   6.449   3.608  1.00 20.00     0.059 C 
ENDROOT
BRANCH   1   2
HETATM    2  C1  UNL     1     -33.807   6.597   5.127  1.00 20.00     0.127 C 
HETATM    3  C2  UNL     1     -34.666   5.657   5.934  1.00 20.00     0.091 C 
HETATM    4  O8  UNL     1     -33.095   7.438   5.675  1.00 20.00    -0.298 OA
ENDBRANCH   1   2
BRANCH   1   5
HETATM    5  C4  UNL     1     -34.103   4.974   3.239  1.00 20.00     0.008 C 
HETATM    6  C3  UNL     1     -33.042   4.419   2.298  1.00 20.00     0.006 C 
ENDBRANCH   1   5
BRANCH   1   7
HETATM    7  C5  UNL     1     -32.556   6.953   2.971  1.00 20.00     0.083 C 
BRANCH   7   8
HETATM    8  C7  UNL     1     -32.755   7.626   1.622  1.00 20.00     0.353 C 
HETATM    9  F9  UNL     1     -31.639   7.522   0.863  1.00 20.00    -0.214 F 
HETATM   10  F10 UNL     1     -33.002   8.948   1.790  1.00 20.00    -0.214 F 
ENDBRANCH   7   8
ENDBRANCH   1   7
TORSDOF 4
ENDMDL
MODEL 3
REMARK VINA RESULT:      -4.4     12.270     13.002
REMARK  4 active torsions:
REMARK  status: ('A' for Active; 'I' for Inactive)
REMARK    1  A    between atoms: C1_1  and  C6_6 
REMARK    2  A    between atoms: C4_4  and  C6_6 
REMARK    3  A    between atoms: C5_5  and  C6_6 
REMARK    4  A    between atoms: C5_5  and  C7_7 
ROOT
HETATM    1  C6  UNL     1     -33.095   6.056   3.703  1.00 20.00     0.059 C 
ENDROOT
BRANCH   1   2
HETATM    2  C1  UNL     1     -32.321   7.223   3.094  1.00 20.00     0.127 C 
HETATM    3  C2  UNL     1     -32.636   7.573   1.663  1.00 20.00     0.091 C 
HETATM    4  O8  UNL     1     -31.480   7.854   3.734  1.00 20.00    -0.298 OA
ENDBRANCH   1   2
BRANCH   1   5
HETATM    5  C4  UNL     1     -33.440   5.034   2.607  1.00 20.00     0.008 C 
HETATM    6  C3  UNL     1     -33.950   3.712   3.168  1.00 20.00     0.006 C 
ENDBRANCH   1   5
BRANCH   1   7
HETATM    7  C5  UNL     1     -34.381   6.563   4.383  1.00 20.00     0.083 C 
BRANCH   7   8
HETATM    8  C7  UNL     1     -34.378   6.399   5.894  1.00 20.00     0.353 C 
HETATM    9  F9  UNL     1     -33.179   6.753   6.414  1.00 20.00    -0.214 F 
HETATM   10  F10 UNL     1     -34.590   5.103   6.226  1.00 20.00    -0.214 F 
ENDBRANCH   7   8
ENDBRANCH   1   7
TORSDOF 4
ENDMDL
MODEL 4
REMARK VINA RESULT:      -4.4     12.472     13.057
REMARK  4 active torsions:
REMARK  status: ('A' for Active; 'I' for Inactive)
REMARK    1  A    between atoms: C1_1  and  C6_6 
REMARK    2  A    between atoms: C4_4  and  C6_6 
REMARK    3  A    between atoms: C5_5  and  C6_6 
REMARK    4  A    between atoms: C5_5  and  C7_7 
ROOT
HETATM    1  C6  UNL     1     -34.074   6.060   3.291  1.00 20.00     0.059 C 
ENDROOT
BRANCH   1   2
HETATM    2  C1  UNL     1     -33.841   4.555   3.183  1.00 20.00     0.127 C 
HETATM    3  C2  UNL     1     -32.938   4.086   2.071  1.00 20.00     0.091 C 
HETATM    4  O8  UNL     1     -34.358   3.755   3.964  1.00 20.00    -0.298 OA
ENDBRANCH   1   2
BRANCH   1   5
HETATM    5  C4  UNL     1     -32.725   6.798   3.262  1.00 20.00     0.008 C 
HETATM    6  C3  UNL     1     -32.497   7.566   1.966  1.00 20.00     0.006 C 
ENDBRANCH   1   5
BRANCH   1   7
HETATM    7  C5  UNL     1     -34.836   6.392   4.588  1.00 20.00     0.083 C 
BRANCH   7   8
HETATM    8  C7  UNL     1     -33.961   6.374   5.831  1.00 20.00     0.353 C 
HETATM    9  F9  UNL     1     -34.185   5.257   6.562  1.00 20.00    -0.214 F 
HETATM   10  F10 UNL     1     -34.251   7.435   6.624  1.00 20.00    -0.214 F 
ENDBRANCH   7   8
ENDBRANCH   1   7
TORSDOF 4
ENDMDL
MODEL 5
REMARK VINA RESULT:      -4.3      2.253      3.272
REMARK  4 active torsions:
REMARK  status: ('A' for Active; 'I' for Inactive)
REMARK    1  A    between atoms: C1_1  and  C6_6 
REMARK    2  A    between atoms: C4_4  and  C6_6 
REMARK    3  A    between atoms: C5_5  and  C6_6 
REMARK    4  A    between atoms: C5_5  and  C7_7 
ROOT
HETATM    1  C6  UNL     1     -35.112  15.034  -4.722  1.00 20.00     0.059 C 
ENDROOT
BRANCH   1   2
HETATM    2  C1  UNL     1     -36.176  13.952  -4.543  1.00 20.00     0.127 C 
HETATM    3  C2  UNL     1     -37.590  14.422  -4.318  1.00 20.00     0.091 C 
HETATM    4  O8  UNL     1     -35.901  12.753  -4.582  1.00 20.00    -0.298 OA
ENDBRANCH   1   2
BRANCH   1   5
HETATM    5  C4  UNL     1     -34.347  14.797  -6.035  1.00 20.00     0.008 C 
HETATM    6  C3  UNL     1     -35.154  15.177  -7.269  1.00 20.00     0.006 C 
ENDBRANCH   1   5
BRANCH   1   7
HETATM    7  C5  UNL     1     -34.138  15.029  -3.528  1.00 20.00     0.083 C 
BRANCH   7   8
HETATM    8  C7  UNL     1     -34.354  16.182  -2.561  1.00 20.00     0.353 C 
HETATM    9  F9  UNL     1     -33.176  16.600  -2.040  1.00 20.00    -0.214 F 
HETATM   10  F10 UNL     1     -35.130  15.784  -1.524  1.00 20.00    -0.214 F 
ENDBRANCH   7   8
ENDBRANCH   1   7
TORSDOF 4
ENDMDL
MODEL 6
REMARK VINA RESULT:      -4.3     11.984     12.626
REMARK  4 active torsions:
REMARK  status: ('A' for Active; 'I' for Inactive)
REMARK    1  A    between atoms: C1_1  and  C6_6 
REMARK    2  A    between atoms: C4_4  and  C6_6 
REMARK    3  A    between atoms: C5_5  and  C6_6 
REMARK    4  A    between atoms: C5_5  and  C7_7 
ROOT
HETATM    1  C6  UNL     1     -33.804   6.974   3.946  1.00 20.00     0.059 C 
ENDROOT
BRANCH   1   2
HETATM    2  C1  UNL     1     -32.507   7.338   3.226  1.00 20.00     0.127 C 
HETATM    3  C2  UNL     1     -32.588   7.518   1.732  1.00 20.00     0.091 C 
HETATM    4  O8  UNL     1     -31.444   7.483   3.829  1.00 20.00    -0.298 OA
ENDBRANCH   1   2
BRANCH   1   5
HETATM    5  C4  UNL     1     -33.523   6.759   5.444  1.00 20.00     0.008 C 
HETATM    6  C3  UNL     1     -34.596   5.927   6.135  1.00 20.00     0.006 C 
ENDBRANCH   1   5
BRANCH   1   7
HETATM    7  C5  UNL     1     -34.418   5.701   3.331  1.00 20.00     0.083 C 
BRANCH   7   8
HETATM    8  C7  UNL     1     -33.455   4.526   3.275  1.00 20.00     0.353 C 
HETATM    9  F9  UNL     1     -33.201   4.173   1.993  1.00 20.00    -0.214 F 
HETATM   10  F10 UNL     1     -33.999   3.445   3.886  1.00 20.00    -0.214 F 
ENDBRANCH   7   8
ENDBRANCH   1   7
TORSDOF 4
ENDMDL
MODEL 7
REMARK VINA RESULT:      -4.2     16.444     17.950
REMARK  4 active torsions:
REMARK  status: ('A' for Active; 'I' for Inactive)
REMARK    1  A    between atoms: C1_1  and  C6_6 
REMARK    2  A    between atoms: C4_4  and  C6_6 
REMARK    3  A    between atoms: C5_5  and  C6_6 
REMARK    4  A    between atoms: C5_5  and  C7_7 
ROOT
HETATM    1  C6  UNL     1     -24.441  18.525   8.833  1.00 20.00     0.059 C 
ENDROOT
BRANCH   1   2
HETATM    2  C1  UNL     1     -24.698  18.886   7.372  1.00 20.00     0.127 C 
HETATM    3  C2  UNL     1     -26.114  19.244   7.000  1.00 20.00     0.091 C 
HETATM    4  O8  UNL     1     -23.799  18.888   6.532  1.00 20.00    -0.298 OA
ENDBRANCH   1   2
BRANCH   1   5
HETATM    5  C4  UNL     1     -25.446  19.263   9.734  1.00 20.00     0.008 C 
HETATM    6  C3  UNL     1     -25.527  18.676  11.138  1.00 20.00     0.006 C 
ENDBRANCH   1   5
BRANCH   1   7
HETATM    7  C5  UNL     1     -22.999  18.894   9.230  1.00 20.00     0.083 C 
BRANCH   7   8
HETATM    8  C7  UNL     1     -22.164  17.702   9.671  1.00 20.00     0.353 C 
HETATM    9  F9  UNL     1     -22.800  16.540   9.393  1.00 20.00    -0.214 F 
HETATM   10  F10 UNL     1     -21.965  17.738  11.010  1.00 20.00    -0.214 F 
ENDBRANCH   7   8
ENDBRANCH   1   7
TORSDOF 4
ENDMDL
MODEL 8
REMARK VINA RESULT:      -4.2     17.249     18.870
REMARK  4 active torsions:
REMARK  status: ('A' for Active; 'I' for Inactive)
REMARK    1  A    between atoms: C1_1  and  C6_6 
REMARK    2  A    between atoms: C4_4  and  C6_6 
REMARK    3  A    between atoms: C5_5  and  C6_6 
REMARK    4  A    between atoms: C5_5  and  C7_7 
ROOT
HETATM    1  C6  UNL     1     -23.929  17.918   9.453  1.00 20.00     0.059 C 
ENDROOT
BRANCH   1   2
HETATM    2  C1  UNL     1     -22.550  17.478   8.968  1.00 20.00     0.127 C 
HETATM    3  C2  UNL     1     -21.359  18.110   9.643  1.00 20.00     0.091 C 
HETATM    4  O8  UNL     1     -22.407  16.645   8.073  1.00 20.00    -0.298 OA
ENDBRANCH   1   2
BRANCH   1   5
HETATM    5  C4  UNL     1     -24.302  19.263   8.805  1.00 20.00     0.008 C 
HETATM    6  C3  UNL     1     -25.022  19.099   7.472  1.00 20.00     0.006 C 
ENDBRANCH   1   5
BRANCH   1   7
HETATM    7  C5  UNL     1     -23.942  18.045  10.989  1.00 20.00     0.083 C 
BRANCH   7   8
HETATM    8  C7  UNL     1     -24.160  16.723  11.707  1.00 20.00     0.353 C 
HETATM    9  F9  UNL     1     -22.991  16.238  12.188  1.00 20.00    -0.214 F 
HETATM   10  F10 UNL     1     -24.654  15.798  10.848  1.00 20.00    -0.214 F 
ENDBRANCH   7   8
ENDBRANCH   1   7
TORSDOF 4
ENDMDL
MODEL 9
REMARK VINA RESULT:      -4.0      2.052      2.427
REMARK  4 active torsions:
REMARK  status: ('A' for Active; 'I' for Inactive)
REMARK    1  A    between atoms: C1_1  and  C6_6 
REMARK    2  A    between atoms: C4_4  and  C6_6 
REMARK    3  A    between atoms: C5_5  and  C6_6 
REMARK    4  A    between atoms: C5_5  and  C7_7 
ROOT
HETATM    1  C6  UNL     1     -36.028  15.168  -3.834  1.00 20.00     0.059 C 
ENDROOT
BRANCH   1   2
HETATM    2  C1  UNL     1     -35.919  14.038  -4.856  1.00 20.00     0.127 C 
HETATM    3  C2  UNL     1     -35.742  14.442  -6.297  1.00 20.00     0.091 C 
HETATM    4  O8  UNL     1     -35.971  12.853  -4.528  1.00 20.00    -0.298 OA
ENDBRANCH   1   2
BRANCH   1   5
HETATM    5  C4  UNL     1     -36.155  16.517  -4.563  1.00 20.00     0.008 C 
HETATM    6  C3  UNL     1     -36.745  17.612  -3.684  1.00 20.00     0.006 C 
ENDBRANCH   1   5
BRANCH   1   7
HETATM    7  C5  UNL     1     -34.794  15.175  -2.911  1.00 20.00     0.083 C 
BRANCH   7   8
HETATM    8  C7  UNL     1     -33.535  15.701  -3.580  1.00 20.00     0.353 C 
HETATM    9  F9  UNL     1     -32.765  14.681  -4.027  1.00 20.00    -0.214 F 
HETATM   10  F10 UNL     1     -32.791  16.404  -2.692  1.00 20.00    -0.214 F 
ENDBRANCH   7   8
ENDBRANCH   1   7
TORSDOF 4
ENDMDL
