MODEL 1
REMARK VINA RESULT:      -4.7      0.000      0.000
REMARK  4 active torsions:
REMARK  status: ('A' for Active; 'I' for Inactive)
REMARK    1  A    between atoms: C1_1  and  C6_6 
REMARK    2  A    between atoms: C4_4  and  C6_6 
REMARK    3  A    between atoms: C5_5  and  C6_6 
REMARK    4  A    between atoms: C5_5  and  C7_7 
ROOT
HETATM    1  C6  UNL     1     -33.037   6.060   3.487  1.00 20.00     0.063 C 
ENDROOT
BRANCH   1   2
HETATM    2  C1  UNL     1     -32.229   7.263   3.004  1.00 20.00     0.127 C 
HETATM    3  C2  UNL     1     -32.485   7.731   1.594  1.00 20.00     0.091 C 
HETATM    4  O8  UNL     1     -31.410   7.831   3.725  1.00 20.00    -0.298 OA
ENDBRANCH   1   2
BRANCH   1   5
HETATM    5  C4  UNL     1     -33.691   5.357   2.285  1.00 20.00     0.008 C 
HETATM    6  C3  UNL     1     -33.077   3.994   1.989  1.00 20.00     0.006 C 
ENDBRANCH   1   5
BRANCH   1   7
HETATM    7  C5  UNL     1     -34.110   6.508   4.494  1.00 20.00     0.129 C 
BRANCH   7   8
HETATM    8  C7  UNL     1     -34.930   5.362   5.055  1.00 20.00     0.388 C 
HETATM    9  F9  UNL     1     -34.250   4.197   5.031  1.00 20.00    -0.171 F 
HETATM   10  F10 UNL     1     -36.076   5.193   4.363  1.00 20.00    -0.171 F 
HETATM   11  F11 UNL     1     -35.262   5.610   6.342  1.00 20.00    -0.171 F 
ENDBRANCH   7   8
ENDBRANCH   1   7
TORSDOF 4
ENDMDL
MODEL 2
REMARK VINA RESULT:      -4.7      0.022      1.138
REMARK  4 active torsions:
REMARK  status: ('A' for Active; 'I' for Inactive)
REMARK    1  A    between atoms: C1_1  and  C6_6 
REMARK    2  A    between atoms: C4_4  and  C6_6 
REMARK    3  A    between atoms: C5_5  and  C6_6 
REMARK    4  A    between atoms: C5_5  and  C7_7 
ROOT
HETATM    1  C6  UNL     1     -33.043   6.052   3.478  1.00 20.00     0.063 C 
ENDROOT
BRANCH   1   2
HETATM    2  C1  UNL     1     -32.229   7.254   3.003  1.00 20.00     0.127 C 
HETATM    3  C2  UNL     1     -32.484   7.734   1.597  1.00 20.00     0.091 C 
HETATM    4  O8  UNL     1     -31.406   7.812   3.727  1.00 20.00    -0.298 OA
ENDBRANCH   1   2
BRANCH   1   5
HETATM    5  C4  UNL     1     -33.684   5.348   2.270  1.00 20.00     0.008 C 
HETATM    6  C3  UNL     1     -33.057   3.992   1.973  1.00 20.00     0.006 C 
ENDBRANCH   1   5
BRANCH   1   7
HETATM    7  C5  UNL     1     -34.128   6.502   4.472  1.00 20.00     0.129 C 
BRANCH   7   8
HETATM    8  C7  UNL     1     -34.919   5.353   5.066  1.00 20.00     0.388 C 
HETATM    9  F9  UNL     1     -35.254   5.584   6.353  1.00 20.00    -0.171 F 
HETATM   10  F10 UNL     1     -34.223   4.198   5.015  1.00 20.00    -0.171 F 
HETATM   11  F11 UNL     1     -36.067   5.169   4.376  1.00 20.00    -0.171 F 
ENDBRANCH   7   8
ENDBRANCH   1   7
TORSDOF 4
ENDMDL
MODEL 3
REMARK VINA RESULT:      -4.6     12.490     13.490
REMARK  4 active torsions:
REMARK  status: ('A' for Active; 'I' for Inactive)
REMARK    1  A    between atoms: C1_1  and  C6_6 
REMARK    2  A    between atoms: C4_4  and  C6_6 
REMARK    3  A    between atoms: C5_5  and  C6_6 
REMARK    4  A    between atoms: C5_5  and  C7_7 
ROOT
HETATM    1  C6  UNL     1     -34.737  14.747  -4.378  1.00 20.00     0.063 C 
ENDROOT
BRANCH   1   2
HETATM    2  C1  UNL     1     -35.944  13.812  -4.407  1.00 20.00     0.127 C 
HETATM    3  C2  UNL     1     -37.305  14.458  -4.343  1.00 20.00     0.091 C 
HETATM    4  O8  UNL     1     -35.822  12.590  -4.483  1.00 20.00    -0.298 OA
ENDBRANCH   1   2
BRANCH   1   5
HETATM    5  C4  UNL     1     -34.602  15.378  -2.982  1.00 20.00     0.008 C 
HETATM    6  C3  UNL     1     -33.412  16.323  -2.872  1.00 20.00     0.006 C 
ENDBRANCH   1   5
BRANCH   1   7
HETATM    7  C5  UNL     1     -34.885  15.843  -5.448  1.00 20.00     0.129 C 
BRANCH   7   8
HETATM    8  C7  UNL     1     -34.381  15.425  -6.816  1.00 20.00     0.388 C 
HETATM    9  F9  UNL     1     -35.337  14.806  -7.539  1.00 20.00    -0.171 F 
HETATM   10  F10 UNL     1     -33.324  14.592  -6.717  1.00 20.00    -0.171 F 
HETATM   11  F11 UNL     1     -33.982  16.509  -7.519  1.00 20.00    -0.171 F 
ENDBRANCH   7   8
ENDBRANCH   1   7
TORSDOF 4
ENDMDL
MODEL 4
REMARK VINA RESULT:      -4.6     11.705     12.624
REMARK  4 active torsions:
REMARK  status: ('A' for Active; 'I' for Inactive)
REMARK    1  A    between atoms: C1_1  and  C6_6 
REMARK    2  A    between atoms: C4_4  and  C6_6 
REMARK    3  A    between atoms: C5_5  and  C6_6 
REMARK    4  A    between atoms: C5_5  and  C7_7 
ROOT
HETATM    1  C6  UNL     1     -35.099  15.028  -4.735  1.00 20.00     0.063 C 
ENDROOT
BRANCH   1   2
HETATM    2  C1  UNL     1     -36.167  13.953  -4.549  1.00 20.00     0.127 C 
HETATM    3  C2  UNL     1     -37.578  14.431  -4.314  1.00 20.00     0.091 C 
HETATM    4  O8  UNL     1     -35.900  12.753  -4.591  1.00 20.00    -0.298 OA
ENDBRANCH   1   2
BRANCH   1   5
HETATM    5  C4  UNL     1     -34.346  14.791  -6.054  1.00 20.00     0.008 C 
HETATM    6  C3  UNL     1     -35.159  15.185  -7.280  1.00 20.00     0.006 C 
ENDBRANCH   1   5
BRANCH   1   7
HETATM    7  C5  UNL     1     -34.118  15.016  -3.549  1.00 20.00     0.129 C 
BRANCH   7   8
HETATM    8  C7  UNL     1     -34.342  16.149  -2.567  1.00 20.00     0.388 C 
HETATM    9  F9  UNL     1     -33.182  16.603  -2.047  1.00 20.00    -0.171 F 
HETATM   10  F10 UNL     1     -35.137  15.766  -1.546  1.00 20.00    -0.171 F 
HETATM   11  F11 UNL     1     -34.943  17.192  -3.183  1.00 20.00    -0.171 F 
ENDBRANCH   7   8
ENDBRANCH   1   7
TORSDOF 4
ENDMDL
MODEL 5
REMARK VINA RESULT:      -4.6     11.694     12.630
REMARK  4 active torsions:
REMARK  status: ('A' for Active; 'I' for Inactive)
REMARK    1  A    between atoms: C1_1  and  C6_6 
REMARK    2  A    between atoms: C4_4  and  C6_6 
REMARK    3  A    between atoms: C5_5  and  C6_6 
REMARK    4  A    between atoms: C5_5  and  C7_7 
ROOT
HETATM    1  C6  UNL     1     -35.091  15.030  -4.706  1.00 20.00     0.063 C 
ENDROOT
BRANCH   1   2
HETATM    2  C1  UNL     1     -36.167  13.958  -4.540  1.00 20.00     0.127 C 
HETATM    3  C2  UNL     1     -37.577  14.441  -4.318  1.00 20.00     0.091 C 
HETATM    4  O8  UNL     1     -35.905  12.757  -4.588  1.00 20.00    -0.298 OA
ENDBRANCH   1   2
BRANCH   1   5
HETATM    5  C4  UNL     1     -34.308  14.784  -6.006  1.00 20.00     0.008 C 
HETATM    6  C3  UNL     1     -35.085  15.188  -7.253  1.00 20.00     0.006 C 
ENDBRANCH   1   5
BRANCH   1   7
HETATM    7  C5  UNL     1     -34.139  15.021  -3.498  1.00 20.00     0.129 C 
BRANCH   7   8
HETATM    8  C7  UNL     1     -34.360  16.179  -2.544  1.00 20.00     0.388 C 
HETATM    9  F9  UNL     1     -34.981  17.216  -3.145  1.00 20.00    -0.171 F 
HETATM   10  F10 UNL     1     -33.193  16.627  -2.035  1.00 20.00    -0.171 F 
HETATM   11  F11 UNL     1     -35.135  15.789  -1.507  1.00 20.00    -0.171 F 
ENDBRANCH   7   8
ENDBRANCH   1   7
TORSDOF 4
ENDMDL
MODEL 6
REMARK VINA RESULT:      -4.4     11.891     12.648
REMARK  4 active torsions:
REMARK  status: ('A' for Active; 'I' for Inactive)
REMARK    1  A    between atoms: C1_1  and  C6_6 
REMARK    2  A    between atoms: C4_4  and  C6_6 
REMARK    3  A    between atoms: C5_5  and  C6_6 
REMARK    4  A    between atoms: C5_5  and  C7_7 
ROOT
HETATM    1  C6  UNL     1     -34.915  15.531  -2.799  1.00 20.00     0.063 C 
ENDROOT
BRANCH   1   2
HETATM    2  C1  UNL     1     -36.074  15.763  -3.766  1.00 20.00     0.127 C 
HETATM    3  C2  UNL     1     -36.897  14.557  -4.140  1.00 20.00     0.091 C 
HETATM    4  O8  UNL     1     -36.334  16.877  -4.219  1.00 20.00    -0.298 OA
ENDBRANCH   1   2
BRANCH   1   5
HETATM    5  C4  UNL     1     -35.047  16.474  -1.592  1.00 20.00     0.008 C 
HETATM    6  C3  UNL     1     -33.869  17.430  -1.454  1.00 20.00     0.006 C 
ENDBRANCH   1   5
BRANCH   1   7
HETATM    7  C5  UNL     1     -33.571  15.762  -3.513  1.00 20.00     0.129 C 
BRANCH   7   8
HETATM    8  C7  UNL     1     -33.127  14.586  -4.362  1.00 20.00     0.388 C 
HETATM    9  F9  UNL     1     -31.796  14.378  -4.277  1.00 20.00    -0.171 F 
HETATM   10  F10 UNL     1     -33.440  14.772  -5.661  1.00 20.00    -0.171 F 
HETATM   11  F11 UNL     1     -33.740  13.454  -3.951  1.00 20.00    -0.171 F 
ENDBRANCH   7   8
ENDBRANCH   1   7
TORSDOF 4
ENDMDL
MODEL 7
REMARK VINA RESULT:      -4.4     16.126     16.878
REMARK  4 active torsions:
REMARK  status: ('A' for Active; 'I' for Inactive)
REMARK    1  A    between atoms: C1_1  and  C6_6 
REMARK    2  A    between atoms: C4_4  and  C6_6 
REMARK    3  A    between atoms: C5_5  and  C6_6 
REMARK    4  A    between atoms: C5_5  and  C7_7 
ROOT
HETATM    1  C6  UNL     1     -23.434  18.487   9.517  1.00 20.00     0.063 C 
ENDROOT
BRANCH   1   2
HETATM    2  C1  UNL     1     -24.259  18.860   8.287  1.00 20.00     0.127 C 
HETATM    3  C2  UNL     1     -25.692  19.263   8.527  1.00 20.00     0.091 C 
HETATM    4  O8  UNL     1     -23.785  18.839   7.152  1.00 20.00    -0.298 OA
ENDBRANCH   1   2
BRANCH   1   5
HETATM    5  C4  UNL     1     -21.938  18.497   9.163  1.00 20.00     0.008 C 
HETATM    6  C3  UNL     1     -21.375  17.101   8.929  1.00 20.00     0.006 C 
ENDBRANCH   1   5
BRANCH   1   7
HETATM    7  C5  UNL     1     -23.852  17.101  10.039  1.00 20.00     0.129 C 
BRANCH   7   8
HETATM    8  C7  UNL     1     -24.053  17.055  11.541  1.00 20.00     0.388 C 
HETATM    9  F9  UNL     1     -22.880  17.076  12.208  1.00 20.00    -0.171 F 
HETATM   10  F10 UNL     1     -24.726  15.946  11.913  1.00 20.00    -0.171 F 
HETATM   11  F11 UNL     1     -24.771  18.125  11.951  1.00 20.00    -0.171 F 
ENDBRANCH   7   8
ENDBRANCH   1   7
TORSDOF 4
ENDMDL
MODEL 8
REMARK VINA RESULT:      -4.3      3.027      4.004
REMARK  4 active torsions:
REMARK  status: ('A' for Active; 'I' for Inactive)
REMARK    1  A    between atoms: C1_1  and  C6_6 
REMARK    2  A    between atoms: C4_4  and  C6_6 
REMARK    3  A    between atoms: C5_5  and  C6_6 
REMARK    4  A    between atoms: C5_5  and  C7_7 
ROOT
HETATM    1  C6  UNL     1     -33.784   6.485   3.504  1.00 20.00     0.063 C 
ENDROOT
BRANCH   1   2
HETATM    2  C1  UNL     1     -33.746   6.652   5.021  1.00 20.00     0.127 C 
HETATM    3  C2  UNL     1     -34.635   5.740   5.827  1.00 20.00     0.091 C 
HETATM    4  O8  UNL     1     -33.025   7.485   5.569  1.00 20.00    -0.298 OA
ENDBRANCH   1   2
BRANCH   1   5
HETATM    5  C4  UNL     1     -34.076   5.017   3.149  1.00 20.00     0.008 C 
HETATM    6  C3  UNL     1     -32.994   4.391   2.279  1.00 20.00     0.006 C 
ENDBRANCH   1   5
BRANCH   1   7
HETATM    7  C5  UNL     1     -32.447   6.929   2.884  1.00 20.00     0.129 C 
BRANCH   7   8
HETATM    8  C7  UNL     1     -32.608   7.741   1.614  1.00 20.00     0.388 C 
HETATM    9  F9  UNL     1     -32.718   9.061   1.870  1.00 20.00    -0.171 F 
HETATM   10  F10 UNL     1     -33.699   7.356   0.919  1.00 20.00    -0.171 F 
HETATM   11  F11 UNL     1     -31.533   7.573   0.812  1.00 20.00    -0.171 F 
ENDBRANCH   7   8
ENDBRANCH   1   7
TORSDOF 4
ENDMDL
MODEL 9
REMARK VINA RESULT:      -4.3      3.027      3.974
REMARK  4 active torsions:
REMARK  status: ('A' for Active; 'I' for Inactive)
REMARK    1  A    between atoms: C1_1  and  C6_6 
REMARK    2  A    between atoms: C4_4  and  C6_6 
REMARK    3  A    between atoms: C5_5  and  C6_6 
REMARK    4  A    between atoms: C5_5  and  C7_7 
ROOT
HETATM    1  C6  UNL     1     -33.785   6.501   3.505  1.00 20.00     0.063 C 
ENDROOT
BRANCH   1   2
HETATM    2  C1  UNL     1     -33.748   6.657   5.024  1.00 20.00     0.127 C 
HETATM    3  C2  UNL     1     -34.643   5.742   5.822  1.00 20.00     0.091 C 
HETATM    4  O8  UNL     1     -33.024   7.483   5.579  1.00 20.00    -0.298 OA
ENDBRANCH   1   2
BRANCH   1   5
HETATM    5  C4  UNL     1     -34.087   5.039   3.139  1.00 20.00     0.008 C 
HETATM    6  C3  UNL     1     -32.984   4.395   2.310  1.00 20.00     0.006 C 
ENDBRANCH   1   5
BRANCH   1   7
HETATM    7  C5  UNL     1     -32.443   6.940   2.892  1.00 20.00     0.129 C 
BRANCH   7   8
HETATM    8  C7  UNL     1     -32.595   7.742   1.614  1.00 20.00     0.388 C 
HETATM    9  F9  UNL     1     -31.535   7.587   0.793  1.00 20.00    -0.171 F 
HETATM   10  F10 UNL     1     -32.736   9.059   1.874  1.00 20.00    -0.171 F 
HETATM   11  F11 UNL     1     -33.693   7.339   0.936  1.00 20.00    -0.171 F 
ENDBRANCH   7   8
ENDBRANCH   1   7
TORSDOF 4
ENDMDL
