MODEL 1
REMARK VINA RESULT:      -5.8      0.000      0.000
REMARK  4 active torsions:
REMARK  status: ('A' for Active; 'I' for Inactive)
REMARK    1  A    between atoms: C6_6  and  C9_9 
REMARK    2  A    between atoms: C7_7  and  C10_10 
REMARK    3  A    between atoms: C8_8  and  O11_11 
REMARK    4  A    between atoms: C9_9  and  C10_10 
ROOT
HETATM    1  C1  UNL     1     -34.716   5.658   5.960  1.00 20.00     0.003 C 
HETATM    2  C2  UNL     1     -33.587   6.576   5.486  1.00 20.00     0.007 C 
HETATM    3  C5  UNL     1     -35.388   5.105   4.700  1.00 20.00     0.032 C 
HETATM    4  C7  UNL     1     -33.811   6.745   3.981  1.00 20.00     0.014 C 
HETATM    5  C8  UNL     1     -34.410   5.400   3.567  1.00 20.00     0.122 C 
ENDROOT
BRANCH   4   6
HETATM    6  C10 UNL     1     -32.541   7.129   3.239  1.00 20.00     0.007 C 
BRANCH   6   7
HETATM    7  C9  UNL     1     -32.691   6.923   1.733  1.00 20.00     0.005 C 
BRANCH   7   8
HETATM    8  C6  UNL     1     -32.305   8.172   0.958  1.00 20.00    -0.014 A 
HETATM    9  C3  UNL     1     -33.173   8.665  -0.167  1.00 20.00     0.005 A 
HETATM   10  C4  UNL     1     -33.100   9.439   1.120  1.00 20.00     0.005 A 
ENDBRANCH   7   8
ENDBRANCH   6   7
ENDBRANCH   4   6
BRANCH   5  11
HETATM   11  O11 UNL     1     -33.411   4.389   3.520  1.00 20.00    -0.395 OA
HETATM   12  H29 UNL     1     -33.472   3.897   4.354  1.00 20.00     0.210 HD
ENDBRANCH   5  11
TORSDOF 4
ENDMDL
MODEL 2
REMARK VINA RESULT:      -4.7     10.680     11.811
REMARK  4 active torsions:
REMARK  status: ('A' for Active; 'I' for Inactive)
REMARK    1  A    between atoms: C6_6  and  C9_9 
REMARK    2  A    between atoms: C7_7  and  C10_10 
REMARK    3  A    between atoms: C8_8  and  O11_11 
REMARK    4  A    between atoms: C9_9  and  C10_10 
ROOT
HETATM    1  C1  UNL     1     -35.976  13.588  -5.037  1.00 20.00     0.003 C 
HETATM    2  C2  UNL     1     -35.145  14.018  -3.827  1.00 20.00     0.007 C 
HETATM    3  C5  UNL     1     -35.675  14.592  -6.153  1.00 20.00     0.032 C 
HETATM    4  C7  UNL     1     -34.603  15.405  -4.183  1.00 20.00     0.014 C 
HETATM    5  C8  UNL     1     -34.417  15.325  -5.700  1.00 20.00     0.122 C 
ENDROOT
BRANCH   4   6
HETATM    6  C10 UNL     1     -33.345  15.760  -3.408  1.00 20.00     0.007 C 
BRANCH   6   7
HETATM    7  C9  UNL     1     -33.629  16.801  -2.327  1.00 20.00     0.005 C 
BRANCH   7   8
HETATM    8  C6  UNL     1     -34.940  16.518  -1.612  1.00 20.00    -0.014 A 
HETATM    9  C3  UNL     1     -35.227  17.149  -0.277  1.00 20.00     0.005 A 
HETATM   10  C4  UNL     1     -35.987  17.591  -1.496  1.00 20.00     0.005 A 
ENDBRANCH   7   8
ENDBRANCH   6   7
ENDBRANCH   4   6
BRANCH   5  11
HETATM   11  O11 UNL     1     -33.267  14.556  -6.032  1.00 20.00    -0.395 OA
HETATM   12  H29 UNL     1     -32.836  15.006  -6.776  1.00 20.00     0.210 HD
ENDBRANCH   5  11
TORSDOF 4
ENDMDL
MODEL 3
REMARK VINA RESULT:      -4.6      9.514     10.403
REMARK  4 active torsions:
REMARK  status: ('A' for Active; 'I' for Inactive)
REMARK    1  A    between atoms: C6_6  and  C9_9 
REMARK    2  A    between atoms: C7_7  and  C10_10 
REMARK    3  A    between atoms: C8_8  and  O11_11 
REMARK    4  A    between atoms: C9_9  and  C10_10 
ROOT
HETATM    1  C1  UNL     1     -41.803   7.739   0.567  1.00 20.00     0.003 C 
HETATM    2  C2  UNL     1     -41.150   6.946  -0.566  1.00 20.00     0.007 C 
HETATM    3  C5  UNL     1     -43.017   6.927   1.026  1.00 20.00     0.032 C 
HETATM    4  C7  UNL     1     -42.152   5.843  -0.916  1.00 20.00     0.014 C 
HETATM    5  C8  UNL     1     -42.814   5.538   0.429  1.00 20.00     0.122 C 
ENDROOT
BRANCH   4   6
HETATM    6  C10 UNL     1     -41.498   4.646  -1.586  1.00 20.00     0.007 C 
BRANCH   6   7
HETATM    7  C9  UNL     1     -42.509   3.837  -2.396  1.00 20.00     0.005 C 
BRANCH   7   8
HETATM    8  C6  UNL     1     -41.819   2.890  -3.364  1.00 20.00    -0.014 A 
HETATM    9  C3  UNL     1     -42.462   1.582  -3.734  1.00 20.00     0.005 A 
HETATM   10  C4  UNL     1     -42.369   2.688  -4.748  1.00 20.00     0.005 A 
ENDBRANCH   7   8
ENDBRANCH   6   7
ENDBRANCH   4   6
BRANCH   5  11
HETATM   11  O11 UNL     1     -41.947   4.779   1.264  1.00 20.00    -0.395 OA
HETATM   12  H29 UNL     1     -41.171   4.553   0.727  1.00 20.00     0.210 HD
ENDBRANCH   5  11
TORSDOF 4
ENDMDL
MODEL 4
REMARK VINA RESULT:      -4.6     10.869     11.896
REMARK  4 active torsions:
REMARK  status: ('A' for Active; 'I' for Inactive)
REMARK    1  A    between atoms: C6_6  and  C9_9 
REMARK    2  A    between atoms: C7_7  and  C10_10 
REMARK    3  A    between atoms: C8_8  and  O11_11 
REMARK    4  A    between atoms: C9_9  and  C10_10 
ROOT
HETATM    1  C1  UNL     1     -33.337  14.825  -4.182  1.00 20.00     0.003 C 
HETATM    2  C2  UNL     1     -33.110  16.092  -3.355  1.00 20.00     0.007 C 
HETATM    3  C5  UNL     1     -34.736  14.316  -3.826  1.00 20.00     0.032 C 
HETATM    4  C7  UNL     1     -34.261  16.127  -2.347  1.00 20.00     0.014 C 
HETATM    5  C8  UNL     1     -35.415  15.484  -3.118  1.00 20.00     0.122 C 
ENDROOT
BRANCH   4   6
HETATM    6  C10 UNL     1     -34.546  17.528  -1.831  1.00 20.00     0.007 C 
BRANCH   6   7
HETATM    7  C9  UNL     1     -34.062  17.703  -0.392  1.00 20.00     0.005 C 
BRANCH   7   8
HETATM    8  C6  UNL     1     -32.916  18.697  -0.307  1.00 20.00    -0.014 A 
HETATM    9  C3  UNL     1     -31.814  18.499   0.697  1.00 20.00     0.005 A 
HETATM   10  C4  UNL     1     -31.539  18.306  -0.769  1.00 20.00     0.005 A 
ENDBRANCH   7   8
ENDBRANCH   6   7
ENDBRANCH   4   6
BRANCH   5  11
HETATM   11  O11 UNL     1     -35.949  16.385  -4.081  1.00 20.00    -0.395 OA
HETATM   12  H29 UNL     1     -35.544  17.249  -3.910  1.00 20.00     0.210 HD
ENDBRANCH   5  11
TORSDOF 4
ENDMDL
MODEL 5
REMARK VINA RESULT:      -4.5     10.805     11.848
REMARK  4 active torsions:
REMARK  status: ('A' for Active; 'I' for Inactive)
REMARK    1  A    between atoms: C6_6  and  C9_9 
REMARK    2  A    between atoms: C7_7  and  C10_10 
REMARK    3  A    between atoms: C8_8  and  O11_11 
REMARK    4  A    between atoms: C9_9  and  C10_10 
ROOT
HETATM    1  C1  UNL     1     -34.351  17.266  -1.444  1.00 20.00     0.003 C 
HETATM    2  C2  UNL     1     -34.859  16.058  -2.233  1.00 20.00     0.007 C 
HETATM    3  C5  UNL     1     -32.977  17.619  -2.022  1.00 20.00     0.032 C 
HETATM    4  C7  UNL     1     -33.658  15.578  -3.052  1.00 20.00     0.014 C 
HETATM    5  C8  UNL     1     -32.902  16.874  -3.350  1.00 20.00     0.122 C 
ENDROOT
BRANCH   4   6
HETATM    6  C10 UNL     1     -34.066  14.784  -4.282  1.00 20.00     0.007 C 
BRANCH   6   7
HETATM    7  C9  UNL     1     -35.174  13.783  -3.960  1.00 20.00     0.005 C 
BRANCH   7   8
HETATM    8  C6  UNL     1     -36.373  13.964  -4.876  1.00 20.00    -0.014 A 
HETATM    9  C3  UNL     1     -37.656  14.537  -4.341  1.00 20.00     0.005 A 
HETATM   10  C4  UNL     1     -36.810  15.343  -5.287  1.00 20.00     0.005 A 
ENDBRANCH   7   8
ENDBRANCH   6   7
ENDBRANCH   4   6
BRANCH   5  11
HETATM   11  O11 UNL     1     -33.560  17.627  -4.361  1.00 20.00    -0.395 OA
HETATM   12  H29 UNL     1     -34.287  18.101  -3.928  1.00 20.00     0.210 HD
ENDBRANCH   5  11
TORSDOF 4
ENDMDL
MODEL 6
REMARK VINA RESULT:      -4.4     15.344     16.047
REMARK  4 active torsions:
REMARK  status: ('A' for Active; 'I' for Inactive)
REMARK    1  A    between atoms: C6_6  and  C9_9 
REMARK    2  A    between atoms: C7_7  and  C10_10 
REMARK    3  A    between atoms: C8_8  and  O11_11 
REMARK    4  A    between atoms: C9_9  and  C10_10 
ROOT
HETATM    1  C1  UNL     1     -25.677  17.755  12.248  1.00 20.00     0.003 C 
HETATM    2  C2  UNL     1     -25.170  18.607  11.084  1.00 20.00     0.007 C 
HETATM    3  C5  UNL     1     -24.889  16.443  12.205  1.00 20.00     0.032 C 
HETATM    4  C7  UNL     1     -24.308  17.665  10.240  1.00 20.00     0.014 C 
HETATM    5  C8  UNL     1     -23.707  16.720  11.282  1.00 20.00     0.122 C 
ENDROOT
BRANCH   4   6
HETATM    6  C10 UNL     1     -23.287  18.406   9.392  1.00 20.00     0.007 C 
BRANCH   6   7
HETATM    7  C9  UNL     1     -23.549  18.207   7.900  1.00 20.00     0.005 C 
BRANCH   7   8
HETATM    8  C6  UNL     1     -24.496  19.263   7.355  1.00 20.00    -0.014 A 
HETATM    9  C3  UNL     1     -24.990  19.179   5.937  1.00 20.00     0.005 A 
HETATM   10  C4  UNL     1     -25.934  18.920   7.078  1.00 20.00     0.005 A 
ENDBRANCH   7   8
ENDBRANCH   6   7
ENDBRANCH   4   6
BRANCH   5  11
HETATM   11  O11 UNL     1     -22.668  17.361  12.013  1.00 20.00    -0.395 OA
HETATM   12  H29 UNL     1     -22.198  16.666  12.499  1.00 20.00     0.210 HD
ENDBRANCH   5  11
TORSDOF 4
ENDMDL
MODEL 7
REMARK VINA RESULT:      -4.3      9.716     10.637
REMARK  4 active torsions:
REMARK  status: ('A' for Active; 'I' for Inactive)
REMARK    1  A    between atoms: C6_6  and  C9_9 
REMARK    2  A    between atoms: C7_7  and  C10_10 
REMARK    3  A    between atoms: C8_8  and  O11_11 
REMARK    4  A    between atoms: C9_9  and  C10_10 
ROOT
HETATM    1  C1  UNL     1     -41.772   7.701   0.852  1.00 20.00     0.003 C 
HETATM    2  C2  UNL     1     -42.287   6.291   0.559  1.00 20.00     0.007 C 
HETATM    3  C5  UNL     1     -41.236   8.255  -0.471  1.00 20.00     0.032 C 
HETATM    4  C7  UNL     1     -41.787   5.965  -0.851  1.00 20.00     0.014 C 
HETATM    5  C8  UNL     1     -41.796   7.328  -1.545  1.00 20.00     0.122 C 
ENDROOT
BRANCH   4   6
HETATM    6  C10 UNL     1     -42.623   4.898  -1.538  1.00 20.00     0.007 C 
BRANCH   6   7
HETATM    7  C9  UNL     1     -41.749   3.921  -2.322  1.00 20.00     0.005 C 
BRANCH   7   8
HETATM    8  C6  UNL     1     -42.547   3.193  -3.391  1.00 20.00    -0.014 A 
HETATM    9  C3  UNL     1     -41.844   2.532  -4.544  1.00 20.00     0.005 A 
HETATM   10  C4  UNL     1     -42.498   1.693  -3.482  1.00 20.00     0.005 A 
ENDBRANCH   7   8
ENDBRANCH   6   7
ENDBRANCH   4   6
BRANCH   5  11
HETATM   11  O11 UNL     1     -43.122   7.723  -1.876  1.00 20.00    -0.395 OA
HETATM   12  H29 UNL     1     -43.383   7.200  -2.650  1.00 20.00     0.210 HD
ENDBRANCH   5  11
TORSDOF 4
ENDMDL
MODEL 8
REMARK VINA RESULT:      -4.2     10.725     12.104
REMARK  4 active torsions:
REMARK  status: ('A' for Active; 'I' for Inactive)
REMARK    1  A    between atoms: C6_6  and  C9_9 
REMARK    2  A    between atoms: C7_7  and  C10_10 
REMARK    3  A    between atoms: C8_8  and  O11_11 
REMARK    4  A    between atoms: C9_9  and  C10_10 
ROOT
HETATM    1  C1  UNL     1     -36.371  15.998  -6.176  1.00 20.00     0.003 C 
HETATM    2  C2  UNL     1     -36.029  16.435  -4.750  1.00 20.00     0.007 C 
HETATM    3  C5  UNL     1     -35.915  14.542  -6.308  1.00 20.00     0.032 C 
HETATM    4  C7  UNL     1     -35.142  15.320  -4.189  1.00 20.00     0.014 C 
HETATM    5  C8  UNL     1     -35.686  14.067  -4.877  1.00 20.00     0.122 C 
ENDROOT
BRANCH   4   6
HETATM    6  C10 UNL     1     -35.157  15.267  -2.670  1.00 20.00     0.007 C 
BRANCH   6   7
HETATM    7  C9  UNL     1     -34.665  16.578  -2.060  1.00 20.00     0.005 C 
BRANCH   7   8
HETATM    8  C6  UNL     1     -33.224  16.866  -2.446  1.00 20.00    -0.014 A 
HETATM    9  C3  UNL     1     -32.862  18.167  -3.108  1.00 20.00     0.005 A 
HETATM   10  C4  UNL     1     -32.430  17.898  -1.693  1.00 20.00     0.005 A 
ENDBRANCH   7   8
ENDBRANCH   6   7
ENDBRANCH   4   6
BRANCH   5  11
HETATM   11  O11 UNL     1     -36.923  13.664  -4.300  1.00 20.00    -0.395 OA
HETATM   12  H29 UNL     1     -37.468  14.463  -4.225  1.00 20.00     0.210 HD
ENDBRANCH   5  11
TORSDOF 4
ENDMDL
MODEL 9
REMARK VINA RESULT:      -4.2     11.006     11.999
REMARK  4 active torsions:
REMARK  status: ('A' for Active; 'I' for Inactive)
REMARK    1  A    between atoms: C6_6  and  C9_9 
REMARK    2  A    between atoms: C7_7  and  C10_10 
REMARK    3  A    between atoms: C8_8  and  O11_11 
REMARK    4  A    between atoms: C9_9  and  C10_10 
ROOT
HETATM    1  C1  UNL     1     -35.416  15.034  -6.020  1.00 20.00     0.003 C 
HETATM    2  C2  UNL     1     -34.599  15.838  -5.007  1.00 20.00     0.007 C 
HETATM    3  C5  UNL     1     -36.191  13.983  -5.221  1.00 20.00     0.032 C 
HETATM    4  C7  UNL     1     -34.709  15.059  -3.693  1.00 20.00     0.014 C 
HETATM    5  C8  UNL     1     -36.108  14.445  -3.771  1.00 20.00     0.122 C 
ENDROOT
BRANCH   4   6
HETATM    6  C10 UNL     1     -34.466  15.931  -2.472  1.00 20.00     0.007 C 
BRANCH   6   7
HETATM    7  C9  UNL     1     -33.135  16.675  -2.572  1.00 20.00     0.005 C 
BRANCH   7   8
HETATM    8  C6  UNL     1     -33.067  17.829  -1.585  1.00 20.00    -0.014 A 
HETATM    9  C3  UNL     1     -31.762  18.188  -0.929  1.00 20.00     0.005 A 
HETATM   10  C4  UNL     1     -32.362  19.104  -1.958  1.00 20.00     0.005 A 
ENDBRANCH   7   8
ENDBRANCH   6   7
ENDBRANCH   4   6
BRANCH   5  11
HETATM   11  O11 UNL     1     -37.109  15.425  -3.521  1.00 20.00    -0.395 OA
HETATM   12  H29 UNL     1     -37.453  15.251  -2.630  1.00 20.00     0.210 HD
ENDBRANCH   5  11
TORSDOF 4
ENDMDL
