MODEL 1
REMARK VINA RESULT:      -5.6      0.000      0.000
REMARK  3 active torsions:
REMARK  status: ('A' for Active; 'I' for Inactive)
REMARK    1  A    between atoms: C2_2  and  C10_10 
REMARK    2  A    between atoms: C3_3  and  C8_8 
REMARK    3  A    between atoms: C8_8  and  C10_10 
ROOT
HETATM    1  C4  UNL     1     -35.924  15.575  -6.928  1.00 20.00     0.001 C 
HETATM    2  C5  UNL     1     -36.429  16.692  -6.032  1.00 20.00     0.001 C 
HETATM    3  C6  UNL     1     -34.912  14.860  -6.044  1.00 20.00     0.021 C 
HETATM    4  C7  UNL     1     -36.482  16.087  -4.628  1.00 20.00     0.021 C 
HETATM    5  C8  UNL     1     -35.584  14.835  -4.664  1.00 20.00     0.055 C 
ENDROOT
BRANCH   5   6
HETATM    6  C3  UNL     1     -36.428  13.592  -4.523  1.00 20.00     0.182 C 
HETATM    7  O11 UNL     1     -37.673  13.790  -4.470  1.00 20.00    -0.647 OA
HETATM    8  O12 UNL     1     -35.775  12.512  -4.478  1.00 20.00    -0.647 OA
ENDBRANCH   5   6
BRANCH   5   9
HETATM    9  C10 UNL     1     -34.560  14.817  -3.532  1.00 20.00     0.022 C 
HETATM   10  C9  UNL     1     -33.150  15.077  -4.069  1.00 20.00     0.015 C 
BRANCH   9  11
HETATM   11  C2  UNL     1     -34.910  15.846  -2.484  1.00 20.00    -0.031 C 
HETATM   12  C1  UNL     1     -34.039  16.724  -1.975  1.00 20.00     0.007 C 
ENDBRANCH   9  11
ENDBRANCH   5   9
TORSDOF 3
ENDMDL
MODEL 2
REMARK VINA RESULT:      -5.3      0.932      3.479
REMARK  3 active torsions:
REMARK  status: ('A' for Active; 'I' for Inactive)
REMARK    1  A    between atoms: C2_2  and  C10_10 
REMARK    2  A    between atoms: C3_3  and  C8_8 
REMARK    3  A    between atoms: C8_8  and  C10_10 
ROOT
HETATM    1  C4  UNL     1     -35.144  15.815  -2.572  1.00 20.00     0.001 C 
HETATM    2  C5  UNL     1     -33.762  15.538  -3.137  1.00 20.00     0.001 C 
HETATM    3  C6  UNL     1     -36.001  15.958  -3.822  1.00 20.00     0.021 C 
HETATM    4  C7  UNL     1     -34.000  14.664  -4.370  1.00 20.00     0.021 C 
HETATM    5  C8  UNL     1     -35.482  14.851  -4.751  1.00 20.00     0.055 C 
ENDROOT
BRANCH   5   6
HETATM    6  C3  UNL     1     -36.243  13.572  -4.504  1.00 20.00     0.182 C 
HETATM    7  O11 UNL     1     -35.529  12.560  -4.256  1.00 20.00    -0.647 OA
HETATM    8  O12 UNL     1     -37.498  13.680  -4.576  1.00 20.00    -0.647 OA
ENDBRANCH   5   6
BRANCH   5   9
HETATM    9  C10 UNL     1     -35.667  15.210  -6.223  1.00 20.00     0.022 C 
HETATM   10  C9  UNL     1     -36.350  16.572  -6.370  1.00 20.00     0.015 C 
BRANCH   9  11
HETATM   11  C2  UNL     1     -34.336  15.221  -6.937  1.00 20.00    -0.031 C 
HETATM   12  C1  UNL     1     -34.018  16.074  -7.917  1.00 20.00     0.007 C 
ENDBRANCH   9  11
ENDBRANCH   5   9
TORSDOF 3
ENDMDL
MODEL 3
REMARK VINA RESULT:      -4.8      1.223      1.451
REMARK  3 active torsions:
REMARK  status: ('A' for Active; 'I' for Inactive)
REMARK    1  A    between atoms: C2_2  and  C10_10 
REMARK    2  A    between atoms: C3_3  and  C8_8 
REMARK    3  A    between atoms: C8_8  and  C10_10 
ROOT
HETATM    1  C4  UNL     1     -35.931  15.683  -6.196  1.00 20.00     0.001 C 
HETATM    2  C5  UNL     1     -37.063  15.903  -5.208  1.00 20.00     0.001 C 
HETATM    3  C6  UNL     1     -34.691  15.766  -5.319  1.00 20.00     0.021 C 
HETATM    4  C7  UNL     1     -36.617  15.197  -3.926  1.00 20.00     0.021 C 
HETATM    5  C8  UNL     1     -35.092  15.010  -4.045  1.00 20.00     0.055 C 
ENDROOT
BRANCH   5   6
HETATM    6  C3  UNL     1     -34.763  13.544  -4.189  1.00 20.00     0.182 C 
HETATM    7  O11 UNL     1     -35.757  12.782  -4.339  1.00 20.00    -0.647 OA
HETATM    8  O12 UNL     1     -33.531  13.272  -4.142  1.00 20.00    -0.647 OA
ENDBRANCH   5   6
BRANCH   5   9
HETATM    9  C10 UNL     1     -34.342  15.522  -2.818  1.00 20.00     0.022 C 
HETATM   10  C9  UNL     1     -33.209  16.467  -3.228  1.00 20.00     0.015 C 
BRANCH   9  11
HETATM   11  C2  UNL     1     -35.288  16.230  -1.876  1.00 20.00    -0.031 C 
HETATM   12  C1  UNL     1     -34.897  17.084  -0.923  1.00 20.00     0.007 C 
ENDBRANCH   9  11
ENDBRANCH   5   9
TORSDOF 3
ENDMDL
MODEL 4
REMARK VINA RESULT:      -4.3      0.955      3.226
REMARK  3 active torsions:
REMARK  status: ('A' for Active; 'I' for Inactive)
REMARK    1  A    between atoms: C2_2  and  C10_10 
REMARK    2  A    between atoms: C3_3  and  C8_8 
REMARK    3  A    between atoms: C8_8  and  C10_10 
ROOT
HETATM    1  C4  UNL     1     -33.524  14.438  -4.202  1.00 20.00     0.001 C 
HETATM    2  C5  UNL     1     -33.585  14.973  -5.622  1.00 20.00     0.001 C 
HETATM    3  C6  UNL     1     -34.750  15.061  -3.550  1.00 20.00     0.021 C 
HETATM    4  C7  UNL     1     -35.074  15.010  -5.973  1.00 20.00     0.021 C 
HETATM    5  C8  UNL     1     -35.834  14.957  -4.633  1.00 20.00     0.055 C 
ENDROOT
BRANCH   5   6
HETATM    6  C3  UNL     1     -36.564  13.643  -4.507  1.00 20.00     0.182 C 
HETATM    7  O11 UNL     1     -35.833  12.614  -4.545  1.00 20.00    -0.647 OA
HETATM    8  O12 UNL     1     -37.816  13.744  -4.380  1.00 20.00    -0.647 OA
ENDBRANCH   5   6
BRANCH   5   9
HETATM    9  C10 UNL     1     -36.874  16.067  -4.506  1.00 20.00     0.022 C 
HETATM   10  C9  UNL     1     -36.485  17.053  -3.401  1.00 20.00     0.015 C 
BRANCH   9  11
HETATM   11  C2  UNL     1     -37.031  16.799  -5.818  1.00 20.00    -0.031 C 
HETATM   12  C1  UNL     1     -38.186  16.901  -6.486  1.00 20.00     0.007 C 
ENDBRANCH   9  11
ENDBRANCH   5   9
TORSDOF 3
ENDMDL
MODEL 5
REMARK VINA RESULT:      -4.3      1.060      1.443
REMARK  3 active torsions:
REMARK  status: ('A' for Active; 'I' for Inactive)
REMARK    1  A    between atoms: C2_2  and  C10_10 
REMARK    2  A    between atoms: C3_3  and  C8_8 
REMARK    3  A    between atoms: C8_8  and  C10_10 
ROOT
HETATM    1  C4  UNL     1     -37.605  16.576  -5.314  1.00 20.00     0.001 C 
HETATM    2  C5  UNL     1     -37.377  16.986  -3.869  1.00 20.00     0.001 C 
HETATM    3  C6  UNL     1     -36.315  15.851  -5.670  1.00 20.00     0.021 C 
HETATM    4  C7  UNL     1     -36.599  15.828  -3.242  1.00 20.00     0.021 C 
HETATM    5  C8  UNL     1     -35.999  15.027  -4.414  1.00 20.00     0.055 C 
ENDROOT
BRANCH   5   6
HETATM    6  C3  UNL     1     -36.660  13.674  -4.505  1.00 20.00     0.182 C 
HETATM    7  O11 UNL     1     -37.922  13.693  -4.548  1.00 20.00    -0.647 OA
HETATM    8  O12 UNL     1     -35.863  12.696  -4.528  1.00 20.00    -0.647 OA
ENDBRANCH   5   6
BRANCH   5   9
HETATM    9  C10 UNL     1     -34.500  14.787  -4.252  1.00 20.00     0.022 C 
HETATM   10  C9  UNL     1     -33.764  15.031  -5.572  1.00 20.00     0.015 C 
BRANCH   9  11
HETATM   11  C2  UNL     1     -33.934  15.681  -3.174  1.00 20.00    -0.031 C 
HETATM   12  C1  UNL     1     -33.237  16.797  -3.415  1.00 20.00     0.007 C 
ENDBRANCH   9  11
ENDBRANCH   5   9
TORSDOF 3
ENDMDL
MODEL 6
REMARK VINA RESULT:      -4.2      2.440      3.996
REMARK  3 active torsions:
REMARK  status: ('A' for Active; 'I' for Inactive)
REMARK    1  A    between atoms: C2_2  and  C10_10 
REMARK    2  A    between atoms: C3_3  and  C8_8 
REMARK    3  A    between atoms: C8_8  and  C10_10 
ROOT
HETATM    1  C4  UNL     1     -33.674  17.449  -1.590  1.00 20.00     0.001 C 
HETATM    2  C5  UNL     1     -34.950  16.703  -1.240  1.00 20.00     0.001 C 
HETATM    3  C6  UNL     1     -33.150  16.681  -2.795  1.00 20.00     0.021 C 
HETATM    4  C7  UNL     1     -35.553  16.289  -2.583  1.00 20.00     0.021 C 
HETATM    5  C8  UNL     1     -34.412  16.380  -3.615  1.00 20.00     0.055 C 
ENDROOT
BRANCH   5   6
HETATM    6  C3  UNL     1     -34.680  17.506  -4.582  1.00 20.00     0.182 C 
HETATM    7  O11 UNL     1     -35.881  17.624  -4.952  1.00 20.00    -0.647 OA
HETATM    8  O12 UNL     1     -33.664  18.187  -4.896  1.00 20.00    -0.647 OA
ENDBRANCH   5   6
BRANCH   5   9
HETATM    9  C10 UNL     1     -34.265  15.102  -4.438  1.00 20.00     0.022 C 
HETATM   10  C9  UNL     1     -32.839  14.553  -4.340  1.00 20.00     0.015 C 
BRANCH   9  11
HETATM   11  C2  UNL     1     -35.253  14.057  -3.976  1.00 20.00    -0.031 C 
HETATM   12  C1  UNL     1     -36.291  13.632  -4.705  1.00 20.00     0.007 C 
ENDBRANCH   9  11
ENDBRANCH   5   9
TORSDOF 3
ENDMDL
MODEL 7
REMARK VINA RESULT:      -4.2      1.546      3.593
REMARK  3 active torsions:
REMARK  status: ('A' for Active; 'I' for Inactive)
REMARK    1  A    between atoms: C2_2  and  C10_10 
REMARK    2  A    between atoms: C3_3  and  C8_8 
REMARK    3  A    between atoms: C8_8  and  C10_10 
ROOT
HETATM    1  C4  UNL     1     -34.907  16.024  -1.866  1.00 20.00     0.001 C 
HETATM    2  C5  UNL     1     -33.743  16.879  -2.334  1.00 20.00     0.001 C 
HETATM    3  C6  UNL     1     -35.687  15.777  -3.149  1.00 20.00     0.021 C 
HETATM    4  C7  UNL     1     -33.375  16.334  -3.715  1.00 20.00     0.021 C 
HETATM    5  C8  UNL     1     -34.595  15.526  -4.199  1.00 20.00     0.055 C 
ENDROOT
BRANCH   5   6
HETATM    6  C3  UNL     1     -34.255  14.057  -4.249  1.00 20.00     0.182 C 
HETATM    7  O11 UNL     1     -35.234  13.273  -4.109  1.00 20.00    -0.647 OA
HETATM    8  O12 UNL     1     -33.031  13.804  -4.424  1.00 20.00    -0.647 OA
ENDBRANCH   5   6
BRANCH   5   9
HETATM    9  C10 UNL     1     -35.047  15.933  -5.599  1.00 20.00     0.022 C 
HETATM   10  C9  UNL     1     -36.572  16.055  -5.665  1.00 20.00     0.015 C 
BRANCH   9  11
HETATM   11  C2  UNL     1     -34.408  17.241  -6.003  1.00 20.00    -0.031 C 
HETATM   12  C1  UNL     1     -34.429  17.733  -7.248  1.00 20.00     0.007 C 
ENDBRANCH   9  11
ENDBRANCH   5   9
TORSDOF 3
ENDMDL
MODEL 8
REMARK VINA RESULT:      -4.2      0.914      3.431
REMARK  3 active torsions:
REMARK  status: ('A' for Active; 'I' for Inactive)
REMARK    1  A    between atoms: C2_2  and  C10_10 
REMARK    2  A    between atoms: C3_3  and  C8_8 
REMARK    3  A    between atoms: C8_8  and  C10_10 
ROOT
HETATM    1  C4  UNL     1     -35.188  15.750  -2.337  1.00 20.00     0.001 C 
HETATM    2  C5  UNL     1     -33.842  15.539  -3.007  1.00 20.00     0.001 C 
HETATM    3  C6  UNL     1     -36.102  16.083  -3.508  1.00 20.00     0.021 C 
HETATM    4  C7  UNL     1     -34.159  14.854  -4.337  1.00 20.00     0.021 C 
HETATM    5  C8  UNL     1     -35.654  15.113  -4.610  1.00 20.00     0.055 C 
ENDROOT
BRANCH   5   6
HETATM    6  C3  UNL     1     -36.428  13.822  -4.509  1.00 20.00     0.182 C 
HETATM    7  O11 UNL     1     -37.677  13.952  -4.385  1.00 20.00    -0.647 OA
HETATM    8  O12 UNL     1     -35.722  12.777  -4.563  1.00 20.00    -0.647 OA
ENDBRANCH   5   6
BRANCH   5   9
HETATM    9  C10 UNL     1     -35.903  15.682  -6.005  1.00 20.00     0.022 C 
HETATM   10  C9  UNL     1     -35.878  14.571  -7.058  1.00 20.00     0.015 C 
BRANCH   9  11
HETATM   11  C2  UNL     1     -37.227  16.407  -6.053  1.00 20.00    -0.031 C 
HETATM   12  C1  UNL     1     -37.922  16.626  -7.175  1.00 20.00     0.007 C 
ENDBRANCH   9  11
ENDBRANCH   5   9
TORSDOF 3
ENDMDL
MODEL 9
REMARK VINA RESULT:      -4.1      2.163      3.293
REMARK  3 active torsions:
REMARK  status: ('A' for Active; 'I' for Inactive)
REMARK    1  A    between atoms: C2_2  and  C10_10 
REMARK    2  A    between atoms: C3_3  and  C8_8 
REMARK    3  A    between atoms: C8_8  and  C10_10 
ROOT
HETATM    1  C4  UNL     1     -36.196  13.853  -4.369  1.00 20.00     0.001 C 
HETATM    2  C5  UNL     1     -34.792  13.412  -3.993  1.00 20.00     0.001 C 
HETATM    3  C6  UNL     1     -36.317  15.213  -3.698  1.00 20.00     0.021 C 
HETATM    4  C7  UNL     1     -33.951  14.689  -4.016  1.00 20.00     0.021 C 
HETATM    5  C8  UNL     1     -34.946  15.863  -3.935  1.00 20.00     0.055 C 
ENDROOT
BRANCH   5   6
HETATM    6  C3  UNL     1     -34.954  16.623  -5.238  1.00 20.00     0.182 C 
HETATM    7  O11 UNL     1     -34.211  16.149  -6.142  1.00 20.00    -0.647 OA
HETATM    8  O12 UNL     1     -35.705  17.637  -5.254  1.00 20.00    -0.647 OA
ENDBRANCH   5   6
BRANCH   5   9
HETATM    9  C10 UNL     1     -34.589  16.857  -2.833  1.00 20.00     0.022 C 
HETATM   10  C9  UNL     1     -35.197  16.428  -1.495  1.00 20.00     0.015 C 
BRANCH   9  11
HETATM   11  C2  UNL     1     -33.090  16.985  -2.700  1.00 20.00    -0.031 C 
HETATM   12  C1  UNL     1     -32.481  17.780  -1.813  1.00 20.00     0.007 C 
ENDBRANCH   9  11
ENDBRANCH   5   9
TORSDOF 3
ENDMDL
