MODEL 1
REMARK VINA RESULT:      -4.6      0.000      0.000
REMARK  4 active torsions:
REMARK  status: ('A' for Active; 'I' for Inactive)
REMARK    1  A    between atoms: C1_1  and  C10_10 
REMARK    2  A    between atoms: C5_5  and  C9_9 
REMARK    3  A    between atoms: C9_9  and  C10_10 
REMARK    4  A    between atoms: C10_10  and  C11_11 
ROOT
HETATM    1  C10 UNL     1     -35.246  14.999  -4.513  1.00 20.00     0.058 C 
ENDROOT
BRANCH   1   2
HETATM    2  C1  UNL     1     -36.311  13.897  -4.474  1.00 20.00     0.127 C 
HETATM    3  C6  UNL     1     -37.745  14.345  -4.334  1.00 20.00     0.091 C 
HETATM    4  O12 UNL     1     -36.030  12.703  -4.569  1.00 20.00    -0.298 OA
ENDBRANCH   1   2
BRANCH   1   5
HETATM    5  C9  UNL     1     -35.454  16.012  -3.374  1.00 20.00     0.017 C 
BRANCH   5   6
HETATM    6  C5  UNL     1     -34.260  16.020  -2.431  1.00 20.00    -0.014 C 
HETATM    7  C3  UNL     1     -34.019  17.338  -1.652  1.00 20.00     0.005 C 
HETATM    8  C2  UNL     1     -33.014  17.740  -2.748  1.00 20.00     0.001 C 
HETATM    9  C4  UNL     1     -32.876  16.244  -3.088  1.00 20.00     0.005 C 
ENDBRANCH   5   6
ENDBRANCH   1   5
BRANCH   1  10
HETATM   10  C11 UNL     1     -35.215  15.632  -5.929  1.00 20.00    -0.012 C 
HETATM   11  C7  UNL     1     -34.054  15.138  -6.798  1.00 20.00     0.010 C 
HETATM   12  C8  UNL     1     -35.191  17.162  -5.854  1.00 20.00     0.010 C 
ENDBRANCH   1  10
TORSDOF 4
ENDMDL
MODEL 2
REMARK VINA RESULT:      -4.6      1.075      1.491
REMARK  4 active torsions:
REMARK  status: ('A' for Active; 'I' for Inactive)
REMARK    1  A    between atoms: C1_1  and  C10_10 
REMARK    2  A    between atoms: C5_5  and  C9_9 
REMARK    3  A    between atoms: C9_9  and  C10_10 
REMARK    4  A    between atoms: C10_10  and  C11_11 
ROOT
HETATM    1  C10 UNL     1     -35.036  14.632  -3.716  1.00 20.00     0.058 C 
ENDROOT
BRANCH   1   2
HETATM    2  C1  UNL     1     -36.187  13.798  -4.289  1.00 20.00     0.127 C 
HETATM    3  C6  UNL     1     -37.533  14.473  -4.386  1.00 20.00     0.091 C 
HETATM    4  O12 UNL     1     -36.035  12.637  -4.671  1.00 20.00    -0.298 OA
ENDBRANCH   1   2
BRANCH   1   5
HETATM    5  C9  UNL     1     -35.563  15.904  -3.027  1.00 20.00     0.017 C 
BRANCH   5   6
HETATM    6  C5  UNL     1     -34.786  16.190  -1.751  1.00 20.00    -0.014 C 
HETATM    7  C3  UNL     1     -35.480  17.127  -0.729  1.00 20.00     0.005 C 
HETATM    8  C2  UNL     1     -34.686  18.296  -1.343  1.00 20.00     0.001 C 
HETATM    9  C4  UNL     1     -33.670  17.259  -1.859  1.00 20.00     0.005 C 
ENDBRANCH   5   6
ENDBRANCH   1   5
BRANCH   1  10
HETATM   10  C11 UNL     1     -33.992  14.900  -4.832  1.00 20.00    -0.012 C 
HETATM   11  C7  UNL     1     -32.541  14.747  -4.366  1.00 20.00     0.010 C 
HETATM   12  C8  UNL     1     -34.191  16.283  -5.460  1.00 20.00     0.010 C 
ENDBRANCH   1  10
TORSDOF 4
ENDMDL
MODEL 3
REMARK VINA RESULT:      -4.5      1.070      3.561
REMARK  4 active torsions:
REMARK  status: ('A' for Active; 'I' for Inactive)
REMARK    1  A    between atoms: C1_1  and  C10_10 
REMARK    2  A    between atoms: C5_5  and  C9_9 
REMARK    3  A    between atoms: C9_9  and  C10_10 
REMARK    4  A    between atoms: C10_10  and  C11_11 
ROOT
HETATM    1  C10 UNL     1     -35.273  15.101  -4.644  1.00 20.00     0.058 C 
ENDROOT
BRANCH   1   2
HETATM    2  C1  UNL     1     -36.315  13.987  -4.493  1.00 20.00     0.127 C 
HETATM    3  C6  UNL     1     -37.748  14.420  -4.300  1.00 20.00     0.091 C 
HETATM    4  O12 UNL     1     -36.018  12.794  -4.542  1.00 20.00    -0.298 OA
ENDBRANCH   1   2
BRANCH   1   5
HETATM    5  C9  UNL     1     -34.471  14.936  -5.948  1.00 20.00     0.017 C 
BRANCH   5   6
HETATM    6  C5  UNL     1     -35.048  15.808  -7.053  1.00 20.00    -0.014 C 
HETATM    7  C3  UNL     1     -34.021  16.612  -7.890  1.00 20.00     0.005 C 
HETATM    8  C2  UNL     1     -34.282  17.812  -6.960  1.00 20.00     0.001 C 
HETATM    9  C4  UNL     1     -35.638  17.169  -6.608  1.00 20.00     0.005 C 
ENDBRANCH   5   6
ENDBRANCH   1   5
BRANCH   1  10
HETATM   10  C11 UNL     1     -34.399  15.163  -3.364  1.00 20.00    -0.012 C 
HETATM   11  C7  UNL     1     -35.052  15.929  -2.210  1.00 20.00     0.010 C 
HETATM   12  C8  UNL     1     -33.017  15.754  -3.662  1.00 20.00     0.010 C 
ENDBRANCH   1  10
TORSDOF 4
ENDMDL
MODEL 4
REMARK VINA RESULT:      -4.3      1.135      1.249
REMARK  4 active torsions:
REMARK  status: ('A' for Active; 'I' for Inactive)
REMARK    1  A    between atoms: C1_1  and  C10_10 
REMARK    2  A    between atoms: C5_5  and  C9_9 
REMARK    3  A    between atoms: C9_9  and  C10_10 
REMARK    4  A    between atoms: C10_10  and  C11_11 
ROOT
HETATM    1  C10 UNL     1     -36.363  15.368  -4.428  1.00 20.00     0.058 C 
ENDROOT
BRANCH   1   2
HETATM    2  C1  UNL     1     -37.820  14.908  -4.308  1.00 20.00     0.127 C 
HETATM    3  C6  UNL     1     -38.858  15.985  -4.108  1.00 20.00     0.091 C 
HETATM    4  O12 UNL     1     -38.147  13.724  -4.387  1.00 20.00    -0.298 OA
ENDBRANCH   1   2
BRANCH   1   5
HETATM    5  C9  UNL     1     -36.006  16.372  -3.318  1.00 20.00     0.017 C 
BRANCH   5   6
HETATM    6  C5  UNL     1     -34.816  15.883  -2.506  1.00 20.00    -0.014 C 
HETATM    7  C3  UNL     1     -34.043  16.967  -1.712  1.00 20.00     0.005 C 
HETATM    8  C2  UNL     1     -33.059  17.055  -2.894  1.00 20.00     0.001 C 
HETATM    9  C4  UNL     1     -33.507  15.637  -3.297  1.00 20.00     0.005 C 
ENDBRANCH   5   6
ENDBRANCH   1   5
BRANCH   1  10
HETATM   10  C11 UNL     1     -36.107  15.891  -5.865  1.00 20.00    -0.012 C 
HETATM   11  C7  UNL     1     -35.106  15.045  -6.659  1.00 20.00     0.010 C 
HETATM   12  C8  UNL     1     -35.651  17.354  -5.852  1.00 20.00     0.010 C 
ENDBRANCH   1  10
TORSDOF 4
ENDMDL
MODEL 5
REMARK VINA RESULT:      -4.2      2.818      5.412
REMARK  4 active torsions:
REMARK  status: ('A' for Active; 'I' for Inactive)
REMARK    1  A    between atoms: C1_1  and  C10_10 
REMARK    2  A    between atoms: C5_5  and  C9_9 
REMARK    3  A    between atoms: C9_9  and  C10_10 
REMARK    4  A    between atoms: C10_10  and  C11_11 
ROOT
HETATM    1  C10 UNL     1     -33.241  17.493  -1.561  1.00 20.00     0.058 C 
ENDROOT
BRANCH   1   2
HETATM    2  C1  UNL     1     -32.055  18.459  -1.461  1.00 20.00     0.127 C 
HETATM    3  C6  UNL     1     -31.209  18.369  -0.215  1.00 20.00     0.091 C 
HETATM    4  O12 UNL     1     -31.781  19.263  -2.352  1.00 20.00    -0.298 OA
ENDBRANCH   1   2
BRANCH   1   5
HETATM    5  C9  UNL     1     -33.441  17.010  -3.009  1.00 20.00     0.017 C 
BRANCH   5   6
HETATM    6  C5  UNL     1     -33.827  15.539  -3.041  1.00 20.00    -0.014 C 
HETATM    7  C3  UNL     1     -33.452  14.766  -4.332  1.00 20.00     0.005 C 
HETATM    8  C2  UNL     1     -34.880  15.036  -4.844  1.00 20.00     0.001 C 
HETATM    9  C4  UNL     1     -35.307  15.230  -3.376  1.00 20.00     0.005 C 
ENDBRANCH   5   6
ENDBRANCH   1   5
BRANCH   1  10
HETATM   10  C11 UNL     1     -34.495  18.153  -0.932  1.00 20.00    -0.012 C 
HETATM   11  C7  UNL     1     -35.341  17.192  -0.091  1.00 20.00     0.010 C 
HETATM   12  C8  UNL     1     -35.372  18.813  -2.001  1.00 20.00     0.010 C 
ENDBRANCH   1  10
TORSDOF 4
ENDMDL
MODEL 6
REMARK VINA RESULT:      -4.1      1.288      2.286
REMARK  4 active torsions:
REMARK  status: ('A' for Active; 'I' for Inactive)
REMARK    1  A    between atoms: C1_1  and  C10_10 
REMARK    2  A    between atoms: C5_5  and  C9_9 
REMARK    3  A    between atoms: C9_9  and  C10_10 
REMARK    4  A    between atoms: C10_10  and  C11_11 
ROOT
HETATM    1  C10 UNL     1     -34.929  16.033  -5.272  1.00 20.00     0.058 C 
ENDROOT
BRANCH   1   2
HETATM    2  C1  UNL     1     -34.978  14.991  -6.395  1.00 20.00     0.127 C 
HETATM    3  C6  UNL     1     -33.933  15.108  -7.476  1.00 20.00     0.091 C 
HETATM    4  O12 UNL     1     -35.811  14.085  -6.419  1.00 20.00    -0.298 OA
ENDBRANCH   1   2
BRANCH   1   5
HETATM    5  C9  UNL     1     -35.656  15.525  -4.014  1.00 20.00     0.017 C 
BRANCH   5   6
HETATM    6  C5  UNL     1     -34.699  15.434  -2.834  1.00 20.00    -0.014 C 
HETATM    7  C3  UNL     1     -35.019  16.353  -1.627  1.00 20.00     0.005 C 
HETATM    8  C2  UNL     1     -34.025  17.376  -2.211  1.00 20.00     0.001 C 
HETATM    9  C4  UNL     1     -33.367  16.211  -2.977  1.00 20.00     0.005 C 
ENDBRANCH   5   6
ENDBRANCH   1   5
BRANCH   1  10
HETATM   10  C11 UNL     1     -35.457  17.389  -5.807  1.00 20.00    -0.012 C 
HETATM   11  C7  UNL     1     -34.397  18.495  -5.832  1.00 20.00     0.010 C 
HETATM   12  C8  UNL     1     -36.680  17.862  -5.015  1.00 20.00     0.010 C 
ENDBRANCH   1  10
TORSDOF 4
ENDMDL
MODEL 7
REMARK VINA RESULT:      -3.9      1.534      2.690
REMARK  4 active torsions:
REMARK  status: ('A' for Active; 'I' for Inactive)
REMARK    1  A    between atoms: C1_1  and  C10_10 
REMARK    2  A    between atoms: C5_5  and  C9_9 
REMARK    3  A    between atoms: C9_9  and  C10_10 
REMARK    4  A    between atoms: C10_10  and  C11_11 
ROOT
HETATM    1  C10 UNL     1     -35.032  15.624  -4.556  1.00 20.00     0.058 C 
ENDROOT
BRANCH   1   2
HETATM    2  C1  UNL     1     -34.014  14.891  -5.436  1.00 20.00     0.127 C 
HETATM    3  C6  UNL     1     -34.070  15.171  -6.917  1.00 20.00     0.091 C 
HETATM    4  O12 UNL     1     -33.172  14.123  -4.971  1.00 20.00    -0.298 OA
ENDBRANCH   1   2
BRANCH   1   5
HETATM    5  C9  UNL     1     -34.903  15.195  -3.084  1.00 20.00     0.017 C 
BRANCH   5   6
HETATM    6  C5  UNL     1     -34.344  16.328  -2.236  1.00 20.00    -0.014 C 
HETATM    7  C3  UNL     1     -35.219  16.774  -1.036  1.00 20.00     0.005 C 
HETATM    8  C2  UNL     1     -35.796  17.882  -1.938  1.00 20.00     0.001 C 
HETATM    9  C4  UNL     1     -34.527  17.757  -2.804  1.00 20.00     0.005 C 
ENDBRANCH   5   6
ENDBRANCH   1   5
BRANCH   1  10
HETATM   10  C11 UNL     1     -36.453  15.436  -5.150  1.00 20.00    -0.012 C 
HETATM   11  C7  UNL     1     -37.228  16.747  -5.316  1.00 20.00     0.010 C 
HETATM   12  C8  UNL     1     -37.278  14.449  -4.318  1.00 20.00     0.010 C 
ENDBRANCH   1  10
TORSDOF 4
ENDMDL
MODEL 8
REMARK VINA RESULT:      -3.8      1.272      3.699
REMARK  4 active torsions:
REMARK  status: ('A' for Active; 'I' for Inactive)
REMARK    1  A    between atoms: C1_1  and  C10_10 
REMARK    2  A    between atoms: C5_5  and  C9_9 
REMARK    3  A    between atoms: C9_9  and  C10_10 
REMARK    4  A    between atoms: C10_10  and  C11_11 
ROOT
HETATM    1  C10 UNL     1     -34.958  15.604  -3.926  1.00 20.00     0.058 C 
ENDROOT
BRANCH   1   2
HETATM    2  C1  UNL     1     -35.039  14.094  -4.176  1.00 20.00     0.127 C 
HETATM    3  C6  UNL     1     -36.378  13.547  -4.606  1.00 20.00     0.091 C 
HETATM    4  O12 UNL     1     -34.065  13.351  -4.054  1.00 20.00    -0.298 OA
ENDBRANCH   1   2
BRANCH   1   5
HETATM    5  C9  UNL     1     -34.349  16.334  -5.136  1.00 20.00     0.017 C 
BRANCH   5   6
HETATM    6  C5  UNL     1     -35.283  17.426  -5.637  1.00 20.00    -0.014 C 
HETATM    7  C3  UNL     1     -36.790  17.222  -5.337  1.00 20.00     0.005 C 
HETATM    8  C2  UNL     1     -36.932  16.610  -6.744  1.00 20.00     0.001 C 
HETATM    9  C4  UNL     1     -35.651  17.370  -7.140  1.00 20.00     0.005 C 
ENDBRANCH   5   6
ENDBRANCH   1   5
BRANCH   1  10
HETATM   10  C11 UNL     1     -34.217  15.863  -2.588  1.00 20.00    -0.012 C 
HETATM   11  C7  UNL     1     -35.105  16.478  -1.502  1.00 20.00     0.010 C 
HETATM   12  C8  UNL     1     -32.978  16.739  -2.800  1.00 20.00     0.010 C 
ENDBRANCH   1  10
TORSDOF 4
ENDMDL
MODEL 9
REMARK VINA RESULT:      -3.8      1.895      3.519
REMARK  4 active torsions:
REMARK  status: ('A' for Active; 'I' for Inactive)
REMARK    1  A    between atoms: C1_1  and  C10_10 
REMARK    2  A    between atoms: C5_5  and  C9_9 
REMARK    3  A    between atoms: C9_9  and  C10_10 
REMARK    4  A    between atoms: C10_10  and  C11_11 
ROOT
HETATM    1  C10 UNL     1     -35.956  15.327  -4.055  1.00 20.00     0.058 C 
ENDROOT
BRANCH   1   2
HETATM    2  C1  UNL     1     -35.916  14.114  -4.991  1.00 20.00     0.127 C 
HETATM    3  C6  UNL     1     -35.750  14.399  -6.464  1.00 20.00     0.091 C 
HETATM    4  O12 UNL     1     -35.997  12.958  -4.578  1.00 20.00    -0.298 OA
ENDBRANCH   1   2
BRANCH   1   5
HETATM    5  C9  UNL     1     -36.010  16.642  -4.853  1.00 20.00     0.017 C 
BRANCH   5   6
HETATM    6  C5  UNL     1     -37.403  17.250  -4.802  1.00 20.00    -0.014 C 
HETATM    7  C3  UNL     1     -37.474  18.760  -4.460  1.00 20.00     0.005 C 
HETATM    8  C2  UNL     1     -37.716  18.361  -2.992  1.00 20.00     0.001 C 
HETATM    9  C4  UNL     1     -38.211  16.995  -3.505  1.00 20.00     0.005 C 
ENDBRANCH   5   6
ENDBRANCH   1   5
BRANCH   1  10
HETATM   10  C11 UNL     1     -34.776  15.239  -3.052  1.00 20.00    -0.012 C 
HETATM   11  C7  UNL     1     -34.912  16.187  -1.857  1.00 20.00     0.010 C 
HETATM   12  C8  UNL     1     -33.433  15.478  -3.751  1.00 20.00     0.010 C 
ENDBRANCH   1  10
TORSDOF 4
ENDMDL
