MODEL 1
REMARK VINA RESULT:      -4.2      0.000      0.000
REMARK  3 active torsions:
REMARK  status: ('A' for Active; 'I' for Inactive)
REMARK    1  A    between atoms: C1_1  and  C7_7 
REMARK    2  A    between atoms: C7_7  and  C8_8 
REMARK    3  A    between atoms: C7_7  and  C9_9 
ROOT
HETATM    1  C7  UNL     1     -35.324  15.179  -4.579  1.00 20.00     0.061 C 
ENDROOT
BRANCH   1   2
HETATM    2  C1  UNL     1     -36.354  14.044  -4.530  1.00 20.00     0.128 C 
HETATM    3  C2  UNL     1     -37.797  14.441  -4.333  1.00 20.00     0.091 C 
HETATM    4  O10 UNL     1     -36.033  12.860  -4.626  1.00 20.00    -0.298 OA
ENDBRANCH   1   2
BRANCH   1   5
HETATM    5  C8  UNL     1     -34.876  15.465  -6.040  1.00 20.00    -0.011 C 
HETATM    6  C3  UNL     1     -34.717  16.967  -6.309  1.00 20.00     0.010 C 
HETATM    7  C4  UNL     1     -35.776  14.844  -7.113  1.00 20.00     0.010 C 
ENDBRANCH   1   5
BRANCH   1   8
HETATM    8  C9  UNL     1     -34.169  14.879  -3.579  1.00 20.00    -0.011 C 
HETATM    9  C5  UNL     1     -32.845  14.568  -4.287  1.00 20.00     0.010 C 
HETATM   10  C6  UNL     1     -33.943  16.062  -2.625  1.00 20.00     0.010 C 
ENDBRANCH   1   8
TORSDOF 3
ENDMDL
MODEL 2
REMARK VINA RESULT:      -4.1      0.733      3.074
REMARK  3 active torsions:
REMARK  status: ('A' for Active; 'I' for Inactive)
REMARK    1  A    between atoms: C1_1  and  C7_7 
REMARK    2  A    between atoms: C7_7  and  C8_8 
REMARK    3  A    between atoms: C7_7  and  C9_9 
ROOT
HETATM    1  C7  UNL     1     -35.160  14.760  -5.384  1.00 20.00     0.061 C 
ENDROOT
BRANCH   1   2
HETATM    2  C1  UNL     1     -36.164  13.817  -4.710  1.00 20.00     0.128 C 
HETATM    3  C2  UNL     1     -37.511  14.398  -4.354  1.00 20.00     0.091 C 
HETATM    4  O10 UNL     1     -35.894  12.645  -4.448  1.00 20.00    -0.298 OA
ENDBRANCH   1   2
BRANCH   1   5
HETATM    5  C8  UNL     1     -34.130  15.306  -4.355  1.00 20.00    -0.011 C 
HETATM    6  C3  UNL     1     -32.831  14.490  -4.353  1.00 20.00     0.010 C 
HETATM    7  C4  UNL     1     -34.664  15.425  -2.924  1.00 20.00     0.010 C 
ENDBRANCH   1   5
BRANCH   1   8
HETATM    8  C9  UNL     1     -35.926  15.846  -6.194  1.00 20.00    -0.011 C 
HETATM    9  C5  UNL     1     -35.267  17.227  -6.097  1.00 20.00     0.010 C 
HETATM   10  C6  UNL     1     -36.028  15.460  -7.677  1.00 20.00     0.010 C 
ENDBRANCH   1   8
TORSDOF 3
ENDMDL
MODEL 3
REMARK VINA RESULT:      -4.1     16.974     18.980
REMARK  3 active torsions:
REMARK  status: ('A' for Active; 'I' for Inactive)
REMARK    1  A    between atoms: C1_1  and  C7_7 
REMARK    2  A    between atoms: C7_7  and  C8_8 
REMARK    3  A    between atoms: C7_7  and  C9_9 
ROOT
HETATM    1  C7  UNL     1     -24.233  17.490   9.817  1.00 20.00     0.061 C 
ENDROOT
BRANCH   1   2
HETATM    2  C1  UNL     1     -22.809  17.330   9.271  1.00 20.00     0.128 C 
HETATM    3  C2  UNL     1     -21.942  18.565   9.256  1.00 20.00     0.091 C 
HETATM    4  O10 UNL     1     -22.384  16.257   8.844  1.00 20.00    -0.298 OA
ENDBRANCH   1   2
BRANCH   1   5
HETATM    5  C8  UNL     1     -24.840  18.861   9.403  1.00 20.00    -0.011 C 
HETATM    6  C3  UNL     1     -26.016  19.263  10.303  1.00 20.00     0.010 C 
HETATM    7  C4  UNL     1     -25.263  18.950   7.934  1.00 20.00     0.010 C 
ENDBRANCH   1   5
BRANCH   1   8
HETATM    8  C9  UNL     1     -24.242  17.197  11.347  1.00 20.00    -0.011 C 
HETATM    9  C5  UNL     1     -24.605  15.743  11.665  1.00 20.00     0.010 C 
HETATM   10  C6  UNL     1     -22.875  17.506  11.976  1.00 20.00     0.010 C 
ENDBRANCH   1   8
TORSDOF 3
ENDMDL
MODEL 4
REMARK VINA RESULT:      -4.0      1.571      3.775
REMARK  3 active torsions:
REMARK  status: ('A' for Active; 'I' for Inactive)
REMARK    1  A    between atoms: C1_1  and  C7_7 
REMARK    2  A    between atoms: C7_7  and  C8_8 
REMARK    3  A    between atoms: C7_7  and  C9_9 
ROOT
HETATM    1  C7  UNL     1     -34.791  15.634  -4.078  1.00 20.00     0.061 C 
ENDROOT
BRANCH   1   2
HETATM    2  C1  UNL     1     -33.896  14.782  -4.987  1.00 20.00     0.128 C 
HETATM    3  C2  UNL     1     -33.968  15.060  -6.468  1.00 20.00     0.091 C 
HETATM    4  O10 UNL     1     -33.164  13.897  -4.546  1.00 20.00    -0.298 OA
ENDBRANCH   1   2
BRANCH   1   5
HETATM    5  C8  UNL     1     -34.108  15.894  -2.706  1.00 20.00    -0.011 C 
HETATM    6  C3  UNL     1     -35.121  16.306  -1.629  1.00 20.00     0.010 C 
HETATM    7  C4  UNL     1     -32.964  16.912  -2.750  1.00 20.00     0.010 C 
ENDBRANCH   1   5
BRANCH   1   8
HETATM    8  C9  UNL     1     -36.211  14.998  -4.000  1.00 20.00    -0.011 C 
HETATM    9  C5  UNL     1     -37.251  15.781  -4.809  1.00 20.00     0.010 C 
HETATM   10  C6  UNL     1     -36.195  13.547  -4.504  1.00 20.00     0.010 C 
ENDBRANCH   1   8
TORSDOF 3
ENDMDL
MODEL 5
REMARK VINA RESULT:      -4.0      1.178      2.615
REMARK  3 active torsions:
REMARK  status: ('A' for Active; 'I' for Inactive)
REMARK    1  A    between atoms: C1_1  and  C7_7 
REMARK    2  A    between atoms: C7_7  and  C8_8 
REMARK    3  A    between atoms: C7_7  and  C9_9 
ROOT
HETATM    1  C7  UNL     1     -34.948  14.845  -3.612  1.00 20.00     0.061 C 
ENDROOT
BRANCH   1   2
HETATM    2  C1  UNL     1     -36.021  13.928  -4.211  1.00 20.00     0.128 C 
HETATM    3  C2  UNL     1     -37.391  14.527  -4.419  1.00 20.00     0.091 C 
HETATM    4  O10 UNL     1     -35.798  12.752  -4.496  1.00 20.00    -0.298 OA
ENDBRANCH   1   2
BRANCH   1   5
HETATM    5  C8  UNL     1     -35.589  16.098  -2.952  1.00 20.00    -0.011 C 
HETATM    6  C3  UNL     1     -35.362  17.366  -3.786  1.00 20.00     0.010 C 
HETATM    7  C4  UNL     1     -35.147  16.349  -1.507  1.00 20.00     0.010 C 
ENDBRANCH   1   5
BRANCH   1   8
HETATM    8  C9  UNL     1     -33.860  15.146  -4.685  1.00 20.00    -0.011 C 
HETATM    9  C5  UNL     1     -32.593  14.306  -4.491  1.00 20.00     0.010 C 
HETATM   10  C6  UNL     1     -34.398  14.892  -6.102  1.00 20.00     0.010 C 
ENDBRANCH   1   8
TORSDOF 3
ENDMDL
MODEL 6
REMARK VINA RESULT:      -3.9      1.264      2.759
REMARK  3 active torsions:
REMARK  status: ('A' for Active; 'I' for Inactive)
REMARK    1  A    between atoms: C1_1  and  C7_7 
REMARK    2  A    between atoms: C7_7  and  C8_8 
REMARK    3  A    between atoms: C7_7  and  C9_9 
ROOT
HETATM    1  C7  UNL     1     -35.467  15.118  -3.526  1.00 20.00     0.061 C 
ENDROOT
BRANCH   1   2
HETATM    2  C1  UNL     1     -34.425  14.070  -3.936  1.00 20.00     0.128 C 
HETATM    3  C2  UNL     1     -33.068  14.584  -4.350  1.00 20.00     0.091 C 
HETATM    4  O10 UNL     1     -34.675  12.865  -3.951  1.00 20.00    -0.298 OA
ENDBRANCH   1   2
BRANCH   1   5
HETATM    5  C8  UNL     1     -36.522  15.327  -4.650  1.00 20.00    -0.011 C 
HETATM    6  C3  UNL     1     -37.839  14.603  -4.343  1.00 20.00     0.010 C 
HETATM    7  C4  UNL     1     -36.039  14.943  -6.052  1.00 20.00     0.010 C 
ENDBRANCH   1   5
BRANCH   1   8
HETATM    8  C9  UNL     1     -34.745  16.413  -3.048  1.00 20.00    -0.011 C 
HETATM    9  C5  UNL     1     -35.277  17.673  -3.740  1.00 20.00     0.010 C 
HETATM   10  C6  UNL     1     -34.887  16.595  -1.529  1.00 20.00     0.010 C 
ENDBRANCH   1   8
TORSDOF 3
ENDMDL
MODEL 7
REMARK VINA RESULT:      -3.9      1.149      3.090
REMARK  3 active torsions:
REMARK  status: ('A' for Active; 'I' for Inactive)
REMARK    1  A    between atoms: C1_1  and  C7_7 
REMARK    2  A    between atoms: C7_7  and  C8_8 
REMARK    3  A    between atoms: C7_7  and  C9_9 
ROOT
HETATM    1  C7  UNL     1     -34.311  15.159  -4.697  1.00 20.00     0.061 C 
ENDROOT
BRANCH   1   2
HETATM    2  C1  UNL     1     -35.145  13.922  -4.343  1.00 20.00     0.128 C 
HETATM    3  C2  UNL     1     -36.637  14.025  -4.546  1.00 20.00     0.091 C 
HETATM    4  O10 UNL     1     -34.639  12.893  -3.895  1.00 20.00    -0.298 OA
ENDBRANCH   1   2
BRANCH   1   5
HETATM    5  C8  UNL     1     -34.301  16.180  -3.524  1.00 20.00    -0.011 C 
HETATM    6  C3  UNL     1     -32.875  16.510  -3.063  1.00 20.00     0.010 C 
HETATM    7  C4  UNL     1     -35.149  15.768  -2.317  1.00 20.00     0.010 C 
ENDBRANCH   1   5
BRANCH   1   8
HETATM    8  C9  UNL     1     -34.779  15.730  -6.067  1.00 20.00    -0.011 C 
HETATM    9  C5  UNL     1     -34.725  17.261  -6.116  1.00 20.00     0.010 C 
HETATM   10  C6  UNL     1     -33.924  15.177  -7.218  1.00 20.00     0.010 C 
ENDBRANCH   1   8
TORSDOF 3
ENDMDL
MODEL 8
REMARK VINA RESULT:      -3.7      1.356      2.710
REMARK  3 active torsions:
REMARK  status: ('A' for Active; 'I' for Inactive)
REMARK    1  A    between atoms: C1_1  and  C7_7 
REMARK    2  A    between atoms: C7_7  and  C8_8 
REMARK    3  A    between atoms: C7_7  and  C9_9 
ROOT
HETATM    1  C7  UNL     1     -36.372  14.931  -3.755  1.00 20.00     0.061 C 
ENDROOT
BRANCH   1   2
HETATM    2  C1  UNL     1     -35.995  13.869  -4.795  1.00 20.00     0.128 C 
HETATM    3  C2  UNL     1     -35.815  14.340  -6.217  1.00 20.00     0.091 C 
HETATM    4  O10 UNL     1     -35.862  12.681  -4.503  1.00 20.00    -0.298 OA
ENDBRANCH   1   2
BRANCH   1   5
HETATM    5  C8  UNL     1     -37.606  15.756  -4.221  1.00 20.00    -0.011 C 
HETATM    6  C3  UNL     1     -37.756  17.061  -3.428  1.00 20.00     0.010 C 
HETATM    7  C4  UNL     1     -38.929  14.986  -4.197  1.00 20.00     0.010 C 
ENDBRANCH   1   5
BRANCH   1   8
HETATM    8  C9  UNL     1     -35.114  15.773  -3.389  1.00 20.00    -0.011 C 
HETATM    9  C5  UNL     1     -35.025  16.075  -1.889  1.00 20.00     0.010 C 
HETATM   10  C6  UNL     1     -33.826  15.054  -3.817  1.00 20.00     0.010 C 
ENDBRANCH   1   8
TORSDOF 3
ENDMDL
MODEL 9
REMARK VINA RESULT:      -3.6     17.786     19.293
REMARK  3 active torsions:
REMARK  status: ('A' for Active; 'I' for Inactive)
REMARK    1  A    between atoms: C1_1  and  C7_7 
REMARK    2  A    between atoms: C7_7  and  C8_8 
REMARK    3  A    between atoms: C7_7  and  C9_9 
ROOT
HETATM    1  C7  UNL     1     -23.549  17.324   9.834  1.00 20.00     0.061 C 
ENDROOT
BRANCH   1   2
HETATM    2  C1  UNL     1     -23.606  16.821  11.281  1.00 20.00     0.128 C 
HETATM    3  C2  UNL     1     -24.535  15.666  11.565  1.00 20.00     0.091 C 
HETATM    4  O10 UNL     1     -22.947  17.336  12.183  1.00 20.00    -0.298 OA
ENDBRANCH   1   2
BRANCH   1   5
HETATM    5  C8  UNL     1     -22.096  17.279   9.282  1.00 20.00    -0.011 C 
HETATM    6  C3  UNL     1     -21.299  18.534   9.662  1.00 20.00     0.010 C 
HETATM    7  C4  UNL     1     -21.997  17.046   7.772  1.00 20.00     0.010 C 
ENDBRANCH   1   5
BRANCH   1   8
HETATM    8  C9  UNL     1     -24.251  18.711   9.735  1.00 20.00    -0.011 C 
HETATM    9  C5  UNL     1     -24.749  19.019   8.319  1.00 20.00     0.010 C 
HETATM   10  C6  UNL     1     -25.445  18.795  10.699  1.00 20.00     0.010 C 
ENDBRANCH   1   8
TORSDOF 3
ENDMDL
