MODEL 1
REMARK VINA RESULT:      -4.3      0.000      0.000
REMARK  2 active torsions:
REMARK  status: ('A' for Active; 'I' for Inactive)
REMARK    1  A    between atoms: C3_3  and  C10_10 
REMARK    2  A    between atoms: C9_9  and  C10_10 
ROOT
HETATM    1  C1  UNL     1     -35.766  15.074  -3.210  1.00 20.00     0.006 C 
HETATM    2  C2  UNL     1     -35.927  15.265  -4.722  1.00 20.00     0.016 C 
HETATM    3  C3  UNL     1     -34.366  15.599  -2.840  1.00 20.00    -0.006 C 
HETATM    4  C4  UNL     1     -33.606  15.672  -4.183  1.00 20.00     0.000 C 
HETATM    5  C5  UNL     1     -34.720  16.084  -5.147  1.00 20.00     0.062 C 
HETATM    6  C6  UNL     1     -32.943  14.321  -4.483  1.00 20.00     0.011 C 
HETATM    7 BR11 UNL     1     -34.307  15.854  -7.019  1.00 20.00    -0.091 Br
ENDROOT
BRANCH   3   8
HETATM    8  C10 UNL     1     -34.452  16.964  -2.153  1.00 20.00    -0.014 C 
HETATM    9  C8  UNL     1     -33.044  17.506  -1.886  1.00 20.00     0.010 C 
BRANCH   8  10
HETATM   10  C9  UNL     1     -35.242  16.914  -0.830  1.00 20.00     0.000 C 
HETATM   11  C7  UNL     1     -34.646  17.789   0.264  1.00 20.00     0.005 C 
ENDBRANCH   8  10
ENDBRANCH   3   8
TORSDOF 2
ENDMDL
MODEL 2
REMARK VINA RESULT:      -4.3      2.397      4.177
REMARK  2 active torsions:
REMARK  status: ('A' for Active; 'I' for Inactive)
REMARK    1  A    between atoms: C3_3  and  C10_10 
REMARK    2  A    between atoms: C9_9  and  C10_10 
ROOT
HETATM    1  C1  UNL     1     -35.501  16.586  -2.423  1.00 20.00     0.006 C 
HETATM    2  C2  UNL     1     -34.619  17.275  -1.377  1.00 20.00     0.016 C 
HETATM    3  C3  UNL     1     -34.589  16.228  -3.610  1.00 20.00    -0.006 C 
HETATM    4  C4  UNL     1     -33.324  17.092  -3.410  1.00 20.00     0.000 C 
HETATM    5  C5  UNL     1     -33.198  17.105  -1.886  1.00 20.00     0.062 C 
HETATM    6  C6  UNL     1     -33.520  18.465  -4.066  1.00 20.00     0.011 C 
HETATM    7 BR11 UNL     1     -32.005  18.448  -1.176  1.00 20.00    -0.091 Br
ENDROOT
BRANCH   3   8
HETATM    8  C10 UNL     1     -34.266  14.732  -3.627  1.00 20.00    -0.014 C 
HETATM    9  C8  UNL     1     -33.016  14.474  -4.476  1.00 20.00     0.010 C 
BRANCH   8  10
HETATM   10  C9  UNL     1     -35.433  13.879  -4.162  1.00 20.00     0.000 C 
HETATM   11  C7  UNL     1     -35.954  14.345  -5.515  1.00 20.00     0.005 C 
ENDBRANCH   8  10
ENDBRANCH   3   8
TORSDOF 2
ENDMDL
MODEL 3
REMARK VINA RESULT:      -4.2      2.546      4.276
REMARK  2 active torsions:
REMARK  status: ('A' for Active; 'I' for Inactive)
REMARK    1  A    between atoms: C3_3  and  C10_10 
REMARK    2  A    between atoms: C9_9  and  C10_10 
ROOT
HETATM    1  C1  UNL     1     -35.296  17.229  -3.840  1.00 20.00     0.006 C 
HETATM    2  C2  UNL     1     -35.997  17.480  -2.502  1.00 20.00     0.016 C 
HETATM    3  C3  UNL     1     -34.010  16.442  -3.530  1.00 20.00    -0.006 C 
HETATM    4  C4  UNL     1     -33.785  16.637  -2.014  1.00 20.00     0.000 C 
HETATM    5  C5  UNL     1     -35.222  16.655  -1.489  1.00 20.00     0.062 C 
HETATM    6  C6  UNL     1     -32.978  17.917  -1.765  1.00 20.00     0.011 C 
HETATM    7 BR11 UNL     1     -35.427  17.330   0.308  1.00 20.00    -0.091 Br
ENDROOT
BRANCH   3   8
HETATM    8  C10 UNL     1     -34.162  14.965  -3.902  1.00 20.00    -0.014 C 
HETATM    9  C8  UNL     1     -32.830  14.415  -4.423  1.00 20.00     0.010 C 
BRANCH   8  10
HETATM   10  C9  UNL     1     -35.261  14.730  -4.958  1.00 20.00     0.000 C 
HETATM   11  C7  UNL     1     -36.286  13.683  -4.542  1.00 20.00     0.005 C 
ENDBRANCH   8  10
ENDBRANCH   3   8
TORSDOF 2
ENDMDL
MODEL 4
REMARK VINA RESULT:      -4.1      1.948      4.362
REMARK  2 active torsions:
REMARK  status: ('A' for Active; 'I' for Inactive)
REMARK    1  A    between atoms: C3_3  and  C10_10 
REMARK    2  A    between atoms: C9_9  and  C10_10 
ROOT
HETATM    1  C1  UNL     1     -34.299  14.435  -3.683  1.00 20.00     0.006 C 
HETATM    2  C2  UNL     1     -33.243  15.540  -3.770  1.00 20.00     0.016 C 
HETATM    3  C3  UNL     1     -35.648  15.127  -3.411  1.00 20.00    -0.006 C 
HETATM    4  C4  UNL     1     -35.272  16.543  -2.923  1.00 20.00     0.000 C 
HETATM    5  C5  UNL     1     -34.029  16.840  -3.763  1.00 20.00     0.062 C 
HETATM    6  C6  UNL     1     -35.052  16.532  -1.404  1.00 20.00     0.011 C 
HETATM    7 BR11 UNL     1     -32.966  18.331  -3.152  1.00 20.00    -0.091 Br
ENDROOT
BRANCH   3   8
HETATM    8  C10 UNL     1     -36.514  15.165  -4.673  1.00 20.00    -0.014 C 
HETATM    9  C8  UNL     1     -37.949  14.746  -4.337  1.00 20.00     0.010 C 
BRANCH   8  10
HETATM   10  C9  UNL     1     -35.966  14.261  -5.796  1.00 20.00     0.000 C 
HETATM   11  C7  UNL     1     -35.650  15.016  -7.080  1.00 20.00     0.005 C 
ENDBRANCH   8  10
ENDBRANCH   3   8
TORSDOF 2
ENDMDL
MODEL 5
REMARK VINA RESULT:      -4.1      1.339      1.659
REMARK  2 active torsions:
REMARK  status: ('A' for Active; 'I' for Inactive)
REMARK    1  A    between atoms: C3_3  and  C10_10 
REMARK    2  A    between atoms: C9_9  and  C10_10 
ROOT
HETATM    1  C1  UNL     1     -35.358  14.269  -4.133  1.00 20.00     0.006 C 
HETATM    2  C2  UNL     1     -36.419  14.567  -5.198  1.00 20.00     0.016 C 
HETATM    3  C3  UNL     1     -34.234  15.304  -4.322  1.00 20.00    -0.006 C 
HETATM    4  C4  UNL     1     -34.463  15.881  -5.736  1.00 20.00     0.000 C 
HETATM    5  C5  UNL     1     -35.990  15.882  -5.825  1.00 20.00     0.062 C 
HETATM    6  C6  UNL     1     -33.744  15.014  -6.778  1.00 20.00     0.011 C 
HETATM    7 BR11 UNL     1     -36.704  16.106  -7.605  1.00 20.00    -0.091 Br
ENDROOT
BRANCH   3   8
HETATM    8  C10 UNL     1     -34.293  16.388  -3.243  1.00 20.00    -0.014 C 
HETATM    9  C8  UNL     1     -32.875  16.781  -2.815  1.00 20.00     0.010 C 
BRANCH   8  10
HETATM   10  C9  UNL     1     -35.098  15.948  -2.004  1.00 20.00     0.000 C 
HETATM   11  C7  UNL     1     -35.133  16.996  -0.900  1.00 20.00     0.005 C 
ENDBRANCH   8  10
ENDBRANCH   3   8
TORSDOF 2
ENDMDL
MODEL 6
REMARK VINA RESULT:      -4.0      1.578      2.578
REMARK  2 active torsions:
REMARK  status: ('A' for Active; 'I' for Inactive)
REMARK    1  A    between atoms: C3_3  and  C10_10 
REMARK    2  A    between atoms: C9_9  and  C10_10 
ROOT
HETATM    1  C1  UNL     1     -33.125  16.368  -3.230  1.00 20.00     0.006 C 
HETATM    2  C2  UNL     1     -33.664  15.044  -3.783  1.00 20.00     0.016 C 
HETATM    3  C3  UNL     1     -34.340  17.166  -2.721  1.00 20.00    -0.006 C 
HETATM    4  C4  UNL     1     -35.561  16.486  -3.378  1.00 20.00     0.000 C 
HETATM    5  C5  UNL     1     -35.130  15.018  -3.386  1.00 20.00     0.062 C 
HETATM    6  C6  UNL     1     -35.824  17.102  -4.759  1.00 20.00     0.011 C 
HETATM    7 BR11 UNL     1     -36.173  13.866  -4.533  1.00 20.00    -0.091 Br
ENDROOT
BRANCH   3   8
HETATM    8  C10 UNL     1     -34.419  17.137  -1.193  1.00 20.00    -0.014 C 
HETATM    9  C8  UNL     1     -35.851  17.438  -0.736  1.00 20.00     0.010 C 
BRANCH   8  10
HETATM   10  C9  UNL     1     -33.449  18.134  -0.529  1.00 20.00     0.000 C 
HETATM   11  C7  UNL     1     -33.655  18.271   0.973  1.00 20.00     0.005 C 
ENDBRANCH   8  10
ENDBRANCH   3   8
TORSDOF 2
ENDMDL
MODEL 7
REMARK VINA RESULT:      -4.0      1.625      2.808
REMARK  2 active torsions:
REMARK  status: ('A' for Active; 'I' for Inactive)
REMARK    1  A    between atoms: C3_3  and  C10_10 
REMARK    2  A    between atoms: C9_9  and  C10_10 
ROOT
HETATM    1  C1  UNL     1     -34.395  18.174  -2.906  1.00 20.00     0.006 C 
HETATM    2  C2  UNL     1     -33.497  17.320  -3.806  1.00 20.00     0.016 C 
HETATM    3  C3  UNL     1     -35.029  17.222  -1.875  1.00 20.00    -0.006 C 
HETATM    4  C4  UNL     1     -34.827  15.810  -2.467  1.00 20.00     0.000 C 
HETATM    5  C5  UNL     1     -33.464  15.952  -3.146  1.00 20.00     0.062 C 
HETATM    6  C6  UNL     1     -35.994  15.462  -3.401  1.00 20.00     0.011 C 
HETATM    7 BR11 UNL     1     -33.026  14.551  -4.400  1.00 20.00    -0.091 Br
ENDROOT
BRANCH   3   8
HETATM    8  C10 UNL     1     -34.364  17.371  -0.504  1.00 20.00    -0.014 C 
HETATM    9  C8  UNL     1     -35.427  17.345   0.600  1.00 20.00     0.010 C 
BRANCH   8  10
HETATM   10  C9  UNL     1     -33.533  18.663  -0.385  1.00 20.00     0.000 C 
HETATM   11  C7  UNL     1     -32.063  18.412  -0.075  1.00 20.00     0.005 C 
ENDBRANCH   8  10
ENDBRANCH   3   8
TORSDOF 2
ENDMDL
MODEL 8
REMARK VINA RESULT:      -3.8      1.196      1.887
REMARK  2 active torsions:
REMARK  status: ('A' for Active; 'I' for Inactive)
REMARK    1  A    between atoms: C3_3  and  C10_10 
REMARK    2  A    between atoms: C9_9  and  C10_10 
ROOT
HETATM    1  C1  UNL     1     -36.363  16.449  -3.413  1.00 20.00     0.006 C 
HETATM    2  C2  UNL     1     -35.977  16.466  -4.895  1.00 20.00     0.016 C 
HETATM    3  C3  UNL     1     -35.257  15.675  -2.672  1.00 20.00    -0.006 C 
HETATM    4  C4  UNL     1     -34.506  14.905  -3.781  1.00 20.00     0.000 C 
HETATM    5  C5  UNL     1     -34.568  15.897  -4.943  1.00 20.00     0.062 C 
HETATM    6  C6  UNL     1     -35.187  13.553  -4.033  1.00 20.00     0.011 C 
HETATM    7 BR11 UNL     1     -34.141  15.157  -6.674  1.00 20.00    -0.091 Br
ENDROOT
BRANCH   3   8
HETATM    8  C10 UNL     1     -34.335  16.625  -1.906  1.00 20.00    -0.014 C 
HETATM    9  C8  UNL     1     -35.040  17.966  -1.674  1.00 20.00     0.010 C 
BRANCH   8  10
HETATM   10  C9  UNL     1     -32.997  16.869  -2.634  1.00 20.00     0.000 C 
HETATM   11  C7  UNL     1     -32.669  18.344  -2.819  1.00 20.00     0.005 C 
ENDBRANCH   8  10
ENDBRANCH   3   8
TORSDOF 2
ENDMDL
MODEL 9
REMARK VINA RESULT:      -3.7      1.969      3.162
REMARK  2 active torsions:
REMARK  status: ('A' for Active; 'I' for Inactive)
REMARK    1  A    between atoms: C3_3  and  C10_10 
REMARK    2  A    between atoms: C9_9  and  C10_10 
ROOT
HETATM    1  C1  UNL     1     -35.532  16.160  -2.196  1.00 20.00     0.006 C 
HETATM    2  C2  UNL     1     -36.607  17.130  -2.694  1.00 20.00     0.016 C 
HETATM    3  C3  UNL     1     -35.080  15.332  -3.413  1.00 20.00    -0.006 C 
HETATM    4  C4  UNL     1     -36.191  15.538  -4.465  1.00 20.00     0.000 C 
HETATM    5  C5  UNL     1     -36.594  16.991  -4.207  1.00 20.00     0.062 C 
HETATM    6  C6  UNL     1     -37.304  14.501  -4.262  1.00 20.00     0.011 C 
HETATM    7 BR11 UNL     1     -38.270  17.528  -5.002  1.00 20.00    -0.091 Br
ENDROOT
BRANCH   3   8
HETATM    8  C10 UNL     1     -33.713  15.798  -3.921  1.00 20.00    -0.014 C 
HETATM    9  C8  UNL     1     -32.861  14.588  -4.319  1.00 20.00     0.010 C 
BRANCH   8  10
HETATM   10  C9  UNL     1     -32.950  16.642  -2.881  1.00 20.00     0.000 C 
HETATM   11  C7  UNL     1     -32.805  18.105  -3.277  1.00 20.00     0.005 C 
ENDBRANCH   8  10
ENDBRANCH   3   8
TORSDOF 2
ENDMDL
