MODEL 1
REMARK VINA RESULT:      -4.7      0.000      0.000
REMARK  2 active torsions:
REMARK  status: ('A' for Active; 'I' for Inactive)
REMARK    1  A    between atoms: C5_5  and  C11_11 
REMARK    2  A    between atoms: C6_6  and  C10_10 
ROOT
HETATM    1  C1  UNL     1     -34.781  14.669  -5.003  1.00 20.00     0.131 C 
HETATM    2  C2  UNL     1     -33.445  14.544  -4.302  1.00 20.00     0.079 C 
HETATM    3  C3  UNL     1     -33.187  15.759  -3.422  1.00 20.00     0.012 C 
HETATM    4  C4  UNL     1     -35.662  16.196  -3.234  1.00 20.00     0.017 C 
HETATM    5  C5  UNL     1     -35.977  14.979  -4.110  1.00 20.00     0.059 C 
HETATM    6  C6  UNL     1     -34.350  16.017  -2.454  1.00 20.00    -0.014 C 
HETATM    7  O12 UNL     1     -34.888  14.441  -6.207  1.00 20.00    -0.298 OA
ENDROOT
BRANCH   5   8
HETATM    8  C11 UNL     1     -37.245  15.213  -4.924  1.00 20.00    -0.011 C 
HETATM    9  C8  UNL     1     -38.467  14.669  -4.188  1.00 20.00     0.010 C 
HETATM   10  C9  UNL     1     -37.421  16.698  -5.231  1.00 20.00     0.010 C 
ENDBRANCH   5   8
BRANCH   6  11
HETATM   11  C10 UNL     1     -34.066  17.244  -1.590  1.00 20.00     0.000 C 
HETATM   12  C7  UNL     1     -32.668  17.735  -1.771  1.00 20.00     0.005 C 
ENDBRANCH   6  11
TORSDOF 2
ENDMDL
MODEL 2
REMARK VINA RESULT:      -4.4     15.639     18.325
REMARK  2 active torsions:
REMARK  status: ('A' for Active; 'I' for Inactive)
REMARK    1  A    between atoms: C5_5  and  C11_11 
REMARK    2  A    between atoms: C6_6  and  C10_10 
ROOT
HETATM    1  C1  UNL     1     -22.896  17.668  11.048  1.00 20.00     0.131 C 
HETATM    2  C2  UNL     1     -21.890  17.941   9.951  1.00 20.00     0.079 C 
HETATM    3  C3  UNL     1     -22.573  17.959   8.591  1.00 20.00     0.012 C 
HETATM    4  C4  UNL     1     -24.775  18.555   9.662  1.00 20.00     0.017 C 
HETATM    5  C5  UNL     1     -24.134  18.557  11.054  1.00 20.00     0.059 C 
HETATM    6  C6  UNL     1     -23.764  18.927   8.566  1.00 20.00    -0.014 C 
HETATM    7  O12 UNL     1     -22.667  16.837  11.925  1.00 20.00    -0.298 OA
ENDROOT
BRANCH   5   8
HETATM    8  C11 UNL     1     -25.141  18.117  12.112  1.00 20.00    -0.011 C 
HETATM    9  C8  UNL     1     -26.370  19.024  12.097  1.00 20.00     0.010 C 
HETATM   10  C9  UNL     1     -25.546  16.661  11.898  1.00 20.00     0.010 C 
ENDBRANCH   5   8
BRANCH   6  11
HETATM   11  C10 UNL     1     -24.433  18.918   7.192  1.00 20.00     0.000 C 
HETATM   12  C7  UNL     1     -25.916  19.045   7.300  1.00 20.00     0.005 C 
ENDBRANCH   6  11
TORSDOF 2
ENDMDL
MODEL 3
REMARK VINA RESULT:      -4.4      2.177      3.847
REMARK  2 active torsions:
REMARK  status: ('A' for Active; 'I' for Inactive)
REMARK    1  A    between atoms: C5_5  and  C11_11 
REMARK    2  A    between atoms: C6_6  and  C10_10 
ROOT
HETATM    1  C1  UNL     1     -33.102  17.517  -2.465  1.00 20.00     0.131 C 
HETATM    2  C2  UNL     1     -32.724  18.217  -1.178  1.00 20.00     0.079 C 
HETATM    3  C3  UNL     1     -33.964  18.522  -0.350  1.00 20.00     0.012 C 
HETATM    4  C4  UNL     1     -35.218  16.643  -1.466  1.00 20.00     0.017 C 
HETATM    5  C5  UNL     1     -33.994  16.290  -2.319  1.00 20.00     0.059 C 
HETATM    6  C6  UNL     1     -34.817  17.267  -0.120  1.00 20.00    -0.014 C 
HETATM    7  O12 UNL     1     -32.634  17.877  -3.544  1.00 20.00    -0.298 OA
ENDROOT
BRANCH   5   8
HETATM    8  C11 UNL     1     -34.423  15.738  -3.675  1.00 20.00    -0.011 C 
HETATM    9  C8  UNL     1     -33.427  14.692  -4.171  1.00 20.00     0.010 C 
HETATM   10  C9  UNL     1     -35.828  15.144  -3.595  1.00 20.00     0.010 C 
ENDBRANCH   5   8
BRANCH   6  11
HETATM   11  C10 UNL     1     -36.056  17.605   0.707  1.00 20.00     0.000 C 
HETATM   12  C7  UNL     1     -37.163  18.127  -0.147  1.00 20.00     0.005 C 
ENDBRANCH   6  11
TORSDOF 2
ENDMDL
MODEL 4
REMARK VINA RESULT:      -4.3      1.403      4.110
REMARK  2 active torsions:
REMARK  status: ('A' for Active; 'I' for Inactive)
REMARK    1  A    between atoms: C5_5  and  C11_11 
REMARK    2  A    between atoms: C6_6  and  C10_10 
ROOT
HETATM    1  C1  UNL     1     -33.750  14.938  -5.048  1.00 20.00     0.131 C 
HETATM    2  C2  UNL     1     -34.129  14.903  -6.513  1.00 20.00     0.079 C 
HETATM    3  C3  UNL     1     -35.619  15.162  -6.686  1.00 20.00     0.012 C 
HETATM    4  C4  UNL     1     -35.698  16.398  -4.491  1.00 20.00     0.017 C 
HETATM    5  C5  UNL     1     -34.198  16.171  -4.272  1.00 20.00     0.059 C 
HETATM    6  C6  UNL     1     -36.056  16.455  -5.985  1.00 20.00    -0.014 C 
HETATM    7  O12 UNL     1     -33.044  14.060  -4.555  1.00 20.00    -0.298 OA
ENDROOT
BRANCH   5   8
HETATM    8  C11 UNL     1     -33.883  16.049  -2.785  1.00 20.00    -0.011 C 
HETATM    9  C8  UNL     1     -32.922  17.151  -2.344  1.00 20.00     0.010 C 
HETATM   10  C9  UNL     1     -35.166  16.093  -1.957  1.00 20.00     0.010 C 
ENDBRANCH   5   8
BRANCH   6  11
HETATM   11  C10 UNL     1     -37.555  16.685  -6.170  1.00 20.00     0.000 C 
HETATM   12  C7  UNL     1     -38.334  16.239  -4.977  1.00 20.00     0.005 C 
ENDBRANCH   6  11
TORSDOF 2
ENDMDL
MODEL 5
REMARK VINA RESULT:      -4.3      2.238      4.774
REMARK  2 active torsions:
REMARK  status: ('A' for Active; 'I' for Inactive)
REMARK    1  A    between atoms: C5_5  and  C11_11 
REMARK    2  A    between atoms: C6_6  and  C10_10 
ROOT
HETATM    1  C1  UNL     1     -35.883  18.006  -2.282  1.00 20.00     0.131 C 
HETATM    2  C2  UNL     1     -36.898  17.124  -2.978  1.00 20.00     0.079 C 
HETATM    3  C3  UNL     1     -36.199  16.076  -3.832  1.00 20.00     0.012 C 
HETATM    4  C4  UNL     1     -34.134  16.227  -2.395  1.00 20.00     0.017 C 
HETATM    5  C5  UNL     1     -34.794  17.281  -1.500  1.00 20.00     0.059 C 
HETATM    6  C6  UNL     1     -35.168  15.278  -3.022  1.00 20.00    -0.014 C 
HETATM    7  O12 UNL     1     -36.001  19.230  -2.285  1.00 20.00    -0.298 OA
ENDROOT
BRANCH   5   8
HETATM    8  C11 UNL     1     -33.753  18.250  -0.949  1.00 20.00    -0.011 C 
HETATM    9  C8  UNL     1     -33.749  18.226   0.578  1.00 20.00     0.010 C 
HETATM   10  C9  UNL     1     -32.366  17.917  -1.494  1.00 20.00     0.010 C 
ENDBRANCH   5   8
BRANCH   6  11
HETATM   11  C10 UNL     1     -34.479  14.239  -3.905  1.00 20.00     0.000 C 
HETATM   12  C7  UNL     1     -33.124  14.692  -4.336  1.00 20.00     0.005 C 
ENDBRANCH   6  11
TORSDOF 2
ENDMDL
MODEL 6
REMARK VINA RESULT:      -4.3      1.086      1.157
REMARK  2 active torsions:
REMARK  status: ('A' for Active; 'I' for Inactive)
REMARK    1  A    between atoms: C5_5  and  C11_11 
REMARK    2  A    between atoms: C6_6  and  C10_10 
ROOT
HETATM    1  C1  UNL     1     -36.018  14.262  -4.936  1.00 20.00     0.131 C 
HETATM    2  C2  UNL     1     -34.928  13.710  -4.043  1.00 20.00     0.079 C 
HETATM    3  C3  UNL     1     -34.197  14.840  -3.331  1.00 20.00     0.012 C 
HETATM    4  C4  UNL     1     -36.209  16.339  -3.563  1.00 20.00     0.017 C 
HETATM    5  C5  UNL     1     -36.992  15.233  -4.279  1.00 20.00     0.059 C 
HETATM    6  C6  UNL     1     -35.169  15.766  -2.587  1.00 20.00    -0.014 C 
HETATM    7  O12 UNL     1     -36.147  13.868  -6.094  1.00 20.00    -0.298 OA
ENDROOT
BRANCH   5   8
HETATM    8  C11 UNL     1     -37.966  15.828  -5.291  1.00 20.00    -0.011 C 
HETATM    9  C8  UNL     1     -39.400  15.740  -4.774  1.00 20.00     0.010 C 
HETATM   10  C9  UNL     1     -37.597  17.277  -5.605  1.00 20.00     0.010 C 
ENDBRANCH   5   8
BRANCH   6  11
HETATM   11  C10 UNL     1     -34.409  16.892  -1.889  1.00 20.00     0.000 C 
HETATM   12  C7  UNL     1     -33.045  17.077  -2.466  1.00 20.00     0.005 C 
ENDBRANCH   6  11
TORSDOF 2
ENDMDL
MODEL 7
REMARK VINA RESULT:      -4.2      1.888      3.280
REMARK  2 active torsions:
REMARK  status: ('A' for Active; 'I' for Inactive)
REMARK    1  A    between atoms: C5_5  and  C11_11 
REMARK    2  A    between atoms: C6_6  and  C10_10 
ROOT
HETATM    1  C1  UNL     1     -35.513  15.903  -3.225  1.00 20.00     0.131 C 
HETATM    2  C2  UNL     1     -35.841  17.038  -2.280  1.00 20.00     0.079 C 
HETATM    3  C3  UNL     1     -34.649  17.353  -1.388  1.00 20.00     0.012 C 
HETATM    4  C4  UNL     1     -33.067  16.392  -3.098  1.00 20.00     0.017 C 
HETATM    5  C5  UNL     1     -34.232  16.059  -4.037  1.00 20.00     0.059 C 
HETATM    6  C6  UNL     1     -33.376  17.606  -2.208  1.00 20.00    -0.014 C 
HETATM    7  O12 UNL     1     -36.291  14.964  -3.382  1.00 20.00    -0.298 OA
ENDROOT
BRANCH   5   8
HETATM    8  C11 UNL     1     -33.925  14.810  -4.856  1.00 20.00    -0.011 C 
HETATM    9  C8  UNL     1     -33.982  15.118  -6.351  1.00 20.00     0.010 C 
HETATM   10  C9  UNL     1     -32.560  14.240  -4.478  1.00 20.00     0.010 C 
ENDBRANCH   5   8
BRANCH   6  11
HETATM   11  C10 UNL     1     -32.197  17.914  -1.287  1.00 20.00     0.000 C 
HETATM   12  C7  UNL     1     -32.649  18.488   0.015  1.00 20.00     0.005 C 
ENDBRANCH   6  11
TORSDOF 2
ENDMDL
MODEL 8
REMARK VINA RESULT:      -4.2      2.151      3.478
REMARK  2 active torsions:
REMARK  status: ('A' for Active; 'I' for Inactive)
REMARK    1  A    between atoms: C5_5  and  C11_11 
REMARK    2  A    between atoms: C6_6  and  C10_10 
ROOT
HETATM    1  C1  UNL     1     -33.996  17.560  -4.085  1.00 20.00     0.131 C 
HETATM    2  C2  UNL     1     -33.970  18.792  -3.207  1.00 20.00     0.079 C 
HETATM    3  C3  UNL     1     -34.857  18.597  -1.986  1.00 20.00     0.012 C 
HETATM    4  C4  UNL     1     -34.611  16.095  -2.157  1.00 20.00     0.017 C 
HETATM    5  C5  UNL     1     -33.707  16.236  -3.387  1.00 20.00     0.059 C 
HETATM    6  C6  UNL     1     -34.503  17.312  -1.225  1.00 20.00    -0.014 C 
HETATM    7  O12 UNL     1     -34.154  17.652  -5.301  1.00 20.00    -0.298 OA
ENDROOT
BRANCH   5   8
HETATM    8  C11 UNL     1     -33.887  15.049  -4.328  1.00 20.00    -0.011 C 
HETATM    9  C8  UNL     1     -32.588  14.254  -4.446  1.00 20.00     0.010 C 
HETATM   10  C9  UNL     1     -35.024  14.150  -3.849  1.00 20.00     0.010 C 
ENDBRANCH   5   8
BRANCH   6  11
HETATM   11  C10 UNL     1     -35.413  17.141  -0.009  1.00 20.00     0.000 C 
HETATM   12  C7  UNL     1     -34.824  17.764   1.213  1.00 20.00     0.005 C 
ENDBRANCH   6  11
TORSDOF 2
ENDMDL
MODEL 9
REMARK VINA RESULT:      -4.1      1.892      2.571
REMARK  2 active torsions:
REMARK  status: ('A' for Active; 'I' for Inactive)
REMARK    1  A    between atoms: C5_5  and  C11_11 
REMARK    2  A    between atoms: C6_6  and  C10_10 
ROOT
HETATM    1  C1  UNL     1     -35.798  14.583  -5.724  1.00 20.00     0.131 C 
HETATM    2  C2  UNL     1     -35.731  14.011  -4.324  1.00 20.00     0.079 C 
HETATM    3  C3  UNL     1     -34.492  14.517  -3.599  1.00 20.00     0.012 C 
HETATM    4  C4  UNL     1     -34.415  16.559  -5.074  1.00 20.00     0.017 C 
HETATM    5  C5  UNL     1     -35.665  16.097  -5.833  1.00 20.00     0.059 C 
HETATM    6  C6  UNL     1     -34.405  16.049  -3.624  1.00 20.00    -0.014 C 
HETATM    7  O12 UNL     1     -36.038  13.863  -6.691  1.00 20.00    -0.298 OA
ENDROOT
BRANCH   5   8
HETATM    8  C11 UNL     1     -35.614  16.557  -7.286  1.00 20.00    -0.011 C 
HETATM    9  C8  UNL     1     -36.355  17.882  -7.458  1.00 20.00     0.010 C 
HETATM   10  C9  UNL     1     -34.168  16.687  -7.760  1.00 20.00     0.010 C 
ENDBRANCH   5   8
BRANCH   6  11
HETATM   11  C10 UNL     1     -33.151  16.527  -2.894  1.00 20.00     0.000 C 
HETATM   12  C7  UNL     1     -33.489  17.390  -1.723  1.00 20.00     0.005 C 
ENDBRANCH   6  11
TORSDOF 2
ENDMDL
