MODEL 1
REMARK VINA RESULT:      -4.7      0.000      0.000
REMARK  2 active torsions:
REMARK  status: ('A' for Active; 'I' for Inactive)
REMARK    1  A    between atoms: C1_1  and  C9_9 
REMARK    2  A    between atoms: C6_6  and  C9_9 
ROOT
HETATM    1  C2  UNL     1     -35.165  15.856  -2.183  1.00 20.00     0.031 C 
HETATM    2  C3  UNL     1     -33.030  15.996  -3.496  1.00 20.00     0.031 C 
HETATM    3  C4  UNL     1     -35.285  17.366  -2.350  1.00 20.00     0.168 C 
HETATM    4  C5  UNL     1     -33.270  17.499  -3.589  1.00 20.00     0.168 C 
HETATM    5  C6  UNL     1     -34.336  15.214  -3.303  1.00 20.00     0.000 C 
HETATM    6  O11 UNL     1     -33.995  17.967  -2.454  1.00 20.00    -0.391 OA
ENDROOT
BRANCH   5   7
HETATM    7  C9  UNL     1     -35.132  15.115  -4.607  1.00 20.00     0.055 C 
HETATM    8  C8  UNL     1     -34.201  14.877  -5.792  1.00 20.00     0.018 C 
BRANCH   7   9
HETATM    9  C1  UNL     1     -36.173  14.007  -4.496  1.00 20.00     0.127 C 
HETATM   10  C7  UNL     1     -37.613  14.434  -4.358  1.00 20.00     0.091 C 
HETATM   11  O10 UNL     1     -35.868  12.813  -4.492  1.00 20.00    -0.298 OA
ENDBRANCH   7   9
ENDBRANCH   5   7
TORSDOF 2
ENDMDL
MODEL 2
REMARK VINA RESULT:      -4.4      1.244      4.400
REMARK  2 active torsions:
REMARK  status: ('A' for Active; 'I' for Inactive)
REMARK    1  A    between atoms: C1_1  and  C9_9 
REMARK    2  A    between atoms: C6_6  and  C9_9 
ROOT
HETATM    1  C2  UNL     1     -33.956  15.093  -5.695  1.00 20.00     0.031 C 
HETATM    2  C3  UNL     1     -34.976  13.734  -3.847  1.00 20.00     0.031 C 
HETATM    3  C4  UNL     1     -35.294  14.989  -6.416  1.00 20.00     0.168 C 
HETATM    4  C5  UNL     1     -36.258  13.706  -4.672  1.00 20.00     0.168 C 
HETATM    5  C6  UNL     1     -34.106  14.955  -4.175  1.00 20.00     0.000 C 
HETATM    6  O11 UNL     1     -35.964  13.778  -6.066  1.00 20.00    -0.391 OA
ENDROOT
BRANCH   5   7
HETATM    7  C9  UNL     1     -34.667  16.232  -3.545  1.00 20.00     0.055 C 
HETATM    8  C8  UNL     1     -35.151  15.967  -2.122  1.00 20.00     0.018 C 
BRANCH   7   9
HETATM    9  C1  UNL     1     -33.609  17.330  -3.569  1.00 20.00     0.127 C 
HETATM   10  C7  UNL     1     -32.695  17.422  -2.373  1.00 20.00     0.091 C 
HETATM   11  O10 UNL     1     -33.509  18.130  -4.501  1.00 20.00    -0.298 OA
ENDBRANCH   7   9
ENDBRANCH   5   7
TORSDOF 2
ENDMDL
MODEL 3
REMARK VINA RESULT:      -4.4     11.629     12.614
REMARK  2 active torsions:
REMARK  status: ('A' for Active; 'I' for Inactive)
REMARK    1  A    between atoms: C1_1  and  C9_9 
REMARK    2  A    between atoms: C6_6  and  C9_9 
ROOT
HETATM    1  C2  UNL     1     -34.349   7.314   4.741  1.00 20.00     0.031 C 
HETATM    2  C3  UNL     1     -35.167   4.998   4.224  1.00 20.00     0.031 C 
HETATM    3  C4  UNL     1     -33.891   6.775   6.091  1.00 20.00     0.168 C 
HETATM    4  C5  UNL     1     -34.664   4.589   5.604  1.00 20.00     0.168 C 
HETATM    5  C6  UNL     1     -34.415   6.215   3.672  1.00 20.00     0.000 C 
HETATM    6  O11 UNL     1     -34.718   5.690   6.509  1.00 20.00    -0.391 OA
ENDROOT
BRANCH   5   7
HETATM    7  C9  UNL     1     -33.020   5.835   3.169  1.00 20.00     0.055 C 
HETATM    8  C8  UNL     1     -33.113   4.831   2.024  1.00 20.00     0.018 C 
BRANCH   7   9
HETATM    9  C1  UNL     1     -32.264   7.088   2.741  1.00 20.00     0.127 C 
HETATM   10  C7  UNL     1     -32.611   7.666   1.391  1.00 20.00     0.091 C 
HETATM   11  O10 UNL     1     -31.389   7.602   3.439  1.00 20.00    -0.298 OA
ENDBRANCH   7   9
ENDBRANCH   5   7
TORSDOF 2
ENDMDL
MODEL 4
REMARK VINA RESULT:      -4.1      1.653      2.836
REMARK  2 active torsions:
REMARK  status: ('A' for Active; 'I' for Inactive)
REMARK    1  A    between atoms: C1_1  and  C9_9 
REMARK    2  A    between atoms: C6_6  and  C9_9 
ROOT
HETATM    1  C2  UNL     1     -36.428  15.057  -3.689  1.00 20.00     0.031 C 
HETATM    2  C3  UNL     1     -35.316  16.343  -1.843  1.00 20.00     0.031 C 
HETATM    3  C4  UNL     1     -37.162  16.343  -4.049  1.00 20.00     0.168 C 
HETATM    4  C5  UNL     1     -36.113  17.558  -2.306  1.00 20.00     0.168 C 
HETATM    5  C6  UNL     1     -35.099  15.330  -2.974  1.00 20.00     0.000 C 
HETATM    6  O11 UNL     1     -37.350  17.158  -2.893  1.00 20.00    -0.391 OA
ENDROOT
BRANCH   5   7
HETATM    7  C9  UNL     1     -34.020  15.800  -3.952  1.00 20.00     0.055 C 
HETATM    8  C8  UNL     1     -32.792  16.307  -3.201  1.00 20.00     0.018 C 
BRANCH   7   9
HETATM    9  C1  UNL     1     -33.652  14.665  -4.902  1.00 20.00     0.127 C 
HETATM   10  C7  UNL     1     -33.836  14.923  -6.377  1.00 20.00     0.091 C 
HETATM   11  O10 UNL     1     -33.246  13.573  -4.501  1.00 20.00    -0.298 OA
ENDBRANCH   7   9
ENDBRANCH   5   7
TORSDOF 2
ENDMDL
MODEL 5
REMARK VINA RESULT:      -4.1      1.329      3.967
REMARK  2 active torsions:
REMARK  status: ('A' for Active; 'I' for Inactive)
REMARK    1  A    between atoms: C1_1  and  C9_9 
REMARK    2  A    between atoms: C6_6  and  C9_9 
ROOT
HETATM    1  C2  UNL     1     -36.701  14.991  -4.000  1.00 20.00     0.031 C 
HETATM    2  C3  UNL     1     -35.001  16.090  -5.485  1.00 20.00     0.031 C 
HETATM    3  C4  UNL     1     -36.372  13.683  -4.709  1.00 20.00     0.168 C 
HETATM    4  C5  UNL     1     -34.768  14.720  -6.111  1.00 20.00     0.168 C 
HETATM    5  C6  UNL     1     -35.534  15.985  -4.050  1.00 20.00     0.000 C 
HETATM    6  O11 UNL     1     -35.952  13.927  -6.051  1.00 20.00    -0.391 OA
ENDROOT
BRANCH   5   7
HETATM    7  C9  UNL     1     -34.427  15.604  -3.064  1.00 20.00     0.055 C 
HETATM    8  C8  UNL     1     -33.064  15.617  -3.750  1.00 20.00     0.018 C 
BRANCH   7   9
HETATM    9  C1  UNL     1     -34.448  16.551  -1.869  1.00 20.00     0.127 C 
HETATM   10  C7  UNL     1     -33.297  17.517  -1.743  1.00 20.00     0.091 C 
HETATM   11  O10 UNL     1     -35.342  16.524  -1.022  1.00 20.00    -0.298 OA
ENDBRANCH   7   9
ENDBRANCH   5   7
TORSDOF 2
ENDMDL
MODEL 6
REMARK VINA RESULT:      -4.0      1.886      3.834
REMARK  2 active torsions:
REMARK  status: ('A' for Active; 'I' for Inactive)
REMARK    1  A    between atoms: C1_1  and  C9_9 
REMARK    2  A    between atoms: C6_6  and  C9_9 
ROOT
HETATM    1  C2  UNL     1     -35.948  16.911  -5.033  1.00 20.00     0.031 C 
HETATM    2  C3  UNL     1     -34.458  15.589  -6.560  1.00 20.00     0.031 C 
HETATM    3  C4  UNL     1     -37.073  15.959  -5.421  1.00 20.00     0.168 C 
HETATM    4  C5  UNL     1     -35.666  14.711  -6.863  1.00 20.00     0.168 C 
HETATM    5  C6  UNL     1     -34.565  16.266  -5.188  1.00 20.00     0.000 C 
HETATM    6  O11 UNL     1     -36.876  15.456  -6.742  1.00 20.00    -0.391 OA
ENDROOT
BRANCH   5   7
HETATM    7  C9  UNL     1     -34.271  15.285  -4.051  1.00 20.00     0.055 C 
HETATM    8  C8  UNL     1     -32.972  14.527  -4.311  1.00 20.00     0.018 C 
BRANCH   7   9
HETATM    9  C1  UNL     1     -34.213  16.032  -2.723  1.00 20.00     0.127 C 
HETATM   10  C7  UNL     1     -33.051  16.971  -2.518  1.00 20.00     0.091 C 
HETATM   11  O10 UNL     1     -35.053  15.868  -1.836  1.00 20.00    -0.298 OA
ENDBRANCH   7   9
ENDBRANCH   5   7
TORSDOF 2
ENDMDL
MODEL 7
REMARK VINA RESULT:      -4.0      1.308      1.466
REMARK  2 active torsions:
REMARK  status: ('A' for Active; 'I' for Inactive)
REMARK    1  A    between atoms: C1_1  and  C9_9 
REMARK    2  A    between atoms: C6_6  and  C9_9 
ROOT
HETATM    1  C2  UNL     1     -36.386  16.223  -3.267  1.00 20.00     0.031 C 
HETATM    2  C3  UNL     1     -34.062  16.238  -2.320  1.00 20.00     0.031 C 
HETATM    3  C4  UNL     1     -36.130  17.650  -3.735  1.00 20.00     0.168 C 
HETATM    4  C5  UNL     1     -33.936  17.666  -2.841  1.00 20.00     0.168 C 
HETATM    5  C6  UNL     1     -35.087  15.421  -3.116  1.00 20.00     0.000 C 
HETATM    6  O11 UNL     1     -35.208  18.309  -2.867  1.00 20.00    -0.391 OA
ENDROOT
BRANCH   5   7
HETATM    7  C9  UNL     1     -34.530  14.990  -4.475  1.00 20.00     0.055 C 
HETATM    8  C8  UNL     1     -33.152  14.353  -4.319  1.00 20.00     0.018 C 
BRANCH   7   9
HETATM    9  C1  UNL     1     -35.503  14.032  -5.154  1.00 20.00     0.127 C 
HETATM   10  C7  UNL     1     -35.997  14.419  -6.526  1.00 20.00     0.091 C 
HETATM   11  O10 UNL     1     -35.899  12.999  -4.612  1.00 20.00    -0.298 OA
ENDBRANCH   7   9
ENDBRANCH   5   7
TORSDOF 2
ENDMDL
MODEL 8
REMARK VINA RESULT:      -3.8      1.551      4.139
REMARK  2 active torsions:
REMARK  status: ('A' for Active; 'I' for Inactive)
REMARK    1  A    between atoms: C1_1  and  C9_9 
REMARK    2  A    between atoms: C6_6  and  C9_9 
ROOT
HETATM    1  C2  UNL     1     -34.116  14.502  -3.816  1.00 20.00     0.031 C 
HETATM    2  C3  UNL     1     -36.550  14.633  -4.415  1.00 20.00     0.031 C 
HETATM    3  C4  UNL     1     -33.812  14.846  -5.269  1.00 20.00     0.168 C 
HETATM    4  C5  UNL     1     -36.109  14.970  -5.836  1.00 20.00     0.168 C 
HETATM    5  C6  UNL     1     -35.491  15.019  -3.375  1.00 20.00     0.000 C 
HETATM    6  O11 UNL     1     -34.848  14.373  -6.129  1.00 20.00    -0.391 OA
ENDROOT
BRANCH   5   7
HETATM    7  C9  UNL     1     -35.471  16.529  -3.126  1.00 20.00     0.055 C 
HETATM    8  C8  UNL     1     -36.888  17.095  -3.112  1.00 20.00     0.018 C 
BRANCH   7   9
HETATM    9  C1  UNL     1     -34.748  16.829  -1.817  1.00 20.00     0.127 C 
HETATM   10  C7  UNL     1     -33.347  17.377  -1.920  1.00 20.00     0.091 C 
HETATM   11  O10 UNL     1     -35.260  16.615  -0.716  1.00 20.00    -0.298 OA
ENDBRANCH   7   9
ENDBRANCH   5   7
TORSDOF 2
ENDMDL
MODEL 9
REMARK VINA RESULT:      -3.7      1.370      2.520
REMARK  2 active torsions:
REMARK  status: ('A' for Active; 'I' for Inactive)
REMARK    1  A    between atoms: C1_1  and  C9_9 
REMARK    2  A    between atoms: C6_6  and  C9_9 
ROOT
HETATM    1  C2  UNL     1     -34.637  16.148  -3.009  1.00 20.00     0.031 C 
HETATM    2  C3  UNL     1     -36.649  17.496  -3.670  1.00 20.00     0.031 C 
HETATM    3  C4  UNL     1     -35.062  16.354  -1.561  1.00 20.00     0.168 C 
HETATM    4  C5  UNL     1     -36.961  17.627  -2.183  1.00 20.00     0.168 C 
HETATM    5  C6  UNL     1     -35.823  16.240  -3.978  1.00 20.00     0.000 C 
HETATM    6  O11 UNL     1     -35.763  17.587  -1.410  1.00 20.00    -0.391 OA
ENDROOT
BRANCH   5   7
HETATM    7  C9  UNL     1     -36.684  14.975  -3.938  1.00 20.00     0.055 C 
HETATM    8  C8  UNL     1     -38.128  15.291  -4.316  1.00 20.00     0.018 C 
BRANCH   7   9
HETATM    9  C1  UNL     1     -36.093  13.917  -4.863  1.00 20.00     0.127 C 
HETATM   10  C7  UNL     1     -35.702  14.363  -6.249  1.00 20.00     0.091 C 
HETATM   11  O10 UNL     1     -35.959  12.741  -4.520  1.00 20.00    -0.298 OA
ENDBRANCH   7   9
ENDBRANCH   5   7
TORSDOF 2
ENDMDL
