MODEL 1
REMARK VINA RESULT:      -4.4      0.000      0.000
REMARK  4 active torsions:
REMARK  status: ('A' for Active; 'I' for Inactive)
REMARK    1  A    between atoms: C6_6  and  C7_7 
REMARK    2  A    between atoms: C6_6  and  O10_10 
REMARK    3  A    between atoms: C7_7  and  C8_8 
REMARK    4  A    between atoms: C7_7  and  O9_9 
ROOT
HETATM    1  C7  UNL     1     -23.555  17.207   9.836  1.00 20.00     0.154 C 
ENDROOT
BRANCH   1   2
HETATM    2  C6  UNL     1     -22.453  18.201   9.412  1.00 20.00     0.146 C 
HETATM    3  C1  UNL     1     -21.342  17.539   8.600  1.00 20.00     0.042 C 
BRANCH   2   4
HETATM    4  O10 UNL     1     -22.987  19.261   8.629  1.00 20.00    -0.388 OA
HETATM    5  C5  UNL     1     -24.119  18.837   7.883  1.00 20.00     0.202 C 
ENDBRANCH   2   4
ENDBRANCH   1   2
BRANCH   1   6
HETATM    6  C8  UNL     1     -24.002  17.233  11.335  1.00 20.00    -0.023 C 
HETATM    7  C2  UNL     1     -25.181  18.223  11.479  1.00 20.00     0.017 C 
HETATM    8  C3  UNL     1     -24.490  15.845  11.787  1.00 20.00     0.017 C 
HETATM    9  C4  UNL     1     -22.887  17.703  12.289  1.00 20.00     0.017 C 
ENDBRANCH   1   6
BRANCH   1  10
HETATM   10  O9  UNL     1     -23.137  15.874   9.522  1.00 20.00    -0.392 OA
HETATM   11  H28 UNL     1     -23.635  15.289  10.111  1.00 20.00     0.210 HD
ENDBRANCH   1  10
TORSDOF 4
ENDMDL
MODEL 2
REMARK VINA RESULT:      -4.0     16.895     18.550
REMARK  4 active torsions:
REMARK  status: ('A' for Active; 'I' for Inactive)
REMARK    1  A    between atoms: C6_6  and  C7_7 
REMARK    2  A    between atoms: C6_6  and  O10_10 
REMARK    3  A    between atoms: C7_7  and  C8_8 
REMARK    4  A    between atoms: C7_7  and  O9_9 
ROOT
HETATM    1  C7  UNL     1     -33.992  14.945  -4.410  1.00 20.00     0.154 C 
ENDROOT
BRANCH   1   2
HETATM    2  C6  UNL     1     -34.751  15.001  -5.753  1.00 20.00     0.146 C 
HETATM    3  C1  UNL     1     -33.815  15.039  -6.959  1.00 20.00     0.042 C 
BRANCH   2   4
HETATM    4  O10 UNL     1     -35.610  13.877  -5.908  1.00 20.00    -0.388 OA
HETATM    5  C5  UNL     1     -36.326  13.602  -4.712  1.00 20.00     0.202 C 
ENDBRANCH   2   4
ENDBRANCH   1   2
BRANCH   1   6
HETATM    6  C8  UNL     1     -34.112  16.191  -3.471  1.00 20.00    -0.023 C 
HETATM    7  C2  UNL     1     -34.795  17.334  -4.257  1.00 20.00     0.017 C 
HETATM    8  C3  UNL     1     -34.986  15.871  -2.244  1.00 20.00     0.017 C 
HETATM    9  C4  UNL     1     -32.748  16.715  -2.986  1.00 20.00     0.017 C 
ENDBRANCH   1   6
BRANCH   1  10
HETATM   10  O9  UNL     1     -32.602  14.712  -4.661  1.00 20.00    -0.392 OA
HETATM   11  H28 UNL     1     -32.453  14.942  -5.590  1.00 20.00     0.210 HD
ENDBRANCH   1  10
TORSDOF 4
ENDMDL
MODEL 3
REMARK VINA RESULT:      -4.0     16.916     18.614
REMARK  4 active torsions:
REMARK  status: ('A' for Active; 'I' for Inactive)
REMARK    1  A    between atoms: C6_6  and  C7_7 
REMARK    2  A    between atoms: C6_6  and  O10_10 
REMARK    3  A    between atoms: C7_7  and  C8_8 
REMARK    4  A    between atoms: C7_7  and  O9_9 
ROOT
HETATM    1  C7  UNL     1     -34.028  14.960  -4.427  1.00 20.00     0.154 C 
ENDROOT
BRANCH   1   2
HETATM    2  C6  UNL     1     -34.765  15.010  -5.782  1.00 20.00     0.146 C 
HETATM    3  C1  UNL     1     -33.811  15.027  -6.974  1.00 20.00     0.042 C 
BRANCH   2   4
HETATM    4  O10 UNL     1     -35.633  13.894  -5.940  1.00 20.00    -0.388 OA
HETATM    5  C5  UNL     1     -36.316  13.592  -4.731  1.00 20.00     0.202 C 
ENDBRANCH   2   4
ENDBRANCH   1   2
BRANCH   1   6
HETATM    6  C8  UNL     1     -34.172  16.204  -3.490  1.00 20.00    -0.023 C 
HETATM    7  C2  UNL     1     -32.759  16.647  -3.041  1.00 20.00     0.017 C 
HETATM    8  C3  UNL     1     -34.823  17.382  -4.238  1.00 20.00     0.017 C 
HETATM    9  C4  UNL     1     -34.989  15.911  -2.218  1.00 20.00     0.017 C 
ENDBRANCH   1   6
BRANCH   1  10
HETATM   10  O9  UNL     1     -32.633  14.736  -4.655  1.00 20.00    -0.392 OA
HETATM   11  H28 UNL     1     -32.177  15.034  -3.855  1.00 20.00     0.210 HD
ENDBRANCH   1  10
TORSDOF 4
ENDMDL
MODEL 4
REMARK VINA RESULT:      -4.0     17.365     18.991
REMARK  4 active torsions:
REMARK  status: ('A' for Active; 'I' for Inactive)
REMARK    1  A    between atoms: C6_6  and  C7_7 
REMARK    2  A    between atoms: C6_6  and  O10_10 
REMARK    3  A    between atoms: C7_7  and  C8_8 
REMARK    4  A    between atoms: C7_7  and  O9_9 
ROOT
HETATM    1  C7  UNL     1     -35.352  14.581  -3.697  1.00 20.00     0.154 C 
ENDROOT
BRANCH   1   2
HETATM    2  C6  UNL     1     -36.423  14.686  -4.804  1.00 20.00     0.146 C 
HETATM    3  C1  UNL     1     -35.907  14.241  -6.170  1.00 20.00     0.042 C 
BRANCH   2   4
HETATM    4  O10 UNL     1     -37.564  13.895  -4.494  1.00 20.00    -0.388 OA
HETATM    5  C5  UNL     1     -38.701  14.705  -4.228  1.00 20.00     0.202 C 
ENDBRANCH   2   4
ENDBRANCH   1   2
BRANCH   1   6
HETATM    6  C8  UNL     1     -34.685  15.914  -3.220  1.00 20.00    -0.023 C 
HETATM    7  C2  UNL     1     -35.263  17.078  -4.058  1.00 20.00     0.017 C 
HETATM    8  C3  UNL     1     -35.007  16.189  -1.740  1.00 20.00     0.017 C 
HETATM    9  C4  UNL     1     -33.157  15.925  -3.407  1.00 20.00     0.017 C 
ENDBRANCH   1   6
BRANCH   1  10
HETATM   10  O9  UNL     1     -34.312  13.695  -4.128  1.00 20.00    -0.392 OA
HETATM   11  H28 UNL     1     -33.646  13.698  -3.425  1.00 20.00     0.210 HD
ENDBRANCH   1  10
TORSDOF 4
ENDMDL
MODEL 5
REMARK VINA RESULT:      -4.0      1.333      2.497
REMARK  4 active torsions:
REMARK  status: ('A' for Active; 'I' for Inactive)
REMARK    1  A    between atoms: C6_6  and  C7_7 
REMARK    2  A    between atoms: C6_6  and  O10_10 
REMARK    3  A    between atoms: C7_7  and  C8_8 
REMARK    4  A    between atoms: C7_7  and  O9_9 
ROOT
HETATM    1  C7  UNL     1     -24.438  18.672  10.065  1.00 20.00     0.154 C 
ENDROOT
BRANCH   1   2
HETATM    2  C6  UNL     1     -23.812  18.223   8.727  1.00 20.00     0.146 C 
HETATM    3  C1  UNL     1     -24.465  18.887   7.518  1.00 20.00     0.042 C 
BRANCH   2   4
HETATM    4  O10 UNL     1     -22.421  18.516   8.684  1.00 20.00    -0.388 OA
HETATM    5  C5  UNL     1     -21.673  17.415   8.188  1.00 20.00     0.202 C 
ENDBRANCH   2   4
ENDBRANCH   1   2
BRANCH   1   6
HETATM    6  C8  UNL     1     -24.267  17.713  11.290  1.00 20.00    -0.023 C 
HETATM    7  C2  UNL     1     -24.291  16.254  10.778  1.00 20.00     0.017 C 
HETATM    8  C3  UNL     1     -22.915  17.949  11.987  1.00 20.00     0.017 C 
HETATM    9  C4  UNL     1     -25.394  17.856  12.330  1.00 20.00     0.017 C 
ENDBRANCH   1   6
BRANCH   1  10
HETATM   10  O9  UNL     1     -25.837  18.906   9.878  1.00 20.00    -0.392 OA
HETATM   11  H28 UNL     1     -26.034  19.741  10.328  1.00 20.00     0.210 HD
ENDBRANCH   1  10
TORSDOF 4
ENDMDL
MODEL 6
REMARK VINA RESULT:      -3.5     18.242     19.902
REMARK  4 active torsions:
REMARK  status: ('A' for Active; 'I' for Inactive)
REMARK    1  A    between atoms: C6_6  and  C7_7 
REMARK    2  A    between atoms: C6_6  and  O10_10 
REMARK    3  A    between atoms: C7_7  and  C8_8 
REMARK    4  A    between atoms: C7_7  and  O9_9 
ROOT
HETATM    1  C7  UNL     1     -35.889  14.176  -4.761  1.00 20.00     0.154 C 
ENDROOT
BRANCH   1   2
HETATM    2  C6  UNL     1     -37.216  14.906  -4.465  1.00 20.00     0.146 C 
HETATM    3  C1  UNL     1     -37.587  15.918  -5.547  1.00 20.00     0.042 C 
BRANCH   2   4
HETATM    4  O10 UNL     1     -38.295  13.987  -4.344  1.00 20.00    -0.388 OA
HETATM    5  C5  UNL     1     -39.547  14.658  -4.297  1.00 20.00     0.202 C 
ENDBRANCH   2   4
ENDBRANCH   1   2
BRANCH   1   6
HETATM    6  C8  UNL     1     -34.567  14.896  -4.333  1.00 20.00    -0.023 C 
HETATM    7  C2  UNL     1     -34.292  16.048  -5.329  1.00 20.00     0.017 C 
HETATM    8  C3  UNL     1     -34.706  15.508  -2.927  1.00 20.00     0.017 C 
HETATM    9  C4  UNL     1     -33.340  13.967  -4.352  1.00 20.00     0.017 C 
ENDBRANCH   1   6
BRANCH   1  10
HETATM   10  O9  UNL     1     -35.806  13.893  -6.161  1.00 20.00    -0.392 OA
HETATM   11  H28 UNL     1     -35.296  14.617  -6.553  1.00 20.00     0.210 HD
ENDBRANCH   1  10
TORSDOF 4
ENDMDL
MODEL 7
REMARK VINA RESULT:      -3.5     17.768     19.396
REMARK  4 active torsions:
REMARK  status: ('A' for Active; 'I' for Inactive)
REMARK    1  A    between atoms: C6_6  and  C7_7 
REMARK    2  A    between atoms: C6_6  and  O10_10 
REMARK    3  A    between atoms: C7_7  and  C8_8 
REMARK    4  A    between atoms: C7_7  and  O9_9 
ROOT
HETATM    1  C7  UNL     1     -34.355  14.941  -5.357  1.00 20.00     0.154 C 
ENDROOT
BRANCH   1   2
HETATM    2  C6  UNL     1     -34.861  15.575  -6.670  1.00 20.00     0.146 C 
HETATM    3  C1  UNL     1     -33.955  15.270  -7.861  1.00 20.00     0.042 C 
BRANCH   2   4
HETATM    4  O10 UNL     1     -36.169  15.119  -6.994  1.00 20.00    -0.388 OA
HETATM    5  C5  UNL     1     -37.009  16.191  -7.396  1.00 20.00     0.202 C 
ENDBRANCH   2   4
ENDBRANCH   1   2
BRANCH   1   6
HETATM    6  C8  UNL     1     -34.377  15.839  -4.076  1.00 20.00    -0.023 C 
HETATM    7  C2  UNL     1     -34.780  17.274  -4.490  1.00 20.00     0.017 C 
HETATM    8  C3  UNL     1     -35.419  15.328  -3.065  1.00 20.00     0.017 C 
HETATM    9  C4  UNL     1     -33.008  15.928  -3.377  1.00 20.00     0.017 C 
ENDBRANCH   1   6
BRANCH   1  10
HETATM   10  O9  UNL     1     -33.017  14.470  -5.544  1.00 20.00    -0.392 OA
HETATM   11  H28 UNL     1     -32.945  14.223  -6.478  1.00 20.00     0.210 HD
ENDBRANCH   1  10
TORSDOF 4
ENDMDL
MODEL 8
REMARK VINA RESULT:      -3.5     17.816     19.495
REMARK  4 active torsions:
REMARK  status: ('A' for Active; 'I' for Inactive)
REMARK    1  A    between atoms: C6_6  and  C7_7 
REMARK    2  A    between atoms: C6_6  and  O10_10 
REMARK    3  A    between atoms: C7_7  and  C8_8 
REMARK    4  A    between atoms: C7_7  and  O9_9 
ROOT
HETATM    1  C7  UNL     1     -34.390  14.957  -5.416  1.00 20.00     0.154 C 
ENDROOT
BRANCH   1   2
HETATM    2  C6  UNL     1     -34.890  15.604  -6.725  1.00 20.00     0.146 C 
HETATM    3  C1  UNL     1     -33.978  15.312  -7.914  1.00 20.00     0.042 C 
BRANCH   2   4
HETATM    4  O10 UNL     1     -36.196  15.150  -7.060  1.00 20.00    -0.388 OA
HETATM    5  C5  UNL     1     -37.029  16.223  -7.475  1.00 20.00     0.202 C 
ENDBRANCH   2   4
ENDBRANCH   1   2
BRANCH   1   6
HETATM    6  C8  UNL     1     -34.414  15.843  -4.127  1.00 20.00    -0.023 C 
HETATM    7  C2  UNL     1     -33.007  15.818  -3.487  1.00 20.00     0.017 C 
HETATM    8  C3  UNL     1     -34.752  17.305  -4.472  1.00 20.00     0.017 C 
HETATM    9  C4  UNL     1     -35.412  15.340  -3.067  1.00 20.00     0.017 C 
ENDBRANCH   1   6
BRANCH   1  10
HETATM   10  O9  UNL     1     -33.052  14.484  -5.603  1.00 20.00    -0.392 OA
HETATM   11  H28 UNL     1     -33.087  13.522  -5.492  1.00 20.00     0.210 HD
ENDBRANCH   1  10
TORSDOF 4
ENDMDL
MODEL 9
REMARK VINA RESULT:      -3.5     15.843     17.710
REMARK  4 active torsions:
REMARK  status: ('A' for Active; 'I' for Inactive)
REMARK    1  A    between atoms: C6_6  and  C7_7 
REMARK    2  A    between atoms: C6_6  and  O10_10 
REMARK    3  A    between atoms: C7_7  and  C8_8 
REMARK    4  A    between atoms: C7_7  and  O9_9 
ROOT
HETATM    1  C7  UNL     1     -34.292  16.313  -3.878  1.00 20.00     0.154 C 
ENDROOT
BRANCH   1   2
HETATM    2  C6  UNL     1     -33.980  16.269  -2.367  1.00 20.00     0.146 C 
HETATM    3  C1  UNL     1     -33.165  17.471  -1.897  1.00 20.00     0.042 C 
BRANCH   2   4
HETATM    4  O10 UNL     1     -35.174  16.227  -1.594  1.00 20.00    -0.388 OA
HETATM    5  C5  UNL     1     -35.164  17.210  -0.569  1.00 20.00     0.202 C 
ENDBRANCH   2   4
ENDBRANCH   1   2
BRANCH   1   6
HETATM    6  C8  UNL     1     -34.191  14.965  -4.667  1.00 20.00    -0.023 C 
HETATM    7  C2  UNL     1     -32.801  14.343  -4.399  1.00 20.00     0.017 C 
HETATM    8  C3  UNL     1     -35.259  13.966  -4.185  1.00 20.00     0.017 C 
HETATM    9  C4  UNL     1     -34.330  15.145  -6.190  1.00 20.00     0.017 C 
ENDBRANCH   1   6
BRANCH   1  10
HETATM   10  O9  UNL     1     -33.428  17.262  -4.512  1.00 20.00    -0.392 OA
HETATM   11  H28 UNL     1     -32.779  16.746  -5.012  1.00 20.00     0.210 HD
ENDBRANCH   1  10
TORSDOF 4
ENDMDL
