MODEL 1
REMARK VINA RESULT:      -5.5      0.000      0.000
REMARK  3 active torsions:
REMARK  status: ('A' for Active; 'I' for Inactive)
REMARK    1  A    between atoms: C1_1  and  C10_10 
REMARK    2  A    between atoms: C8_8  and  C11_11 
REMARK    3  A    between atoms: C10_10  and  C11_11 
ROOT
HETATM    1  C2  UNL     1     -34.460   5.002   5.984  1.00 20.00     0.005 C 
HETATM    2  C3  UNL     1     -34.030   6.469   5.837  1.00 20.00     0.005 C 
HETATM    3  C4  UNL     1     -35.562   5.954   4.101  1.00 20.00     0.009 C 
HETATM    4  C5  UNL     1     -33.723   4.518   3.636  1.00 20.00     0.009 C 
HETATM    5  C6  UNL     1     -34.942   4.639   4.570  1.00 20.00    -0.014 C 
HETATM    6  C7  UNL     1     -34.281   6.754   4.344  1.00 20.00    -0.010 C 
HETATM    7  C8  UNL     1     -33.229   5.975   3.519  1.00 20.00    -0.010 C 
ENDROOT
BRANCH   7   8
HETATM    8  C11 UNL     1     -33.149   6.443   2.070  1.00 20.00     0.012 C 
BRANCH   8   9
HETATM    9  C10 UNL     1     -32.264   7.677   1.933  1.00 20.00     0.078 C 
BRANCH   9  10
HETATM   10  C1  UNL     1     -32.816   8.677   0.933  1.00 20.00     0.123 C 
HETATM   11  C9  UNL     1     -33.277   8.111  -0.386  1.00 20.00     0.091 C 
HETATM   12  O12 UNL     1     -32.891   9.882   1.165  1.00 20.00    -0.298 OA
ENDBRANCH   9  10
ENDBRANCH   8   9
ENDBRANCH   7   8
TORSDOF 3
ENDMDL
MODEL 2
REMARK VINA RESULT:      -5.2     10.611     11.898
REMARK  3 active torsions:
REMARK  status: ('A' for Active; 'I' for Inactive)
REMARK    1  A    between atoms: C1_1  and  C10_10 
REMARK    2  A    between atoms: C8_8  and  C11_11 
REMARK    3  A    between atoms: C10_10  and  C11_11 
ROOT
HETATM    1  C2  UNL     1     -33.838  18.008  -0.776  1.00 20.00     0.005 C 
HETATM    2  C3  UNL     1     -32.582  17.789  -1.632  1.00 20.00     0.005 C 
HETATM    3  C4  UNL     1     -34.426  18.152  -3.078  1.00 20.00     0.009 C 
HETATM    4  C5  UNL     1     -35.009  16.133  -1.962  1.00 20.00     0.009 C 
HETATM    5  C6  UNL     1     -34.981  17.658  -1.744  1.00 20.00    -0.014 C 
HETATM    6  C7  UNL     1     -33.159  17.300  -2.974  1.00 20.00    -0.010 C 
HETATM    7  C8  UNL     1     -33.720  15.873  -2.770  1.00 20.00    -0.010 C 
ENDROOT
BRANCH   7   8
HETATM    8  C11 UNL     1     -33.998  15.153  -4.084  1.00 20.00     0.012 C 
BRANCH   8   9
HETATM    9  C10 UNL     1     -34.938  13.970  -3.882  1.00 20.00     0.078 C 
BRANCH   9  10
HETATM   10  C1  UNL     1     -36.128  14.008  -4.823  1.00 20.00     0.123 C 
HETATM   11  C9  UNL     1     -35.872  14.584  -6.193  1.00 20.00     0.091 C 
HETATM   12  O12 UNL     1     -37.244  13.600  -4.507  1.00 20.00    -0.298 OA
ENDBRANCH   9  10
ENDBRANCH   8   9
ENDBRANCH   7   8
TORSDOF 3
ENDMDL
MODEL 3
REMARK VINA RESULT:      -4.9     11.223     12.168
REMARK  3 active torsions:
REMARK  status: ('A' for Active; 'I' for Inactive)
REMARK    1  A    between atoms: C1_1  and  C10_10 
REMARK    2  A    between atoms: C8_8  and  C11_11 
REMARK    3  A    between atoms: C10_10  and  C11_11 
ROOT
HETATM    1  C2  UNL     1     -34.904  14.475  -4.693  1.00 20.00     0.005 C 
HETATM    2  C3  UNL     1     -35.965  14.836  -3.643  1.00 20.00     0.005 C 
HETATM    3  C4  UNL     1     -35.039  16.843  -4.502  1.00 20.00     0.009 C 
HETATM    4  C5  UNL     1     -33.177  15.802  -3.449  1.00 20.00     0.009 C 
HETATM    5  C6  UNL     1     -34.019  15.732  -4.737  1.00 20.00    -0.014 C 
HETATM    6  C7  UNL     1     -35.533  16.242  -3.185  1.00 20.00    -0.010 C 
HETATM    7  C8  UNL     1     -34.230  16.104  -2.361  1.00 20.00    -0.010 C 
ENDROOT
BRANCH   7   8
HETATM    8  C11 UNL     1     -33.896  17.361  -1.567  1.00 20.00     0.012 C 
BRANCH   8   9
HETATM    9  C10 UNL     1     -32.486  17.854  -1.873  1.00 20.00     0.078 C 
BRANCH   9  10
HETATM   10  C1  UNL     1     -31.750  18.311  -0.626  1.00 20.00     0.123 C 
HETATM   11  C9  UNL     1     -32.611  18.706   0.546  1.00 20.00     0.091 C 
HETATM   12  O12 UNL     1     -30.523  18.365  -0.557  1.00 20.00    -0.298 OA
ENDBRANCH   9  10
ENDBRANCH   8   9
ENDBRANCH   7   8
TORSDOF 3
ENDMDL
MODEL 4
REMARK VINA RESULT:      -4.8     10.937     12.011
REMARK  3 active torsions:
REMARK  status: ('A' for Active; 'I' for Inactive)
REMARK    1  A    between atoms: C1_1  and  C10_10 
REMARK    2  A    between atoms: C8_8  and  C11_11 
REMARK    3  A    between atoms: C10_10  and  C11_11 
ROOT
HETATM    1  C2  UNL     1     -34.374  18.984  -1.797  1.00 20.00     0.005 C 
HETATM    2  C3  UNL     1     -35.486  18.520  -2.749  1.00 20.00     0.005 C 
HETATM    3  C4  UNL     1     -35.048  16.782  -1.196  1.00 20.00     0.009 C 
HETATM    4  C5  UNL     1     -32.993  16.973  -2.379  1.00 20.00     0.009 C 
HETATM    5  C6  UNL     1     -33.801  17.661  -1.263  1.00 20.00    -0.014 C 
HETATM    6  C7  UNL     1     -35.386  16.985  -2.675  1.00 20.00    -0.010 C 
HETATM    7  C8  UNL     1     -34.083  16.549  -3.387  1.00 20.00    -0.010 C 
ENDROOT
BRANCH   7   8
HETATM    8  C11 UNL     1     -34.044  15.054  -3.685  1.00 20.00     0.012 C 
BRANCH   8   9
HETATM    9  C10 UNL     1     -34.897  14.708  -4.900  1.00 20.00     0.078 C 
BRANCH   9  10
HETATM   10  C1  UNL     1     -36.023  13.747  -4.561  1.00 20.00     0.123 C 
HETATM   11  C9  UNL     1     -37.381  14.365  -4.351  1.00 20.00     0.091 C 
HETATM   12  O12 UNL     1     -35.858  12.533  -4.460  1.00 20.00    -0.298 OA
ENDBRANCH   9  10
ENDBRANCH   8   9
ENDBRANCH   7   8
TORSDOF 3
ENDMDL
MODEL 5
REMARK VINA RESULT:      -4.8     15.068     16.085
REMARK  3 active torsions:
REMARK  status: ('A' for Active; 'I' for Inactive)
REMARK    1  A    between atoms: C1_1  and  C10_10 
REMARK    2  A    between atoms: C8_8  and  C11_11 
REMARK    3  A    between atoms: C10_10  and  C11_11 
ROOT
HETATM    1  C2  UNL     1     -24.519  16.269  12.201  1.00 20.00     0.005 C 
HETATM    2  C3  UNL     1     -24.130  15.834  10.781  1.00 20.00     0.005 C 
HETATM    3  C4  UNL     1     -22.965  17.833  11.304  1.00 20.00     0.009 C 
HETATM    4  C5  UNL     1     -25.244  18.514  11.348  1.00 20.00     0.009 C 
HETATM    5  C6  UNL     1     -24.198  17.773  12.202  1.00 20.00    -0.014 C 
HETATM    6  C7  UNL     1     -23.671  17.153  10.129  1.00 20.00    -0.010 C 
HETATM    7  C8  UNL     1     -24.917  18.046   9.914  1.00 20.00    -0.010 C 
ENDROOT
BRANCH   7   8
HETATM    8  C11 UNL     1     -24.651  19.214   8.972  1.00 20.00     0.012 C 
BRANCH   8   9
HETATM    9  C10 UNL     1     -25.677  19.263   7.845  1.00 20.00     0.078 C 
BRANCH   9  10
HETATM   10  C1  UNL     1     -25.039  19.117   6.475  1.00 20.00     0.123 C 
HETATM   11  C9  UNL     1     -25.967  19.240   5.294  1.00 20.00     0.091 C 
HETATM   12  O12 UNL     1     -23.837  18.910   6.316  1.00 20.00    -0.298 OA
ENDBRANCH   9  10
ENDBRANCH   8   9
ENDBRANCH   7   8
TORSDOF 3
ENDMDL
MODEL 6
REMARK VINA RESULT:      -4.8     11.205     12.160
REMARK  3 active torsions:
REMARK  status: ('A' for Active; 'I' for Inactive)
REMARK    1  A    between atoms: C1_1  and  C10_10 
REMARK    2  A    between atoms: C8_8  and  C11_11 
REMARK    3  A    between atoms: C10_10  and  C11_11 
ROOT
HETATM    1  C2  UNL     1     -33.259  17.821  -1.727  1.00 20.00     0.005 C 
HETATM    2  C3  UNL     1     -34.415  16.988  -1.154  1.00 20.00     0.005 C 
HETATM    3  C4  UNL     1     -33.546  15.868  -3.056  1.00 20.00     0.009 C 
HETATM    4  C5  UNL     1     -34.384  17.899  -3.967  1.00 20.00     0.009 C 
HETATM    5  C6  UNL     1     -33.178  17.343  -3.187  1.00 20.00    -0.014 C 
HETATM    6  C7  UNL     1     -34.881  16.164  -2.369  1.00 20.00    -0.010 C 
HETATM    7  C8  UNL     1     -35.574  17.122  -3.367  1.00 20.00    -0.010 C 
ENDROOT
BRANCH   7   8
HETATM    8  C11 UNL     1     -36.379  16.385  -4.432  1.00 20.00     0.012 C 
BRANCH   8   9
HETATM    9  C10 UNL     1     -36.722  14.967  -3.988  1.00 20.00     0.078 C 
BRANCH   9  10
HETATM   10  C1  UNL     1     -36.131  13.914  -4.908  1.00 20.00     0.123 C 
HETATM   11  C9  UNL     1     -35.726  14.384  -6.282  1.00 20.00     0.091 C 
HETATM   12  O12 UNL     1     -35.984  12.740  -4.572  1.00 20.00    -0.298 OA
ENDBRANCH   9  10
ENDBRANCH   8   9
ENDBRANCH   7   8
TORSDOF 3
ENDMDL
MODEL 7
REMARK VINA RESULT:      -4.7      9.321     10.454
REMARK  3 active torsions:
REMARK  status: ('A' for Active; 'I' for Inactive)
REMARK    1  A    between atoms: C1_1  and  C10_10 
REMARK    2  A    between atoms: C8_8  and  C11_11 
REMARK    3  A    between atoms: C10_10  and  C11_11 
ROOT
HETATM    1  C2  UNL     1     -41.605   8.372   0.335  1.00 20.00     0.005 C 
HETATM    2  C3  UNL     1     -43.070   8.298  -0.120  1.00 20.00     0.005 C 
HETATM    3  C4  UNL     1     -42.543   6.307   1.058  1.00 20.00     0.009 C 
HETATM    4  C5  UNL     1     -41.100   6.210  -0.832  1.00 20.00     0.009 C 
HETATM    5  C6  UNL     1     -41.232   6.895   0.542  1.00 20.00    -0.014 C 
HETATM    6  C7  UNL     1     -43.343   6.782  -0.158  1.00 20.00    -0.010 C 
HETATM    7  C8  UNL     1     -42.556   6.177  -1.344  1.00 20.00    -0.010 C 
ENDROOT
BRANCH   7   8
HETATM    8  C11 UNL     1     -43.012   4.766  -1.698  1.00 20.00     0.012 C 
BRANCH   8   9
HETATM    9  C10 UNL     1     -41.889   3.966  -2.349  1.00 20.00     0.078 C 
BRANCH   9  10
HETATM   10  C1  UNL     1     -42.400   2.729  -3.066  1.00 20.00     0.123 C 
HETATM   11  C9  UNL     1     -41.851   2.490  -4.449  1.00 20.00     0.091 C 
HETATM   12  O12 UNL     1     -43.214   1.956  -2.566  1.00 20.00    -0.298 OA
ENDBRANCH   9  10
ENDBRANCH   8   9
ENDBRANCH   7   8
TORSDOF 3
ENDMDL
MODEL 8
REMARK VINA RESULT:      -4.7     11.033     12.370
REMARK  3 active torsions:
REMARK  status: ('A' for Active; 'I' for Inactive)
REMARK    1  A    between atoms: C1_1  and  C10_10 
REMARK    2  A    between atoms: C8_8  and  C11_11 
REMARK    3  A    between atoms: C10_10  and  C11_11 
ROOT
HETATM    1  C2  UNL     1     -35.822  15.607  -4.114  1.00 20.00     0.005 C 
HETATM    2  C3  UNL     1     -35.103  16.713  -4.900  1.00 20.00     0.005 C 
HETATM    3  C4  UNL     1     -33.470  15.337  -3.867  1.00 20.00     0.009 C 
HETATM    4  C5  UNL     1     -34.627  16.280  -2.014  1.00 20.00     0.009 C 
HETATM    5  C6  UNL     1     -34.768  15.177  -3.079  1.00 20.00    -0.014 C 
HETATM    6  C7  UNL     1     -33.738  16.809  -4.191  1.00 20.00    -0.010 C 
HETATM    7  C8  UNL     1     -33.960  17.433  -2.794  1.00 20.00    -0.010 C 
ENDROOT
BRANCH   7   8
HETATM    8  C11 UNL     1     -32.664  17.899  -2.141  1.00 20.00     0.012 C 
BRANCH   8   9
HETATM    9  C10 UNL     1     -32.857  18.170  -0.653  1.00 20.00     0.078 C 
BRANCH   9  10
HETATM   10  C1  UNL     1     -31.538  18.335   0.081  1.00 20.00     0.123 C 
HETATM   11  C9  UNL     1     -31.622  18.431   1.583  1.00 20.00     0.091 C 
HETATM   12  O12 UNL     1     -30.454  18.389  -0.497  1.00 20.00    -0.298 OA
ENDBRANCH   9  10
ENDBRANCH   8   9
ENDBRANCH   7   8
TORSDOF 3
ENDMDL
MODEL 9
REMARK VINA RESULT:      -4.7     10.795     12.338
REMARK  3 active torsions:
REMARK  status: ('A' for Active; 'I' for Inactive)
REMARK    1  A    between atoms: C1_1  and  C10_10 
REMARK    2  A    between atoms: C8_8  and  C11_11 
REMARK    3  A    between atoms: C10_10  and  C11_11 
ROOT
HETATM    1  C2  UNL     1     -32.917  15.547  -3.569  1.00 20.00     0.005 C 
HETATM    2  C3  UNL     1     -34.072  16.020  -2.674  1.00 20.00     0.005 C 
HETATM    3  C4  UNL     1     -34.808  14.146  -3.927  1.00 20.00     0.009 C 
HETATM    4  C5  UNL     1     -34.365  15.773  -5.605  1.00 20.00     0.009 C 
HETATM    5  C6  UNL     1     -33.640  14.773  -4.685  1.00 20.00    -0.014 C 
HETATM    6  C7  UNL     1     -35.318  15.493  -3.409  1.00 20.00    -0.010 C 
HETATM    7  C8  UNL     1     -35.498  16.314  -4.708  1.00 20.00    -0.010 C 
ENDROOT
BRANCH   7   8
HETATM    8  C11 UNL     1     -36.873  16.128  -5.339  1.00 20.00     0.012 C 
BRANCH   8   9
HETATM    9  C10 UNL     1     -37.984  16.282  -4.306  1.00 20.00     0.078 C 
BRANCH   9  10
HETATM   10  C1  UNL     1     -38.889  15.064  -4.244  1.00 20.00     0.123 C 
HETATM   11  C9  UNL     1     -40.351  15.336  -3.996  1.00 20.00     0.091 C 
HETATM   12  O12 UNL     1     -38.474  13.916  -4.385  1.00 20.00    -0.298 OA
ENDBRANCH   9  10
ENDBRANCH   8   9
ENDBRANCH   7   8
TORSDOF 3
ENDMDL
