MODEL 1
REMARK VINA RESULT:      -5.1      0.000      0.000
REMARK  3 active torsions:
REMARK  status: ('A' for Active; 'I' for Inactive)
REMARK    1  A    between atoms: C7_7  and  C9_9 
REMARK    2  A    between atoms: C9_9  and  N10_10 
REMARK    3  A    between atoms: N10_10  and  O11_11 
ROOT
HETATM    1  C1  UNL     1     -34.675   5.028   6.070  1.00 20.00     0.005 C 
HETATM    2  C2  UNL     1     -34.019   6.412   5.951  1.00 20.00     0.005 C 
HETATM    3  C3  UNL     1     -35.524   6.132   4.139  1.00 20.00     0.010 C 
HETATM    4  C4  UNL     1     -33.905   4.431   3.759  1.00 20.00     0.011 C 
HETATM    5  C5  UNL     1     -35.136   4.739   4.630  1.00 20.00    -0.014 C 
HETATM    6  C6  UNL     1     -34.148   6.727   4.449  1.00 20.00    -0.009 C 
HETATM    7  C7  UNL     1     -33.187   5.795   3.673  1.00 20.00     0.005 C 
ENDROOT
BRANCH   7   8
HETATM    8  C9  UNL     1     -32.965   6.241   2.231  1.00 20.00     0.122 C 
BRANCH   8   9
HETATM    9  N10 UNL     1     -32.483   7.581   2.208  1.00 20.00    -0.206 NA
HETATM   10  H28 UNL     1     -31.493   7.627   2.489  1.00 20.00     0.153 HD
BRANCH   9  11
HETATM   11  O11 UNL     1     -32.355   7.931   0.791  1.00 20.00    -0.311 OA
HETATM   12  C8  UNL     1     -33.008   9.176   0.579  1.00 20.00     0.229 C 
ENDBRANCH   9  11
ENDBRANCH   8   9
ENDBRANCH   7   8
TORSDOF 3
ENDMDL
MODEL 2
REMARK VINA RESULT:      -5.0     15.688     16.570
REMARK  3 active torsions:
REMARK  status: ('A' for Active; 'I' for Inactive)
REMARK    1  A    between atoms: C7_7  and  C9_9 
REMARK    2  A    between atoms: C9_9  and  N10_10 
REMARK    3  A    between atoms: N10_10  and  O11_11 
ROOT
HETATM    1  C1  UNL     1     -25.656  16.777  12.305  1.00 20.00     0.005 C 
HETATM    2  C2  UNL     1     -24.631  15.836  11.655  1.00 20.00     0.005 C 
HETATM    3  C3  UNL     1     -23.525  17.838  12.284  1.00 20.00     0.010 C 
HETATM    4  C4  UNL     1     -25.092  18.580  10.655  1.00 20.00     0.011 C 
HETATM    5  C5  UNL     1     -25.010  18.162  12.135  1.00 20.00    -0.014 C 
HETATM    6  C6  UNL     1     -23.542  16.803  11.156  1.00 20.00    -0.009 C 
HETATM    7  C7  UNL     1     -24.115  17.605   9.962  1.00 20.00     0.005 C 
ENDROOT
BRANCH   7   8
HETATM    8  C9  UNL     1     -23.038  18.335   9.168  1.00 20.00     0.122 C 
BRANCH   8   9
HETATM    9  N10 UNL     1     -23.374  18.337   7.783  1.00 20.00    -0.206 NA
HETATM   10  H28 UNL     1     -23.322  19.287   7.388  1.00 20.00     0.153 HD
BRANCH   9  11
HETATM   11  O11 UNL     1     -22.236  17.720   7.098  1.00 20.00    -0.311 OA
HETATM   12  C8  UNL     1     -21.293  17.312   8.080  1.00 20.00     0.229 C 
ENDBRANCH   9  11
ENDBRANCH   8   9
ENDBRANCH   7   8
TORSDOF 3
ENDMDL
MODEL 3
REMARK VINA RESULT:      -4.8     15.688     16.427
REMARK  3 active torsions:
REMARK  status: ('A' for Active; 'I' for Inactive)
REMARK    1  A    between atoms: C7_7  and  C9_9 
REMARK    2  A    between atoms: C9_9  and  N10_10 
REMARK    3  A    between atoms: N10_10  and  O11_11 
ROOT
HETATM    1  C1  UNL     1     -25.901  17.473  12.332  1.00 20.00     0.005 C 
HETATM    2  C2  UNL     1     -25.185  16.158  11.989  1.00 20.00     0.005 C 
HETATM    3  C3  UNL     1     -23.558  17.873  12.189  1.00 20.00     0.010 C 
HETATM    4  C4  UNL     1     -24.869  18.590  10.337  1.00 20.00     0.011 C 
HETATM    5  C5  UNL     1     -24.894  18.543  11.876  1.00 20.00    -0.014 C 
HETATM    6  C6  UNL     1     -23.873  16.638  11.341  1.00 20.00    -0.009 C 
HETATM    7  C7  UNL     1     -24.209  17.246   9.958  1.00 20.00     0.005 C 
ENDROOT
BRANCH   7   8
HETATM    8  C9  UNL     1     -22.977  17.436   9.080  1.00 20.00     0.122 C 
BRANCH   8   9
HETATM    9  N10 UNL     1     -23.019  18.716   8.455  1.00 20.00    -0.206 NA
HETATM   10  H28 UNL     1     -22.071  19.081   8.289  1.00 20.00     0.153 HD
BRANCH   9  11
HETATM   11  O11 UNL     1     -23.437  18.469   7.073  1.00 20.00    -0.311 OA
HETATM   12  C8  UNL     1     -24.586  19.262   6.806  1.00 20.00     0.229 C 
ENDBRANCH   9  11
ENDBRANCH   8   9
ENDBRANCH   7   8
TORSDOF 3
ENDMDL
MODEL 4
REMARK VINA RESULT:      -4.8     11.430     12.366
REMARK  3 active torsions:
REMARK  status: ('A' for Active; 'I' for Inactive)
REMARK    1  A    between atoms: C7_7  and  C9_9 
REMARK    2  A    between atoms: C9_9  and  N10_10 
REMARK    3  A    between atoms: N10_10  and  O11_11 
ROOT
HETATM    1  C1  UNL     1     -32.978  16.206  -3.129  1.00 20.00     0.005 C 
HETATM    2  C2  UNL     1     -32.794  15.068  -4.144  1.00 20.00     0.005 C 
HETATM    3  C3  UNL     1     -34.559  16.466  -4.891  1.00 20.00     0.010 C 
HETATM    4  C4  UNL     1     -35.394  15.596  -2.840  1.00 20.00     0.011 C 
HETATM    5  C5  UNL     1     -34.426  16.663  -3.382  1.00 20.00    -0.014 C 
HETATM    6  C6  UNL     1     -34.172  14.986  -4.826  1.00 20.00    -0.009 C 
HETATM    7  C7  UNL     1     -35.184  14.410  -3.806  1.00 20.00     0.005 C 
ENDROOT
BRANCH   7   8
HETATM    8  C9  UNL     1     -36.487  13.958  -4.456  1.00 20.00     0.122 C 
BRANCH   8   9
HETATM    9  N10 UNL     1     -37.597  14.464  -3.720  1.00 20.00    -0.206 NA
HETATM   10  H28 UNL     1     -37.700  15.480  -3.852  1.00 20.00     0.153 HD
BRANCH   9  11
HETATM   11  O11 UNL     1     -38.790  13.999  -4.432  1.00 20.00    -0.311 OA
HETATM   12  C8  UNL     1     -39.725  15.068  -4.480  1.00 20.00     0.229 C 
ENDBRANCH   9  11
ENDBRANCH   8   9
ENDBRANCH   7   8
TORSDOF 3
ENDMDL
MODEL 5
REMARK VINA RESULT:      -4.8     11.224     12.044
REMARK  3 active torsions:
REMARK  status: ('A' for Active; 'I' for Inactive)
REMARK    1  A    between atoms: C7_7  and  C9_9 
REMARK    2  A    between atoms: C9_9  and  N10_10 
REMARK    3  A    between atoms: N10_10  and  O11_11 
ROOT
HETATM    1  C1  UNL     1     -33.698  17.744  -1.320  1.00 20.00     0.005 C 
HETATM    2  C2  UNL     1     -32.598  17.368  -2.324  1.00 20.00     0.005 C 
HETATM    3  C3  UNL     1     -34.613  17.746  -3.518  1.00 20.00     0.010 C 
HETATM    4  C4  UNL     1     -35.142  15.869  -2.154  1.00 20.00     0.011 C 
HETATM    5  C5  UNL     1     -34.991  17.400  -2.080  1.00 20.00    -0.014 C 
HETATM    6  C6  UNL     1     -33.396  16.817  -3.521  1.00 20.00    -0.009 C 
HETATM    7  C7  UNL     1     -34.004  15.453  -3.112  1.00 20.00     0.005 C 
ENDROOT
BRANCH   7   8
HETATM    8  C9  UNL     1     -34.516  14.652  -4.304  1.00 20.00     0.122 C 
BRANCH   8   9
HETATM    9  N10 UNL     1     -34.445  13.258  -4.017  1.00 20.00    -0.206 NA
HETATM   10  H28 UNL     1     -34.508  13.081  -3.004  1.00 20.00     0.153 HD
BRANCH   9  11
HETATM   11  O11 UNL     1     -35.729  12.699  -4.447  1.00 20.00    -0.311 OA
HETATM   12  C8  UNL     1     -36.600  13.776  -4.765  1.00 20.00     0.229 C 
ENDBRANCH   9  11
ENDBRANCH   8   9
ENDBRANCH   7   8
TORSDOF 3
ENDMDL
MODEL 6
REMARK VINA RESULT:      -4.7     11.354     12.461
REMARK  3 active torsions:
REMARK  status: ('A' for Active; 'I' for Inactive)
REMARK    1  A    between atoms: C7_7  and  C9_9 
REMARK    2  A    between atoms: C9_9  and  N10_10 
REMARK    3  A    between atoms: N10_10  and  O11_11 
ROOT
HETATM    1  C1  UNL     1     -33.234  16.400  -3.097  1.00 20.00     0.005 C 
HETATM    2  C2  UNL     1     -33.860  17.268  -4.199  1.00 20.00     0.005 C 
HETATM    3  C3  UNL     1     -35.594  16.467  -2.792  1.00 20.00     0.010 C 
HETATM    4  C4  UNL     1     -34.707  14.472  -3.738  1.00 20.00     0.011 C 
HETATM    5  C5  UNL     1     -34.409  15.515  -2.645  1.00 20.00    -0.014 C 
HETATM    6  C6  UNL     1     -35.307  16.746  -4.270  1.00 20.00    -0.009 C 
HETATM    7  C7  UNL     1     -35.281  15.327  -4.888  1.00 20.00     0.005 C 
ENDROOT
BRANCH   7   8
HETATM    8  C9  UNL     1     -36.660  14.848  -5.329  1.00 20.00     0.122 C 
BRANCH   8   9
HETATM    9  N10 UNL     1     -37.078  13.756  -4.515  1.00 20.00    -0.206 NA
HETATM   10  H28 UNL     1     -36.847  13.921  -3.524  1.00 20.00     0.153 HD
BRANCH   9  11
HETATM   11  O11 UNL     1     -38.538  13.847  -4.449  1.00 20.00    -0.311 OA
HETATM   12  C8  UNL     1     -38.888  15.194  -4.159  1.00 20.00     0.229 C 
ENDBRANCH   9  11
ENDBRANCH   8   9
ENDBRANCH   7   8
TORSDOF 3
ENDMDL
MODEL 7
REMARK VINA RESULT:      -4.7     11.268     12.364
REMARK  3 active torsions:
REMARK  status: ('A' for Active; 'I' for Inactive)
REMARK    1  A    between atoms: C7_7  and  C9_9 
REMARK    2  A    between atoms: C9_9  and  N10_10 
REMARK    3  A    between atoms: N10_10  and  O11_11 
ROOT
HETATM    1  C1  UNL     1     -33.247  16.265  -3.204  1.00 20.00     0.005 C 
HETATM    2  C2  UNL     1     -34.485  15.969  -2.344  1.00 20.00     0.005 C 
HETATM    3  C3  UNL     1     -34.158  14.161  -3.844  1.00 20.00     0.010 C 
HETATM    4  C4  UNL     1     -34.600  15.991  -5.299  1.00 20.00     0.011 C 
HETATM    5  C5  UNL     1     -33.471  15.384  -4.446  1.00 20.00    -0.014 C 
HETATM    6  C6  UNL     1     -35.286  14.985  -3.218  1.00 20.00    -0.009 C 
HETATM    7  C7  UNL     1     -35.855  15.765  -4.428  1.00 20.00     0.005 C 
ENDROOT
BRANCH   7   8
HETATM    8  C9  UNL     1     -36.941  14.994  -5.171  1.00 20.00     0.122 C 
BRANCH   8   9
HETATM    9  N10 UNL     1     -37.460  13.962  -4.336  1.00 20.00    -0.206 NA
HETATM   10  H28 UNL     1     -37.411  14.227  -3.342  1.00 20.00     0.153 HD
BRANCH   9  11
HETATM   11  O11 UNL     1     -38.912  13.989  -4.529  1.00 20.00    -0.311 OA
HETATM   12  C8  UNL     1     -39.409  15.212  -4.003  1.00 20.00     0.229 C 
ENDBRANCH   9  11
ENDBRANCH   8   9
ENDBRANCH   7   8
TORSDOF 3
ENDMDL
MODEL 8
REMARK VINA RESULT:      -4.5      9.239     10.298
REMARK  3 active torsions:
REMARK  status: ('A' for Active; 'I' for Inactive)
REMARK    1  A    between atoms: C7_7  and  C9_9 
REMARK    2  A    between atoms: C9_9  and  N10_10 
REMARK    3  A    between atoms: N10_10  and  O11_11 
ROOT
HETATM    1  C1  UNL     1     -41.585   8.745   0.115  1.00 20.00     0.005 C 
HETATM    2  C2  UNL     1     -43.043   8.692  -0.367  1.00 20.00     0.005 C 
HETATM    3  C3  UNL     1     -42.648   6.830   1.050  1.00 20.00     0.010 C 
HETATM    4  C4  UNL     1     -41.175   6.437  -0.777  1.00 20.00     0.011 C 
HETATM    5  C5  UNL     1     -41.296   7.284   0.503  1.00 20.00    -0.014 C 
HETATM    6  C6  UNL     1     -43.396   7.199  -0.234  1.00 20.00    -0.009 C 
HETATM    7  C7  UNL     1     -42.619   6.418  -1.322  1.00 20.00     0.005 C 
ENDROOT
BRANCH   7   8
HETATM    8  C9  UNL     1     -43.143   4.999  -1.520  1.00 20.00     0.122 C 
BRANCH   8   9
HETATM    9  N10 UNL     1     -42.077   4.140  -1.913  1.00 20.00    -0.206 NA
HETATM   10  H28 UNL     1     -41.716   3.602  -1.112  1.00 20.00     0.153 HD
BRANCH   9  11
HETATM   11  O11 UNL     1     -42.702   3.057  -2.677  1.00 20.00    -0.311 OA
HETATM   12  C8  UNL     1     -41.822   2.690  -3.731  1.00 20.00     0.229 C 
ENDBRANCH   9  11
ENDBRANCH   8   9
ENDBRANCH   7   8
TORSDOF 3
ENDMDL
MODEL 9
REMARK VINA RESULT:      -4.5     11.514     12.573
REMARK  3 active torsions:
REMARK  status: ('A' for Active; 'I' for Inactive)
REMARK    1  A    between atoms: C7_7  and  C9_9 
REMARK    2  A    between atoms: C9_9  and  N10_10 
REMARK    3  A    between atoms: N10_10  and  O11_11 
ROOT
HETATM    1  C1  UNL     1     -34.650  18.396  -2.305  1.00 20.00     0.005 C 
HETATM    2  C2  UNL     1     -35.574  17.802  -3.379  1.00 20.00     0.005 C 
HETATM    3  C3  UNL     1     -35.018  16.092  -1.831  1.00 20.00     0.010 C 
HETATM    4  C4  UNL     1     -32.914  16.651  -2.792  1.00 20.00     0.011 C 
HETATM    5  C5  UNL     1     -33.927  17.157  -1.748  1.00 20.00    -0.014 C 
HETATM    6  C6  UNL     1     -35.237  16.300  -3.332  1.00 20.00    -0.009 C 
HETATM    7  C7  UNL     1     -33.818  16.103  -3.918  1.00 20.00     0.005 C 
ENDROOT
BRANCH   7   8
HETATM    8  C9  UNL     1     -33.510  14.646  -4.247  1.00 20.00     0.122 C 
BRANCH   8   9
HETATM    9  N10 UNL     1     -33.063  14.538  -5.595  1.00 20.00    -0.206 NA
HETATM   10  H28 UNL     1     -32.759  13.577  -5.812  1.00 20.00     0.153 HD
BRANCH   9  11
HETATM   11  O11 UNL     1     -34.271  14.608  -6.420  1.00 20.00    -0.311 OA
HETATM   12  C8  UNL     1     -33.961  15.330  -7.604  1.00 20.00     0.229 C 
ENDBRANCH   9  11
ENDBRANCH   8   9
ENDBRANCH   7   8
TORSDOF 3
ENDMDL
