MODEL 1
REMARK VINA RESULT:      -4.1      0.000      0.000
REMARK  2 active torsions:
REMARK  status: ('A' for Active; 'I' for Inactive)
REMARK    1  A    between atoms: C4_4  and  C7_7 
REMARK    2  A    between atoms: C7_7  and  O8_8 
ROOT
HETATM    1  C1  UNL     1     -23.921  16.708  10.006  1.00 20.00     0.008 C 
HETATM    2  C2  UNL     1     -24.462  16.235  11.356  1.00 20.00     0.020 C 
HETATM    3  C3  UNL     1     -22.835  17.897  11.841  1.00 20.00     0.027 C 
HETATM    4  C4  UNL     1     -22.947  17.858  10.312  1.00 20.00     0.011 C 
HETATM    5  C5  UNL     1     -24.178  17.370  12.332  1.00 20.00     0.082 C 
HETATM    6 CL9  UNL     1     -25.439  18.629  12.226  1.00 20.00    -0.125 Cl
ENDROOT
BRANCH   4   7
HETATM    7  C7  UNL     1     -21.598  17.695   9.629  1.00 20.00     0.171 C 
BRANCH   7   8
HETATM    8  O8  UNL     1     -21.713  16.699   8.628  1.00 20.00    -0.396 OA
HETATM    9  C6  UNL     1     -21.299  17.182   7.355  1.00 20.00     0.201 C 
ENDBRANCH   7   8
ENDBRANCH   4   7
TORSDOF 2
ENDMDL
MODEL 2
REMARK VINA RESULT:      -3.9     17.643     18.473
REMARK  2 active torsions:
REMARK  status: ('A' for Active; 'I' for Inactive)
REMARK    1  A    between atoms: C4_4  and  C7_7 
REMARK    2  A    between atoms: C7_7  and  O8_8 
ROOT
HETATM    1  C1  UNL     1     -35.281  15.836  -2.621  1.00 20.00     0.008 C 
HETATM    2  C2  UNL     1     -34.177  16.632  -1.922  1.00 20.00     0.020 C 
HETATM    3  C3  UNL     1     -33.134  15.503  -3.734  1.00 20.00     0.027 C 
HETATM    4  C4  UNL     1     -34.630  15.190  -3.856  1.00 20.00     0.011 C 
HETATM    5  C5  UNL     1     -33.084  16.819  -2.967  1.00 20.00     0.082 C 
HETATM    6 CL9  UNL     1     -33.456  18.200  -4.036  1.00 20.00    -0.125 Cl
ENDROOT
BRANCH   4   7
HETATM    7  C7  UNL     1     -34.910  13.700  -3.967  1.00 20.00     0.171 C 
BRANCH   7   8
HETATM    8  O8  UNL     1     -35.887  13.494  -4.972  1.00 20.00    -0.396 OA
HETATM    9  C6  UNL     1     -35.768  14.443  -6.025  1.00 20.00     0.201 C 
ENDBRANCH   7   8
ENDBRANCH   4   7
TORSDOF 2
ENDMDL
MODEL 3
REMARK VINA RESULT:      -3.9     18.445     19.332
REMARK  2 active torsions:
REMARK  status: ('A' for Active; 'I' for Inactive)
REMARK    1  A    between atoms: C4_4  and  C7_7 
REMARK    2  A    between atoms: C7_7  and  O8_8 
ROOT
HETATM    1  C1  UNL     1     -34.425  14.313  -3.750  1.00 20.00     0.008 C 
HETATM    2  C2  UNL     1     -33.441  15.484  -3.721  1.00 20.00     0.020 C 
HETATM    3  C3  UNL     1     -35.599  16.438  -4.004  1.00 20.00     0.027 C 
HETATM    4  C4  UNL     1     -35.831  14.933  -3.824  1.00 20.00     0.011 C 
HETATM    5  C5  UNL     1     -34.264  16.700  -3.316  1.00 20.00     0.082 C 
HETATM    6 CL9  UNL     1     -34.460  16.772  -1.542  1.00 20.00    -0.125 Cl
ENDROOT
BRANCH   4   7
HETATM    7  C7  UNL     1     -36.688  14.337  -4.930  1.00 20.00     0.171 C 
BRANCH   7   8
HETATM    8  O8  UNL     1     -37.872  13.812  -4.354  1.00 20.00    -0.396 OA
HETATM    9  C6  UNL     1     -38.882  14.807  -4.229  1.00 20.00     0.201 C 
ENDBRANCH   7   8
ENDBRANCH   4   7
TORSDOF 2
ENDMDL
MODEL 4
REMARK VINA RESULT:      -3.8     17.101     17.886
REMARK  2 active torsions:
REMARK  status: ('A' for Active; 'I' for Inactive)
REMARK    1  A    between atoms: C4_4  and  C7_7 
REMARK    2  A    between atoms: C7_7  and  O8_8 
ROOT
HETATM    1  C1  UNL     1     -35.215  15.568  -2.965  1.00 20.00     0.008 C 
HETATM    2  C2  UNL     1     -35.054  16.257  -1.608  1.00 20.00     0.020 C 
HETATM    3  C3  UNL     1     -33.022  16.624  -2.783  1.00 20.00     0.027 C 
HETATM    4  C4  UNL     1     -33.945  15.895  -3.767  1.00 20.00     0.011 C 
HETATM    5  C5  UNL     1     -33.973  17.311  -1.811  1.00 20.00     0.082 C 
HETATM    6 CL9  UNL     1     -34.659  18.796  -2.525  1.00 20.00    -0.125 Cl
ENDROOT
BRANCH   4   7
HETATM    7  C7  UNL     1     -33.294  14.665  -4.380  1.00 20.00     0.171 C 
BRANCH   7   8
HETATM    8  O8  UNL     1     -34.110  14.198  -5.439  1.00 20.00    -0.396 OA
HETATM    9  C6  UNL     1     -34.024  15.042  -6.583  1.00 20.00     0.201 C 
ENDBRANCH   7   8
ENDBRANCH   4   7
TORSDOF 2
ENDMDL
MODEL 5
REMARK VINA RESULT:      -3.8     16.181     17.011
REMARK  2 active torsions:
REMARK  status: ('A' for Active; 'I' for Inactive)
REMARK    1  A    between atoms: C4_4  and  C7_7 
REMARK    2  A    between atoms: C7_7  and  O8_8 
ROOT
HETATM    1  C1  UNL     1     -33.356   5.039   2.523  1.00 20.00     0.008 C 
HETATM    2  C2  UNL     1     -33.879   4.279   3.744  1.00 20.00     0.020 C 
HETATM    3  C3  UNL     1     -33.832   6.573   4.361  1.00 20.00     0.027 C 
HETATM    4  C4  UNL     1     -33.426   6.533   2.883  1.00 20.00     0.011 C 
HETATM    5  C5  UNL     1     -34.652   5.305   4.563  1.00 20.00     0.082 C 
HETATM    6 CL9  UNL     1     -36.310   5.504   3.930  1.00 20.00    -0.125 Cl
ENDROOT
BRANCH   4   7
HETATM    7  C7  UNL     1     -32.126   7.273   2.612  1.00 20.00     0.171 C 
BRANCH   7   8
HETATM    8  O8  UNL     1     -32.064   7.594   1.234  1.00 20.00    -0.396 OA
HETATM    9  C6  UNL     1     -32.871   8.722   0.918  1.00 20.00     0.201 C 
ENDBRANCH   7   8
ENDBRANCH   4   7
TORSDOF 2
ENDMDL
MODEL 6
REMARK VINA RESULT:      -3.7      2.937      4.320
REMARK  2 active torsions:
REMARK  status: ('A' for Active; 'I' for Inactive)
REMARK    1  A    between atoms: C4_4  and  C7_7 
REMARK    2  A    between atoms: C7_7  and  O8_8 
ROOT
HETATM    1  C1  UNL     1     -24.647  18.253   9.300  1.00 20.00     0.008 C 
HETATM    2  C2  UNL     1     -23.499  19.189   8.920  1.00 20.00     0.020 C 
HETATM    3  C3  UNL     1     -22.608  17.656  10.501  1.00 20.00     0.027 C 
HETATM    4  C4  UNL     1     -24.047  17.195  10.240  1.00 20.00     0.011 C 
HETATM    5  C5  UNL     1     -22.222  18.422   9.242  1.00 20.00     0.082 C 
HETATM    6 CL9  UNL     1     -21.801  17.306   7.914  1.00 20.00    -0.125 Cl
ENDROOT
BRANCH   4   7
HETATM    7  C7  UNL     1     -24.845  17.014  11.522  1.00 20.00     0.171 C 
BRANCH   7   8
HETATM    8  O8  UNL     1     -25.495  18.234  11.830  1.00 20.00    -0.396 OA
HETATM    9  C6  UNL     1     -26.809  18.020  12.332  1.00 20.00     0.201 C 
ENDBRANCH   7   8
ENDBRANCH   4   7
TORSDOF 2
ENDMDL
MODEL 7
REMARK VINA RESULT:      -3.7     23.535     24.415
REMARK  2 active torsions:
REMARK  status: ('A' for Active; 'I' for Inactive)
REMARK    1  A    between atoms: C4_4  and  C7_7 
REMARK    2  A    between atoms: C7_7  and  O8_8 
ROOT
HETATM    1  C1  UNL     1     -42.577   7.531  -1.560  1.00 20.00     0.008 C 
HETATM    2  C2  UNL     1     -43.284   8.305  -0.445  1.00 20.00     0.020 C 
HETATM    3  C3  UNL     1     -41.495   7.133   0.592  1.00 20.00     0.027 C 
HETATM    4  C4  UNL     1     -41.356   6.859  -0.910  1.00 20.00     0.011 C 
HETATM    5  C5  UNL     1     -42.252   8.454   0.667  1.00 20.00     0.082 C 
HETATM    6 CL9  UNL     1     -41.168   9.835   0.346  1.00 20.00    -0.125 Cl
ENDROOT
BRANCH   4   7
HETATM    7  C7  UNL     1     -41.253   5.376  -1.228  1.00 20.00     0.171 C 
BRANCH   7   8
HETATM    8  O8  UNL     1     -42.561   4.850  -1.373  1.00 20.00    -0.396 OA
HETATM    9  C6  UNL     1     -42.611   3.826  -2.361  1.00 20.00     0.201 C 
ENDBRANCH   7   8
ENDBRANCH   4   7
TORSDOF 2
ENDMDL
MODEL 8
REMARK VINA RESULT:      -3.6      3.420      4.697
REMARK  2 active torsions:
REMARK  status: ('A' for Active; 'I' for Inactive)
REMARK    1  A    between atoms: C4_4  and  C7_7 
REMARK    2  A    between atoms: C7_7  and  O8_8 
ROOT
HETATM    1  C1  UNL     1     -25.478  16.833  12.330  1.00 20.00     0.008 C 
HETATM    2  C2  UNL     1     -24.529  16.103  11.379  1.00 20.00     0.020 C 
HETATM    3  C3  UNL     1     -24.657  18.343  10.598  1.00 20.00     0.027 C 
HETATM    4  C4  UNL     1     -25.478  18.307  11.892  1.00 20.00     0.011 C 
HETATM    5  C5  UNL     1     -23.671  17.190  10.743  1.00 20.00     0.082 C 
HETATM    6 CL9  UNL     1     -22.314  17.636  11.814  1.00 20.00    -0.125 Cl
ENDROOT
BRANCH   4   7
HETATM    7  C7  UNL     1     -26.877  18.876  11.713  1.00 20.00     0.171 C 
BRANCH   7   8
HETATM    8  O8  UNL     1     -27.821  17.885  12.080  1.00 20.00    -0.396 OA
HETATM    9  C6  UNL     1     -29.089  18.115  11.474  1.00 20.00     0.201 C 
ENDBRANCH   7   8
ENDBRANCH   4   7
TORSDOF 2
ENDMDL
MODEL 9
REMARK VINA RESULT:      -3.6      2.674      3.066
REMARK  2 active torsions:
REMARK  status: ('A' for Active; 'I' for Inactive)
REMARK    1  A    between atoms: C4_4  and  C7_7 
REMARK    2  A    between atoms: C7_7  and  O8_8 
ROOT
HETATM    1  C1  UNL     1     -25.637  18.326  11.361  1.00 20.00     0.008 C 
HETATM    2  C2  UNL     1     -25.208  16.923  11.793  1.00 20.00     0.020 C 
HETATM    3  C3  UNL     1     -23.906  17.454   9.877  1.00 20.00     0.027 C 
HETATM    4  C4  UNL     1     -24.722  18.715  10.188  1.00 20.00     0.011 C 
HETATM    5  C5  UNL     1     -23.813  16.725  11.212  1.00 20.00     0.082 C 
HETATM    6 CL9  UNL     1     -22.576  17.467  12.264  1.00 20.00    -0.125 Cl
ENDROOT
BRANCH   4   7
HETATM    7  C7  UNL     1     -25.487  19.230   8.980  1.00 20.00     0.171 C 
BRANCH   7   8
HETATM    8  O8  UNL     1     -24.906  18.686   7.807  1.00 20.00    -0.396 OA
HETATM    9  C6  UNL     1     -25.636  19.049   6.640  1.00 20.00     0.201 C 
ENDBRANCH   7   8
ENDBRANCH   4   7
TORSDOF 2
ENDMDL
