MODEL 1
REMARK VINA RESULT:      -4.9      0.000      0.000
REMARK  4 active torsions:
REMARK  status: ('A' for Active; 'I' for Inactive)
REMARK    1  A    between atoms: C1_1  and  C9_9 
REMARK    2  A    between atoms: C8_8  and  C10_10 
REMARK    3  A    between atoms: C9_9  and  C11_11 
REMARK    4  A    between atoms: C10_10  and  C11_11 
ROOT
HETATM    1  C2  UNL     1     -32.348  18.326  -1.506  1.00 20.00     0.005 C 
HETATM    2  C3  UNL     1     -33.602  18.080  -0.654  1.00 20.00     0.005 C 
HETATM    3  C4  UNL     1     -34.277  18.512  -2.886  1.00 20.00     0.009 C 
HETATM    4  C5  UNL     1     -33.027  16.499  -3.086  1.00 20.00     0.009 C 
HETATM    5  C6  UNL     1     -32.833  18.018  -2.933  1.00 20.00    -0.014 C 
HETATM    6  C7  UNL     1     -34.642  17.624  -1.695  1.00 20.00    -0.010 C 
HETATM    7  C8  UNL     1     -34.248  16.211  -2.186  1.00 20.00    -0.010 C 
ENDROOT
BRANCH   7   8
HETATM    8  C10 UNL     1     -35.373  15.514  -2.945  1.00 20.00     0.005 C 
BRANCH   8   9
HETATM    9  C11 UNL     1     -34.841  14.342  -3.771  1.00 20.00     0.007 C 
BRANCH   9  10
HETATM   10  C9  UNL     1     -35.951  13.609  -4.519  1.00 20.00     0.069 C 
BRANCH  10  11
HETATM   11  C1  UNL     1     -37.254  14.372  -4.585  1.00 20.00     0.231 C 
HETATM   12  O12 UNL     1     -38.357  13.903  -4.323  1.00 20.00    -0.307 OA
ENDBRANCH  10  11
ENDBRANCH   9  10
ENDBRANCH   8   9
ENDBRANCH   7   8
TORSDOF 4
ENDMDL
MODEL 2
REMARK VINA RESULT:      -4.9      3.082      5.436
REMARK  4 active torsions:
REMARK  status: ('A' for Active; 'I' for Inactive)
REMARK    1  A    between atoms: C1_1  and  C9_9 
REMARK    2  A    between atoms: C8_8  and  C10_10 
REMARK    3  A    between atoms: C9_9  and  C11_11 
REMARK    4  A    between atoms: C10_10  and  C11_11 
ROOT
HETATM    1  C2  UNL     1     -34.895  14.075  -3.914  1.00 20.00     0.005 C 
HETATM    2  C3  UNL     1     -33.491  14.543  -4.325  1.00 20.00     0.005 C 
HETATM    3  C4  UNL     1     -34.980  16.381  -4.492  1.00 20.00     0.009 C 
HETATM    4  C5  UNL     1     -35.015  15.874  -2.169  1.00 20.00     0.009 C 
HETATM    5  C6  UNL     1     -35.592  15.385  -3.509  1.00 20.00    -0.014 C 
HETATM    6  C7  UNL     1     -33.545  16.061  -4.069  1.00 20.00    -0.010 C 
HETATM    7  C8  UNL     1     -33.576  16.294  -2.540  1.00 20.00    -0.010 C 
ENDROOT
BRANCH   7   8
HETATM    8  C10 UNL     1     -33.279  17.739  -2.156  1.00 20.00     0.005 C 
BRANCH   8   9
HETATM    9  C11 UNL     1     -33.832  18.069  -0.769  1.00 20.00     0.007 C 
BRANCH   9  10
HETATM   10  C9  UNL     1     -32.733  18.463   0.214  1.00 20.00     0.069 C 
BRANCH  10  11
HETATM   11  C1  UNL     1     -31.443  18.890  -0.447  1.00 20.00     0.231 C 
HETATM   12  O12 UNL     1     -30.368  18.313  -0.327  1.00 20.00    -0.307 OA
ENDBRANCH  10  11
ENDBRANCH   9  10
ENDBRANCH   8   9
ENDBRANCH   7   8
TORSDOF 4
ENDMDL
MODEL 3
REMARK VINA RESULT:      -4.8      0.874      1.209
REMARK  4 active torsions:
REMARK  status: ('A' for Active; 'I' for Inactive)
REMARK    1  A    between atoms: C1_1  and  C9_9 
REMARK    2  A    between atoms: C8_8  and  C10_10 
REMARK    3  A    between atoms: C9_9  and  C11_11 
REMARK    4  A    between atoms: C10_10  and  C11_11 
ROOT
HETATM    1  C2  UNL     1     -34.202  18.122  -0.786  1.00 20.00     0.005 C 
HETATM    2  C3  UNL     1     -35.121  16.893  -0.733  1.00 20.00     0.005 C 
HETATM    3  C4  UNL     1     -35.280  17.863  -2.892  1.00 20.00     0.009 C 
HETATM    4  C5  UNL     1     -33.006  17.177  -2.779  1.00 20.00     0.009 C 
HETATM    5  C6  UNL     1     -33.944  18.296  -2.293  1.00 20.00    -0.014 C 
HETATM    6  C7  UNL     1     -35.245  16.491  -2.215  1.00 20.00    -0.010 C 
HETATM    7  C8  UNL     1     -33.886  15.914  -2.677  1.00 20.00    -0.010 C 
ENDROOT
BRANCH   7   8
HETATM    8  C10 UNL     1     -33.981  15.166  -4.002  1.00 20.00     0.005 C 
BRANCH   8   9
HETATM    9  C11 UNL     1     -34.834  13.903  -3.866  1.00 20.00     0.007 C 
BRANCH   9  10
HETATM   10  C9  UNL     1     -36.027  13.905  -4.817  1.00 20.00     0.069 C 
BRANCH  10  11
HETATM   11  C1  UNL     1     -37.303  14.428  -4.198  1.00 20.00     0.231 C 
HETATM   12  O12 UNL     1     -38.427  13.997  -4.435  1.00 20.00    -0.307 OA
ENDBRANCH  10  11
ENDBRANCH   9  10
ENDBRANCH   8   9
ENDBRANCH   7   8
TORSDOF 4
ENDMDL
MODEL 4
REMARK VINA RESULT:      -4.7      3.016      5.530
REMARK  4 active torsions:
REMARK  status: ('A' for Active; 'I' for Inactive)
REMARK    1  A    between atoms: C1_1  and  C9_9 
REMARK    2  A    between atoms: C8_8  and  C10_10 
REMARK    3  A    between atoms: C9_9  and  C11_11 
REMARK    4  A    between atoms: C10_10  and  C11_11 
ROOT
HETATM    1  C2  UNL     1     -37.214  14.446  -4.291  1.00 20.00     0.005 C 
HETATM    2  C3  UNL     1     -35.948  13.591  -4.449  1.00 20.00     0.005 C 
HETATM    3  C4  UNL     1     -35.517  15.750  -5.332  1.00 20.00     0.009 C 
HETATM    4  C5  UNL     1     -35.917  16.183  -3.028  1.00 20.00     0.009 C 
HETATM    5  C6  UNL     1     -36.668  15.884  -4.337  1.00 20.00    -0.014 C 
HETATM    6  C7  UNL     1     -34.827  14.645  -4.529  1.00 20.00    -0.010 C 
HETATM    7  C8  UNL     1     -34.665  15.287  -3.131  1.00 20.00    -0.010 C 
ENDROOT
BRANCH   7   8
HETATM    8  C10 UNL     1     -33.371  16.082  -2.992  1.00 20.00     0.005 C 
BRANCH   8   9
HETATM    9  C11 UNL     1     -33.503  17.172  -1.927  1.00 20.00     0.007 C 
BRANCH   9  10
HETATM   10  C9  UNL     1     -32.384  18.207  -2.016  1.00 20.00     0.069 C 
BRANCH  10  11
HETATM   11  C1  UNL     1     -31.691  18.475  -0.700  1.00 20.00     0.231 C 
HETATM   12  O12 UNL     1     -30.488  18.342  -0.500  1.00 20.00    -0.307 OA
ENDBRANCH  10  11
ENDBRANCH   9  10
ENDBRANCH   8   9
ENDBRANCH   7   8
TORSDOF 4
ENDMDL
MODEL 5
REMARK VINA RESULT:      -4.7      1.728      2.487
REMARK  4 active torsions:
REMARK  status: ('A' for Active; 'I' for Inactive)
REMARK    1  A    between atoms: C1_1  and  C9_9 
REMARK    2  A    between atoms: C8_8  and  C10_10 
REMARK    3  A    between atoms: C9_9  and  C11_11 
REMARK    4  A    between atoms: C10_10  and  C11_11 
ROOT
HETATM    1  C2  UNL     1     -34.182  17.420  -1.387  1.00 20.00     0.005 C 
HETATM    2  C3  UNL     1     -32.931  17.519  -2.272  1.00 20.00     0.005 C 
HETATM    3  C4  UNL     1     -34.064  15.501  -2.789  1.00 20.00     0.009 C 
HETATM    4  C5  UNL     1     -35.634  17.173  -3.418  1.00 20.00     0.009 C 
HETATM    5  C6  UNL     1     -35.086  16.454  -2.173  1.00 20.00    -0.014 C 
HETATM    6  C7  UNL     1     -33.288  16.627  -3.476  1.00 20.00    -0.010 C 
HETATM    7  C8  UNL     1     -34.381  17.343  -4.303  1.00 20.00    -0.010 C 
ENDROOT
BRANCH   7   8
HETATM    8  C10 UNL     1     -34.567  16.737  -5.690  1.00 20.00     0.005 C 
BRANCH   8   9
HETATM    9  C11 UNL     1     -35.935  16.067  -5.824  1.00 20.00     0.007 C 
BRANCH   9  10
HETATM   10  C9  UNL     1     -35.825  14.557  -6.014  1.00 20.00     0.069 C 
BRANCH  10  11
HETATM   11  C1  UNL     1     -36.303  13.752  -4.827  1.00 20.00     0.231 C 
HETATM   12  O12 UNL     1     -35.889  12.640  -4.521  1.00 20.00    -0.307 OA
ENDBRANCH  10  11
ENDBRANCH   9  10
ENDBRANCH   8   9
ENDBRANCH   7   8
TORSDOF 4
ENDMDL
MODEL 6
REMARK VINA RESULT:      -4.6     11.824     13.457
REMARK  4 active torsions:
REMARK  status: ('A' for Active; 'I' for Inactive)
REMARK    1  A    between atoms: C1_1  and  C9_9 
REMARK    2  A    between atoms: C8_8  and  C10_10 
REMARK    3  A    between atoms: C9_9  and  C11_11 
REMARK    4  A    between atoms: C10_10  and  C11_11 
ROOT
HETATM    1  C2  UNL     1     -41.474   7.698   0.632  1.00 20.00     0.005 C 
HETATM    2  C3  UNL     1     -42.917   7.231   0.876  1.00 20.00     0.005 C 
HETATM    3  C4  UNL     1     -42.611   7.559  -1.454  1.00 20.00     0.009 C 
HETATM    4  C5  UNL     1     -41.096   5.794  -0.958  1.00 20.00     0.009 C 
HETATM    5  C6  UNL     1     -41.233   7.323  -0.840  1.00 20.00    -0.014 C 
HETATM    6  C7  UNL     1     -43.312   6.610  -0.478  1.00 20.00    -0.010 C 
HETATM    7  C8  UNL     1     -42.524   5.291  -0.655  1.00 20.00    -0.010 C 
ENDROOT
BRANCH   7   8
HETATM    8  C10 UNL     1     -43.078   4.417  -1.774  1.00 20.00     0.005 C 
BRANCH   8   9
HETATM    9  C11 UNL     1     -41.952   3.772  -2.584  1.00 20.00     0.007 C 
BRANCH   9  10
HETATM   10  C9  UNL     1     -42.435   2.577  -3.400  1.00 20.00     0.069 C 
BRANCH  10  11
HETATM   11  C1  UNL     1     -41.765   2.443  -4.748  1.00 20.00     0.231 C 
HETATM   12  O12 UNL     1     -42.186   2.926  -5.793  1.00 20.00    -0.307 OA
ENDBRANCH  10  11
ENDBRANCH   9  10
ENDBRANCH   8   9
ENDBRANCH   7   8
TORSDOF 4
ENDMDL
MODEL 7
REMARK VINA RESULT:      -4.6     13.682     15.916
REMARK  4 active torsions:
REMARK  status: ('A' for Active; 'I' for Inactive)
REMARK    1  A    between atoms: C1_1  and  C9_9 
REMARK    2  A    between atoms: C8_8  and  C10_10 
REMARK    3  A    between atoms: C9_9  and  C11_11 
REMARK    4  A    between atoms: C10_10  and  C11_11 
ROOT
HETATM    1  C2  UNL     1     -22.925  17.720  11.699  1.00 20.00     0.005 C 
HETATM    2  C3  UNL     1     -21.965  18.022  10.539  1.00 20.00     0.005 C 
HETATM    3  C4  UNL     1     -23.631  16.520   9.769  1.00 20.00     0.009 C 
HETATM    4  C5  UNL     1     -24.879  18.469  10.316  1.00 20.00     0.009 C 
HETATM    5  C6  UNL     1     -24.203  17.256  10.979  1.00 20.00    -0.014 C 
HETATM    6  C7  UNL     1     -22.825  17.732   9.294  1.00 20.00    -0.010 C 
HETATM    7  C8  UNL     1     -23.901  18.837   9.179  1.00 20.00    -0.010 C 
ENDROOT
BRANCH   7   8
HETATM    8  C10 UNL     1     -24.583  18.859   7.815  1.00 20.00     0.005 C 
BRANCH   8   9
HETATM    9  C11 UNL     1     -26.054  19.261   7.937  1.00 20.00     0.007 C 
BRANCH   9  10
HETATM   10  C9  UNL     1     -26.821  19.050   6.635  1.00 20.00     0.069 C 
BRANCH  10  11
HETATM   11  C1  UNL     1     -25.946  19.020   5.404  1.00 20.00     0.231 C 
HETATM   12  O12 UNL     1     -26.056  18.219   4.482  1.00 20.00    -0.307 OA
ENDBRANCH  10  11
ENDBRANCH   9  10
ENDBRANCH   8   9
ENDBRANCH   7   8
TORSDOF 4
ENDMDL
MODEL 8
REMARK VINA RESULT:      -4.6      3.012      5.378
REMARK  4 active torsions:
REMARK  status: ('A' for Active; 'I' for Inactive)
REMARK    1  A    between atoms: C1_1  and  C9_9 
REMARK    2  A    between atoms: C8_8  and  C10_10 
REMARK    3  A    between atoms: C9_9  and  C11_11 
REMARK    4  A    between atoms: C10_10  and  C11_11 
ROOT
HETATM    1  C2  UNL     1     -35.314  14.773  -5.948  1.00 20.00     0.005 C 
HETATM    2  C3  UNL     1     -35.896  14.039  -4.731  1.00 20.00     0.005 C 
HETATM    3  C4  UNL     1     -33.575  14.374  -4.373  1.00 20.00     0.009 C 
HETATM    4  C5  UNL     1     -34.428  16.591  -4.464  1.00 20.00     0.009 C 
HETATM    5  C6  UNL     1     -34.038  15.421  -5.384  1.00 20.00    -0.014 C 
HETATM    6  C7  UNL     1     -34.900  14.389  -3.609  1.00 20.00    -0.010 C 
HETATM    7  C8  UNL     1     -35.075  15.884  -3.254  1.00 20.00    -0.010 C 
ENDROOT
BRANCH   7   8
HETATM    8  C10 UNL     1     -34.406  16.262  -1.937  1.00 20.00     0.005 C 
BRANCH   8   9
HETATM    9  C11 UNL     1     -33.283  17.278  -2.157  1.00 20.00     0.007 C 
BRANCH   9  10
HETATM   10  C9  UNL     1     -33.102  18.210  -0.963  1.00 20.00     0.069 C 
BRANCH  10  11
HETATM   11  C1  UNL     1     -31.754  18.890  -0.914  1.00 20.00     0.231 C 
HETATM   12  O12 UNL     1     -30.687  18.321  -0.709  1.00 20.00    -0.307 OA
ENDBRANCH  10  11
ENDBRANCH   9  10
ENDBRANCH   8   9
ENDBRANCH   7   8
TORSDOF 4
ENDMDL
MODEL 9
REMARK VINA RESULT:      -4.6     10.858     12.183
REMARK  4 active torsions:
REMARK  status: ('A' for Active; 'I' for Inactive)
REMARK    1  A    between atoms: C1_1  and  C9_9 
REMARK    2  A    between atoms: C8_8  and  C10_10 
REMARK    3  A    between atoms: C9_9  and  C11_11 
REMARK    4  A    between atoms: C10_10  and  C11_11 
ROOT
HETATM    1  C2  UNL     1     -34.413   5.041   6.070  1.00 20.00     0.005 C 
HETATM    2  C3  UNL     1     -34.168   4.001   4.966  1.00 20.00     0.005 C 
HETATM    3  C4  UNL     1     -35.529   5.733   4.085  1.00 20.00     0.009 C 
HETATM    4  C5  UNL     1     -33.499   6.858   4.602  1.00 20.00     0.009 C 
HETATM    5  C6  UNL     1     -34.769   6.310   5.277  1.00 20.00    -0.014 C 
HETATM    6  C7  UNL     1     -34.376   4.815   3.675  1.00 20.00    -0.010 C 
HETATM    7  C8  UNL     1     -33.191   5.797   3.524  1.00 20.00    -0.010 C 
ENDROOT
BRANCH   7   8
HETATM    8  C10 UNL     1     -33.098   6.403   2.128  1.00 20.00     0.005 C 
BRANCH   8   9
HETATM    9  C11 UNL     1     -32.189   7.632   2.116  1.00 20.00     0.007 C 
BRANCH   9  10
HETATM   10  C9  UNL     1     -32.875   8.855   1.515  1.00 20.00     0.069 C 
BRANCH  10  11
HETATM   11  C1  UNL     1     -32.879   8.877   0.004  1.00 20.00     0.231 C 
HETATM   12  O12 UNL     1     -33.771   8.423  -0.703  1.00 20.00    -0.307 OA
ENDBRANCH  10  11
ENDBRANCH   9  10
ENDBRANCH   8   9
ENDBRANCH   7   8
TORSDOF 4
ENDMDL
