MODEL 1
REMARK VINA RESULT:      -4.0      0.000      0.000
REMARK  2 active torsions:
REMARK  status: ('A' for Active; 'I' for Inactive)
REMARK    1  A    between atoms: C7_7  and  C8_8 
REMARK    2  A    between atoms: C8_8  and  S9_9 
ROOT
HETATM    1  C1  UNL     1     -25.432  16.442  12.330  1.00 20.00     0.005 C 
HETATM    2  C2  UNL     1     -25.722  17.943  12.177  1.00 20.00     0.005 C 
HETATM    3  C3  UNL     1     -23.372  17.632  12.245  1.00 20.00     0.009 C 
HETATM    4  C4  UNL     1     -24.007  16.478  10.265  1.00 20.00     0.010 C 
HETATM    5  C5  UNL     1     -23.996  16.313  11.796  1.00 20.00    -0.014 C 
HETATM    6  C6  UNL     1     -24.429  18.481  11.536  1.00 20.00    -0.009 C 
HETATM    7  C7  UNL     1     -24.360  17.969  10.078  1.00 20.00    -0.001 C 
ENDROOT
BRANCH   7   8
HETATM    8  C8  UNL     1     -23.322  18.707   9.240  1.00 20.00     0.075 C 
BRANCH   8   9
HETATM    9  S9  UNL     1     -22.203  17.527   8.441  1.00 20.00    -0.182 SA
HETATM   10  H23 UNL     1     -23.099  16.538   8.314  1.00 20.00     0.101 HD
ENDBRANCH   8   9
ENDBRANCH   7   8
TORSDOF 2
ENDMDL
MODEL 2
REMARK VINA RESULT:      -3.9      1.562      2.411
REMARK  2 active torsions:
REMARK  status: ('A' for Active; 'I' for Inactive)
REMARK    1  A    between atoms: C7_7  and  C8_8 
REMARK    2  A    between atoms: C8_8  and  S9_9 
ROOT
HETATM    1  C1  UNL     1     -23.621  17.877  12.332  1.00 20.00     0.005 C 
HETATM    2  C2  UNL     1     -22.322  17.752  11.523  1.00 20.00     0.005 C 
HETATM    3  C3  UNL     1     -23.991  16.428  10.480  1.00 20.00     0.009 C 
HETATM    4  C4  UNL     1     -24.858  18.635  10.284  1.00 20.00     0.010 C 
HETATM    5  C5  UNL     1     -24.703  17.494  11.309  1.00 20.00    -0.014 C 
HETATM    6  C6  UNL     1     -22.823  17.351  10.123  1.00 20.00    -0.009 C 
HETATM    7  C7  UNL     1     -23.534  18.574   9.493  1.00 20.00    -0.001 C 
ENDROOT
BRANCH   7   8
HETATM    8  C8  UNL     1     -23.763  18.419   7.994  1.00 20.00     0.075 C 
BRANCH   8   9
HETATM    9  S9  UNL     1     -25.316  19.215   7.509  1.00 20.00    -0.182 SA
HETATM   10  H23 UNL     1     -25.305  20.152   8.467  1.00 20.00     0.101 HD
ENDBRANCH   8   9
ENDBRANCH   7   8
TORSDOF 2
ENDMDL
MODEL 3
REMARK VINA RESULT:      -3.9     16.522     17.415
REMARK  2 active torsions:
REMARK  status: ('A' for Active; 'I' for Inactive)
REMARK    1  A    between atoms: C7_7  and  C8_8 
REMARK    2  A    between atoms: C8_8  and  S9_9 
ROOT
HETATM    1  C1  UNL     1     -34.653  14.200  -3.791  1.00 20.00     0.005 C 
HETATM    2  C2  UNL     1     -33.321  14.802  -4.261  1.00 20.00     0.005 C 
HETATM    3  C3  UNL     1     -35.000  16.470  -4.419  1.00 20.00     0.009 C 
HETATM    4  C4  UNL     1     -34.908  16.022  -2.084  1.00 20.00     0.010 C 
HETATM    5  C5  UNL     1     -35.472  15.440  -3.395  1.00 20.00    -0.014 C 
HETATM    6  C6  UNL     1     -33.526  16.312  -4.038  1.00 20.00    -0.009 C 
HETATM    7  C7  UNL     1     -33.535  16.581  -2.514  1.00 20.00    -0.001 C 
ENDROOT
BRANCH   7   8
HETATM    8  C8  UNL     1     -33.380  18.059  -2.173  1.00 20.00     0.075 C 
BRANCH   8   9
HETATM    9  S9  UNL     1     -32.011  18.297  -1.011  1.00 20.00    -0.182 SA
HETATM   10  H23 UNL     1     -31.372  19.232  -1.727  1.00 20.00     0.101 HD
ENDBRANCH   8   9
ENDBRANCH   7   8
TORSDOF 2
ENDMDL
MODEL 4
REMARK VINA RESULT:      -3.8     18.228     19.014
REMARK  2 active torsions:
REMARK  status: ('A' for Active; 'I' for Inactive)
REMARK    1  A    between atoms: C7_7  and  C8_8 
REMARK    2  A    between atoms: C8_8  and  S9_9 
ROOT
HETATM    1  C1  UNL     1     -34.851  16.004  -2.514  1.00 20.00     0.005 C 
HETATM    2  C2  UNL     1     -33.407  15.969  -3.034  1.00 20.00     0.005 C 
HETATM    3  C3  UNL     1     -34.541  14.041  -3.824  1.00 20.00     0.009 C 
HETATM    4  C4  UNL     1     -35.731  15.823  -4.857  1.00 20.00     0.010 C 
HETATM    5  C5  UNL     1     -35.598  15.096  -3.506  1.00 20.00    -0.014 C 
HETATM    6  C6  UNL     1     -33.512  15.076  -4.285  1.00 20.00    -0.009 C 
HETATM    7  C7  UNL     1     -34.278  15.859  -5.378  1.00 20.00    -0.001 C 
ENDROOT
BRANCH   7   8
HETATM    8  C8  UNL     1     -34.145  15.230  -6.760  1.00 20.00     0.075 C 
BRANCH   8   9
HETATM    9  S9  UNL     1     -35.749  15.213  -7.602  1.00 20.00    -0.182 SA
HETATM   10  H23 UNL     1     -35.269  15.419  -8.836  1.00 20.00     0.101 HD
ENDBRANCH   8   9
ENDBRANCH   7   8
TORSDOF 2
ENDMDL
MODEL 5
REMARK VINA RESULT:      -3.8     23.251     23.904
REMARK  2 active torsions:
REMARK  status: ('A' for Active; 'I' for Inactive)
REMARK    1  A    between atoms: C7_7  and  C8_8 
REMARK    2  A    between atoms: C8_8  and  S9_9 
ROOT
HETATM    1  C1  UNL     1     -42.650   9.162   0.012  1.00 20.00     0.005 C 
HETATM    2  C2  UNL     1     -41.223   8.735   0.386  1.00 20.00     0.005 C 
HETATM    3  C3  UNL     1     -42.713   6.992   0.988  1.00 20.00     0.009 C 
HETATM    4  C4  UNL     1     -42.936   7.092  -1.378  1.00 20.00     0.010 C 
HETATM    5  C5  UNL     1     -43.393   7.820  -0.099  1.00 20.00    -0.014 C 
HETATM    6  C6  UNL     1     -41.314   7.198   0.403  1.00 20.00    -0.009 C 
HETATM    7  C7  UNL     1     -41.477   6.705  -1.055  1.00 20.00    -0.001 C 
ENDROOT
BRANCH   7   8
HETATM    8  C8  UNL     1     -41.230   5.208  -1.205  1.00 20.00     0.075 C 
BRANCH   8   9
HETATM    9  S9  UNL     1     -42.693   4.395  -1.897  1.00 20.00    -0.182 SA
HETATM   10  H23 UNL     1     -43.401   4.373  -0.759  1.00 20.00     0.101 HD
ENDBRANCH   8   9
ENDBRANCH   7   8
TORSDOF 2
ENDMDL
MODEL 6
REMARK VINA RESULT:      -3.8     16.943     17.764
REMARK  2 active torsions:
REMARK  status: ('A' for Active; 'I' for Inactive)
REMARK    1  A    between atoms: C7_7  and  C8_8 
REMARK    2  A    between atoms: C8_8  and  S9_9 
ROOT
HETATM    1  C1  UNL     1     -33.773  17.387  -1.444  1.00 20.00     0.005 C 
HETATM    2  C2  UNL     1     -35.118  16.659  -1.299  1.00 20.00     0.005 C 
HETATM    3  C3  UNL     1     -34.943  17.489  -3.514  1.00 20.00     0.009 C 
HETATM    4  C4  UNL     1     -33.156  15.925  -3.387  1.00 20.00     0.010 C 
HETATM    5  C5  UNL     1     -33.526  17.358  -2.961  1.00 20.00    -0.014 C 
HETATM    6  C6  UNL     1     -35.456  16.266  -2.750  1.00 20.00    -0.009 C 
HETATM    7  C7  UNL     1     -34.478  15.152  -3.192  1.00 20.00    -0.001 C 
ENDROOT
BRANCH   7   8
HETATM    8  C8  UNL     1     -34.925  14.442  -4.465  1.00 20.00     0.075 C 
BRANCH   8   9
HETATM    9  S9  UNL     1     -36.722  14.214  -4.460  1.00 20.00    -0.182 SA
HETATM   10  H23 UNL     1     -37.001  15.235  -5.282  1.00 20.00     0.101 HD
ENDBRANCH   8   9
ENDBRANCH   7   8
TORSDOF 2
ENDMDL
MODEL 7
REMARK VINA RESULT:      -3.8     23.970     24.635
REMARK  2 active torsions:
REMARK  status: ('A' for Active; 'I' for Inactive)
REMARK    1  A    between atoms: C7_7  and  C8_8 
REMARK    2  A    between atoms: C8_8  and  S9_9 
ROOT
HETATM    1  C1  UNL     1     -41.198   7.307   0.590  1.00 20.00     0.005 C 
HETATM    2  C2  UNL     1     -42.666   7.011   0.925  1.00 20.00     0.005 C 
HETATM    3  C3  UNL     1     -42.506   7.507  -1.388  1.00 20.00     0.009 C 
HETATM    4  C4  UNL     1     -41.209   5.524  -1.175  1.00 20.00     0.010 C 
HETATM    5  C5  UNL     1     -41.128   7.042  -0.923  1.00 20.00    -0.014 C 
HETATM    6  C6  UNL     1     -43.249   6.572  -0.431  1.00 20.00    -0.009 C 
HETATM    7  C7  UNL     1     -42.663   5.184  -0.785  1.00 20.00    -0.001 C 
ENDROOT
BRANCH   7   8
HETATM    8  C8  UNL     1     -43.417   4.493  -1.916  1.00 20.00     0.075 C 
BRANCH   8   9
HETATM    9  S9  UNL     1     -42.303   3.411  -2.847  1.00 20.00    -0.182 SA
HETATM   10  H23 UNL     1     -41.231   3.594  -2.063  1.00 20.00     0.101 HD
ENDBRANCH   8   9
ENDBRANCH   7   8
TORSDOF 2
ENDMDL
MODEL 8
REMARK VINA RESULT:      -3.6     23.510     24.172
REMARK  2 active torsions:
REMARK  status: ('A' for Active; 'I' for Inactive)
REMARK    1  A    between atoms: C7_7  and  C8_8 
REMARK    2  A    between atoms: C8_8  and  S9_9 
ROOT
HETATM    1  C1  UNL     1     -41.596   4.676  -1.661  1.00 20.00     0.005 C 
HETATM    2  C2  UNL     1     -43.103   4.912  -1.489  1.00 20.00     0.005 C 
HETATM    3  C3  UNL     1     -41.994   5.661   0.469  1.00 20.00     0.009 C 
HETATM    4  C4  UNL     1     -41.134   7.102  -1.217  1.00 20.00     0.010 C 
HETATM    5  C5  UNL     1     -40.974   5.671  -0.667  1.00 20.00    -0.014 C 
HETATM    6  C6  UNL     1     -43.159   6.044  -0.446  1.00 20.00    -0.009 C 
HETATM    7  C7  UNL     1     -42.655   7.346  -1.115  1.00 20.00    -0.001 C 
ENDROOT
BRANCH   7   8
HETATM    8  C8  UNL     1     -42.986   8.594  -0.306  1.00 20.00     0.075 C 
BRANCH   8   9
HETATM    9  S9  UNL     1     -41.469   9.356   0.326  1.00 20.00    -0.182 SA
HETATM   10  H23 UNL     1     -40.645   8.362  -0.033  1.00 20.00     0.101 HD
ENDBRANCH   8   9
ENDBRANCH   7   8
TORSDOF 2
ENDMDL
MODEL 9
REMARK VINA RESULT:      -3.6     17.400     18.289
REMARK  2 active torsions:
REMARK  status: ('A' for Active; 'I' for Inactive)
REMARK    1  A    between atoms: C7_7  and  C8_8 
REMARK    2  A    between atoms: C8_8  and  S9_9 
ROOT
HETATM    1  C1  UNL     1     -34.027  15.072  -5.793  1.00 20.00     0.005 C 
HETATM    2  C2  UNL     1     -35.471  15.481  -5.468  1.00 20.00     0.005 C 
HETATM    3  C3  UNL     1     -34.742  13.924  -3.834  1.00 20.00     0.009 C 
HETATM    4  C4  UNL     1     -33.282  15.772  -3.502  1.00 20.00     0.010 C 
HETATM    5  C5  UNL     1     -33.498  14.569  -4.440  1.00 20.00    -0.014 C 
HETATM    6  C6  UNL     1     -35.579  15.200  -3.958  1.00 20.00    -0.009 C 
HETATM    7  C7  UNL     1     -34.720  16.246  -3.207  1.00 20.00    -0.001 C 
ENDROOT
BRANCH   7   8
HETATM    8  C8  UNL     1     -35.018  16.293  -1.712  1.00 20.00     0.075 C 
BRANCH   8   9
HETATM    9  S9  UNL     1     -34.284  17.774  -0.971  1.00 20.00    -0.182 SA
HETATM   10  H23 UNL     1     -33.011  17.363  -1.051  1.00 20.00     0.101 HD
ENDBRANCH   8   9
ENDBRANCH   7   8
TORSDOF 2
ENDMDL
