MODEL 1
REMARK VINA RESULT:      -4.0      0.000      0.000
REMARK  2 active torsions:
REMARK  status: ('A' for Active; 'I' for Inactive)
REMARK    1  A    between atoms: C3_3  and  C4_4 
REMARK    2  A    between atoms: C3_3  and  S9_9 
ROOT
HETATM    1  C1  UNL     1     -41.557   8.869   0.393  1.00 20.00     0.083 C 
HETATM    2  C3  UNL     1     -41.720   7.411   0.464  1.00 20.00     0.261 C 
HETATM    3  N5  UNL     1     -41.429  10.021   0.341  1.00 20.00    -0.196 NA
ENDROOT
BRANCH   2   4
HETATM    4  C4  UNL     1     -41.394   6.758  -0.869  1.00 20.00     0.412 C 
HETATM    5  F6  UNL     1     -42.515   6.350  -1.505  1.00 20.00    -0.169 F 
HETATM    6  F7  UNL     1     -40.771   7.632  -1.693  1.00 20.00    -0.169 F 
HETATM    7  F8  UNL     1     -40.585   5.684  -0.728  1.00 20.00    -0.169 F 
ENDBRANCH   2   4
BRANCH   2   8
HETATM    8  S9  UNL     1     -43.417   6.970   0.973  1.00 20.00    -0.145 SA
HETATM    9  C2  UNL     1     -43.086   5.281   1.522  1.00 20.00     0.091 C 
ENDBRANCH   2   8
TORSDOF 2
ENDMDL
MODEL 2
REMARK VINA RESULT:      -3.9     10.298     11.453
REMARK  2 active torsions:
REMARK  status: ('A' for Active; 'I' for Inactive)
REMARK    1  A    between atoms: C3_3  and  C4_4 
REMARK    2  A    between atoms: C3_3  and  S9_9 
ROOT
HETATM    1  C1  UNL     1     -36.867  14.376  -4.566  1.00 20.00     0.083 C 
HETATM    2  C3  UNL     1     -35.570  15.014  -4.829  1.00 20.00     0.261 C 
HETATM    3  N5  UNL     1     -37.893  13.875  -4.362  1.00 20.00    -0.196 NA
ENDROOT
BRANCH   2   4
HETATM    4  C4  UNL     1     -34.481  14.423  -3.949  1.00 20.00     0.412 C 
HETATM    5  F6  UNL     1     -34.725  13.122  -3.671  1.00 20.00    -0.169 F 
HETATM    6  F7  UNL     1     -33.280  14.474  -4.571  1.00 20.00    -0.169 F 
HETATM    7  F8  UNL     1     -34.359  15.081  -2.775  1.00 20.00    -0.169 F 
ENDBRANCH   2   4
BRANCH   2   8
HETATM    8  S9  UNL     1     -35.669  16.819  -4.569  1.00 20.00    -0.145 SA
HETATM    9  C2  UNL     1     -34.527  17.325  -5.875  1.00 20.00     0.091 C 
ENDBRANCH   2   8
TORSDOF 2
ENDMDL
MODEL 3
REMARK VINA RESULT:      -3.9     10.302     11.491
REMARK  2 active torsions:
REMARK  status: ('A' for Active; 'I' for Inactive)
REMARK    1  A    between atoms: C3_3  and  C4_4 
REMARK    2  A    between atoms: C3_3  and  S9_9 
ROOT
HETATM    1  C1  UNL     1     -36.856  14.387  -4.560  1.00 20.00     0.083 C 
HETATM    2  C3  UNL     1     -35.568  15.049  -4.808  1.00 20.00     0.261 C 
HETATM    3  N5  UNL     1     -37.875  13.867  -4.367  1.00 20.00    -0.196 NA
ENDROOT
BRANCH   2   4
HETATM    4  C4  UNL     1     -34.467  14.440  -3.956  1.00 20.00     0.412 C 
HETATM    5  F6  UNL     1     -34.347  15.084  -2.772  1.00 20.00    -0.169 F 
HETATM    6  F7  UNL     1     -34.737  13.145  -3.674  1.00 20.00    -0.169 F 
HETATM    7  F8  UNL     1     -33.264  14.481  -4.570  1.00 20.00    -0.169 F 
ENDBRANCH   2   4
BRANCH   2   8
HETATM    8  S9  UNL     1     -35.686  16.842  -4.483  1.00 20.00    -0.145 SA
HETATM    9  C2  UNL     1     -34.486  17.401  -5.713  1.00 20.00     0.091 C 
ENDBRANCH   2   8
TORSDOF 2
ENDMDL
MODEL 4
REMARK VINA RESULT:      -3.9      8.869      9.421
REMARK  2 active torsions:
REMARK  status: ('A' for Active; 'I' for Inactive)
REMARK    1  A    between atoms: C3_3  and  C4_4 
REMARK    2  A    between atoms: C3_3  and  S9_9 
ROOT
HETATM    1  C1  UNL     1     -33.623   6.873   5.209  1.00 20.00     0.083 C 
HETATM    2  C3  UNL     1     -34.229   6.250   4.024  1.00 20.00     0.261 C 
HETATM    3  N5  UNL     1     -33.142   7.369   6.141  1.00 20.00    -0.196 NA
ENDROOT
BRANCH   2   4
HETATM    4  C4  UNL     1     -35.071   5.046   4.410  1.00 20.00     0.412 C 
HETATM    5  F6  UNL     1     -35.172   4.926   5.754  1.00 20.00    -0.169 F 
HETATM    6  F7  UNL     1     -36.330   5.165   3.930  1.00 20.00    -0.169 F 
HETATM    7  F8  UNL     1     -34.560   3.890   3.931  1.00 20.00    -0.169 F 
ENDBRANCH   2   4
BRANCH   2   8
HETATM    8  S9  UNL     1     -32.947   5.754   2.823  1.00 20.00    -0.145 SA
HETATM    9  C2  UNL     1     -32.526   7.400   2.209  1.00 20.00     0.091 C 
ENDBRANCH   2   8
TORSDOF 2
ENDMDL
MODEL 5
REMARK VINA RESULT:      -3.9     23.191     23.954
REMARK  2 active torsions:
REMARK  status: ('A' for Active; 'I' for Inactive)
REMARK    1  A    between atoms: C3_3  and  C4_4 
REMARK    2  A    between atoms: C3_3  and  S9_9 
ROOT
HETATM    1  C1  UNL     1     -22.399  17.547   8.522  1.00 20.00     0.083 C 
HETATM    2  C3  UNL     1     -22.972  18.414   9.561  1.00 20.00     0.261 C 
HETATM    3  N5  UNL     1     -21.947  16.865   7.699  1.00 20.00    -0.196 NA
ENDROOT
BRANCH   2   4
HETATM    4  C4  UNL     1     -22.823  17.790  10.938  1.00 20.00     0.412 C 
HETATM    5  F6  UNL     1     -23.206  16.493  10.935  1.00 20.00    -0.169 F 
HETATM    6  F7  UNL     1     -21.532  17.818  11.342  1.00 20.00    -0.169 F 
HETATM    7  F8  UNL     1     -23.556  18.434  11.873  1.00 20.00    -0.169 F 
ENDBRANCH   2   4
BRANCH   2   8
HETATM    8  S9  UNL     1     -24.732  18.759   9.221  1.00 20.00    -0.145 SA
HETATM    9  C2  UNL     1     -24.570  19.210   7.479  1.00 20.00     0.091 C 
ENDBRANCH   2   8
TORSDOF 2
ENDMDL
MODEL 6
REMARK VINA RESULT:      -3.9      9.337      9.764
REMARK  2 active torsions:
REMARK  status: ('A' for Active; 'I' for Inactive)
REMARK    1  A    between atoms: C3_3  and  C4_4 
REMARK    2  A    between atoms: C3_3  and  S9_9 
ROOT
HETATM    1  C1  UNL     1     -34.125   5.023   3.678  1.00 20.00     0.083 C 
HETATM    2  C3  UNL     1     -33.899   6.472   3.762  1.00 20.00     0.261 C 
HETATM    3  N5  UNL     1     -34.309   3.879   3.615  1.00 20.00    -0.196 NA
ENDROOT
BRANCH   2   4
HETATM    4  C4  UNL     1     -32.704   6.889   2.920  1.00 20.00     0.412 C 
HETATM    5  F6  UNL     1     -31.729   7.432   3.684  1.00 20.00    -0.169 F 
HETATM    6  F7  UNL     1     -32.162   5.819   2.292  1.00 20.00    -0.169 F 
HETATM    7  F8  UNL     1     -33.037   7.792   1.971  1.00 20.00    -0.169 F 
ENDBRANCH   2   4
BRANCH   2   8
HETATM    8  S9  UNL     1     -33.651   6.993   5.494  1.00 20.00    -0.145 SA
HETATM    9  C2  UNL     1     -34.710   5.760   6.282  1.00 20.00     0.091 C 
ENDBRANCH   2   8
TORSDOF 2
ENDMDL
MODEL 7
REMARK VINA RESULT:      -3.8      9.048      9.566
REMARK  2 active torsions:
REMARK  status: ('A' for Active; 'I' for Inactive)
REMARK    1  A    between atoms: C3_3  and  C4_4 
REMARK    2  A    between atoms: C3_3  and  S9_9 
ROOT
HETATM    1  C1  UNL     1     -33.935   6.501   4.911  1.00 20.00     0.083 C 
HETATM    2  C3  UNL     1     -33.699   6.469   3.461  1.00 20.00     0.261 C 
HETATM    3  N5  UNL     1     -34.122   6.531   6.056  1.00 20.00    -0.196 NA
ENDROOT
BRANCH   2   4
HETATM    4  C4  UNL     1     -33.683   5.041   2.941  1.00 20.00     0.412 C 
HETATM    5  F6  UNL     1     -34.263   4.954   1.722  1.00 20.00    -0.169 F 
HETATM    6  F7  UNL     1     -32.413   4.592   2.805  1.00 20.00    -0.169 F 
HETATM    7  F8  UNL     1     -34.329   4.188   3.767  1.00 20.00    -0.169 F 
ENDBRANCH   2   4
BRANCH   2   8
HETATM    8  S9  UNL     1     -32.130   7.302   3.039  1.00 20.00    -0.145 SA
HETATM    9  C2  UNL     1     -32.600   7.912   1.405  1.00 20.00     0.091 C 
ENDBRANCH   2   8
TORSDOF 2
ENDMDL
MODEL 8
REMARK VINA RESULT:      -3.7      2.216      2.851
REMARK  2 active torsions:
REMARK  status: ('A' for Active; 'I' for Inactive)
REMARK    1  A    between atoms: C3_3  and  C4_4 
REMARK    2  A    between atoms: C3_3  and  S9_9 
ROOT
HETATM    1  C1  UNL     1     -43.065   5.640   0.742  1.00 20.00     0.083 C 
HETATM    2  C3  UNL     1     -42.635   5.945  -0.630  1.00 20.00     0.261 C 
HETATM    3  N5  UNL     1     -43.409   5.399   1.823  1.00 20.00    -0.196 NA
ENDROOT
BRANCH   2   4
HETATM    4  C4  UNL     1     -41.123   6.067  -0.715  1.00 20.00     0.412 C 
HETATM    5  F6  UNL     1     -40.755   7.057  -1.560  1.00 20.00    -0.169 F 
HETATM    6  F7  UNL     1     -40.595   6.366   0.495  1.00 20.00    -0.169 F 
HETATM    7  F8  UNL     1     -40.541   4.924  -1.142  1.00 20.00    -0.169 F 
ENDBRANCH   2   4
BRANCH   2   8
HETATM    8  S9  UNL     1     -43.417   7.482  -1.230  1.00 20.00    -0.145 SA
HETATM    9  C2  UNL     1     -43.075   8.518   0.210  1.00 20.00     0.091 C 
ENDBRANCH   2   8
TORSDOF 2
ENDMDL
MODEL 9
REMARK VINA RESULT:      -3.7     10.960     11.596
REMARK  2 active torsions:
REMARK  status: ('A' for Active; 'I' for Inactive)
REMARK    1  A    between atoms: C3_3  and  C4_4 
REMARK    2  A    between atoms: C3_3  and  S9_9 
ROOT
HETATM    1  C1  UNL     1     -35.582  13.940  -4.467  1.00 20.00     0.083 C 
HETATM    2  C3  UNL     1     -35.200  15.359  -4.421  1.00 20.00     0.261 C 
HETATM    3  N5  UNL     1     -35.887  12.822  -4.506  1.00 20.00    -0.196 NA
ENDROOT
BRANCH   2   4
HETATM    4  C4  UNL     1     -33.904  15.551  -3.651  1.00 20.00     0.412 C 
HETATM    5  F6  UNL     1     -33.018  14.567  -3.925  1.00 20.00    -0.169 F 
HETATM    6  F7  UNL     1     -33.312  16.720  -3.991  1.00 20.00    -0.169 F 
HETATM    7  F8  UNL     1     -34.101  15.569  -2.315  1.00 20.00    -0.169 F 
ENDBRANCH   2   4
BRANCH   2   8
HETATM    8  S9  UNL     1     -36.525  16.365  -3.670  1.00 20.00    -0.145 SA
HETATM    9  C2  UNL     1     -37.801  16.071  -4.914  1.00 20.00     0.091 C 
ENDBRANCH   2   8
TORSDOF 2
ENDMDL
