MODEL 1
REMARK VINA RESULT:      -4.2      0.000      0.000
REMARK  4 active torsions:
REMARK  status: ('A' for Active; 'I' for Inactive)
REMARK    1  A    between atoms: C6_6  and  C7_7 
REMARK    2  A    between atoms: C6_6  and  O10_10 
REMARK    3  A    between atoms: C7_7  and  C8_8 
REMARK    4  A    between atoms: C7_7  and  O9_9 
ROOT
HETATM    1  C7  UNL     1     -24.081  17.114  10.020  1.00 20.00     0.154 C 
ENDROOT
BRANCH   1   2
HETATM    2  C6  UNL     1     -22.640  17.436   9.566  1.00 20.00     0.146 C 
HETATM    3  C1  UNL     1     -22.491  18.861   9.040  1.00 20.00     0.042 C 
BRANCH   2   4
HETATM    4  O10 UNL     1     -22.214  16.548   8.538  1.00 20.00    -0.388 OA
HETATM    5  C5  UNL     1     -21.484  17.231   7.530  1.00 20.00     0.202 C 
ENDBRANCH   2   4
ENDBRANCH   1   2
BRANCH   1   6
HETATM    6  C8  UNL     1     -24.377  17.216  11.552  1.00 20.00    -0.023 C 
HETATM    7  C2  UNL     1     -24.844  15.831  12.055  1.00 20.00     0.017 C 
HETATM    8  C3  UNL     1     -23.106  17.600  12.331  1.00 20.00     0.017 C 
HETATM    9  C4  UNL     1     -25.490  18.227  11.887  1.00 20.00     0.017 C 
ENDBRANCH   1   6
BRANCH   1  10
HETATM   10  O9  UNL     1     -24.997  17.961   9.317  1.00 20.00    -0.392 OA
HETATM   11  H28 UNL     1     -25.664  18.233   9.964  1.00 20.00     0.210 HD
ENDBRANCH   1  10
TORSDOF 4
ENDMDL
MODEL 2
REMARK VINA RESULT:      -3.7     15.488     16.407
REMARK  4 active torsions:
REMARK  status: ('A' for Active; 'I' for Inactive)
REMARK    1  A    between atoms: C6_6  and  C7_7 
REMARK    2  A    between atoms: C6_6  and  O10_10 
REMARK    3  A    between atoms: C7_7  and  C8_8 
REMARK    4  A    between atoms: C7_7  and  O9_9 
ROOT
HETATM    1  C7  UNL     1     -33.764   6.729   4.258  1.00 20.00     0.154 C 
ENDROOT
BRANCH   1   2
HETATM    2  C6  UNL     1     -32.686   6.662   3.154  1.00 20.00     0.146 C 
HETATM    3  C1  UNL     1     -31.524   7.621   3.403  1.00 20.00     0.042 C 
BRANCH   2   4
HETATM    4  O10 UNL     1     -33.236   6.970   1.878  1.00 20.00    -0.388 OA
HETATM    5  C5  UNL     1     -32.579   8.080   1.283  1.00 20.00     0.202 C 
ENDBRANCH   2   4
ENDBRANCH   1   2
BRANCH   1   6
HETATM    6  C8  UNL     1     -34.620   5.441   4.487  1.00 20.00    -0.023 C 
HETATM    7  C2  UNL     1     -34.746   5.199   6.009  1.00 20.00     0.017 C 
HETATM    8  C3  UNL     1     -36.038   5.616   3.915  1.00 20.00     0.017 C 
HETATM    9  C4  UNL     1     -33.989   4.178   3.870  1.00 20.00     0.017 C 
ENDBRANCH   1   6
BRANCH   1  10
HETATM   10  O9  UNL     1     -33.148   7.099   5.496  1.00 20.00    -0.392 OA
HETATM   11  H28 UNL     1     -33.585   6.575   6.183  1.00 20.00     0.210 HD
ENDBRANCH   1  10
TORSDOF 4
ENDMDL
MODEL 3
REMARK VINA RESULT:      -3.7     18.605     19.468
REMARK  4 active torsions:
REMARK  status: ('A' for Active; 'I' for Inactive)
REMARK    1  A    between atoms: C6_6  and  C7_7 
REMARK    2  A    between atoms: C6_6  and  O10_10 
REMARK    3  A    between atoms: C7_7  and  C8_8 
REMARK    4  A    between atoms: C7_7  and  O9_9 
ROOT
HETATM    1  C7  UNL     1     -34.773  15.817  -5.347  1.00 20.00     0.154 C 
ENDROOT
BRANCH   1   2
HETATM    2  C6  UNL     1     -35.076  15.025  -6.638  1.00 20.00     0.146 C 
HETATM    3  C1  UNL     1     -34.222  15.475  -7.821  1.00 20.00     0.042 C 
BRANCH   2   4
HETATM    4  O10 UNL     1     -36.442  15.158  -7.015  1.00 20.00    -0.388 OA
HETATM    5  C5  UNL     1     -37.095  16.165  -6.256  1.00 20.00     0.202 C 
ENDBRANCH   2   4
ENDBRANCH   1   2
BRANCH   1   6
HETATM    6  C8  UNL     1     -34.281  14.991  -4.113  1.00 20.00    -0.023 C 
HETATM    7  C2  UNL     1     -35.177  13.739  -3.971  1.00 20.00     0.017 C 
HETATM    8  C3  UNL     1     -32.831  14.517  -4.314  1.00 20.00     0.017 C 
HETATM    9  C4  UNL     1     -34.368  15.774  -2.789  1.00 20.00     0.017 C 
ENDBRANCH   1   6
BRANCH   1  10
HETATM   10  O9  UNL     1     -33.809  16.836  -5.634  1.00 20.00    -0.392 OA
HETATM   11  H28 UNL     1     -33.212  16.464  -6.299  1.00 20.00     0.210 HD
ENDBRANCH   1  10
TORSDOF 4
ENDMDL
MODEL 4
REMARK VINA RESULT:      -3.7     18.609     19.496
REMARK  4 active torsions:
REMARK  status: ('A' for Active; 'I' for Inactive)
REMARK    1  A    between atoms: C6_6  and  C7_7 
REMARK    2  A    between atoms: C6_6  and  O10_10 
REMARK    3  A    between atoms: C7_7  and  C8_8 
REMARK    4  A    between atoms: C7_7  and  O9_9 
ROOT
HETATM    1  C7  UNL     1     -34.812  15.794  -5.318  1.00 20.00     0.154 C 
ENDROOT
BRANCH   1   2
HETATM    2  C6  UNL     1     -35.144  15.040  -6.625  1.00 20.00     0.146 C 
HETATM    3  C1  UNL     1     -34.236  15.439  -7.785  1.00 20.00     0.042 C 
BRANCH   2   4
HETATM    4  O10 UNL     1     -36.489  15.275  -7.027  1.00 20.00    -0.388 OA
HETATM    5  C5  UNL     1     -37.156  16.146  -6.125  1.00 20.00     0.202 C 
ENDBRANCH   2   4
ENDBRANCH   1   2
BRANCH   1   6
HETATM    6  C8  UNL     1     -34.338  14.929  -4.105  1.00 20.00    -0.023 C 
HETATM    7  C2  UNL     1     -32.850  14.563  -4.315  1.00 20.00     0.017 C 
HETATM    8  C3  UNL     1     -34.451  15.720  -2.790  1.00 20.00     0.017 C 
HETATM    9  C4  UNL     1     -35.121  13.610  -3.960  1.00 20.00     0.017 C 
ENDBRANCH   1   6
BRANCH   1  10
HETATM   10  O9  UNL     1     -33.820  16.791  -5.589  1.00 20.00    -0.392 OA
HETATM   11  H28 UNL     1     -33.158  16.711  -4.886  1.00 20.00     0.210 HD
ENDBRANCH   1  10
TORSDOF 4
ENDMDL
MODEL 5
REMARK VINA RESULT:      -3.7     18.292     19.114
REMARK  4 active torsions:
REMARK  status: ('A' for Active; 'I' for Inactive)
REMARK    1  A    between atoms: C6_6  and  C7_7 
REMARK    2  A    between atoms: C6_6  and  O10_10 
REMARK    3  A    between atoms: C7_7  and  C8_8 
REMARK    4  A    between atoms: C7_7  and  O9_9 
ROOT
HETATM    1  C7  UNL     1     -34.705  14.774  -4.592  1.00 20.00     0.154 C 
ENDROOT
BRANCH   1   2
HETATM    2  C6  UNL     1     -36.067  14.787  -5.320  1.00 20.00     0.146 C 
HETATM    3  C1  UNL     1     -37.184  14.155  -4.494  1.00 20.00     0.042 C 
BRANCH   2   4
HETATM    4  O10 UNL     1     -35.994  14.089  -6.559  1.00 20.00    -0.388 OA
HETATM    5  C5  UNL     1     -35.652  14.960  -7.626  1.00 20.00     0.202 C 
ENDBRANCH   2   4
ENDBRANCH   1   2
BRANCH   1   6
HETATM    6  C8  UNL     1     -34.406  15.973  -3.633  1.00 20.00    -0.023 C 
HETATM    7  C2  UNL     1     -32.878  16.059  -3.415  1.00 20.00     0.017 C 
HETATM    8  C3  UNL     1     -34.872  17.302  -4.255  1.00 20.00     0.017 C 
HETATM    9  C4  UNL     1     -35.061  15.817  -2.247  1.00 20.00     0.017 C 
ENDBRANCH   1   6
BRANCH   1  10
HETATM   10  O9  UNL     1     -34.575  13.553  -3.856  1.00 20.00    -0.392 OA
HETATM   11  H28 UNL     1     -33.976  12.991  -4.369  1.00 20.00     0.210 HD
ENDBRANCH   1  10
TORSDOF 4
ENDMDL
MODEL 6
REMARK VINA RESULT:      -3.6     18.080     18.957
REMARK  4 active torsions:
REMARK  status: ('A' for Active; 'I' for Inactive)
REMARK    1  A    between atoms: C6_6  and  C7_7 
REMARK    2  A    between atoms: C6_6  and  O10_10 
REMARK    3  A    between atoms: C7_7  and  C8_8 
REMARK    4  A    between atoms: C7_7  and  O9_9 
ROOT
HETATM    1  C7  UNL     1     -35.036  16.014  -4.962  1.00 20.00     0.154 C 
ENDROOT
BRANCH   1   2
HETATM    2  C6  UNL     1     -34.766  14.857  -5.949  1.00 20.00     0.146 C 
HETATM    3  C1  UNL     1     -34.430  15.347  -7.356  1.00 20.00     0.042 C 
BRANCH   2   4
HETATM    4  O10 UNL     1     -35.893  13.993  -6.049  1.00 20.00    -0.388 OA
HETATM    5  C5  UNL     1     -36.402  13.652  -4.768  1.00 20.00     0.202 C 
ENDBRANCH   2   4
ENDBRANCH   1   2
BRANCH   1   6
HETATM    6  C8  UNL     1     -34.041  16.167  -3.766  1.00 20.00    -0.023 C 
HETATM    7  C2  UNL     1     -32.906  15.131  -3.936  1.00 20.00     0.017 C 
HETATM    8  C3  UNL     1     -33.406  17.569  -3.756  1.00 20.00     0.017 C 
HETATM    9  C4  UNL     1     -34.698  15.910  -2.396  1.00 20.00     0.017 C 
ENDBRANCH   1   6
BRANCH   1  10
HETATM   10  O9  UNL     1     -35.081  17.249  -5.685  1.00 20.00    -0.392 OA
HETATM   11  H28 UNL     1     -34.723  17.061  -6.565  1.00 20.00     0.210 HD
ENDBRANCH   1  10
TORSDOF 4
ENDMDL
MODEL 7
REMARK VINA RESULT:      -3.5     17.073     17.898
REMARK  4 active torsions:
REMARK  status: ('A' for Active; 'I' for Inactive)
REMARK    1  A    between atoms: C6_6  and  C7_7 
REMARK    2  A    between atoms: C6_6  and  O10_10 
REMARK    3  A    between atoms: C7_7  and  C8_8 
REMARK    4  A    between atoms: C7_7  and  O9_9 
ROOT
HETATM    1  C7  UNL     1     -34.616  16.053  -4.038  1.00 20.00     0.154 C 
ENDROOT
BRANCH   1   2
HETATM    2  C6  UNL     1     -34.207  14.573  -3.876  1.00 20.00     0.146 C 
HETATM    3  C1  UNL     1     -32.836  14.270  -4.474  1.00 20.00     0.042 C 
BRANCH   2   4
HETATM    4  O10 UNL     1     -35.151  13.707  -4.497  1.00 20.00    -0.388 OA
HETATM    5  C5  UNL     1     -36.473  14.213  -4.383  1.00 20.00     0.202 C 
ENDBRANCH   2   4
ENDBRANCH   1   2
BRANCH   1   6
HETATM    6  C8  UNL     1     -34.459  16.970  -2.781  1.00 20.00    -0.023 C 
HETATM    7  C2  UNL     1     -35.151  18.322  -3.070  1.00 20.00     0.017 C 
HETATM    8  C3  UNL     1     -35.143  16.340  -1.554  1.00 20.00     0.017 C 
HETATM    9  C4  UNL     1     -32.989  17.269  -2.431  1.00 20.00     0.017 C 
ENDBRANCH   1   6
BRANCH   1  10
HETATM   10  O9  UNL     1     -33.881  16.629  -5.123  1.00 20.00    -0.392 OA
HETATM   11  H28 UNL     1     -34.155  16.151  -5.920  1.00 20.00     0.210 HD
ENDBRANCH   1  10
TORSDOF 4
ENDMDL
MODEL 8
REMARK VINA RESULT:      -3.5     17.674     18.450
REMARK  4 active torsions:
REMARK  status: ('A' for Active; 'I' for Inactive)
REMARK    1  A    between atoms: C6_6  and  C7_7 
REMARK    2  A    between atoms: C6_6  and  O10_10 
REMARK    3  A    between atoms: C7_7  and  C8_8 
REMARK    4  A    between atoms: C7_7  and  O9_9 
ROOT
HETATM    1  C7  UNL     1     -35.116  15.124  -3.608  1.00 20.00     0.154 C 
ENDROOT
BRANCH   1   2
HETATM    2  C6  UNL     1     -35.117  15.094  -5.153  1.00 20.00     0.146 C 
HETATM    3  C1  UNL     1     -36.230  14.221  -5.727  1.00 20.00     0.042 C 
BRANCH   2   4
HETATM    4  O10 UNL     1     -33.879  14.607  -5.658  1.00 20.00    -0.388 OA
HETATM    5  C5  UNL     1     -33.668  15.017  -7.001  1.00 20.00     0.202 C 
ENDBRANCH   2   4
ENDBRANCH   1   2
BRANCH   1   6
HETATM    6  C8  UNL     1     -34.565  16.420  -2.928  1.00 20.00    -0.023 C 
HETATM    7  C2  UNL     1     -35.077  17.646  -3.718  1.00 20.00     0.017 C 
HETATM    8  C3  UNL     1     -35.077  16.539  -1.481  1.00 20.00     0.017 C 
HETATM    9  C4  UNL     1     -33.026  16.488  -2.917  1.00 20.00     0.017 C 
ENDBRANCH   1   6
BRANCH   1  10
HETATM   10  O9  UNL     1     -36.445  14.883  -3.132  1.00 20.00    -0.392 OA
HETATM   11  H28 UNL     1     -36.350  14.375  -2.313  1.00 20.00     0.210 HD
ENDBRANCH   1  10
TORSDOF 4
ENDMDL
MODEL 9
REMARK VINA RESULT:      -3.4     18.184     19.323
REMARK  4 active torsions:
REMARK  status: ('A' for Active; 'I' for Inactive)
REMARK    1  A    between atoms: C6_6  and  C7_7 
REMARK    2  A    between atoms: C6_6  and  O10_10 
REMARK    3  A    between atoms: C7_7  and  C8_8 
REMARK    4  A    between atoms: C7_7  and  O9_9 
ROOT
HETATM    1  C7  UNL     1     -34.323  15.059  -5.420  1.00 20.00     0.154 C 
ENDROOT
BRANCH   1   2
HETATM    2  C6  UNL     1     -34.317  15.901  -4.125  1.00 20.00     0.146 C 
HETATM    3  C1  UNL     1     -32.955  15.919  -3.437  1.00 20.00     0.042 C 
BRANCH   2   4
HETATM    4  O10 UNL     1     -35.269  15.409  -3.187  1.00 20.00    -0.388 OA
HETATM    5  C5  UNL     1     -35.202  16.117  -1.958  1.00 20.00     0.202 C 
ENDBRANCH   2   4
ENDBRANCH   1   2
BRANCH   1   6
HETATM    6  C8  UNL     1     -34.727  15.796  -6.738  1.00 20.00    -0.023 C 
HETATM    7  C2  UNL     1     -34.491  17.312  -6.546  1.00 20.00     0.017 C 
HETATM    8  C3  UNL     1     -33.856  15.326  -7.918  1.00 20.00     0.017 C 
HETATM    9  C4  UNL     1     -36.210  15.604  -7.108  1.00 20.00     0.017 C 
ENDBRANCH   1   6
BRANCH   1  10
HETATM   10  O9  UNL     1     -33.033  14.465  -5.601  1.00 20.00    -0.392 OA
HETATM   11  H28 UNL     1     -32.480  15.142  -6.017  1.00 20.00     0.210 HD
ENDBRANCH   1  10
TORSDOF 4
ENDMDL
