MODEL 1
REMARK VINA RESULT:      -3.9      0.000      0.000
REMARK  2 active torsions:
REMARK  status: ('A' for Active; 'I' for Inactive)
REMARK    1  A    between atoms: C4_4  and  C7_7 
REMARK    2  A    between atoms: C7_7  and  O8_8 
ROOT
HETATM    1  C1  UNL     1     -35.092  15.934  -2.142  1.00 20.00     0.008 C 
HETATM    2  C2  UNL     1     -34.257  17.110  -1.629  1.00 20.00     0.016 C 
HETATM    3  C3  UNL     1     -33.057  15.911  -3.385  1.00 20.00     0.022 C 
HETATM    4  C4  UNL     1     -34.554  15.647  -3.541  1.00 20.00     0.011 C 
HETATM    5  C5  UNL     1     -32.997  17.146  -2.494  1.00 20.00     0.058 C 
HETATM    6 BR9  UNL     1     -32.985  18.763  -3.597  1.00 20.00    -0.091 Br
ENDROOT
BRANCH   4   7
HETATM    7  C7  UNL     1     -34.867  14.241  -4.024  1.00 20.00     0.171 C 
BRANCH   7   8
HETATM    8  O8  UNL     1     -34.593  14.162  -5.413  1.00 20.00    -0.396 OA
HETATM    9  C6  UNL     1     -35.708  14.581  -6.191  1.00 20.00     0.201 C 
ENDBRANCH   7   8
ENDBRANCH   4   7
TORSDOF 2
ENDMDL
MODEL 2
REMARK VINA RESULT:      -3.8      3.192      4.799
REMARK  2 active torsions:
REMARK  status: ('A' for Active; 'I' for Inactive)
REMARK    1  A    between atoms: C4_4  and  C7_7 
REMARK    2  A    between atoms: C7_7  and  O8_8 
ROOT
HETATM    1  C1  UNL     1     -34.054  17.224  -1.286  1.00 20.00     0.008 C 
HETATM    2  C2  UNL     1     -34.830  16.358  -2.280  1.00 20.00     0.016 C 
HETATM    3  C3  UNL     1     -33.101  17.640  -3.432  1.00 20.00     0.022 C 
HETATM    4  C4  UNL     1     -32.712  17.497  -1.961  1.00 20.00     0.011 C 
HETATM    5  C5  UNL     1     -34.153  16.558  -3.637  1.00 20.00     0.058 C 
HETATM    6 BR9  UNL     1     -33.295  14.895  -4.211  1.00 20.00    -0.091 Br
ENDROOT
BRANCH   4   7
HETATM    7  C7  UNL     1     -32.003  18.721  -1.407  1.00 20.00     0.171 C 
BRANCH   7   8
HETATM    8  O8  UNL     1     -30.790  18.312  -0.799  1.00 20.00    -0.396 OA
HETATM    9  C6  UNL     1     -30.885  18.324   0.621  1.00 20.00     0.201 C 
ENDBRANCH   7   8
ENDBRANCH   4   7
TORSDOF 2
ENDMDL
MODEL 3
REMARK VINA RESULT:      -3.8      2.163      2.660
REMARK  2 active torsions:
REMARK  status: ('A' for Active; 'I' for Inactive)
REMARK    1  A    between atoms: C4_4  and  C7_7 
REMARK    2  A    between atoms: C7_7  and  O8_8 
ROOT
HETATM    1  C1  UNL     1     -34.148  14.522  -4.186  1.00 20.00     0.008 C 
HETATM    2  C2  UNL     1     -33.377  15.622  -3.451  1.00 20.00     0.016 C 
HETATM    3  C3  UNL     1     -35.624  16.388  -4.022  1.00 20.00     0.022 C 
HETATM    4  C4  UNL     1     -35.621  14.861  -3.973  1.00 20.00     0.011 C 
HETATM    5  C5  UNL     1     -34.360  16.779  -3.266  1.00 20.00     0.058 C 
HETATM    6 BR9  UNL     1     -34.767  17.019  -1.367  1.00 20.00    -0.091 Br
ENDROOT
BRANCH   4   7
HETATM    7  C7  UNL     1     -36.535  14.227  -5.008  1.00 20.00     0.171 C 
BRANCH   7   8
HETATM    8  O8  UNL     1     -37.693  13.733  -4.355  1.00 20.00    -0.396 OA
HETATM    9  C6  UNL     1     -38.715  14.720  -4.282  1.00 20.00     0.201 C 
ENDBRANCH   7   8
ENDBRANCH   4   7
TORSDOF 2
ENDMDL
MODEL 4
REMARK VINA RESULT:      -3.8      1.493      1.954
REMARK  2 active torsions:
REMARK  status: ('A' for Active; 'I' for Inactive)
REMARK    1  A    between atoms: C4_4  and  C7_7 
REMARK    2  A    between atoms: C7_7  and  O8_8 
ROOT
HETATM    1  C1  UNL     1     -33.312  15.749  -3.412  1.00 20.00     0.008 C 
HETATM    2  C2  UNL     1     -33.311  17.068  -2.636  1.00 20.00     0.016 C 
HETATM    3  C3  UNL     1     -35.598  16.344  -3.087  1.00 20.00     0.022 C 
HETATM    4  C4  UNL     1     -34.677  15.126  -3.132  1.00 20.00     0.011 C 
HETATM    5  C5  UNL     1     -34.777  17.394  -2.350  1.00 20.00     0.058 C 
HETATM    6 BR9  UNL     1     -35.127  17.284  -0.427  1.00 20.00    -0.091 Br
ENDROOT
BRANCH   4   7
HETATM    7  C7  UNL     1     -35.091  14.100  -4.173  1.00 20.00     0.171 C 
BRANCH   7   8
HETATM    8  O8  UNL     1     -34.427  14.393  -5.392  1.00 20.00    -0.396 OA
HETATM    9  C6  UNL     1     -35.347  14.748  -6.418  1.00 20.00     0.201 C 
ENDBRANCH   7   8
ENDBRANCH   4   7
TORSDOF 2
ENDMDL
MODEL 5
REMARK VINA RESULT:      -3.8     12.661     13.612
REMARK  2 active torsions:
REMARK  status: ('A' for Active; 'I' for Inactive)
REMARK    1  A    between atoms: C4_4  and  C7_7 
REMARK    2  A    between atoms: C7_7  and  O8_8 
ROOT
HETATM    1  C1  UNL     1     -43.297   4.997   0.065  1.00 20.00     0.008 C 
HETATM    2  C2  UNL     1     -42.537   6.012   0.923  1.00 20.00     0.016 C 
HETATM    3  C3  UNL     1     -41.266   5.475  -1.091  1.00 20.00     0.022 C 
HETATM    4  C4  UNL     1     -42.743   5.178  -1.346  1.00 20.00     0.011 C 
HETATM    5  C5  UNL     1     -41.283   6.384   0.132  1.00 20.00     0.058 C 
HETATM    6 BR9  UNL     1     -41.376   8.256  -0.433  1.00 20.00    -0.091 Br
ENDROOT
BRANCH   4   7
HETATM    7  C7  UNL     1     -42.966   3.967  -2.235  1.00 20.00     0.171 C 
BRANCH   7   8
HETATM    8  O8  UNL     1     -41.711   3.509  -2.708  1.00 20.00    -0.396 OA
HETATM    9  C6  UNL     1     -41.857   2.623  -3.811  1.00 20.00     0.201 C 
ENDBRANCH   7   8
ENDBRANCH   4   7
TORSDOF 2
ENDMDL
MODEL 6
REMARK VINA RESULT:      -3.7     16.985     17.643
REMARK  2 active torsions:
REMARK  status: ('A' for Active; 'I' for Inactive)
REMARK    1  A    between atoms: C4_4  and  C7_7 
REMARK    2  A    between atoms: C7_7  and  O8_8 
ROOT
HETATM    1  C1  UNL     1     -24.808  18.557   9.779  1.00 20.00     0.008 C 
HETATM    2  C2  UNL     1     -23.635  19.109   8.965  1.00 20.00     0.016 C 
HETATM    3  C3  UNL     1     -22.824  17.682  10.772  1.00 20.00     0.022 C 
HETATM    4  C4  UNL     1     -24.267  17.295  10.448  1.00 20.00     0.011 C 
HETATM    5  C5  UNL     1     -22.375  18.470   9.548  1.00 20.00     0.058 C 
HETATM    6 BR9  UNL     1     -21.566  17.261   8.238  1.00 20.00    -0.091 Br
ENDROOT
BRANCH   4   7
HETATM    7  C7  UNL     1     -25.065  16.879  11.671  1.00 20.00     0.171 C 
BRANCH   7   8
HETATM    8  O8  UNL     1     -25.835  17.985  12.113  1.00 20.00    -0.396 OA
HETATM    9  C6  UNL     1     -27.194  17.623  12.332  1.00 20.00     0.201 C 
ENDBRANCH   7   8
ENDBRANCH   4   7
TORSDOF 2
ENDMDL
MODEL 7
REMARK VINA RESULT:      -3.6      2.714      4.238
REMARK  2 active torsions:
REMARK  status: ('A' for Active; 'I' for Inactive)
REMARK    1  A    between atoms: C4_4  and  C7_7 
REMARK    2  A    between atoms: C7_7  and  O8_8 
ROOT
HETATM    1  C1  UNL     1     -32.998  15.894  -3.368  1.00 20.00     0.008 C 
HETATM    2  C2  UNL     1     -33.249  14.724  -4.323  1.00 20.00     0.016 C 
HETATM    3  C3  UNL     1     -35.223  15.144  -2.950  1.00 20.00     0.022 C 
HETATM    4  C4  UNL     1     -34.387  16.422  -3.015  1.00 20.00     0.011 C 
HETATM    5  C5  UNL     1     -34.706  14.311  -4.116  1.00 20.00     0.058 C 
HETATM    6 BR9  UNL     1     -35.750  14.697  -5.725  1.00 20.00    -0.091 Br
ENDROOT
BRANCH   4   7
HETATM    7  C7  UNL     1     -34.412  17.220  -1.723  1.00 20.00     0.171 C 
BRANCH   7   8
HETATM    8  O8  UNL     1     -35.357  16.637  -0.842  1.00 20.00    -0.396 OA
HETATM    9  C6  UNL     1     -35.379  17.299   0.417  1.00 20.00     0.201 C 
ENDBRANCH   7   8
ENDBRANCH   4   7
TORSDOF 2
ENDMDL
MODEL 8
REMARK VINA RESULT:      -3.5      2.864      4.532
REMARK  2 active torsions:
REMARK  status: ('A' for Active; 'I' for Inactive)
REMARK    1  A    between atoms: C4_4  and  C7_7 
REMARK    2  A    between atoms: C7_7  and  O8_8 
ROOT
HETATM    1  C1  UNL     1     -33.034  15.765  -3.494  1.00 20.00     0.008 C 
HETATM    2  C2  UNL     1     -34.206  14.856  -3.872  1.00 20.00     0.016 C 
HETATM    3  C3  UNL     1     -34.803  16.276  -1.978  1.00 20.00     0.022 C 
HETATM    4  C4  UNL     1     -33.668  16.941  -2.755  1.00 20.00     0.011 C 
HETATM    5  C5  UNL     1     -35.366  15.255  -2.959  1.00 20.00     0.058 C 
HETATM    6 BR9  UNL     1     -36.803  16.065  -4.013  1.00 20.00    -0.091 Br
ENDROOT
BRANCH   4   7
HETATM    7  C7  UNL     1     -32.688  17.685  -1.864  1.00 20.00     0.171 C 
BRANCH   7   8
HETATM    8  O8  UNL     1     -33.319  17.969  -0.627  1.00 20.00    -0.396 OA
HETATM    9  C6  UNL     1     -32.393  18.468   0.332  1.00 20.00     0.201 C 
ENDBRANCH   7   8
ENDBRANCH   4   7
TORSDOF 2
ENDMDL
MODEL 9
REMARK VINA RESULT:      -3.4      1.378      1.748
REMARK  2 active torsions:
REMARK  status: ('A' for Active; 'I' for Inactive)
REMARK    1  A    between atoms: C4_4  and  C7_7 
REMARK    2  A    between atoms: C7_7  and  O8_8 
ROOT
HETATM    1  C1  UNL     1     -34.161  16.668  -4.662  1.00 20.00     0.008 C 
HETATM    2  C2  UNL     1     -34.155  17.981  -3.874  1.00 20.00     0.016 C 
HETATM    3  C3  UNL     1     -34.334  16.076  -2.358  1.00 20.00     0.022 C 
HETATM    4  C4  UNL     1     -33.699  15.607  -3.667  1.00 20.00     0.011 C 
HETATM    5  C5  UNL     1     -34.170  17.590  -2.396  1.00 20.00     0.058 C 
HETATM    6 BR9  UNL     1     -32.480  18.098  -1.549  1.00 20.00    -0.091 Br
ENDROOT
BRANCH   4   7
HETATM    7  C7  UNL     1     -34.110  14.199  -4.062  1.00 20.00     0.171 C 
BRANCH   7   8
HETATM    8  O8  UNL     1     -35.042  14.276  -5.127  1.00 20.00    -0.396 OA
HETATM    9  C6  UNL     1     -36.304  13.729  -4.761  1.00 20.00     0.201 C 
ENDBRANCH   7   8
ENDBRANCH   4   7
TORSDOF 2
ENDMDL
