MODEL 1
REMARK VINA RESULT:      -4.4      0.000      0.000
REMARK  3 active torsions:
REMARK  status: ('A' for Active; 'I' for Inactive)
REMARK    1  A    between atoms: C3_3  and  C5_5 
REMARK    2  A    between atoms: C6_6  and  C8_8 
REMARK    3  A    between atoms: C8_8  and  C9_9 
ROOT
HETATM    1  C1  UNL     1     -24.701  18.597   9.716  1.00 20.00     0.026 A 
HETATM    2  C2  UNL     1     -22.995  18.146   8.202  1.00 20.00     0.061 A 
HETATM    3  C3  UNL     1     -24.254  18.681   8.365  1.00 20.00    -0.029 A 
HETATM    4  C4  UNL     1     -23.767  18.002  10.534  1.00 20.00    -0.021 A 
HETATM    5  C7  UNL     1     -23.851  17.733  11.986  1.00 20.00     0.056 C 
HETATM    6  S10 UNL     1     -22.357  17.546   9.675  1.00 20.00    -0.106 SA
ENDROOT
BRANCH   3   7
HETATM    7  C5  UNL     1     -25.025  19.262   7.253  1.00 20.00     0.008 C 
HETATM    8  C6  UNL     1     -26.000  18.634   6.579  1.00 20.00    -0.025 C 
BRANCH   8   9
HETATM    9  C8  UNL     1     -26.756  19.263   5.442  1.00 20.00     0.042 C 
BRANCH   9  10
HETATM   10  C9  UNL     1     -26.550  18.529   4.121  1.00 20.00     0.118 C 
HETATM   11 CL11 UNL     1     -25.043  19.034   3.317  1.00 20.00    -0.130 Cl
ENDBRANCH   9  10
ENDBRANCH   8   9
ENDBRANCH   3   7
TORSDOF 3
ENDMDL
MODEL 2
REMARK VINA RESULT:      -4.4     11.153     14.406
REMARK  3 active torsions:
REMARK  status: ('A' for Active; 'I' for Inactive)
REMARK    1  A    between atoms: C3_3  and  C5_5 
REMARK    2  A    between atoms: C6_6  and  C8_8 
REMARK    3  A    between atoms: C8_8  and  C9_9 
ROOT
HETATM    1  C1  UNL     1     -35.277  15.467  -2.855  1.00 20.00     0.026 A 
HETATM    2  C2  UNL     1     -33.063  15.906  -3.412  1.00 20.00     0.061 A 
HETATM    3  C3  UNL     1     -34.109  16.237  -2.579  1.00 20.00    -0.029 A 
HETATM    4  C4  UNL     1     -35.078  14.578  -3.887  1.00 20.00    -0.021 A 
HETATM    5  C7  UNL     1     -36.036  13.612  -4.468  1.00 20.00     0.056 C 
HETATM    6  S10 UNL     1     -33.490  14.672  -4.520  1.00 20.00    -0.106 SA
ENDROOT
BRANCH   3   7
HETATM    7  C5  UNL     1     -34.005  17.271  -1.536  1.00 20.00     0.008 C 
HETATM    8  C6  UNL     1     -32.920  18.027  -1.305  1.00 20.00    -0.025 C 
BRANCH   8   9
HETATM    9  C8  UNL     1     -32.853  19.066  -0.221  1.00 20.00     0.042 C 
BRANCH   9  10
HETATM   10  C9  UNL     1     -32.333  18.507   1.100  1.00 20.00     0.118 C 
HETATM   11 CL11 UNL     1     -30.614  18.053   0.989  1.00 20.00    -0.130 Cl
ENDBRANCH   9  10
ENDBRANCH   8   9
ENDBRANCH   3   7
TORSDOF 3
ENDMDL
MODEL 3
REMARK VINA RESULT:      -4.3     11.766     14.645
REMARK  3 active torsions:
REMARK  status: ('A' for Active; 'I' for Inactive)
REMARK    1  A    between atoms: C3_3  and  C5_5 
REMARK    2  A    between atoms: C6_6  and  C8_8 
REMARK    3  A    between atoms: C8_8  and  C9_9 
ROOT
HETATM    1  C1  UNL     1     -35.284  15.459  -2.816  1.00 20.00     0.026 A 
HETATM    2  C2  UNL     1     -33.090  15.936  -3.419  1.00 20.00     0.061 A 
HETATM    3  C3  UNL     1     -34.112  16.223  -2.542  1.00 20.00    -0.029 A 
HETATM    4  C4  UNL     1     -35.112  14.617  -3.892  1.00 20.00    -0.021 A 
HETATM    5  C7  UNL     1     -36.082  13.671  -4.486  1.00 20.00     0.056 C 
HETATM    6  S10 UNL     1     -33.544  14.749  -4.568  1.00 20.00    -0.106 SA
ENDROOT
BRANCH   3   7
HETATM    7  C5  UNL     1     -33.982  17.211  -1.458  1.00 20.00     0.008 C 
HETATM    8  C6  UNL     1     -34.841  17.355  -0.437  1.00 20.00    -0.025 C 
BRANCH   8   9
HETATM    9  C8  UNL     1     -34.674  18.384   0.645  1.00 20.00     0.042 C 
BRANCH   9  10
HETATM   10  C9  UNL     1     -33.231  18.504   1.126  1.00 20.00     0.118 C 
HETATM   11 CL11 UNL     1     -33.005  17.745   2.721  1.00 20.00    -0.130 Cl
ENDBRANCH   9  10
ENDBRANCH   8   9
ENDBRANCH   3   7
TORSDOF 3
ENDMDL
MODEL 4
REMARK VINA RESULT:      -4.3     12.140     14.632
REMARK  3 active torsions:
REMARK  status: ('A' for Active; 'I' for Inactive)
REMARK    1  A    between atoms: C3_3  and  C5_5 
REMARK    2  A    between atoms: C6_6  and  C8_8 
REMARK    3  A    between atoms: C8_8  and  C9_9 
ROOT
HETATM    1  C1  UNL     1     -33.330  17.130  -2.098  1.00 20.00     0.026 A 
HETATM    2  C2  UNL     1     -35.196  17.111  -0.710  1.00 20.00     0.061 A 
HETATM    3  C3  UNL     1     -34.653  16.642  -1.886  1.00 20.00    -0.029 A 
HETATM    4  C4  UNL     1     -32.914  17.954  -1.075  1.00 20.00    -0.021 A 
HETATM    5  C7  UNL     1     -31.619  18.652  -0.924  1.00 20.00     0.056 C 
HETATM    6  S10 UNL     1     -34.114  18.136   0.133  1.00 20.00    -0.106 SA
ENDROOT
BRANCH   3   7
HETATM    7  C5  UNL     1     -35.379  15.744  -2.799  1.00 20.00     0.008 C 
HETATM    8  C6  UNL     1     -34.830  14.722  -3.474  1.00 20.00    -0.025 C 
BRANCH   8   9
HETATM    9  C8  UNL     1     -35.607  13.833  -4.405  1.00 20.00     0.042 C 
BRANCH   9  10
HETATM   10  C9  UNL     1     -35.770  14.438  -5.795  1.00 20.00     0.118 C 
HETATM   11 CL11 UNL     1     -34.209  14.965  -6.471  1.00 20.00    -0.130 Cl
ENDBRANCH   9  10
ENDBRANCH   8   9
ENDBRANCH   3   7
TORSDOF 3
ENDMDL
MODEL 5
REMARK VINA RESULT:      -4.2     10.509     13.990
REMARK  3 active torsions:
REMARK  status: ('A' for Active; 'I' for Inactive)
REMARK    1  A    between atoms: C3_3  and  C5_5 
REMARK    2  A    between atoms: C6_6  and  C8_8 
REMARK    3  A    between atoms: C8_8  and  C9_9 
ROOT
HETATM    1  C1  UNL     1     -33.171  16.356  -3.391  1.00 20.00     0.026 A 
HETATM    2  C2  UNL     1     -35.051  16.215  -2.030  1.00 20.00     0.061 A 
HETATM    3  C3  UNL     1     -33.812  16.793  -2.194  1.00 20.00    -0.029 A 
HETATM    4  C4  UNL     1     -33.946  15.461  -4.095  1.00 20.00    -0.021 A 
HETATM    5  C7  UNL     1     -33.640  14.785  -5.374  1.00 20.00     0.056 C 
HETATM    6  S10 UNL     1     -35.439  15.150  -3.315  1.00 20.00    -0.106 SA
ENDROOT
BRANCH   3   7
HETATM    7  C5  UNL     1     -33.240  17.746  -1.229  1.00 20.00     0.008 C 
HETATM    8  C6  UNL     1     -31.950  18.113  -1.179  1.00 20.00    -0.025 C 
BRANCH   8   9
HETATM    9  C8  UNL     1     -31.406  19.085  -0.168  1.00 20.00     0.042 C 
BRANCH   9  10
HETATM   10  C9  UNL     1     -30.786  18.390   1.040  1.00 20.00     0.118 C 
HETATM   11 CL11 UNL     1     -32.002  18.044   2.294  1.00 20.00    -0.130 Cl
ENDBRANCH   9  10
ENDBRANCH   8   9
ENDBRANCH   3   7
TORSDOF 3
ENDMDL
MODEL 6
REMARK VINA RESULT:      -4.1     12.154     14.446
REMARK  3 active torsions:
REMARK  status: ('A' for Active; 'I' for Inactive)
REMARK    1  A    between atoms: C3_3  and  C5_5 
REMARK    2  A    between atoms: C6_6  and  C8_8 
REMARK    3  A    between atoms: C8_8  and  C9_9 
ROOT
HETATM    1  C1  UNL     1     -34.637  17.314  -0.741  1.00 20.00     0.026 A 
HETATM    2  C2  UNL     1     -33.025  17.113  -2.405  1.00 20.00     0.061 A 
HETATM    3  C3  UNL     1     -34.275  16.715  -1.983  1.00 20.00    -0.029 A 
HETATM    4  C4  UNL     1     -33.650  18.147  -0.262  1.00 20.00    -0.021 A 
HETATM    5  C7  UNL     1     -33.643  18.946   0.983  1.00 20.00     0.056 C 
HETATM    6  S10 UNL     1     -32.294  18.205  -1.306  1.00 20.00    -0.106 SA
ENDROOT
BRANCH   3   7
HETATM    7  C5  UNL     1     -35.115  15.777  -2.746  1.00 20.00     0.008 C 
HETATM    8  C6  UNL     1     -34.654  14.784  -3.522  1.00 20.00    -0.025 C 
BRANCH   8   9
HETATM    9  C8  UNL     1     -35.549  13.854  -4.292  1.00 20.00     0.042 C 
BRANCH   9  10
HETATM   10  C9  UNL     1     -35.849  14.358  -5.700  1.00 20.00     0.118 C 
HETATM   11 CL11 UNL     1     -34.377  14.938  -6.518  1.00 20.00    -0.130 Cl
ENDBRANCH   9  10
ENDBRANCH   8   9
ENDBRANCH   3   7
TORSDOF 3
ENDMDL
MODEL 7
REMARK VINA RESULT:      -4.1     12.078     15.410
REMARK  3 active torsions:
REMARK  status: ('A' for Active; 'I' for Inactive)
REMARK    1  A    between atoms: C3_3  and  C5_5 
REMARK    2  A    between atoms: C6_6  and  C8_8 
REMARK    3  A    between atoms: C8_8  and  C9_9 
ROOT
HETATM    1  C1  UNL     1     -35.934  15.994  -3.420  1.00 20.00     0.026 A 
HETATM    2  C2  UNL     1     -34.487  14.265  -3.990  1.00 20.00     0.061 A 
HETATM    3  C3  UNL     1     -34.591  15.515  -3.420  1.00 20.00    -0.029 A 
HETATM    4  C4  UNL     1     -36.805  15.092  -3.990  1.00 20.00    -0.021 A 
HETATM    5  C7  UNL     1     -38.267  15.215  -4.177  1.00 20.00     0.056 C 
HETATM    6  S10 UNL     1     -36.005  13.674  -4.522  1.00 20.00    -0.106 SA
ENDROOT
BRANCH   3   7
HETATM    7  C5  UNL     1     -33.432  16.248  -2.884  1.00 20.00     0.008 C 
HETATM    8  C6  UNL     1     -33.499  17.268  -2.015  1.00 20.00    -0.025 C 
BRANCH   8   9
HETATM    9  C8  UNL     1     -32.288  17.995  -1.499  1.00 20.00     0.042 C 
BRANCH   9  10
HETATM   10  C9  UNL     1     -32.418  18.383  -0.029  1.00 20.00     0.118 C 
HETATM   11 CL11 UNL     1     -30.884  18.158   0.848  1.00 20.00    -0.130 Cl
ENDBRANCH   9  10
ENDBRANCH   8   9
ENDBRANCH   3   7
TORSDOF 3
ENDMDL
MODEL 8
REMARK VINA RESULT:      -4.0     13.245     15.081
REMARK  3 active torsions:
REMARK  status: ('A' for Active; 'I' for Inactive)
REMARK    1  A    between atoms: C3_3  and  C5_5 
REMARK    2  A    between atoms: C6_6  and  C8_8 
REMARK    3  A    between atoms: C8_8  and  C9_9 
ROOT
HETATM    1  C1  UNL     1     -35.297  15.472  -2.842  1.00 20.00     0.026 A 
HETATM    2  C2  UNL     1     -33.084  15.933  -3.384  1.00 20.00     0.061 A 
HETATM    3  C3  UNL     1     -34.135  16.244  -2.550  1.00 20.00    -0.029 A 
HETATM    4  C4  UNL     1     -35.090  14.602  -3.889  1.00 20.00    -0.021 A 
HETATM    5  C7  UNL     1     -36.040  13.640  -4.490  1.00 20.00     0.056 C 
HETATM    6  S10 UNL     1     -33.500  14.716  -4.515  1.00 20.00    -0.106 SA
ENDROOT
BRANCH   3   7
HETATM    7  C5  UNL     1     -34.039  17.260  -1.489  1.00 20.00     0.008 C 
HETATM    8  C6  UNL     1     -34.864  17.354  -0.434  1.00 20.00    -0.025 C 
BRANCH   8   9
HETATM    9  C8  UNL     1     -34.736  18.415   0.623  1.00 20.00     0.042 C 
BRANCH   9  10
HETATM   10  C9  UNL     1     -36.059  18.711   1.323  1.00 20.00     0.118 C 
HETATM   11 CL11 UNL     1     -37.445  18.076   0.403  1.00 20.00    -0.130 Cl
ENDBRANCH   9  10
ENDBRANCH   8   9
ENDBRANCH   3   7
TORSDOF 3
ENDMDL
MODEL 9
REMARK VINA RESULT:      -4.0     10.262     13.023
REMARK  3 active torsions:
REMARK  status: ('A' for Active; 'I' for Inactive)
REMARK    1  A    between atoms: C3_3  and  C5_5 
REMARK    2  A    between atoms: C6_6  and  C8_8 
REMARK    3  A    between atoms: C8_8  and  C9_9 
ROOT
HETATM    1  C1  UNL     1     -32.366  18.167  -0.777  1.00 20.00     0.026 A 
HETATM    2  C2  UNL     1     -34.421  18.071   0.306  1.00 20.00     0.061 A 
HETATM    3  C3  UNL     1     -33.742  17.806  -0.863  1.00 20.00    -0.029 A 
HETATM    4  C4  UNL     1     -32.046  18.695   0.454  1.00 20.00    -0.021 A 
HETATM    5  C7  UNL     1     -30.735  19.184   0.934  1.00 20.00     0.056 C 
HETATM    6  S10 UNL     1     -33.400  18.753   1.501  1.00 20.00    -0.106 SA
ENDROOT
BRANCH   3   7
HETATM    7  C5  UNL     1     -34.390  17.219  -2.048  1.00 20.00     0.008 C 
HETATM    8  C6  UNL     1     -34.775  15.939  -2.162  1.00 20.00    -0.025 C 
BRANCH   8   9
HETATM    9  C8  UNL     1     -35.426  15.378  -3.395  1.00 20.00     0.042 C 
BRANCH   9  10
HETATM   10  C9  UNL     1     -34.618  14.247  -4.024  1.00 20.00     0.118 C 
HETATM   11 CL11 UNL     1     -32.912  14.706  -4.251  1.00 20.00    -0.130 Cl
ENDBRANCH   9  10
ENDBRANCH   8   9
ENDBRANCH   3   7
TORSDOF 3
ENDMDL
