MODEL 1
REMARK VINA RESULT:      -4.1      0.000      0.000
REMARK  2 active torsions:
REMARK  status: ('A' for Active; 'I' for Inactive)
REMARK    1  A    between atoms: C7_7  and  C8_8 
REMARK    2  A    between atoms: C8_8  and  S9_9 
ROOT
HETATM    1  C1  UNL     1     -33.913   5.021   5.862  1.00 20.00     0.005 C 
HETATM    2  C2  UNL     1     -34.034   6.534   5.628  1.00 20.00     0.005 C 
HETATM    3  C3  UNL     1     -35.683   5.440   4.326  1.00 20.00     0.009 C 
HETATM    4  C4  UNL     1     -33.634   4.628   3.407  1.00 20.00     0.010 C 
HETATM    5  C5  UNL     1     -34.577   4.425   4.608  1.00 20.00    -0.014 C 
HETATM    6  C6  UNL     1     -34.707   6.619   4.248  1.00 20.00    -0.009 C 
HETATM    7  C7  UNL     1     -33.764   6.138   3.119  1.00 20.00    -0.001 C 
ENDROOT
BRANCH   7   8
HETATM    8  C8  UNL     1     -32.427   6.856   3.024  1.00 20.00     0.075 C 
BRANCH   8   9
HETATM    9  S9  UNL     1     -32.360   7.880   1.531  1.00 20.00    -0.182 SA
HETATM   10  H23 UNL     1     -31.040   7.766   1.336  1.00 20.00     0.101 HD
ENDBRANCH   8   9
ENDBRANCH   7   8
TORSDOF 2
ENDMDL
MODEL 2
REMARK VINA RESULT:      -3.9      8.966     10.027
REMARK  2 active torsions:
REMARK  status: ('A' for Active; 'I' for Inactive)
REMARK    1  A    between atoms: C7_7  and  C8_8 
REMARK    2  A    between atoms: C8_8  and  S9_9 
ROOT
HETATM    1  C1  UNL     1     -42.469   8.004  -1.540  1.00 20.00     0.005 C 
HETATM    2  C2  UNL     1     -43.418   7.884  -0.339  1.00 20.00     0.005 C 
HETATM    3  C3  UNL     1     -41.190   7.914   0.466  1.00 20.00     0.009 C 
HETATM    4  C4  UNL     1     -41.270   5.921  -0.847  1.00 20.00     0.010 C 
HETATM    5  C5  UNL     1     -41.143   7.450  -0.989  1.00 20.00    -0.014 C 
HETATM    6  C6  UNL     1     -42.534   7.230   0.736  1.00 20.00    -0.009 C 
HETATM    7  C7  UNL     1     -42.188   5.764   0.382  1.00 20.00    -0.001 C 
ENDROOT
BRANCH   7   8
HETATM    8  C8  UNL     1     -43.375   4.845   0.140  1.00 20.00     0.075 C 
BRANCH   8   9
HETATM    9  S9  UNL     1     -43.408   4.292  -1.585  1.00 20.00    -0.182 SA
HETATM   10  H23 UNL     1     -42.153   4.656  -1.879  1.00 20.00     0.101 HD
ENDBRANCH   8   9
ENDBRANCH   7   8
TORSDOF 2
ENDMDL
MODEL 3
REMARK VINA RESULT:      -3.9     15.973     16.996
REMARK  2 active torsions:
REMARK  status: ('A' for Active; 'I' for Inactive)
REMARK    1  A    between atoms: C7_7  and  C8_8 
REMARK    2  A    between atoms: C8_8  and  S9_9 
ROOT
HETATM    1  C1  UNL     1     -25.195  18.585  11.480  1.00 20.00     0.005 C 
HETATM    2  C2  UNL     1     -25.027  18.040  10.055  1.00 20.00     0.005 C 
HETATM    3  C3  UNL     1     -24.659  16.268  11.584  1.00 20.00     0.009 C 
HETATM    4  C4  UNL     1     -22.899  17.801  12.089  1.00 20.00     0.010 C 
HETATM    5  C5  UNL     1     -24.403  17.577  12.331  1.00 20.00    -0.014 C 
HETATM    6  C6  UNL     1     -24.120  16.814  10.258  1.00 20.00    -0.009 C 
HETATM    7  C7  UNL     1     -22.687  17.224  10.674  1.00 20.00    -0.001 C 
ENDROOT
BRANCH   7   8
HETATM    8  C8  UNL     1     -21.971  18.175   9.730  1.00 20.00     0.075 C 
BRANCH   8   9
HETATM    9  S9  UNL     1     -21.782  17.423   8.092  1.00 20.00    -0.182 SA
HETATM   10  H23 UNL     1     -22.376  16.262   8.397  1.00 20.00     0.101 HD
ENDBRANCH   8   9
ENDBRANCH   7   8
TORSDOF 2
ENDMDL
MODEL 4
REMARK VINA RESULT:      -3.8     11.772     12.869
REMARK  2 active torsions:
REMARK  status: ('A' for Active; 'I' for Inactive)
REMARK    1  A    between atoms: C7_7  and  C8_8 
REMARK    2  A    between atoms: C8_8  and  S9_9 
ROOT
HETATM    1  C1  UNL     1     -35.836  16.064  -4.567  1.00 20.00     0.005 C 
HETATM    2  C2  UNL     1     -34.435  16.221  -5.175  1.00 20.00     0.005 C 
HETATM    3  C3  UNL     1     -34.438  14.302  -3.786  1.00 20.00     0.009 C 
HETATM    4  C4  UNL     1     -34.873  16.084  -2.258  1.00 20.00     0.010 C 
HETATM    5  C5  UNL     1     -35.574  15.209  -3.314  1.00 20.00    -0.014 C 
HETATM    6  C6  UNL     1     -33.536  15.478  -4.173  1.00 20.00    -0.009 C 
HETATM    7  C7  UNL     1     -33.444  16.227  -2.821  1.00 20.00    -0.001 C 
ENDROOT
BRANCH   7   8
HETATM    8  C8  UNL     1     -32.961  17.666  -2.895  1.00 20.00     0.075 C 
BRANCH   8   9
HETATM    9  S9  UNL     1     -32.288  18.193  -1.297  1.00 20.00    -0.182 SA
HETATM   10  H23 UNL     1     -31.175  18.755  -1.787  1.00 20.00     0.101 HD
ENDBRANCH   8   9
ENDBRANCH   7   8
TORSDOF 2
ENDMDL
MODEL 5
REMARK VINA RESULT:      -3.8     15.968     16.895
REMARK  2 active torsions:
REMARK  status: ('A' for Active; 'I' for Inactive)
REMARK    1  A    between atoms: C7_7  and  C8_8 
REMARK    2  A    between atoms: C8_8  and  S9_9 
ROOT
HETATM    1  C1  UNL     1     -23.975  16.624  10.090  1.00 20.00     0.005 C 
HETATM    2  C2  UNL     1     -23.961  18.159  10.101  1.00 20.00     0.005 C 
HETATM    3  C3  UNL     1     -22.962  17.386  12.105  1.00 20.00     0.009 C 
HETATM    4  C4  UNL     1     -25.205  16.584  12.267  1.00 20.00     0.010 C 
HETATM    5  C5  UNL     1     -23.862  16.267  11.582  1.00 20.00    -0.014 C 
HETATM    6  C6  UNL     1     -23.891  18.494  11.600  1.00 20.00    -0.009 C 
HETATM    7  C7  UNL     1     -25.204  18.125  12.332  1.00 20.00    -0.001 C 
ENDROOT
BRANCH   7   8
HETATM    8  C8  UNL     1     -26.470  18.757  11.777  1.00 20.00     0.075 C 
BRANCH   8   9
HETATM    9  S9  UNL     1     -27.924  17.777  12.237  1.00 20.00    -0.182 SA
HETATM   10  H23 UNL     1     -27.468  16.610  11.763  1.00 20.00     0.101 HD
ENDBRANCH   8   9
ENDBRANCH   7   8
TORSDOF 2
ENDMDL
MODEL 6
REMARK VINA RESULT:      -3.7     12.134     13.018
REMARK  2 active torsions:
REMARK  status: ('A' for Active; 'I' for Inactive)
REMARK    1  A    between atoms: C7_7  and  C8_8 
REMARK    2  A    between atoms: C8_8  and  S9_9 
ROOT
HETATM    1  C1  UNL     1     -33.747  17.478  -3.878  1.00 20.00     0.005 C 
HETATM    2  C2  UNL     1     -35.268  17.309  -4.002  1.00 20.00     0.005 C 
HETATM    3  C3  UNL     1     -34.509  15.970  -2.201  1.00 20.00     0.009 C 
HETATM    4  C4  UNL     1     -33.418  15.008  -4.095  1.00 20.00     0.010 C 
HETATM    5  C5  UNL     1     -33.318  16.204  -3.130  1.00 20.00    -0.014 C 
HETATM    6  C6  UNL     1     -35.517  15.937  -3.354  1.00 20.00    -0.009 C 
HETATM    7  C7  UNL     1     -34.940  14.784  -4.210  1.00 20.00    -0.001 C 
ENDROOT
BRANCH   7   8
HETATM    8  C8  UNL     1     -35.438  14.714  -5.644  1.00 20.00     0.075 C 
BRANCH   8   9
HETATM    9  S9  UNL     1     -34.099  15.107  -6.801  1.00 20.00    -0.182 SA
HETATM   10  H23 UNL     1     -34.498  14.276  -7.773  1.00 20.00     0.101 HD
ENDBRANCH   8   9
ENDBRANCH   7   8
TORSDOF 2
ENDMDL
MODEL 7
REMARK VINA RESULT:      -3.7     15.777     16.770
REMARK  2 active torsions:
REMARK  status: ('A' for Active; 'I' for Inactive)
REMARK    1  A    between atoms: C7_7  and  C8_8 
REMARK    2  A    between atoms: C8_8  and  S9_9 
ROOT
HETATM    1  C1  UNL     1     -24.692  16.112  11.529  1.00 20.00     0.005 C 
HETATM    2  C2  UNL     1     -23.884  16.423  10.261  1.00 20.00     0.005 C 
HETATM    3  C3  UNL     1     -23.183  17.898  11.977  1.00 20.00     0.009 C 
HETATM    4  C4  UNL     1     -25.475  18.484  11.654  1.00 20.00     0.010 C 
HETATM    5  C5  UNL     1     -24.590  17.421  12.332  1.00 20.00    -0.014 C 
HETATM    6  C6  UNL     1     -23.460  17.886  10.470  1.00 20.00    -0.009 C 
HETATM    7  C7  UNL     1     -24.668  18.850  10.391  1.00 20.00    -0.001 C 
ENDROOT
BRANCH   7   8
HETATM    8  C8  UNL     1     -25.483  18.785   9.110  1.00 20.00     0.075 C 
BRANCH   8   9
HETATM    9  S9  UNL     1     -24.431  19.115   7.671  1.00 20.00    -0.182 SA
HETATM   10  H23 UNL     1     -25.011  18.221   6.860  1.00 20.00     0.101 HD
ENDBRANCH   8   9
ENDBRANCH   7   8
TORSDOF 2
ENDMDL
MODEL 8
REMARK VINA RESULT:      -3.7     15.898     16.998
REMARK  2 active torsions:
REMARK  status: ('A' for Active; 'I' for Inactive)
REMARK    1  A    between atoms: C7_7  and  C8_8 
REMARK    2  A    between atoms: C8_8  and  S9_9 
ROOT
HETATM    1  C1  UNL     1     -24.900  16.177  11.510  1.00 20.00     0.005 C 
HETATM    2  C2  UNL     1     -23.517  16.326  12.160  1.00 20.00     0.005 C 
HETATM    3  C3  UNL     1     -24.653  18.398  12.330  1.00 20.00     0.009 C 
HETATM    4  C4  UNL     1     -24.424  18.092   9.973  1.00 20.00     0.010 C 
HETATM    5  C5  UNL     1     -25.279  17.628  11.167  1.00 20.00    -0.014 C 
HETATM    6  C6  UNL     1     -23.252  17.838  12.066  1.00 20.00    -0.009 C 
HETATM    7  C7  UNL     1     -23.031  18.292  10.602  1.00 20.00    -0.001 C 
ENDROOT
BRANCH   7   8
HETATM    8  C8  UNL     1     -21.917  17.581   9.851  1.00 20.00     0.075 C 
BRANCH   8   9
HETATM    9  S9  UNL     1     -22.277  17.534   8.076  1.00 20.00    -0.182 SA
HETATM   10  H23 UNL     1     -23.524  18.016   8.168  1.00 20.00     0.101 HD
ENDBRANCH   8   9
ENDBRANCH   7   8
TORSDOF 2
ENDMDL
MODEL 9
REMARK VINA RESULT:      -3.6     11.969     13.242
REMARK  2 active torsions:
REMARK  status: ('A' for Active; 'I' for Inactive)
REMARK    1  A    between atoms: C7_7  and  C8_8 
REMARK    2  A    between atoms: C8_8  and  S9_9 
ROOT
HETATM    1  C1  UNL     1     -34.691  14.323  -3.753  1.00 20.00     0.005 C 
HETATM    2  C2  UNL     1     -33.378  14.959  -4.232  1.00 20.00     0.005 C 
HETATM    3  C3  UNL     1     -34.133  16.146  -2.327  1.00 20.00     0.009 C 
HETATM    4  C4  UNL     1     -35.863  16.526  -3.928  1.00 20.00     0.010 C 
HETATM    5  C5  UNL     1     -35.348  15.457  -2.946  1.00 20.00    -0.014 C 
HETATM    6  C6  UNL     1     -33.466  16.393  -3.684  1.00 20.00    -0.009 C 
HETATM    7  C7  UNL     1     -34.565  17.214  -4.400  1.00 20.00    -0.001 C 
ENDROOT
BRANCH   7   8
HETATM    8  C8  UNL     1     -34.442  17.306  -5.912  1.00 20.00     0.075 C 
BRANCH   8   9
HETATM    9  S9  UNL     1     -35.893  16.573  -6.714  1.00 20.00    -0.182 SA
HETATM   10  H23 UNL     1     -35.910  15.450  -5.983  1.00 20.00     0.101 HD
ENDBRANCH   8   9
ENDBRANCH   7   8
TORSDOF 2
ENDMDL
