MODEL 1
REMARK VINA RESULT:      -3.9      0.000      0.000
REMARK  4 active torsions:
REMARK  status: ('A' for Active; 'I' for Inactive)
REMARK    1  A    between atoms: C4_4  and  C6_6 
REMARK    2  A    between atoms: C4_4  and  C7_7 
REMARK    3  A    between atoms: C5_5  and  C6_6 
REMARK    4  A    between atoms: C5_5  and  O8_8 
ROOT
HETATM    1  C1  UNL     1     -33.088   4.953   2.269  1.00 20.00     0.012 C 
HETATM    2  C6  UNL     1     -32.982   6.175   3.183  1.00 20.00     0.007 C 
ENDROOT
BRANCH   2   3
HETATM    3  C4  UNL     1     -34.362   6.638   3.708  1.00 20.00     0.026 C 
BRANCH   3   4
HETATM    4  C7  UNL     1     -34.653   6.341   5.189  1.00 20.00     0.078 C 
HETATM    5  C2  UNL     1     -33.595   6.973   6.088  1.00 20.00     0.026 C 
HETATM    6 CL9  UNL     1     -34.694   4.580   5.496  1.00 20.00    -0.125 Cl
ENDBRANCH   3   4
ENDBRANCH   2   3
BRANCH   2   7
HETATM    7  C5  UNL     1     -32.288   7.320   2.428  1.00 20.00     0.171 C 
BRANCH   7   8
HETATM    8  O8  UNL     1     -32.937   7.545   1.183  1.00 20.00    -0.396 OA
HETATM    9  C3  UNL     1     -32.845   8.907   0.786  1.00 20.00     0.201 C 
ENDBRANCH   7   8
ENDBRANCH   2   7
TORSDOF 4
ENDMDL
MODEL 2
REMARK VINA RESULT:      -3.7     11.396     12.109
REMARK  4 active torsions:
REMARK  status: ('A' for Active; 'I' for Inactive)
REMARK    1  A    between atoms: C4_4  and  C6_6 
REMARK    2  A    between atoms: C4_4  and  C7_7 
REMARK    3  A    between atoms: C5_5  and  C6_6 
REMARK    4  A    between atoms: C5_5  and  O8_8 
ROOT
HETATM    1  C1  UNL     1     -35.653  14.710  -6.648  1.00 20.00     0.012 C 
HETATM    2  C6  UNL     1     -36.175  15.172  -5.287  1.00 20.00     0.007 C 
ENDROOT
BRANCH   2   3
HETATM    3  C4  UNL     1     -35.161  16.076  -4.544  1.00 20.00     0.026 C 
BRANCH   3   4
HETATM    4  C7  UNL     1     -34.262  15.373  -3.513  1.00 20.00     0.078 C 
HETATM    5  C2  UNL     1     -33.765  16.361  -2.462  1.00 20.00     0.026 C 
HETATM    6 CL9  UNL     1     -32.850  14.612  -4.303  1.00 20.00    -0.125 Cl
ENDBRANCH   3   4
ENDBRANCH   2   3
BRANCH   2   7
HETATM    7  C5  UNL     1     -36.521  13.945  -4.429  1.00 20.00     0.171 C 
BRANCH   7   8
HETATM    8  O8  UNL     1     -37.928  13.738  -4.422  1.00 20.00    -0.396 OA
HETATM    9  C3  UNL     1     -38.634  14.957  -4.238  1.00 20.00     0.201 C 
ENDBRANCH   7   8
ENDBRANCH   2   7
TORSDOF 4
ENDMDL
MODEL 3
REMARK VINA RESULT:      -3.6     11.062     11.735
REMARK  4 active torsions:
REMARK  status: ('A' for Active; 'I' for Inactive)
REMARK    1  A    between atoms: C4_4  and  C6_6 
REMARK    2  A    between atoms: C4_4  and  C7_7 
REMARK    3  A    between atoms: C5_5  and  C6_6 
REMARK    4  A    between atoms: C5_5  and  O8_8 
ROOT
HETATM    1  C1  UNL     1     -34.652  15.227  -5.637  1.00 20.00     0.012 C 
HETATM    2  C6  UNL     1     -35.502  14.975  -4.391  1.00 20.00     0.007 C 
ENDROOT
BRANCH   2   3
HETATM    3  C4  UNL     1     -34.691  15.138  -3.083  1.00 20.00     0.026 C 
BRANCH   3   4
HETATM    4  C7  UNL     1     -34.549  16.575  -2.555  1.00 20.00     0.078 C 
HETATM    5  C2  UNL     1     -33.082  16.993  -2.505  1.00 20.00     0.026 C 
HETATM    6 CL9  UNL     1     -35.248  16.731  -0.916  1.00 20.00    -0.125 Cl
ENDBRANCH   3   4
ENDBRANCH   2   3
BRANCH   2   7
HETATM    7  C5  UNL     1     -36.115  13.568  -4.466  1.00 20.00     0.171 C 
BRANCH   7   8
HETATM    8  O8  UNL     1     -37.534  13.656  -4.508  1.00 20.00    -0.396 OA
HETATM    9  C3  UNL     1     -37.981  14.985  -4.278  1.00 20.00     0.201 C 
ENDBRANCH   7   8
ENDBRANCH   2   7
TORSDOF 4
ENDMDL
MODEL 4
REMARK VINA RESULT:      -3.5      2.883      4.609
REMARK  4 active torsions:
REMARK  status: ('A' for Active; 'I' for Inactive)
REMARK    1  A    between atoms: C4_4  and  C6_6 
REMARK    2  A    between atoms: C4_4  and  C7_7 
REMARK    3  A    between atoms: C5_5  and  C6_6 
REMARK    4  A    between atoms: C5_5  and  O8_8 
ROOT
HETATM    1  C1  UNL     1     -33.071   4.848   2.556  1.00 20.00     0.012 C 
HETATM    2  C6  UNL     1     -33.521   6.292   2.781  1.00 20.00     0.007 C 
ENDROOT
BRANCH   2   3
HETATM    3  C4  UNL     1     -32.473   7.319   2.288  1.00 20.00     0.026 C 
BRANCH   3   4
HETATM    4  C7  UNL     1     -32.794   8.022   0.958  1.00 20.00     0.078 C 
HETATM    5  C2  UNL     1     -31.662   7.827  -0.047  1.00 20.00     0.026 C 
HETATM    6 CL9  UNL     1     -33.052   9.774   1.202  1.00 20.00    -0.125 Cl
ENDBRANCH   3   4
ENDBRANCH   2   3
BRANCH   2   7
HETATM    7  C5  UNL     1     -33.818   6.509   4.273  1.00 20.00     0.171 C 
BRANCH   7   8
HETATM    8  O8  UNL     1     -34.943   5.733   4.664  1.00 20.00    -0.396 OA
HETATM    9  C3  UNL     1     -34.770   5.182   5.962  1.00 20.00     0.201 C 
ENDBRANCH   7   8
ENDBRANCH   2   7
TORSDOF 4
ENDMDL
MODEL 5
REMARK VINA RESULT:      -3.5     11.005     11.896
REMARK  4 active torsions:
REMARK  status: ('A' for Active; 'I' for Inactive)
REMARK    1  A    between atoms: C4_4  and  C6_6 
REMARK    2  A    between atoms: C4_4  and  C7_7 
REMARK    3  A    between atoms: C5_5  and  C6_6 
REMARK    4  A    between atoms: C5_5  and  O8_8 
ROOT
HETATM    1  C1  UNL     1     -37.292  14.739  -4.157  1.00 20.00     0.012 C 
HETATM    2  C6  UNL     1     -36.013  14.059  -4.645  1.00 20.00     0.007 C 
ENDROOT
BRANCH   2   3
HETATM    3  C4  UNL     1     -34.808  14.334  -3.712  1.00 20.00     0.026 C 
BRANCH   3   4
HETATM    4  C7  UNL     1     -34.588  15.803  -3.313  1.00 20.00     0.078 C 
HETATM    5  C2  UNL     1     -33.114  16.183  -3.428  1.00 20.00     0.026 C 
HETATM    6 CL9  UNL     1     -35.132  16.103  -1.637  1.00 20.00    -0.125 Cl
ENDBRANCH   3   4
ENDBRANCH   2   3
BRANCH   2   7
HETATM    7  C5  UNL     1     -35.697  14.528  -6.074  1.00 20.00     0.171 C 
BRANCH   7   8
HETATM    8  O8  UNL     1     -34.297  14.461  -6.310  1.00 20.00    -0.396 OA
HETATM    9  C3  UNL     1     -33.902  15.335  -7.358  1.00 20.00     0.201 C 
ENDBRANCH   7   8
ENDBRANCH   2   7
TORSDOF 4
ENDMDL
MODEL 6
REMARK VINA RESULT:      -3.4     11.223     11.685
REMARK  4 active torsions:
REMARK  status: ('A' for Active; 'I' for Inactive)
REMARK    1  A    between atoms: C4_4  and  C6_6 
REMARK    2  A    between atoms: C4_4  and  C7_7 
REMARK    3  A    between atoms: C5_5  and  C6_6 
REMARK    4  A    between atoms: C5_5  and  O8_8 
ROOT
HETATM    1  C1  UNL     1     -35.834  13.596  -4.367  1.00 20.00     0.012 C 
HETATM    2  C6  UNL     1     -34.711  14.469  -3.808  1.00 20.00     0.007 C 
ENDROOT
BRANCH   2   3
HETATM    3  C4  UNL     1     -35.241  15.788  -3.195  1.00 20.00     0.026 C 
BRANCH   3   4
HETATM    4  C7  UNL     1     -34.563  16.244  -1.892  1.00 20.00     0.078 C 
HETATM    5  C2  UNL     1     -35.497  17.131  -1.074  1.00 20.00     0.026 C 
HETATM    6 CL9  UNL     1     -33.059  17.150  -2.232  1.00 20.00    -0.125 Cl
ENDBRANCH   3   4
ENDBRANCH   2   3
BRANCH   2   7
HETATM    7  C5  UNL     1     -33.695  14.771  -4.921  1.00 20.00     0.171 C 
BRANCH   7   8
HETATM    8  O8  UNL     1     -34.251  14.448  -6.189  1.00 20.00    -0.396 OA
HETATM    9  C3  UNL     1     -34.151  15.538  -7.095  1.00 20.00     0.201 C 
ENDBRANCH   7   8
ENDBRANCH   2   7
TORSDOF 4
ENDMDL
MODEL 7
REMARK VINA RESULT:      -3.4     11.437     12.426
REMARK  4 active torsions:
REMARK  status: ('A' for Active; 'I' for Inactive)
REMARK    1  A    between atoms: C4_4  and  C6_6 
REMARK    2  A    between atoms: C4_4  and  C7_7 
REMARK    3  A    between atoms: C5_5  and  C6_6 
REMARK    4  A    between atoms: C5_5  and  O8_8 
ROOT
HETATM    1  C1  UNL     1     -35.205  16.116  -2.046  1.00 20.00     0.012 C 
HETATM    2  C6  UNL     1     -34.201  15.497  -3.019  1.00 20.00     0.007 C 
ENDROOT
BRANCH   2   3
HETATM    3  C4  UNL     1     -32.977  16.412  -3.262  1.00 20.00     0.026 C 
BRANCH   3   4
HETATM    4  C7  UNL     1     -33.075  17.834  -2.686  1.00 20.00     0.078 C 
HETATM    5  C2  UNL     1     -32.755  18.877  -3.752  1.00 20.00     0.026 C 
HETATM    6 CL9  UNL     1     -31.951  18.051  -1.312  1.00 20.00    -0.125 Cl
ENDBRANCH   3   4
ENDBRANCH   2   3
BRANCH   2   7
HETATM    7  C5  UNL     1     -34.904  15.184  -4.349  1.00 20.00     0.171 C 
BRANCH   7   8
HETATM    8  O8  UNL     1     -34.012  14.504  -5.223  1.00 20.00    -0.396 OA
HETATM    9  C3  UNL     1     -34.078  15.025  -6.543  1.00 20.00     0.201 C 
ENDBRANCH   7   8
ENDBRANCH   2   7
TORSDOF 4
ENDMDL
MODEL 8
REMARK VINA RESULT:      -3.4     11.512     12.076
REMARK  4 active torsions:
REMARK  status: ('A' for Active; 'I' for Inactive)
REMARK    1  A    between atoms: C4_4  and  C6_6 
REMARK    2  A    between atoms: C4_4  and  C7_7 
REMARK    3  A    between atoms: C5_5  and  C6_6 
REMARK    4  A    between atoms: C5_5  and  O8_8 
ROOT
HETATM    1  C1  UNL     1     -33.030  16.663  -2.811  1.00 20.00     0.012 C 
HETATM    2  C6  UNL     1     -33.910  15.836  -3.749  1.00 20.00     0.007 C 
ENDROOT
BRANCH   2   3
HETATM    3  C4  UNL     1     -35.135  15.229  -3.024  1.00 20.00     0.026 C 
BRANCH   3   4
HETATM    4  C7  UNL     1     -36.508  15.558  -3.633  1.00 20.00     0.078 C 
HETATM    5  C2  UNL     1     -37.060  14.364  -4.407  1.00 20.00     0.026 C 
HETATM    6 CL9  UNL     1     -36.404  16.961  -4.736  1.00 20.00    -0.125 Cl
ENDBRANCH   3   4
ENDBRANCH   2   3
BRANCH   2   7
HETATM    7  C5  UNL     1     -33.067  14.723  -4.392  1.00 20.00     0.171 C 
BRANCH   7   8
HETATM    8  O8  UNL     1     -33.771  14.149  -5.485  1.00 20.00    -0.396 OA
HETATM    9  C3  UNL     1     -33.907  15.069  -6.559  1.00 20.00     0.201 C 
ENDBRANCH   7   8
ENDBRANCH   2   7
TORSDOF 4
ENDMDL
MODEL 9
REMARK VINA RESULT:      -3.4     11.482     12.133
REMARK  4 active torsions:
REMARK  status: ('A' for Active; 'I' for Inactive)
REMARK    1  A    between atoms: C4_4  and  C6_6 
REMARK    2  A    between atoms: C4_4  and  C7_7 
REMARK    3  A    between atoms: C5_5  and  C6_6 
REMARK    4  A    between atoms: C5_5  and  O8_8 
ROOT
HETATM    1  C1  UNL     1     -36.021  14.089  -4.255  1.00 20.00     0.012 C 
HETATM    2  C6  UNL     1     -34.603  14.414  -3.785  1.00 20.00     0.007 C 
ENDROOT
BRANCH   2   3
HETATM    3  C4  UNL     1     -34.574  15.576  -2.763  1.00 20.00     0.026 C 
BRANCH   3   4
HETATM    4  C7  UNL     1     -33.774  16.821  -3.182  1.00 20.00     0.078 C 
HETATM    5  C2  UNL     1     -33.015  17.405  -1.994  1.00 20.00     0.026 C 
HETATM    6 CL9  UNL     1     -34.850  18.081  -3.855  1.00 20.00    -0.125 Cl
ENDBRANCH   3   4
ENDBRANCH   2   3
BRANCH   2   7
HETATM    7  C5  UNL     1     -33.726  14.753  -5.000  1.00 20.00     0.171 C 
BRANCH   7   8
HETATM    8  O8  UNL     1     -34.439  14.496  -6.203  1.00 20.00    -0.396 OA
HETATM    9  C3  UNL     1     -33.945  15.278  -7.281  1.00 20.00     0.201 C 
ENDBRANCH   7   8
ENDBRANCH   2   7
TORSDOF 4
ENDMDL
