MODEL 1
REMARK VINA RESULT:      -3.9      0.000      0.000
REMARK  4 active torsions:
REMARK  status: ('A' for Active; 'I' for Inactive)
REMARK    1  A    between atoms: C4_4  and  C6_6 
REMARK    2  A    between atoms: C4_4  and  C7_7 
REMARK    3  A    between atoms: C5_5  and  C6_6 
REMARK    4  A    between atoms: C5_5  and  O8_8 
ROOT
HETATM    1  C1  UNL     1     -31.786   7.548   3.811  1.00 20.00     0.012 C 
HETATM    2  C6  UNL     1     -32.873   6.623   3.262  1.00 20.00     0.007 C 
ENDROOT
BRANCH   2   3
HETATM    3  C4  UNL     1     -34.208   6.765   4.032  1.00 20.00     0.026 C 
BRANCH   3   4
HETATM    4  C7  UNL     1     -34.855   5.453   4.505  1.00 20.00     0.078 C 
HETATM    5  C2  UNL     1     -34.720   5.294   6.016  1.00 20.00     0.026 C 
HETATM    6 CL9  UNL     1     -34.104   4.041   3.707  1.00 20.00    -0.125 Cl
ENDBRANCH   3   4
ENDBRANCH   2   3
BRANCH   2   7
HETATM    7  C5  UNL     1     -33.082   6.912   1.768  1.00 20.00     0.171 C 
BRANCH   7   8
HETATM    8  O8  UNL     1     -32.309   8.037   1.374  1.00 20.00    -0.396 OA
HETATM    9  C3  UNL     1     -33.010   8.853   0.445  1.00 20.00     0.201 C 
ENDBRANCH   7   8
ENDBRANCH   2   7
TORSDOF 4
ENDMDL
MODEL 2
REMARK VINA RESULT:      -3.7      1.699      1.930
REMARK  4 active torsions:
REMARK  status: ('A' for Active; 'I' for Inactive)
REMARK    1  A    between atoms: C4_4  and  C6_6 
REMARK    2  A    between atoms: C4_4  and  C7_7 
REMARK    3  A    between atoms: C5_5  and  C6_6 
REMARK    4  A    between atoms: C5_5  and  O8_8 
ROOT
HETATM    1  C1  UNL     1     -32.996   4.631   2.506  1.00 20.00     0.012 C 
HETATM    2  C6  UNL     1     -33.619   6.025   2.581  1.00 20.00     0.007 C 
ENDROOT
BRANCH   2   3
HETATM    3  C4  UNL     1     -34.575   6.177   3.789  1.00 20.00     0.026 C 
BRANCH   3   4
HETATM    4  C7  UNL     1     -33.987   5.817   5.163  1.00 20.00     0.078 C 
HETATM    5  C2  UNL     1     -34.920   4.883   5.926  1.00 20.00     0.026 C 
HETATM    6 CL9  UNL     1     -33.707   7.283   6.147  1.00 20.00    -0.125 Cl
ENDBRANCH   3   4
ENDBRANCH   2   3
BRANCH   2   7
HETATM    7  C5  UNL     1     -32.505   7.081   2.643  1.00 20.00     0.171 C 
BRANCH   7   8
HETATM    8  O8  UNL     1     -32.153   7.499   1.331  1.00 20.00    -0.396 OA
HETATM    9  C3  UNL     1     -32.857   8.673   0.951  1.00 20.00     0.201 C 
ENDBRANCH   7   8
ENDBRANCH   2   7
TORSDOF 4
ENDMDL
MODEL 3
REMARK VINA RESULT:      -3.7     10.973     11.951
REMARK  4 active torsions:
REMARK  status: ('A' for Active; 'I' for Inactive)
REMARK    1  A    between atoms: C4_4  and  C6_6 
REMARK    2  A    between atoms: C4_4  and  C7_7 
REMARK    3  A    between atoms: C5_5  and  C6_6 
REMARK    4  A    between atoms: C5_5  and  O8_8 
ROOT
HETATM    1  C1  UNL     1     -35.746  14.547  -6.115  1.00 20.00     0.012 C 
HETATM    2  C6  UNL     1     -36.029  14.074  -4.688  1.00 20.00     0.007 C 
ENDROOT
BRANCH   2   3
HETATM    3  C4  UNL     1     -34.820  14.294  -3.746  1.00 20.00     0.026 C 
BRANCH   3   4
HETATM    4  C7  UNL     1     -34.529  15.753  -3.354  1.00 20.00     0.078 C 
HETATM    5  C2  UNL     1     -33.041  16.063  -3.481  1.00 20.00     0.026 C 
HETATM    6 CL9  UNL     1     -35.046  16.082  -1.675  1.00 20.00    -0.125 Cl
ENDBRANCH   3   4
ENDBRANCH   2   3
BRANCH   2   7
HETATM    7  C5  UNL     1     -37.270  14.798  -4.145  1.00 20.00     0.171 C 
BRANCH   7   8
HETATM    8  O8  UNL     1     -38.436  14.025  -4.398  1.00 20.00    -0.396 OA
HETATM    9  C3  UNL     1     -39.606  14.831  -4.405  1.00 20.00     0.201 C 
ENDBRANCH   7   8
ENDBRANCH   2   7
TORSDOF 4
ENDMDL
MODEL 4
REMARK VINA RESULT:      -3.6     11.123     11.653
REMARK  4 active torsions:
REMARK  status: ('A' for Active; 'I' for Inactive)
REMARK    1  A    between atoms: C4_4  and  C6_6 
REMARK    2  A    between atoms: C4_4  and  C7_7 
REMARK    3  A    between atoms: C5_5  and  C6_6 
REMARK    4  A    between atoms: C5_5  and  O8_8 
ROOT
HETATM    1  C1  UNL     1     -34.367  14.036  -4.128  1.00 20.00     0.012 C 
HETATM    2  C6  UNL     1     -35.720  14.563  -3.649  1.00 20.00     0.007 C 
ENDROOT
BRANCH   2   3
HETATM    3  C4  UNL     1     -35.623  16.001  -3.084  1.00 20.00     0.026 C 
BRANCH   3   4
HETATM    4  C7  UNL     1     -34.662  16.196  -1.900  1.00 20.00     0.078 C 
HETATM    5  C2  UNL     1     -35.320  17.016  -0.795  1.00 20.00     0.026 C 
HETATM    6 CL9  UNL     1     -33.165  17.025  -2.417  1.00 20.00    -0.125 Cl
ENDBRANCH   3   4
ENDBRANCH   2   3
BRANCH   2   7
HETATM    7  C5  UNL     1     -36.729  14.508  -4.805  1.00 20.00     0.171 C 
BRANCH   7   8
HETATM    8  O8  UNL     1     -37.929  13.878  -4.377  1.00 20.00    -0.396 OA
HETATM    9  C3  UNL     1     -38.982  14.818  -4.210  1.00 20.00     0.201 C 
ENDBRANCH   7   8
ENDBRANCH   2   7
TORSDOF 4
ENDMDL
MODEL 5
REMARK VINA RESULT:      -3.5     15.739     16.898
REMARK  4 active torsions:
REMARK  status: ('A' for Active; 'I' for Inactive)
REMARK    1  A    between atoms: C4_4  and  C6_6 
REMARK    2  A    between atoms: C4_4  and  C7_7 
REMARK    3  A    between atoms: C5_5  and  C6_6 
REMARK    4  A    between atoms: C5_5  and  O8_8 
ROOT
HETATM    1  C1  UNL     1     -24.381  15.991  11.193  1.00 20.00     0.012 C 
HETATM    2  C6  UNL     1     -23.594  17.149  11.807  1.00 20.00     0.007 C 
ENDROOT
BRANCH   2   3
HETATM    3  C4  UNL     1     -22.594  17.776  10.805  1.00 20.00     0.026 C 
BRANCH   3   4
HETATM    4  C7  UNL     1     -22.684  17.267   9.357  1.00 20.00     0.078 C 
HETATM    5  C2  UNL     1     -21.300  17.194   8.720  1.00 20.00     0.026 C 
HETATM    6 CL9  UNL     1     -23.720  18.332   8.364  1.00 20.00    -0.125 Cl
ENDBRANCH   3   4
ENDBRANCH   2   3
BRANCH   2   7
HETATM    7  C5  UNL     1     -24.572  18.214  12.327  1.00 20.00     0.171 C 
BRANCH   7   8
HETATM    8  O8  UNL     1     -25.428  18.644  11.277  1.00 20.00    -0.396 OA
HETATM    9  C3  UNL     1     -26.673  19.113  11.777  1.00 20.00     0.201 C 
ENDBRANCH   7   8
ENDBRANCH   2   7
TORSDOF 4
ENDMDL
MODEL 6
REMARK VINA RESULT:      -3.4     11.463     12.163
REMARK  4 active torsions:
REMARK  status: ('A' for Active; 'I' for Inactive)
REMARK    1  A    between atoms: C4_4  and  C6_6 
REMARK    2  A    between atoms: C4_4  and  C7_7 
REMARK    3  A    between atoms: C5_5  and  C6_6 
REMARK    4  A    between atoms: C5_5  and  O8_8 
ROOT
HETATM    1  C1  UNL     1     -33.071  14.497  -4.433  1.00 20.00     0.012 C 
HETATM    2  C6  UNL     1     -34.359  14.676  -3.628  1.00 20.00     0.007 C 
ENDROOT
BRANCH   2   3
HETATM    3  C4  UNL     1     -34.308  15.921  -2.709  1.00 20.00     0.026 C 
BRANCH   3   4
HETATM    4  C7  UNL     1     -33.155  16.905  -2.971  1.00 20.00     0.078 C 
HETATM    5  C2  UNL     1     -32.776  17.649  -1.696  1.00 20.00     0.026 C 
HETATM    6 CL9  UNL     1     -33.601  18.099  -4.225  1.00 20.00    -0.125 Cl
ENDBRANCH   3   4
ENDBRANCH   2   3
BRANCH   2   7
HETATM    7  C5  UNL     1     -35.554  14.767  -4.588  1.00 20.00     0.171 C 
BRANCH   7   8
HETATM    8  O8  UNL     1     -35.249  14.112  -5.812  1.00 20.00    -0.396 OA
HETATM    9  C3  UNL     1     -35.726  14.847  -6.931  1.00 20.00     0.201 C 
ENDBRANCH   7   8
ENDBRANCH   2   7
TORSDOF 4
ENDMDL
MODEL 7
REMARK VINA RESULT:      -3.4     11.440     12.269
REMARK  4 active torsions:
REMARK  status: ('A' for Active; 'I' for Inactive)
REMARK    1  A    between atoms: C4_4  and  C6_6 
REMARK    2  A    between atoms: C4_4  and  C7_7 
REMARK    3  A    between atoms: C5_5  and  C6_6 
REMARK    4  A    between atoms: C5_5  and  O8_8 
ROOT
HETATM    1  C1  UNL     1     -34.259  18.361  -0.622  1.00 20.00     0.012 C 
HETATM    2  C6  UNL     1     -32.979  17.812  -1.254  1.00 20.00     0.007 C 
ENDROOT
BRANCH   2   3
HETATM    3  C4  UNL     1     -33.213  17.286  -2.691  1.00 20.00     0.026 C 
BRANCH   3   4
HETATM    4  C7  UNL     1     -33.727  15.840  -2.803  1.00 20.00     0.078 C 
HETATM    5  C2  UNL     1     -33.235  15.187  -4.091  1.00 20.00     0.026 C 
HETATM    6 CL9  UNL     1     -35.513  15.788  -2.776  1.00 20.00    -0.125 Cl
ENDBRANCH   3   4
ENDBRANCH   2   3
BRANCH   2   7
HETATM    7  C5  UNL     1     -31.899  18.905  -1.253  1.00 20.00     0.171 C 
BRANCH   7   8
HETATM    8  O8  UNL     1     -30.696  18.402  -0.687  1.00 20.00    -0.396 OA
HETATM    9  C3  UNL     1     -30.789  18.296   0.727  1.00 20.00     0.201 C 
ENDBRANCH   7   8
ENDBRANCH   2   7
TORSDOF 4
ENDMDL
MODEL 8
REMARK VINA RESULT:      -3.4     15.643     16.633
REMARK  4 active torsions:
REMARK  status: ('A' for Active; 'I' for Inactive)
REMARK    1  A    between atoms: C4_4  and  C6_6 
REMARK    2  A    between atoms: C4_4  and  C7_7 
REMARK    3  A    between atoms: C5_5  and  C6_6 
REMARK    4  A    between atoms: C5_5  and  O8_8 
ROOT
HETATM    1  C1  UNL     1     -26.304  18.941  11.897  1.00 20.00     0.012 C 
HETATM    2  C6  UNL     1     -25.187  18.228  11.134  1.00 20.00     0.007 C 
ENDROOT
BRANCH   2   3
HETATM    3  C4  UNL     1     -24.726  19.024   9.889  1.00 20.00     0.026 C 
BRANCH   3   4
HETATM    4  C7  UNL     1     -24.372  18.187   8.648  1.00 20.00     0.078 C 
HETATM    5  C2  UNL     1     -22.864  17.991   8.537  1.00 20.00     0.026 C 
HETATM    6 CL9  UNL     1     -24.964  18.971   7.155  1.00 20.00    -0.125 Cl
ENDBRANCH   3   4
ENDBRANCH   2   3
BRANCH   2   7
HETATM    7  C5  UNL     1     -24.002  17.976  12.079  1.00 20.00     0.171 C 
BRANCH   7   8
HETATM    8  O8  UNL     1     -23.497  16.661  11.890  1.00 20.00    -0.396 OA
HETATM    9  C3  UNL     1     -24.544  15.726  11.672  1.00 20.00     0.201 C 
ENDBRANCH   7   8
ENDBRANCH   2   7
TORSDOF 4
ENDMDL
MODEL 9
REMARK VINA RESULT:      -3.4      2.898      4.371
REMARK  4 active torsions:
REMARK  status: ('A' for Active; 'I' for Inactive)
REMARK    1  A    between atoms: C4_4  and  C6_6 
REMARK    2  A    between atoms: C4_4  and  C7_7 
REMARK    3  A    between atoms: C5_5  and  C6_6 
REMARK    4  A    between atoms: C5_5  and  O8_8 
ROOT
HETATM    1  C1  UNL     1     -33.308   4.076   2.598  1.00 20.00     0.012 C 
HETATM    2  C6  UNL     1     -33.668   5.331   3.393  1.00 20.00     0.007 C 
ENDROOT
BRANCH   2   3
HETATM    3  C4  UNL     1     -33.782   6.584   2.491  1.00 20.00     0.026 C 
BRANCH   3   4
HETATM    4  C7  UNL     1     -32.457   7.273   2.125  1.00 20.00     0.078 C 
HETATM    5  C2  UNL     1     -31.702   7.701   3.380  1.00 20.00     0.026 C 
HETATM    6 CL9  UNL     1     -32.741   8.713   1.104  1.00 20.00    -0.125 Cl
ENDBRANCH   3   4
ENDBRANCH   2   3
BRANCH   2   7
HETATM    7  C5  UNL     1     -34.982   5.096   4.153  1.00 20.00     0.171 C 
BRANCH   7   8
HETATM    8  O8  UNL     1     -34.736   5.057   5.553  1.00 20.00    -0.396 OA
HETATM    9  C3  UNL     1     -34.287   6.315   6.039  1.00 20.00     0.201 C 
ENDBRANCH   7   8
ENDBRANCH   2   7
TORSDOF 4
ENDMDL
