MODEL 1
REMARK VINA RESULT:      -5.1      0.000      0.000
REMARK  3 active torsions:
REMARK  status: ('A' for Active; 'I' for Inactive)
REMARK    1  A    between atoms: C1_1  and  C5_5 
REMARK    2  A    between atoms: C2_2  and  C7_7 
REMARK    3  A    between atoms: C5_5  and  C6_6 
ROOT
HETATM    1  C1  UNL     1     -33.045   6.404   3.018  1.00 20.00    -0.029 C 
HETATM    2  C2  UNL     1     -33.930   6.573   4.012  1.00 20.00    -0.027 C 
ENDROOT
BRANCH   1   3
HETATM    3  C5  UNL     1     -32.185   7.507   2.470  1.00 20.00     0.042 C 
BRANCH   3   4
HETATM    4  C6  UNL     1     -32.469   7.800   1.000  1.00 20.00     0.118 C 
HETATM    5 CL8  UNL     1     -32.944   9.498   0.748  1.00 20.00    -0.130 Cl
ENDBRANCH   3   4
ENDBRANCH   1   3
BRANCH   2   6
HETATM    6  C7  UNL     1     -34.791   5.465   4.562  1.00 20.00    -0.001 C 
HETATM    7  C3  UNL     1     -34.729   5.458   6.090  1.00 20.00     0.013 C 
HETATM    8  C4  UNL     1     -34.338   4.118   4.001  1.00 20.00     0.013 C 
ENDBRANCH   2   6
TORSDOF 3
ENDMDL
MODEL 2
REMARK VINA RESULT:      -4.4      2.410      4.517
REMARK  3 active torsions:
REMARK  status: ('A' for Active; 'I' for Inactive)
REMARK    1  A    between atoms: C1_1  and  C5_5 
REMARK    2  A    between atoms: C2_2  and  C7_7 
REMARK    3  A    between atoms: C5_5  and  C6_6 
ROOT
HETATM    1  C1  UNL     1     -33.886   6.114   3.696  1.00 20.00    -0.029 C 
HETATM    2  C2  UNL     1     -33.114   6.001   2.604  1.00 20.00    -0.027 C 
ENDROOT
BRANCH   1   3
HETATM    3  C5  UNL     1     -34.837   5.048   4.160  1.00 20.00     0.042 C 
BRANCH   3   4
HETATM    4  C6  UNL     1     -35.021   5.041   5.675  1.00 20.00     0.118 C 
HETATM    5 CL8  UNL     1     -34.300   6.483   6.431  1.00 20.00    -0.130 Cl
ENDBRANCH   3   4
ENDBRANCH   1   3
BRANCH   2   6
HETATM    6  C7  UNL     1     -32.158   7.071   2.141  1.00 20.00    -0.001 C 
HETATM    7  C3  UNL     1     -31.562   7.802   3.344  1.00 20.00     0.013 C 
HETATM    8  C4  UNL     1     -32.876   8.054   1.217  1.00 20.00     0.013 C 
ENDBRANCH   2   6
TORSDOF 3
ENDMDL
MODEL 3
REMARK VINA RESULT:      -3.7      2.719      4.494
REMARK  3 active torsions:
REMARK  status: ('A' for Active; 'I' for Inactive)
REMARK    1  A    between atoms: C1_1  and  C5_5 
REMARK    2  A    between atoms: C2_2  and  C7_7 
REMARK    3  A    between atoms: C5_5  and  C6_6 
ROOT
HETATM    1  C1  UNL     1     -33.605   6.846   4.135  1.00 20.00    -0.029 C 
HETATM    2  C2  UNL     1     -32.503   7.288   3.511  1.00 20.00    -0.027 C 
ENDROOT
BRANCH   1   3
HETATM    3  C5  UNL     1     -33.834   6.976   5.614  1.00 20.00     0.042 C 
BRANCH   3   4
HETATM    4  C6  UNL     1     -34.602   5.793   6.198  1.00 20.00     0.118 C 
HETATM    5 CL8  UNL     1     -34.976   4.574   4.954  1.00 20.00    -0.130 Cl
ENDBRANCH   3   4
ENDBRANCH   1   3
BRANCH   2   6
HETATM    6  C7  UNL     1     -32.275   7.158   2.025  1.00 20.00    -0.001 C 
HETATM    7  C3  UNL     1     -32.774   8.410   1.304  1.00 20.00     0.013 C 
HETATM    8  C4  UNL     1     -32.982   5.913   1.491  1.00 20.00     0.013 C 
ENDBRANCH   2   6
TORSDOF 3
ENDMDL
MODEL 4
REMARK VINA RESULT:      -3.7     11.036     11.793
REMARK  3 active torsions:
REMARK  status: ('A' for Active; 'I' for Inactive)
REMARK    1  A    between atoms: C1_1  and  C5_5 
REMARK    2  A    between atoms: C2_2  and  C7_7 
REMARK    3  A    between atoms: C5_5  and  C6_6 
ROOT
HETATM    1  C1  UNL     1     -33.566  16.460  -2.617  1.00 20.00    -0.029 C 
HETATM    2  C2  UNL     1     -34.572  15.577  -2.688  1.00 20.00    -0.027 C 
ENDROOT
BRANCH   1   3
HETATM    3  C5  UNL     1     -33.492  17.560  -1.596  1.00 20.00     0.042 C 
BRANCH   3   4
HETATM    4  C6  UNL     1     -32.256  18.439  -1.766  1.00 20.00     0.118 C 
HETATM    5 CL8  UNL     1     -31.110  18.229  -0.419  1.00 20.00    -0.130 Cl
ENDBRANCH   3   4
ENDBRANCH   1   3
BRANCH   2   6
HETATM    6  C7  UNL     1     -34.644  14.471  -3.711  1.00 20.00    -0.001 C 
HETATM    7  C3  UNL     1     -33.692  14.763  -4.871  1.00 20.00     0.013 C 
HETATM    8  C4  UNL     1     -36.077  14.317  -4.220  1.00 20.00     0.013 C 
ENDBRANCH   2   6
TORSDOF 3
ENDMDL
MODEL 5
REMARK VINA RESULT:      -3.6     10.940     11.541
REMARK  3 active torsions:
REMARK  status: ('A' for Active; 'I' for Inactive)
REMARK    1  A    between atoms: C1_1  and  C5_5 
REMARK    2  A    between atoms: C2_2  and  C7_7 
REMARK    3  A    between atoms: C5_5  and  C6_6 
ROOT
HETATM    1  C1  UNL     1     -33.933  16.182  -2.537  1.00 20.00    -0.029 C 
HETATM    2  C2  UNL     1     -34.889  15.323  -2.920  1.00 20.00    -0.027 C 
ENDROOT
BRANCH   1   3
HETATM    3  C5  UNL     1     -34.142  17.260  -1.512  1.00 20.00     0.042 C 
BRANCH   3   4
HETATM    4  C6  UNL     1     -35.556  17.261  -0.939  1.00 20.00     0.118 C 
HETATM    5 CL8  UNL     1     -35.545  17.178   0.840  1.00 20.00    -0.130 Cl
ENDBRANCH   3   4
ENDBRANCH   1   3
BRANCH   2   6
HETATM    6  C7  UNL     1     -34.677  14.239  -3.947  1.00 20.00    -0.001 C 
HETATM    7  C3  UNL     1     -33.789  14.752  -5.080  1.00 20.00     0.013 C 
HETATM    8  C4  UNL     1     -36.022  13.762  -4.494  1.00 20.00     0.013 C 
ENDBRANCH   2   6
TORSDOF 3
ENDMDL
MODEL 6
REMARK VINA RESULT:      -3.6     11.232     11.971
REMARK  3 active torsions:
REMARK  status: ('A' for Active; 'I' for Inactive)
REMARK    1  A    between atoms: C1_1  and  C5_5 
REMARK    2  A    between atoms: C2_2  and  C7_7 
REMARK    3  A    between atoms: C5_5  and  C6_6 
ROOT
HETATM    1  C1  UNL     1     -33.911  17.291  -1.765  1.00 20.00    -0.029 C 
HETATM    2  C2  UNL     1     -33.250  16.604  -2.710  1.00 20.00    -0.027 C 
ENDROOT
BRANCH   1   3
HETATM    3  C5  UNL     1     -33.235  18.123  -0.713  1.00 20.00     0.042 C 
BRANCH   3   4
HETATM    4  C6  UNL     1     -31.751  18.339  -0.996  1.00 20.00     0.118 C 
HETATM    5 CL8  UNL     1     -30.767  18.157   0.478  1.00 20.00    -0.130 Cl
ENDBRANCH   3   4
ENDBRANCH   1   3
BRANCH   2   6
HETATM    6  C7  UNL     1     -33.929  15.770  -3.767  1.00 20.00    -0.001 C 
HETATM    7  C3  UNL     1     -35.209  15.149  -3.207  1.00 20.00     0.013 C 
HETATM    8  C4  UNL     1     -32.980  14.683  -4.269  1.00 20.00     0.013 C 
ENDBRANCH   2   6
TORSDOF 3
ENDMDL
MODEL 7
REMARK VINA RESULT:      -3.5     11.072     11.581
REMARK  3 active torsions:
REMARK  status: ('A' for Active; 'I' for Inactive)
REMARK    1  A    between atoms: C1_1  and  C5_5 
REMARK    2  A    between atoms: C2_2  and  C7_7 
REMARK    3  A    between atoms: C5_5  and  C6_6 
ROOT
HETATM    1  C1  UNL     1     -33.634  15.855  -3.150  1.00 20.00    -0.029 C 
HETATM    2  C2  UNL     1     -34.664  16.204  -2.365  1.00 20.00    -0.027 C 
ENDROOT
BRANCH   1   3
HETATM    3  C5  UNL     1     -33.655  14.674  -4.078  1.00 20.00     0.042 C 
BRANCH   3   4
HETATM    4  C6  UNL     1     -34.853  14.690  -5.024  1.00 20.00     0.118 C 
HETATM    5 CL8  UNL     1     -36.143  13.594  -4.469  1.00 20.00    -0.130 Cl
ENDBRANCH   3   4
ENDBRANCH   1   3
BRANCH   2   6
HETATM    6  C7  UNL     1     -34.642  17.392  -1.435  1.00 20.00    -0.001 C 
HETATM    7  C3  UNL     1     -33.201  17.814  -1.152  1.00 20.00     0.013 C 
HETATM    8  C4  UNL     1     -35.368  17.054  -0.133  1.00 20.00     0.013 C 
ENDBRANCH   2   6
TORSDOF 3
ENDMDL
MODEL 8
REMARK VINA RESULT:      -3.5      2.628      4.833
REMARK  3 active torsions:
REMARK  status: ('A' for Active; 'I' for Inactive)
REMARK    1  A    between atoms: C1_1  and  C5_5 
REMARK    2  A    between atoms: C2_2  and  C7_7 
REMARK    3  A    between atoms: C5_5  and  C6_6 
ROOT
HETATM    1  C1  UNL     1     -33.457   6.892   2.482  1.00 20.00    -0.029 C 
HETATM    2  C2  UNL     1     -32.399   7.365   1.806  1.00 20.00    -0.027 C 
ENDROOT
BRANCH   1   3
HETATM    3  C5  UNL     1     -33.376   5.774   3.481  1.00 20.00     0.042 C 
BRANCH   3   4
HETATM    4  C6  UNL     1     -34.735   5.417   4.077  1.00 20.00     0.118 C 
HETATM    5 CL8  UNL     1     -34.703   5.454   5.857  1.00 20.00    -0.130 Cl
ENDBRANCH   3   4
ENDBRANCH   1   3
BRANCH   2   6
HETATM    6  C7  UNL     1     -32.481   8.489   0.804  1.00 20.00    -0.001 C 
HETATM    7  C3  UNL     1     -33.156   9.708   1.433  1.00 20.00     0.013 C 
HETATM    8  C4  UNL     1     -33.246   8.033  -0.438  1.00 20.00     0.013 C 
ENDBRANCH   2   6
TORSDOF 3
ENDMDL
MODEL 9
REMARK VINA RESULT:      -3.5     11.177     12.040
REMARK  3 active torsions:
REMARK  status: ('A' for Active; 'I' for Inactive)
REMARK    1  A    between atoms: C1_1  and  C5_5 
REMARK    2  A    between atoms: C2_2  and  C7_7 
REMARK    3  A    between atoms: C5_5  and  C6_6 
ROOT
HETATM    1  C1  UNL     1     -34.294  16.292  -2.278  1.00 20.00    -0.029 C 
HETATM    2  C2  UNL     1     -33.198  17.065  -2.256  1.00 20.00    -0.027 C 
ENDROOT
BRANCH   1   3
HETATM    3  C5  UNL     1     -34.488  15.148  -3.232  1.00 20.00     0.042 C 
BRANCH   3   4
HETATM    4  C6  UNL     1     -33.311  14.970  -4.187  1.00 20.00     0.118 C 
HETATM    5 CL8  UNL     1     -33.845  14.897  -5.884  1.00 20.00    -0.130 Cl
ENDBRANCH   3   4
ENDBRANCH   1   3
BRANCH   2   6
HETATM    6  C7  UNL     1     -33.003  18.212  -1.296  1.00 20.00    -0.001 C 
HETATM    7  C3  UNL     1     -31.559  18.241  -0.795  1.00 20.00     0.013 C 
HETATM    8  C4  UNL     1     -33.976  18.088  -0.124  1.00 20.00     0.013 C 
ENDBRANCH   2   6
TORSDOF 3
ENDMDL
