MODEL 1
REMARK VINA RESULT:      -5.4      0.000      0.000
REMARK  3 active torsions:
REMARK  status: ('A' for Active; 'I' for Inactive)
REMARK    1  A    between atoms: C7_7  and  C9_9 
REMARK    2  A    between atoms: C8_8  and  O11_11 
REMARK    3  A    between atoms: C9_9  and  O11_11 
ROOT
HETATM    1  C1  UNL     1     -34.595   5.532   5.357  1.00 20.00     0.129 C 
HETATM    2  C2  UNL     1     -34.777   4.685   4.125  1.00 20.00     0.081 C 
HETATM    3  C3  UNL     1     -33.712   6.727   5.104  1.00 20.00     0.110 C 
HETATM    4  C4  UNL     1     -33.678   5.220   3.221  1.00 20.00     0.040 C 
HETATM    5  C8  UNL     1     -33.562   6.695   3.587  1.00 20.00     0.128 C 
HETATM    6  O10 UNL     1     -35.112   5.283   6.439  1.00 20.00    -0.298 OA
ENDROOT
BRANCH   5   7
HETATM    7  O11 UNL     1     -32.302   7.214   3.201  1.00 20.00    -0.385 OA
BRANCH   7   8
HETATM    8  C9  UNL     1     -32.180   7.283   1.789  1.00 20.00     0.172 C 
BRANCH   8   9
HETATM    9  C7  UNL     1     -33.206   8.258   1.252  1.00 20.00     0.009 A 
HETATM   10  C5  UNL     1     -32.775   9.599   0.726  1.00 20.00     0.007 A 
HETATM   11  C6  UNL     1     -33.279   8.546  -0.222  1.00 20.00     0.007 A 
ENDBRANCH   8   9
ENDBRANCH   7   8
ENDBRANCH   5   7
TORSDOF 3
ENDMDL
MODEL 2
REMARK VINA RESULT:      -4.4     10.734     11.618
REMARK  3 active torsions:
REMARK  status: ('A' for Active; 'I' for Inactive)
REMARK    1  A    between atoms: C7_7  and  C9_9 
REMARK    2  A    between atoms: C8_8  and  O11_11 
REMARK    3  A    between atoms: C9_9  and  O11_11 
ROOT
HETATM    1  C1  UNL     1     -36.983  14.292  -4.395  1.00 20.00     0.129 C 
HETATM    2  C2  UNL     1     -35.824  13.329  -4.358  1.00 20.00     0.081 C 
HETATM    3  C3  UNL     1     -36.532  15.730  -4.427  1.00 20.00     0.110 C 
HETATM    4  C4  UNL     1     -34.670  14.254  -4.004  1.00 20.00     0.040 C 
HETATM    5  C8  UNL     1     -35.030  15.587  -4.652  1.00 20.00     0.128 C 
HETATM    6  O10 UNL     1     -38.157  13.945  -4.407  1.00 20.00    -0.298 OA
ENDROOT
BRANCH   5   7
HETATM    7  O11 UNL     1     -34.331  16.653  -4.037  1.00 20.00    -0.385 OA
BRANCH   7   8
HETATM    8  C9  UNL     1     -33.647  16.221  -2.871  1.00 20.00     0.172 C 
BRANCH   8   9
HETATM    9  C7  UNL     1     -34.013  17.132  -1.719  1.00 20.00     0.009 A 
HETATM   10  C5  UNL     1     -35.229  18.011  -1.805  1.00 20.00     0.007 A 
HETATM   11  C6  UNL     1     -35.218  16.833  -0.871  1.00 20.00     0.007 A 
ENDBRANCH   8   9
ENDBRANCH   7   8
ENDBRANCH   5   7
TORSDOF 3
ENDMDL
MODEL 3
REMARK VINA RESULT:      -4.3     10.909     11.914
REMARK  3 active torsions:
REMARK  status: ('A' for Active; 'I' for Inactive)
REMARK    1  A    between atoms: C7_7  and  C9_9 
REMARK    2  A    between atoms: C8_8  and  O11_11 
REMARK    3  A    between atoms: C9_9  and  O11_11 
ROOT
HETATM    1  C1  UNL     1     -33.894  14.835  -4.087  1.00 20.00     0.129 C 
HETATM    2  C2  UNL     1     -35.284  14.694  -3.522  1.00 20.00     0.081 C 
HETATM    3  C3  UNL     1     -33.120  15.949  -3.430  1.00 20.00     0.110 C 
HETATM    4  C4  UNL     1     -35.436  15.998  -2.755  1.00 20.00     0.040 C 
HETATM    5  C8  UNL     1     -34.029  16.324  -2.265  1.00 20.00     0.128 C 
HETATM    6  O10 UNL     1     -33.442  14.121  -4.973  1.00 20.00    -0.298 OA
ENDROOT
BRANCH   5   7
HETATM    7  O11 UNL     1     -33.906  17.701  -1.961  1.00 20.00    -0.385 OA
BRANCH   7   8
HETATM    8  C9  UNL     1     -32.601  18.181  -2.246  1.00 20.00     0.172 C 
BRANCH   8   9
HETATM    9  C7  UNL     1     -32.080  18.936  -1.042  1.00 20.00     0.009 A 
HETATM   10  C5  UNL     1     -32.412  18.469   0.347  1.00 20.00     0.007 A 
HETATM   11  C6  UNL     1     -31.009  18.332  -0.176  1.00 20.00     0.007 A 
ENDBRANCH   8   9
ENDBRANCH   7   8
ENDBRANCH   5   7
TORSDOF 3
ENDMDL
MODEL 4
REMARK VINA RESULT:      -4.3     10.857     12.029
REMARK  3 active torsions:
REMARK  status: ('A' for Active; 'I' for Inactive)
REMARK    1  A    between atoms: C7_7  and  C9_9 
REMARK    2  A    between atoms: C8_8  and  O11_11 
REMARK    3  A    between atoms: C9_9  and  O11_11 
ROOT
HETATM    1  C1  UNL     1     -31.672  18.352  -0.521  1.00 20.00     0.129 C 
HETATM    2  C2  UNL     1     -32.648  18.600   0.599  1.00 20.00     0.081 C 
HETATM    3  C3  UNL     1     -32.362  18.038  -1.824  1.00 20.00     0.110 C 
HETATM    4  C4  UNL     1     -33.941  18.066   0.001  1.00 20.00     0.040 C 
HETATM    5  C8  UNL     1     -33.818  18.346  -1.493  1.00 20.00     0.128 C 
HETATM    6  O10 UNL     1     -30.455  18.409  -0.390  1.00 20.00    -0.298 OA
ENDROOT
BRANCH   5   7
HETATM    7  O11 UNL     1     -34.685  17.508  -2.236  1.00 20.00    -0.385 OA
BRANCH   7   8
HETATM    8  C9  UNL     1     -34.215  16.169  -2.264  1.00 20.00     0.172 C 
BRANCH   8   9
HETATM    9  C7  UNL     1     -34.409  15.607  -3.656  1.00 20.00     0.009 A 
HETATM   10  C5  UNL     1     -33.364  14.714  -4.265  1.00 20.00     0.007 A 
HETATM   11  C6  UNL     1     -34.691  14.143  -3.849  1.00 20.00     0.007 A 
ENDBRANCH   8   9
ENDBRANCH   7   8
ENDBRANCH   5   7
TORSDOF 3
ENDMDL
MODEL 5
REMARK VINA RESULT:      -4.3     10.600     11.661
REMARK  3 active torsions:
REMARK  status: ('A' for Active; 'I' for Inactive)
REMARK    1  A    between atoms: C7_7  and  C9_9 
REMARK    2  A    between atoms: C8_8  and  O11_11 
REMARK    3  A    between atoms: C9_9  and  O11_11 
ROOT
HETATM    1  C1  UNL     1     -35.835  13.763  -4.246  1.00 20.00     0.129 C 
HETATM    2  C2  UNL     1     -37.067  14.629  -4.249  1.00 20.00     0.081 C 
HETATM    3  C3  UNL     1     -34.609  14.513  -3.792  1.00 20.00     0.110 C 
HETATM    4  C4  UNL     1     -36.464  16.019  -4.126  1.00 20.00     0.040 C 
HETATM    5  C8  UNL     1     -35.207  15.821  -3.286  1.00 20.00     0.128 C 
HETATM    6  O10 UNL     1     -35.830  12.581  -4.568  1.00 20.00    -0.298 OA
ENDROOT
BRANCH   5   7
HETATM    7  O11 UNL     1     -34.299  16.891  -3.477  1.00 20.00    -0.385 OA
BRANCH   7   8
HETATM    8  C9  UNL     1     -33.164  16.764  -2.633  1.00 20.00     0.172 C 
BRANCH   8   9
HETATM    9  C7  UNL     1     -32.909  18.090  -1.948  1.00 20.00     0.009 A 
HETATM   10  C5  UNL     1     -33.171  18.244  -0.476  1.00 20.00     0.007 A 
HETATM   11  C6  UNL     1     -31.759  18.238  -0.991  1.00 20.00     0.007 A 
ENDBRANCH   8   9
ENDBRANCH   7   8
ENDBRANCH   5   7
TORSDOF 3
ENDMDL
MODEL 6
REMARK VINA RESULT:      -4.3     10.572     11.501
REMARK  3 active torsions:
REMARK  status: ('A' for Active; 'I' for Inactive)
REMARK    1  A    between atoms: C7_7  and  C9_9 
REMARK    2  A    between atoms: C8_8  and  O11_11 
REMARK    3  A    between atoms: C9_9  and  O11_11 
ROOT
HETATM    1  C1  UNL     1     -35.465  13.838  -4.185  1.00 20.00     0.129 C 
HETATM    2  C2  UNL     1     -34.011  14.231  -4.148  1.00 20.00     0.081 C 
HETATM    3  C3  UNL     1     -36.370  14.949  -3.716  1.00 20.00     0.110 C 
HETATM    4  C4  UNL     1     -34.057  15.490  -3.297  1.00 20.00     0.040 C 
HETATM    5  C8  UNL     1     -35.405  16.125  -3.620  1.00 20.00     0.128 C 
HETATM    6  O10 UNL     1     -35.867  12.745  -4.562  1.00 20.00    -0.298 OA
ENDROOT
BRANCH   5   7
HETATM    7  O11 UNL     1     -35.804  17.013  -2.592  1.00 20.00    -0.385 OA
BRANCH   7   8
HETATM    8  C9  UNL     1     -35.255  16.636  -1.338  1.00 20.00     0.172 C 
BRANCH   8   9
HETATM    9  C7  UNL     1     -35.043  17.877  -0.499  1.00 20.00     0.009 A 
HETATM   10  C5  UNL     1     -34.713  17.757   0.963  1.00 20.00     0.007 A 
HETATM   11  C6  UNL     1     -33.667  18.233  -0.007  1.00 20.00     0.007 A 
ENDBRANCH   8   9
ENDBRANCH   7   8
ENDBRANCH   5   7
TORSDOF 3
ENDMDL
MODEL 7
REMARK VINA RESULT:      -4.1     15.292     16.139
REMARK  3 active torsions:
REMARK  status: ('A' for Active; 'I' for Inactive)
REMARK    1  A    between atoms: C7_7  and  C9_9 
REMARK    2  A    between atoms: C8_8  and  O11_11 
REMARK    3  A    between atoms: C9_9  and  O11_11 
ROOT
HETATM    1  C1  UNL     1     -27.426  17.441  12.142  1.00 20.00     0.129 C 
HETATM    2  C2  UNL     1     -27.462  18.909  11.806  1.00 20.00     0.081 C 
HETATM    3  C3  UNL     1     -26.020  16.931  12.330  1.00 20.00     0.110 C 
HETATM    4  C4  UNL     1     -26.010  19.175  11.443  1.00 20.00     0.040 C 
HETATM    5  C8  UNL     1     -25.211  18.223  12.327  1.00 20.00     0.128 C 
HETATM    6  O10 UNL     1     -28.425  16.743  12.260  1.00 20.00    -0.298 OA
ENDROOT
BRANCH   5   7
HETATM    7  O11 UNL     1     -23.919  18.001  11.791  1.00 20.00    -0.385 OA
BRANCH   7   8
HETATM    8  C9  UNL     1     -23.910  16.898  10.898  1.00 20.00     0.172 C 
BRANCH   8   9
HETATM    9  C7  UNL     1     -23.553  17.388   9.512  1.00 20.00     0.009 A 
HETATM   10  C5  UNL     1     -22.524  18.470   9.332  1.00 20.00     0.007 A 
HETATM   11  C6  UNL     1     -22.213  17.059   8.914  1.00 20.00     0.007 A 
ENDBRANCH   8   9
ENDBRANCH   7   8
ENDBRANCH   5   7
TORSDOF 3
ENDMDL
MODEL 8
REMARK VINA RESULT:      -4.0     10.798     11.957
REMARK  3 active torsions:
REMARK  status: ('A' for Active; 'I' for Inactive)
REMARK    1  A    between atoms: C7_7  and  C9_9 
REMARK    2  A    between atoms: C8_8  and  O11_11 
REMARK    3  A    between atoms: C9_9  and  O11_11 
ROOT
HETATM    1  C1  UNL     1     -34.822  16.105  -2.233  1.00 20.00     0.129 C 
HETATM    2  C2  UNL     1     -33.400  16.429  -2.609  1.00 20.00     0.081 C 
HETATM    3  C3  UNL     1     -35.420  15.042  -3.119  1.00 20.00     0.110 C 
HETATM    4  C4  UNL     1     -33.291  15.781  -3.980  1.00 20.00     0.040 C 
HETATM    5  C8  UNL     1     -34.204  14.562  -3.904  1.00 20.00     0.128 C 
HETATM    6  O10 UNL     1     -35.421  16.637  -1.307  1.00 20.00    -0.298 OA
ENDROOT
BRANCH   5   7
HETATM    7  O11 UNL     1     -34.585  14.135  -5.199  1.00 20.00    -0.385 OA
BRANCH   7   8
HETATM    8  C9  UNL     1     -34.084  15.007  -6.202  1.00 20.00     0.172 C 
BRANCH   8   9
HETATM    9  C7  UNL     1     -35.214  15.385  -7.135  1.00 20.00     0.009 A 
HETATM   10  C5  UNL     1     -36.516  15.895  -6.582  1.00 20.00     0.007 A 
HETATM   11  C6  UNL     1     -35.594  16.828  -7.317  1.00 20.00     0.007 A 
ENDBRANCH   8   9
ENDBRANCH   7   8
ENDBRANCH   5   7
TORSDOF 3
ENDMDL
MODEL 9
REMARK VINA RESULT:      -4.0      9.911     10.742
REMARK  3 active torsions:
REMARK  status: ('A' for Active; 'I' for Inactive)
REMARK    1  A    between atoms: C7_7  and  C9_9 
REMARK    2  A    between atoms: C8_8  and  O11_11 
REMARK    3  A    between atoms: C9_9  and  O11_11 
ROOT
HETATM    1  C1  UNL     1     -41.943   8.691   0.055  1.00 20.00     0.129 C 
HETATM    2  C2  UNL     1     -41.233   7.593   0.802  1.00 20.00     0.081 C 
HETATM    3  C3  UNL     1     -42.972   8.156  -0.908  1.00 20.00     0.110 C 
HETATM    4  C4  UNL     1     -41.620   6.369  -0.013  1.00 20.00     0.040 C 
HETATM    5  C8  UNL     1     -43.020   6.679  -0.532  1.00 20.00     0.128 C 
HETATM    6  O10 UNL     1     -41.718   9.884   0.218  1.00 20.00    -0.298 OA
ENDROOT
BRANCH   5   7
HETATM    7  O11 UNL     1     -43.325   5.886  -1.665  1.00 20.00    -0.385 OA
BRANCH   7   8
HETATM    8  C9  UNL     1     -42.614   4.658  -1.647  1.00 20.00     0.172 C 
BRANCH   8   9
HETATM    9  C7  UNL     1     -43.074   3.804  -2.808  1.00 20.00     0.009 A 
HETATM   10  C5  UNL     1     -42.178   2.732  -3.362  1.00 20.00     0.007 A 
HETATM   11  C6  UNL     1     -43.415   2.355  -2.594  1.00 20.00     0.007 A 
ENDBRANCH   8   9
ENDBRANCH   7   8
ENDBRANCH   5   7
TORSDOF 3
ENDMDL
