MODEL 1
REMARK VINA RESULT:      -5.0      0.000      0.000
REMARK  2 active torsions:
REMARK  status: ('A' for Active; 'I' for Inactive)
REMARK    1  A    between atoms: C2_2  and  C8_8 
REMARK    2  A    between atoms: C2_2  and  C9_9 
ROOT
HETATM    1  C1  UNL     1     -34.118   4.597   3.774  1.00 20.00     0.127 C 
HETATM    2  C3  UNL     1     -34.750   5.664   4.626  1.00 20.00     0.079 C 
HETATM    3  C4  UNL     1     -33.223   5.170   2.705  1.00 20.00     0.090 C 
HETATM    4  C5  UNL     1     -33.899   6.878   4.283  1.00 20.00     0.020 C 
HETATM    5  C8  UNL     1     -33.485   6.670   2.828  1.00 20.00     0.063 C 
HETATM    6  O10 UNL     1     -34.322   3.399   3.920  1.00 20.00    -0.298 OA
ENDROOT
BRANCH   5   7
HETATM    7  C2  UNL     1     -32.255   7.455   2.503  1.00 20.00     0.135 C 
HETATM    8  O11 UNL     1     -31.367   7.637   3.334  1.00 20.00    -0.297 OA
BRANCH   7   9
HETATM    9  C9  UNL     1     -32.156   8.012   1.108  1.00 20.00     0.056 A 
HETATM   10  C6  UNL     1     -33.376   7.997   0.259  1.00 20.00     0.013 A 
HETATM   11  C7  UNL     1     -32.856   9.290   0.813  1.00 20.00     0.013 A 
ENDBRANCH   7   9
ENDBRANCH   5   7
TORSDOF 2
ENDMDL
MODEL 2
REMARK VINA RESULT:      -5.0      1.551      1.879
REMARK  2 active torsions:
REMARK  status: ('A' for Active; 'I' for Inactive)
REMARK    1  A    between atoms: C2_2  and  C8_8 
REMARK    2  A    between atoms: C2_2  and  C9_9 
ROOT
HETATM    1  C1  UNL     1     -34.670   5.577   5.682  1.00 20.00     0.127 C 
HETATM    2  C3  UNL     1     -34.015   6.859   6.116  1.00 20.00     0.079 C 
HETATM    3  C4  UNL     1     -34.528   5.330   4.203  1.00 20.00     0.090 C 
HETATM    4  C5  UNL     1     -33.137   7.179   4.916  1.00 20.00     0.020 C 
HETATM    5  C8  UNL     1     -33.903   6.635   3.712  1.00 20.00     0.063 C 
HETATM    6  O10 UNL     1     -35.268   4.825   6.443  1.00 20.00    -0.298 OA
ENDROOT
BRANCH   5   7
HETATM    7  C2  UNL     1     -32.984   6.386   2.559  1.00 20.00     0.135 C 
HETATM    8  O11 UNL     1     -32.828   5.260   2.090  1.00 20.00    -0.297 OA
BRANCH   7   9
HETATM    9  C9  UNL     1     -32.259   7.581   2.002  1.00 20.00     0.056 A 
HETATM   10  C6  UNL     1     -32.121   7.692   0.526  1.00 20.00     0.013 A 
HETATM   11  C7  UNL     1     -33.052   8.602   1.269  1.00 20.00     0.013 A 
ENDBRANCH   7   9
ENDBRANCH   5   7
TORSDOF 2
ENDMDL
MODEL 3
REMARK VINA RESULT:      -4.6     10.726     11.796
REMARK  2 active torsions:
REMARK  status: ('A' for Active; 'I' for Inactive)
REMARK    1  A    between atoms: C2_2  and  C8_8 
REMARK    2  A    between atoms: C2_2  and  C9_9 
ROOT
HETATM    1  C1  UNL     1     -33.384  16.794  -2.359  1.00 20.00     0.127 C 
HETATM    2  C3  UNL     1     -34.717  16.643  -1.679  1.00 20.00     0.079 C 
HETATM    3  C4  UNL     1     -33.222  15.849  -3.522  1.00 20.00     0.090 C 
HETATM    4  C5  UNL     1     -35.503  15.851  -2.713  1.00 20.00     0.020 C 
HETATM    5  C8  UNL     1     -34.466  14.971  -3.407  1.00 20.00     0.063 C 
HETATM    6  O10 UNL     1     -32.520  17.583  -1.998  1.00 20.00    -0.298 OA
ENDROOT
BRANCH   5   7
HETATM    7  C2  UNL     1     -34.943  14.542  -4.757  1.00 20.00     0.135 C 
HETATM    8  O11 UNL     1     -35.492  13.456  -4.932  1.00 20.00    -0.297 OA
BRANCH   7   9
HETATM    9  C9  UNL     1     -34.719  15.505  -5.892  1.00 20.00     0.056 A 
HETATM   10  C6  UNL     1     -33.920  15.042  -7.056  1.00 20.00     0.013 A 
HETATM   11  C7  UNL     1     -35.402  15.235  -7.184  1.00 20.00     0.013 A 
ENDBRANCH   7   9
ENDBRANCH   5   7
TORSDOF 2
ENDMDL
MODEL 4
REMARK VINA RESULT:      -4.5     10.451     11.523
REMARK  2 active torsions:
REMARK  status: ('A' for Active; 'I' for Inactive)
REMARK    1  A    between atoms: C2_2  and  C8_8 
REMARK    2  A    between atoms: C2_2  and  C9_9 
ROOT
HETATM    1  C1  UNL     1     -36.643  14.212  -4.163  1.00 20.00     0.127 C 
HETATM    2  C3  UNL     1     -35.458  13.288  -4.225  1.00 20.00     0.079 C 
HETATM    3  C4  UNL     1     -36.279  15.581  -3.651  1.00 20.00     0.090 C 
HETATM    4  C5  UNL     1     -34.298  14.265  -4.103  1.00 20.00     0.020 C 
HETATM    5  C8  UNL     1     -34.825  15.394  -3.220  1.00 20.00     0.063 C 
HETATM    6  O10 UNL     1     -37.780  13.883  -4.478  1.00 20.00    -0.298 OA
ENDROOT
BRANCH   5   7
HETATM    7  C2  UNL     1     -34.041  16.650  -3.429  1.00 20.00     0.135 C 
HETATM    8  O11 UNL     1     -34.205  17.355  -4.423  1.00 20.00    -0.297 OA
BRANCH   7   9
HETATM    9  C9  UNL     1     -33.041  17.008  -2.364  1.00 20.00     0.056 A 
HETATM   10  C6  UNL     1     -32.640  18.433  -2.229  1.00 20.00     0.013 A 
HETATM   11  C7  UNL     1     -33.516  17.792  -1.193  1.00 20.00     0.013 A 
ENDBRANCH   7   9
ENDBRANCH   5   7
TORSDOF 2
ENDMDL
MODEL 5
REMARK VINA RESULT:      -4.5     10.695     11.641
REMARK  2 active torsions:
REMARK  status: ('A' for Active; 'I' for Inactive)
REMARK    1  A    between atoms: C2_2  and  C8_8 
REMARK    2  A    between atoms: C2_2  and  C9_9 
ROOT
HETATM    1  C1  UNL     1     -37.002  14.410  -4.631  1.00 20.00     0.127 C 
HETATM    2  C3  UNL     1     -37.005  15.570  -5.589  1.00 20.00     0.079 C 
HETATM    3  C4  UNL     1     -35.632  14.131  -4.070  1.00 20.00     0.090 C 
HETATM    4  C5  UNL     1     -35.666  16.225  -5.285  1.00 20.00     0.020 C 
HETATM    5  C8  UNL     1     -34.746  15.074  -4.883  1.00 20.00     0.063 C 
HETATM    6  O10 UNL     1     -37.998  13.755  -4.352  1.00 20.00    -0.298 OA
ENDROOT
BRANCH   5   7
HETATM    7  C2  UNL     1     -33.597  15.566  -4.063  1.00 20.00     0.135 C 
HETATM    8  O11 UNL     1     -32.528  14.959  -4.020  1.00 20.00    -0.297 OA
BRANCH   7   9
HETATM    9  C9  UNL     1     -33.811  16.841  -3.293  1.00 20.00     0.056 A 
HETATM   10  C6  UNL     1     -34.237  16.739  -1.873  1.00 20.00     0.013 A 
HETATM   11  C7  UNL     1     -32.845  17.179  -2.215  1.00 20.00     0.013 A 
ENDBRANCH   7   9
ENDBRANCH   5   7
TORSDOF 2
ENDMDL
MODEL 6
REMARK VINA RESULT:      -4.5     10.456     11.671
REMARK  2 active torsions:
REMARK  status: ('A' for Active; 'I' for Inactive)
REMARK    1  A    between atoms: C2_2  and  C8_8 
REMARK    2  A    between atoms: C2_2  and  C9_9 
ROOT
HETATM    1  C1  UNL     1     -35.531  13.779  -4.665  1.00 20.00     0.127 C 
HETATM    2  C3  UNL     1     -36.033  14.672  -5.766  1.00 20.00     0.079 C 
HETATM    3  C4  UNL     1     -34.465  14.440  -3.829  1.00 20.00     0.090 C 
HETATM    4  C5  UNL     1     -35.514  16.032  -5.322  1.00 20.00     0.020 C 
HETATM    5  C8  UNL     1     -34.203  15.735  -4.596  1.00 20.00     0.063 C 
HETATM    6  O10 UNL     1     -35.930  12.636  -4.479  1.00 20.00    -0.298 OA
ENDROOT
BRANCH   5   7
HETATM    7  C2  UNL     1     -33.844  16.845  -3.662  1.00 20.00     0.135 C 
HETATM    8  O11 UNL     1     -33.545  17.964  -4.075  1.00 20.00    -0.297 OA
BRANCH   7   9
HETATM    9  C9  UNL     1     -33.864  16.526  -2.192  1.00 20.00     0.056 A 
HETATM   10  C6  UNL     1     -33.762  17.652  -1.228  1.00 20.00     0.013 A 
HETATM   11  C7  UNL     1     -35.061  16.925  -1.405  1.00 20.00     0.013 A 
ENDBRANCH   7   9
ENDBRANCH   5   7
TORSDOF 2
ENDMDL
MODEL 7
REMARK VINA RESULT:      -4.4     15.680     16.913
REMARK  2 active torsions:
REMARK  status: ('A' for Active; 'I' for Inactive)
REMARK    1  A    between atoms: C2_2  and  C8_8 
REMARK    2  A    between atoms: C2_2  and  C9_9 
ROOT
HETATM    1  C1  UNL     1     -23.222  18.256   7.812  1.00 20.00     0.127 C 
HETATM    2  C3  UNL     1     -21.955  17.447   7.752  1.00 20.00     0.079 C 
HETATM    3  C4  UNL     1     -23.885  18.185   9.163  1.00 20.00     0.090 C 
HETATM    4  C5  UNL     1     -21.673  17.204   9.227  1.00 20.00     0.020 C 
HETATM    5  C8  UNL     1     -23.050  17.129   9.884  1.00 20.00     0.063 C 
HETATM    6  O10 UNL     1     -23.672  18.888   6.865  1.00 20.00    -0.298 OA
ENDROOT
BRANCH   5   7
HETATM    7  C2  UNL     1     -22.963  17.424  11.347  1.00 20.00     0.135 C 
HETATM    8  O11 UNL     1     -22.134  18.212  11.798  1.00 20.00    -0.297 OA
BRANCH   7   9
HETATM    9  C9  UNL     1     -23.940  16.710  12.241  1.00 20.00     0.056 A 
HETATM   10  C6  UNL     1     -25.392  16.904  11.990  1.00 20.00     0.013 A 
HETATM   11  C7  UNL     1     -24.736  15.597  11.660  1.00 20.00     0.013 A 
ENDBRANCH   7   9
ENDBRANCH   5   7
TORSDOF 2
ENDMDL
MODEL 8
REMARK VINA RESULT:      -4.4     10.905     11.715
REMARK  2 active torsions:
REMARK  status: ('A' for Active; 'I' for Inactive)
REMARK    1  A    between atoms: C2_2  and  C8_8 
REMARK    2  A    between atoms: C2_2  and  C9_9 
ROOT
HETATM    1  C1  UNL     1     -34.664  16.658  -1.649  1.00 20.00     0.127 C 
HETATM    2  C3  UNL     1     -33.309  17.055  -2.169  1.00 20.00     0.079 C 
HETATM    3  C4  UNL     1     -35.439  15.829  -2.640  1.00 20.00     0.090 C 
HETATM    4  C5  UNL     1     -33.141  16.109  -3.348  1.00 20.00     0.020 C 
HETATM    5  C8  UNL     1     -34.555  15.892  -3.884  1.00 20.00     0.063 C 
HETATM    6  O10 UNL     1     -35.096  16.986  -0.551  1.00 20.00    -0.298 OA
ENDROOT
BRANCH   5   7
HETATM    7  C2  UNL     1     -34.643  14.622  -4.667  1.00 20.00     0.135 C 
HETATM    8  O11 UNL     1     -34.440  13.527  -4.146  1.00 20.00    -0.297 OA
BRANCH   7   9
HETATM    9  C9  UNL     1     -34.992  14.749  -6.125  1.00 20.00     0.056 A 
HETATM   10  C6  UNL     1     -34.991  16.106  -6.731  1.00 20.00     0.013 A 
HETATM   11  C7  UNL     1     -33.911  15.124  -7.074  1.00 20.00     0.013 A 
ENDBRANCH   7   9
ENDBRANCH   5   7
TORSDOF 2
ENDMDL
MODEL 9
REMARK VINA RESULT:      -4.4     10.293     11.434
REMARK  2 active torsions:
REMARK  status: ('A' for Active; 'I' for Inactive)
REMARK    1  A    between atoms: C2_2  and  C8_8 
REMARK    2  A    between atoms: C2_2  and  C9_9 
ROOT
HETATM    1  C1  UNL     1     -35.300  13.775  -4.122  1.00 20.00     0.127 C 
HETATM    2  C3  UNL     1     -33.813  13.999  -4.078  1.00 20.00     0.079 C 
HETATM    3  C4  UNL     1     -36.070  14.898  -3.477  1.00 20.00     0.090 C 
HETATM    4  C5  UNL     1     -33.733  15.478  -3.732  1.00 20.00     0.020 C 
HETATM    5  C8  UNL     1     -34.959  15.746  -2.861  1.00 20.00     0.063 C 
HETATM    6  O10 UNL     1     -35.825  12.784  -4.613  1.00 20.00    -0.298 OA
ENDROOT
BRANCH   5   7
HETATM    7  C2  UNL     1     -35.323  17.196  -2.877  1.00 20.00     0.135 C 
HETATM    8  O11 UNL     1     -35.665  17.764  -3.912  1.00 20.00    -0.297 OA
BRANCH   7   9
HETATM    9  C9  UNL     1     -35.250  17.926  -1.563  1.00 20.00     0.056 A 
HETATM   10  C6  UNL     1     -35.311  17.127  -0.312  1.00 20.00     0.013 A 
HETATM   11  C7  UNL     1     -34.023  17.766  -0.739  1.00 20.00     0.013 A 
ENDBRANCH   7   9
ENDBRANCH   5   7
TORSDOF 2
ENDMDL
