MODEL 1
REMARK VINA RESULT:      -4.3      0.000      0.000
REMARK  3 active torsions:
REMARK  status: ('A' for Active; 'I' for Inactive)
REMARK    1  A    between atoms: C4_4  and  C9_9 
REMARK    2  A    between atoms: C7_7  and  C8_8 
REMARK    3  A    between atoms: C8_8  and  N11_11 
ROOT
HETATM    1  C1  UNL     1     -31.730  18.371  -0.446  1.00 20.00     0.060 C 
HETATM    2  C7  UNL     1     -33.199  18.433  -0.425  1.00 20.00     0.151 C 
HETATM    3  N10 UNL     1     -30.572  18.321  -0.462  1.00 20.00    -0.197 NA
ENDROOT
BRANCH   2   4
HETATM    4  C8  UNL     1     -33.811  18.072  -1.772  1.00 20.00     0.249 C 
BRANCH   4   5
HETATM    5  N11 UNL     1     -33.678  16.619  -2.019  1.00 20.00    -0.069 N 
HETATM    6  C2  UNL     1     -33.322  16.330  -3.423  1.00 20.00     0.241 C 
HETATM    7  C4  UNL     1     -34.357  15.184  -3.383  1.00 20.00     0.041 C 
HETATM    8  C3  UNL     1     -34.992  15.973  -2.219  1.00 20.00     0.241 C 
HETATM    9  H28 UNL     1     -33.082  16.136  -1.334  1.00 20.00     0.279 HD
BRANCH   7  10
HETATM   10  C9  UNL     1     -35.206  14.989  -4.621  1.00 20.00    -0.015 C 
HETATM   11  C5  UNL     1     -34.337  14.914  -5.880  1.00 20.00     0.010 C 
HETATM   12  C6  UNL     1     -36.070  13.729  -4.502  1.00 20.00     0.010 C 
ENDBRANCH   7  10
ENDBRANCH   4   5
ENDBRANCH   2   4
TORSDOF 3
ENDMDL
MODEL 2
REMARK VINA RESULT:      -4.3      2.230      5.236
REMARK  3 active torsions:
REMARK  status: ('A' for Active; 'I' for Inactive)
REMARK    1  A    between atoms: C4_4  and  C9_9 
REMARK    2  A    between atoms: C7_7  and  C8_8 
REMARK    3  A    between atoms: C8_8  and  N11_11 
ROOT
HETATM    1  C1  UNL     1     -36.688  14.006  -4.425  1.00 20.00     0.060 C 
HETATM    2  C7  UNL     1     -35.221  14.094  -4.380  1.00 20.00     0.151 C 
HETATM    3  N10 UNL     1     -37.844  13.937  -4.459  1.00 20.00    -0.197 NA
ENDROOT
BRANCH   2   4
HETATM    4  C8  UNL     1     -34.659  14.940  -5.513  1.00 20.00     0.249 C 
BRANCH   4   5
HETATM    5  N11 UNL     1     -33.777  15.997  -4.972  1.00 20.00    -0.069 N 
HETATM    6  C2  UNL     1     -33.079  15.557  -3.746  1.00 20.00     0.241 C 
HETATM    7  C4  UNL     1     -33.391  16.945  -3.146  1.00 20.00     0.041 C 
HETATM    8  C3  UNL     1     -34.532  16.993  -4.184  1.00 20.00     0.241 C 
HETATM    9  H28 UNL     1     -33.153  16.415  -5.674  1.00 20.00     0.279 HD
BRANCH   7  10
HETATM   10  C9  UNL     1     -33.792  16.983  -1.687  1.00 20.00    -0.015 C 
HETATM   11  C5  UNL     1     -33.056  18.102  -0.943  1.00 20.00     0.010 C 
HETATM   12  C6  UNL     1     -35.306  17.158  -1.536  1.00 20.00     0.010 C 
ENDBRANCH   7  10
ENDBRANCH   4   5
ENDBRANCH   2   4
TORSDOF 3
ENDMDL
MODEL 3
REMARK VINA RESULT:      -4.3      2.139      5.475
REMARK  3 active torsions:
REMARK  status: ('A' for Active; 'I' for Inactive)
REMARK    1  A    between atoms: C4_4  and  C9_9 
REMARK    2  A    between atoms: C7_7  and  C8_8 
REMARK    3  A    between atoms: C8_8  and  N11_11 
ROOT
HETATM    1  C1  UNL     1     -35.983  13.837  -5.142  1.00 20.00     0.060 C 
HETATM    2  C7  UNL     1     -36.006  15.137  -5.826  1.00 20.00     0.151 C 
HETATM    3  N10 UNL     1     -35.964  12.810  -4.603  1.00 20.00    -0.197 NA
ENDROOT
BRANCH   2   4
HETATM    4  C8  UNL     1     -35.021  16.127  -5.219  1.00 20.00     0.249 C 
BRANCH   4   5
HETATM    5  N11 UNL     1     -34.656  15.706  -3.848  1.00 20.00    -0.069 N 
HETATM    6  C2  UNL     1     -35.357  16.505  -2.822  1.00 20.00     0.241 C 
HETATM    7  C4  UNL     1     -34.021  16.570  -2.051  1.00 20.00     0.041 C 
HETATM    8  C3  UNL     1     -33.367  16.286  -3.419  1.00 20.00     0.241 C 
HETATM    9  H28 UNL     1     -34.721  14.691  -3.696  1.00 20.00     0.279 HD
BRANCH   7  10
HETATM   10  C9  UNL     1     -33.678  17.888  -1.389  1.00 20.00    -0.015 C 
HETATM   11  C5  UNL     1     -34.257  17.960   0.027  1.00 20.00     0.010 C 
HETATM   12  C6  UNL     1     -32.163  18.106  -1.350  1.00 20.00     0.010 C 
ENDBRANCH   7  10
ENDBRANCH   4   5
ENDBRANCH   2   4
TORSDOF 3
ENDMDL
MODEL 4
REMARK VINA RESULT:      -4.0     11.776     15.382
REMARK  3 active torsions:
REMARK  status: ('A' for Active; 'I' for Inactive)
REMARK    1  A    between atoms: C4_4  and  C9_9 
REMARK    2  A    between atoms: C7_7  and  C8_8 
REMARK    3  A    between atoms: C8_8  and  N11_11 
ROOT
HETATM    1  C1  UNL     1     -26.071  18.778   5.572  1.00 20.00     0.060 C 
HETATM    2  C7  UNL     1     -25.828  18.999   7.005  1.00 20.00     0.151 C 
HETATM    3  N10 UNL     1     -26.263  18.605   4.442  1.00 20.00    -0.197 NA
ENDROOT
BRANCH   2   4
HETATM    4  C8  UNL     1     -24.345  18.987   7.348  1.00 20.00     0.249 C 
BRANCH   4   5
HETATM    5  N11 UNL     1     -24.152  19.262   8.788  1.00 20.00    -0.069 N 
HETATM    6  C2  UNL     1     -23.487  18.139   9.480  1.00 20.00     0.241 C 
HETATM    7  C4  UNL     1     -24.497  18.332  10.631  1.00 20.00     0.041 C 
HETATM    8  C3  UNL     1     -25.383  19.011   9.566  1.00 20.00     0.241 C 
HETATM    9  H28 UNL     1     -23.724  20.178   8.980  1.00 20.00     0.279 HD
BRANCH   7  10
HETATM   10  C9  UNL     1     -25.045  17.077  11.276  1.00 20.00    -0.015 C 
HETATM   11  C5  UNL     1     -23.921  16.246  11.905  1.00 20.00     0.010 C 
HETATM   12  C6  UNL     1     -26.102  17.416  12.331  1.00 20.00     0.010 C 
ENDBRANCH   7  10
ENDBRANCH   4   5
ENDBRANCH   2   4
TORSDOF 3
ENDMDL
MODEL 5
REMARK VINA RESULT:      -4.0      1.272      2.071
REMARK  3 active torsions:
REMARK  status: ('A' for Active; 'I' for Inactive)
REMARK    1  A    between atoms: C4_4  and  C9_9 
REMARK    2  A    between atoms: C7_7  and  C8_8 
REMARK    3  A    between atoms: C8_8  and  N11_11 
ROOT
HETATM    1  C1  UNL     1     -30.662  18.663   0.505  1.00 20.00     0.060 C 
HETATM    2  C7  UNL     1     -31.492  18.351  -0.667  1.00 20.00     0.151 C 
HETATM    3  N10 UNL     1     -30.006  18.909   1.430  1.00 20.00    -0.197 NA
ENDROOT
BRANCH   2   4
HETATM    4  C8  UNL     1     -32.950  18.120  -0.296  1.00 20.00     0.249 C 
BRANCH   4   5
HETATM    5  N11 UNL     1     -33.779  18.035  -1.519  1.00 20.00    -0.069 N 
HETATM    6  C2  UNL     1     -34.776  16.948  -1.433  1.00 20.00     0.241 C 
HETATM    7  C4  UNL     1     -34.419  16.591  -2.892  1.00 20.00     0.041 C 
HETATM    8  C3  UNL     1     -33.085  17.312  -2.605  1.00 20.00     0.241 C 
HETATM    9  H28 UNL     1     -34.176  18.937  -1.813  1.00 20.00     0.279 HD
BRANCH   7  10
HETATM   10  C9  UNL     1     -34.339  15.118  -3.234  1.00 20.00    -0.015 C 
HETATM   11  C5  UNL     1     -35.669  14.612  -3.802  1.00 20.00     0.010 C 
HETATM   12  C6  UNL     1     -33.205  14.843  -4.226  1.00 20.00     0.010 C 
ENDBRANCH   7  10
ENDBRANCH   4   5
ENDBRANCH   2   4
TORSDOF 3
ENDMDL
MODEL 6
REMARK VINA RESULT:      -3.9      1.833      5.649
REMARK  3 active torsions:
REMARK  status: ('A' for Active; 'I' for Inactive)
REMARK    1  A    between atoms: C4_4  and  C9_9 
REMARK    2  A    between atoms: C7_7  and  C8_8 
REMARK    3  A    between atoms: C8_8  and  N11_11 
ROOT
HETATM    1  C1  UNL     1     -36.464  14.299  -4.387  1.00 20.00     0.060 C 
HETATM    2  C7  UNL     1     -35.152  14.957  -4.305  1.00 20.00     0.151 C 
HETATM    3  N10 UNL     1     -37.499  13.780  -4.453  1.00 20.00    -0.197 NA
ENDROOT
BRANCH   2   4
HETATM    4  C8  UNL     1     -34.772  15.308  -2.873  1.00 20.00     0.249 C 
BRANCH   4   5
HETATM    5  N11 UNL     1     -34.480  16.754  -2.764  1.00 20.00    -0.069 N 
HETATM    6  C2  UNL     1     -33.056  17.007  -2.459  1.00 20.00     0.241 C 
HETATM    7  C4  UNL     1     -33.528  18.075  -1.448  1.00 20.00     0.041 C 
HETATM    8  C3  UNL     1     -34.858  17.293  -1.441  1.00 20.00     0.241 C 
HETATM    9  H28 UNL     1     -34.838  17.309  -3.552  1.00 20.00     0.279 HD
BRANCH   7  10
HETATM   10  C9  UNL     1     -32.774  18.153  -0.138  1.00 20.00    -0.015 C 
HETATM   11  C5  UNL     1     -31.279  18.389  -0.376  1.00 20.00     0.010 C 
HETATM   12  C6  UNL     1     -33.344  19.256   0.760  1.00 20.00     0.010 C 
ENDBRANCH   7  10
ENDBRANCH   4   5
ENDBRANCH   2   4
TORSDOF 3
ENDMDL
MODEL 7
REMARK VINA RESULT:      -3.9     15.279     16.718
REMARK  3 active torsions:
REMARK  status: ('A' for Active; 'I' for Inactive)
REMARK    1  A    between atoms: C4_4  and  C9_9 
REMARK    2  A    between atoms: C7_7  and  C8_8 
REMARK    3  A    between atoms: C8_8  and  N11_11 
ROOT
HETATM    1  C1  UNL     1     -29.167  17.637  11.601  1.00 20.00     0.060 C 
HETATM    2  C7  UNL     1     -28.699  19.017  11.411  1.00 20.00     0.151 C 
HETATM    3  N10 UNL     1     -29.536  16.548  11.750  1.00 20.00    -0.197 NA
ENDROOT
BRANCH   2   4
HETATM    4  C8  UNL     1     -27.224  19.179  11.750  1.00 20.00     0.249 C 
BRANCH   4   5
HETATM    5  N11 UNL     1     -26.436  18.095  11.125  1.00 20.00    -0.069 N 
HETATM    6  C2  UNL     1     -25.347  17.626  12.007  1.00 20.00     0.241 C 
HETATM    7  C4  UNL     1     -24.432  17.609  10.764  1.00 20.00     0.041 C 
HETATM    8  C3  UNL     1     -25.437  18.620  10.172  1.00 20.00     0.241 C 
HETATM    9  H28 UNL     1     -27.011  17.334  10.740  1.00 20.00     0.279 HD
BRANCH   7  10
HETATM   10  C9  UNL     1     -23.010  18.092  10.956  1.00 20.00    -0.015 C 
HETATM   11  C5  UNL     1     -22.424  17.567  12.271  1.00 20.00     0.010 C 
HETATM   12  C6  UNL     1     -22.122  17.673   9.780  1.00 20.00     0.010 C 
ENDBRANCH   7  10
ENDBRANCH   4   5
ENDBRANCH   2   4
TORSDOF 3
ENDMDL
MODEL 8
REMARK VINA RESULT:      -3.9      1.347      1.743
REMARK  3 active torsions:
REMARK  status: ('A' for Active; 'I' for Inactive)
REMARK    1  A    between atoms: C4_4  and  C9_9 
REMARK    2  A    between atoms: C7_7  and  C8_8 
REMARK    3  A    between atoms: C8_8  and  N11_11 
ROOT
HETATM    1  C1  UNL     1     -31.540  18.120  -0.997  1.00 20.00     0.060 C 
HETATM    2  C7  UNL     1     -32.671  17.620  -1.791  1.00 20.00     0.151 C 
HETATM    3  N10 UNL     1     -30.647  18.514  -0.370  1.00 20.00    -0.197 NA
ENDROOT
BRANCH   2   4
HETATM    4  C8  UNL     1     -32.763  18.294  -3.153  1.00 20.00     0.249 C 
BRANCH   4   5
HETATM    5  N11 UNL     1     -33.101  17.297  -4.193  1.00 20.00    -0.069 N 
HETATM    6  C2  UNL     1     -34.555  17.240  -4.448  1.00 20.00     0.241 C 
HETATM    7  C4  UNL     1     -34.425  15.701  -4.475  1.00 20.00     0.041 C 
HETATM    8  C3  UNL     1     -33.142  15.925  -3.647  1.00 20.00     0.241 C 
HETATM    9  H28 UNL     1     -32.535  17.383  -5.048  1.00 20.00     0.279 HD
BRANCH   7  10
HETATM   10  C9  UNL     1     -35.535  14.911  -3.816  1.00 20.00    -0.015 C 
HETATM   11  C5  UNL     1     -36.906  15.521  -4.128  1.00 20.00     0.010 C 
HETATM   12  C6  UNL     1     -35.500  13.443  -4.253  1.00 20.00     0.010 C 
ENDBRANCH   7  10
ENDBRANCH   4   5
ENDBRANCH   2   4
TORSDOF 3
ENDMDL
MODEL 9
REMARK VINA RESULT:      -3.9     15.227     16.581
REMARK  3 active torsions:
REMARK  status: ('A' for Active; 'I' for Inactive)
REMARK    1  A    between atoms: C4_4  and  C9_9 
REMARK    2  A    between atoms: C7_7  and  C8_8 
REMARK    3  A    between atoms: C8_8  and  N11_11 
ROOT
HETATM    1  C1  UNL     1     -28.558  17.192  12.142  1.00 20.00     0.060 C 
HETATM    2  C7  UNL     1     -27.320  17.961  12.332  1.00 20.00     0.151 C 
HETATM    3  N10 UNL     1     -29.534  16.585  11.992  1.00 20.00    -0.197 NA
ENDROOT
BRANCH   2   4
HETATM    4  C8  UNL     1     -26.083  17.074  12.332  1.00 20.00     0.249 C 
BRANCH   4   5
HETATM    5  N11 UNL     1     -24.886  17.870  11.983  1.00 20.00    -0.069 N 
HETATM    6  C2  UNL     1     -24.985  18.449  10.628  1.00 20.00     0.241 C 
HETATM    7  C4  UNL     1     -23.511  18.044  10.415  1.00 20.00     0.041 C 
HETATM    8  C3  UNL     1     -23.768  17.014  11.535  1.00 20.00     0.241 C 
HETATM    9  H28 UNL     1     -24.618  18.552  12.705  1.00 20.00     0.279 HD
BRANCH   7  10
HETATM   10  C9  UNL     1     -23.144  17.495   9.052  1.00 20.00    -0.015 C 
HETATM   11  C5  UNL     1     -23.583  18.451   7.938  1.00 20.00     0.010 C 
HETATM   12  C6  UNL     1     -21.639  17.227   8.954  1.00 20.00     0.010 C 
ENDBRANCH   7  10
ENDBRANCH   4   5
ENDBRANCH   2   4
TORSDOF 3
ENDMDL
