MODEL 1
REMARK VINA RESULT:      -4.7      0.000      0.000
REMARK  4 active torsions:
REMARK  status: ('A' for Active; 'I' for Inactive)
REMARK    1  A    between atoms: C2_2  and  C7_7 
REMARK    2  A    between atoms: C2_2  and  O11_11 
REMARK    3  A    between atoms: C6_6  and  C7_7 
REMARK    4  A    between atoms: C6_6  and  C8_8 
ROOT
HETATM    1  C1  UNL     1     -37.145  14.446  -4.484  1.00 20.00     0.074 C 
HETATM    2  C7  UNL     1     -35.825  15.002  -4.834  1.00 20.00     0.192 C 
HETATM    3  N9  UNL     1     -38.186  14.012  -4.207  1.00 20.00    -0.196 NA
ENDROOT
BRANCH   2   4
HETATM    4  C2  UNL     1     -35.465  14.638  -6.267  1.00 20.00     0.276 C 
HETATM    5  O10 UNL     1     -36.271  14.385  -7.153  1.00 20.00    -0.264 OA
BRANCH   4   6
HETATM    6  O11 UNL     1     -34.105  14.646  -6.408  1.00 20.00    -0.325 OA
HETATM    7  C5  UNL     1     -33.615  15.206  -7.631  1.00 20.00     0.213 C 
ENDBRANCH   4   6
ENDBRANCH   2   4
BRANCH   2   8
HETATM    8  C6  UNL     1     -34.728  14.477  -3.891  1.00 20.00     0.033 C 
BRANCH   8   9
HETATM    9  C8  UNL     1     -34.084  15.537  -2.973  1.00 20.00    -0.021 C 
HETATM   10  C3  UNL     1     -35.138  16.094  -2.011  1.00 20.00     0.009 C 
HETATM   11  C4  UNL     1     -33.450  16.684  -3.760  1.00 20.00     0.009 C 
ENDBRANCH   8   9
ENDBRANCH   2   8
TORSDOF 4
ENDMDL
MODEL 2
REMARK VINA RESULT:      -4.7      1.122      1.943
REMARK  4 active torsions:
REMARK  status: ('A' for Active; 'I' for Inactive)
REMARK    1  A    between atoms: C2_2  and  C7_7 
REMARK    2  A    between atoms: C2_2  and  O11_11 
REMARK    3  A    between atoms: C6_6  and  C7_7 
REMARK    4  A    between atoms: C6_6  and  C8_8 
ROOT
HETATM    1  C1  UNL     1     -36.726  14.468  -4.282  1.00 20.00     0.074 C 
HETATM    2  C7  UNL     1     -35.455  15.207  -4.180  1.00 20.00     0.192 C 
HETATM    3  N9  UNL     1     -37.730  13.889  -4.363  1.00 20.00    -0.196 NA
ENDROOT
BRANCH   2   4
HETATM    4  C2  UNL     1     -34.378  14.517  -5.004  1.00 20.00     0.276 C 
HETATM    5  O10 UNL     1     -33.316  14.095  -4.564  1.00 20.00    -0.264 OA
BRANCH   4   6
HETATM    6  O11 UNL     1     -34.786  14.439  -6.307  1.00 20.00    -0.325 OA
HETATM    7  C5  UNL     1     -34.112  15.314  -7.217  1.00 20.00     0.213 C 
ENDBRANCH   4   6
ENDBRANCH   2   4
BRANCH   2   8
HETATM    8  C6  UNL     1     -34.982  15.309  -2.719  1.00 20.00     0.033 C 
BRANCH   8   9
HETATM    9  C8  UNL     1     -34.695  16.740  -2.216  1.00 20.00    -0.021 C 
HETATM   10  C3  UNL     1     -33.193  17.027  -2.305  1.00 20.00     0.009 C 
HETATM   11  C4  UNL     1     -35.177  16.962  -0.783  1.00 20.00     0.009 C 
ENDBRANCH   8   9
ENDBRANCH   2   8
TORSDOF 4
ENDMDL
MODEL 3
REMARK VINA RESULT:      -4.6      0.825      1.362
REMARK  4 active torsions:
REMARK  status: ('A' for Active; 'I' for Inactive)
REMARK    1  A    between atoms: C2_2  and  C7_7 
REMARK    2  A    between atoms: C2_2  and  O11_11 
REMARK    3  A    between atoms: C6_6  and  C7_7 
REMARK    4  A    between atoms: C6_6  and  C8_8 
ROOT
HETATM    1  C1  UNL     1     -37.093  14.431  -4.473  1.00 20.00     0.074 C 
HETATM    2  C7  UNL     1     -35.789  15.096  -4.645  1.00 20.00     0.192 C 
HETATM    3  N9  UNL     1     -38.122  13.910  -4.336  1.00 20.00    -0.196 NA
ENDROOT
BRANCH   2   4
HETATM    4  C2  UNL     1     -35.217  14.783  -6.021  1.00 20.00     0.276 C 
HETATM    5  O10 UNL     1     -34.031  14.604  -6.266  1.00 20.00    -0.264 OA
BRANCH   4   6
HETATM    6  O11 UNL     1     -36.235  14.728  -6.932  1.00 20.00    -0.325 OA
HETATM    7  C5  UNL     1     -36.324  15.843  -7.824  1.00 20.00     0.213 C 
ENDBRANCH   4   6
ENDBRANCH   2   4
BRANCH   2   8
HETATM    8  C6  UNL     1     -34.784  14.647  -3.569  1.00 20.00     0.033 C 
BRANCH   8   9
HETATM    9  C8  UNL     1     -34.325  15.751  -2.593  1.00 20.00    -0.021 C 
HETATM   10  C3  UNL     1     -35.456  16.765  -2.394  1.00 20.00     0.009 C 
HETATM   11  C4  UNL     1     -33.068  16.473  -3.078  1.00 20.00     0.009 C 
ENDBRANCH   8   9
ENDBRANCH   2   8
TORSDOF 4
ENDMDL
MODEL 4
REMARK VINA RESULT:      -4.6      2.237      3.101
REMARK  4 active torsions:
REMARK  status: ('A' for Active; 'I' for Inactive)
REMARK    1  A    between atoms: C2_2  and  C7_7 
REMARK    2  A    between atoms: C2_2  and  O11_11 
REMARK    3  A    between atoms: C6_6  and  C7_7 
REMARK    4  A    between atoms: C6_6  and  C8_8 
ROOT
HETATM    1  C1  UNL     1     -34.215  13.990  -4.151  1.00 20.00     0.074 C 
HETATM    2  C7  UNL     1     -35.553  14.410  -3.695  1.00 20.00     0.192 C 
HETATM    3  N9  UNL     1     -33.162  13.657  -4.508  1.00 20.00    -0.196 NA
ENDROOT
BRANCH   2   4
HETATM    4  C2  UNL     1     -36.564  14.263  -4.824  1.00 20.00     0.276 C 
HETATM    5  O10 UNL     1     -36.342  14.506  -6.003  1.00 20.00    -0.264 OA
BRANCH   4   6
HETATM    6  O11 UNL     1     -37.749  13.812  -4.313  1.00 20.00    -0.325 OA
HETATM    7  C5  UNL     1     -38.812  14.770  -4.286  1.00 20.00     0.213 C 
ENDBRANCH   4   6
ENDBRANCH   2   4
BRANCH   2   8
HETATM    8  C6  UNL     1     -35.547  15.871  -3.212  1.00 20.00     0.033 C 
BRANCH   8   9
HETATM    9  C8  UNL     1     -34.577  16.179  -2.052  1.00 20.00    -0.021 C 
HETATM   10  C3  UNL     1     -35.327  16.903  -0.931  1.00 20.00     0.009 C 
HETATM   11  C4  UNL     1     -33.382  17.021  -2.499  1.00 20.00     0.009 C 
ENDBRANCH   8   9
ENDBRANCH   2   8
TORSDOF 4
ENDMDL
MODEL 5
REMARK VINA RESULT:      -4.5      2.107      2.562
REMARK  4 active torsions:
REMARK  status: ('A' for Active; 'I' for Inactive)
REMARK    1  A    between atoms: C2_2  and  C7_7 
REMARK    2  A    between atoms: C2_2  and  O11_11 
REMARK    3  A    between atoms: C6_6  and  C7_7 
REMARK    4  A    between atoms: C6_6  and  C8_8 
ROOT
HETATM    1  C1  UNL     1     -33.859  14.124  -4.172  1.00 20.00     0.074 C 
HETATM    2  C7  UNL     1     -35.226  14.288  -3.643  1.00 20.00     0.192 C 
HETATM    3  N9  UNL     1     -32.782  13.993  -4.586  1.00 20.00    -0.196 NA
ENDROOT
BRANCH   2   4
HETATM    4  C2  UNL     1     -36.249  13.943  -4.715  1.00 20.00     0.276 C 
HETATM    5  O10 UNL     1     -37.427  13.682  -4.506  1.00 20.00    -0.264 OA
BRANCH   4   6
HETATM    6  O11 UNL     1     -35.648  13.978  -5.942  1.00 20.00    -0.325 OA
HETATM    7  C5  UNL     1     -36.020  15.077  -6.780  1.00 20.00     0.213 C 
ENDBRANCH   4   6
ENDBRANCH   2   4
BRANCH   2   8
HETATM    8  C6  UNL     1     -35.470  15.727  -3.157  1.00 20.00     0.033 C 
BRANCH   8   9
HETATM    9  C8  UNL     1     -34.510  16.225  -2.056  1.00 20.00    -0.021 C 
HETATM   10  C3  UNL     1     -35.315  16.869  -0.923  1.00 20.00     0.009 C 
HETATM   11  C4  UNL     1     -33.481  17.222  -2.586  1.00 20.00     0.009 C 
ENDBRANCH   8   9
ENDBRANCH   2   8
TORSDOF 4
ENDMDL
MODEL 6
REMARK VINA RESULT:      -4.4      1.509      1.941
REMARK  4 active torsions:
REMARK  status: ('A' for Active; 'I' for Inactive)
REMARK    1  A    between atoms: C2_2  and  C7_7 
REMARK    2  A    between atoms: C2_2  and  O11_11 
REMARK    3  A    between atoms: C6_6  and  C7_7 
REMARK    4  A    between atoms: C6_6  and  C8_8 
ROOT
HETATM    1  C1  UNL     1     -35.527  13.840  -4.427  1.00 20.00     0.074 C 
HETATM    2  C7  UNL     1     -34.877  15.162  -4.475  1.00 20.00     0.192 C 
HETATM    3  N9  UNL     1     -36.042  12.800  -4.387  1.00 20.00    -0.196 NA
ENDROOT
BRANCH   2   4
HETATM    4  C2  UNL     1     -34.442  15.482  -5.898  1.00 20.00     0.276 C 
HETATM    5  O10 UNL     1     -33.891  14.697  -6.659  1.00 20.00    -0.264 OA
BRANCH   4   6
HETATM    6  O11 UNL     1     -34.769  16.777  -6.191  1.00 20.00    -0.325 OA
HETATM    7  C5  UNL     1     -36.004  17.241  -5.637  1.00 20.00     0.213 C 
ENDBRANCH   4   6
ENDBRANCH   2   4
BRANCH   2   8
HETATM    8  C6  UNL     1     -33.649  15.218  -3.550  1.00 20.00     0.033 C 
BRANCH   8   9
HETATM    9  C8  UNL     1     -33.677  16.332  -2.482  1.00 20.00    -0.021 C 
HETATM   10  C3  UNL     1     -35.073  16.411  -1.856  1.00 20.00     0.009 C 
HETATM   11  C4  UNL     1     -33.293  17.697  -3.053  1.00 20.00     0.009 C 
ENDBRANCH   8   9
ENDBRANCH   2   8
TORSDOF 4
ENDMDL
MODEL 7
REMARK VINA RESULT:      -4.4      1.752      2.179
REMARK  4 active torsions:
REMARK  status: ('A' for Active; 'I' for Inactive)
REMARK    1  A    between atoms: C2_2  and  C7_7 
REMARK    2  A    between atoms: C2_2  and  O11_11 
REMARK    3  A    between atoms: C6_6  and  C7_7 
REMARK    4  A    between atoms: C6_6  and  C8_8 
ROOT
HETATM    1  C1  UNL     1     -37.195  16.439  -3.798  1.00 20.00     0.074 C 
HETATM    2  C7  UNL     1     -36.129  15.530  -4.257  1.00 20.00     0.192 C 
HETATM    3  N9  UNL     1     -38.034  17.157  -3.439  1.00 20.00    -0.196 NA
ENDROOT
BRANCH   2   4
HETATM    4  C2  UNL     1     -36.733  14.248  -4.812  1.00 20.00     0.276 C 
HETATM    5  O10 UNL     1     -37.731  13.692  -4.371  1.00 20.00    -0.264 OA
BRANCH   4   6
HETATM    6  O11 UNL     1     -35.990  13.822  -5.877  1.00 20.00    -0.325 OA
HETATM    7  C5  UNL     1     -35.674  14.824  -6.849  1.00 20.00     0.213 C 
ENDBRANCH   4   6
ENDBRANCH   2   4
BRANCH   2   8
HETATM    8  C6  UNL     1     -35.162  15.177  -3.113  1.00 20.00     0.033 C 
BRANCH   8   9
HETATM    9  C8  UNL     1     -33.690  15.580  -3.344  1.00 20.00    -0.021 C 
HETATM   10  C3  UNL     1     -33.626  17.020  -3.862  1.00 20.00     0.009 C 
HETATM   11  C4  UNL     1     -32.977  14.649  -4.324  1.00 20.00     0.009 C 
ENDBRANCH   8   9
ENDBRANCH   2   8
TORSDOF 4
ENDMDL
MODEL 8
REMARK VINA RESULT:      -4.4      2.102      3.021
REMARK  4 active torsions:
REMARK  status: ('A' for Active; 'I' for Inactive)
REMARK    1  A    between atoms: C2_2  and  C7_7 
REMARK    2  A    between atoms: C2_2  and  O11_11 
REMARK    3  A    between atoms: C6_6  and  C7_7 
REMARK    4  A    between atoms: C6_6  and  C8_8 
ROOT
HETATM    1  C1  UNL     1     -34.875  15.912  -5.846  1.00 20.00     0.074 C 
HETATM    2  C7  UNL     1     -34.604  14.646  -5.139  1.00 20.00     0.192 C 
HETATM    3  N9  UNL     1     -35.086  16.907  -6.404  1.00 20.00    -0.196 NA
ENDROOT
BRANCH   2   4
HETATM    4  C2  UNL     1     -35.899  13.876  -4.925  1.00 20.00     0.276 C 
HETATM    5  O10 UNL     1     -35.973  12.723  -4.520  1.00 20.00    -0.264 OA
BRANCH   4   6
HETATM    6  O11 UNL     1     -36.960  14.675  -5.249  1.00 20.00    -0.325 OA
HETATM    7  C5  UNL     1     -38.010  14.728  -4.278  1.00 20.00     0.213 C 
ENDBRANCH   4   6
ENDBRANCH   2   4
BRANCH   2   8
HETATM    8  C6  UNL     1     -33.936  14.898  -3.775  1.00 20.00     0.033 C 
BRANCH   8   9
HETATM    9  C8  UNL     1     -34.271  16.253  -3.117  1.00 20.00    -0.021 C 
HETATM   10  C3  UNL     1     -32.977  16.952  -2.690  1.00 20.00     0.009 C 
HETATM   11  C4  UNL     1     -35.196  16.102  -1.908  1.00 20.00     0.009 C 
ENDBRANCH   8   9
ENDBRANCH   2   8
TORSDOF 4
ENDMDL
MODEL 9
REMARK VINA RESULT:      -4.1      2.089      3.038
REMARK  4 active torsions:
REMARK  status: ('A' for Active; 'I' for Inactive)
REMARK    1  A    between atoms: C2_2  and  C7_7 
REMARK    2  A    between atoms: C2_2  and  O11_11 
REMARK    3  A    between atoms: C6_6  and  C7_7 
REMARK    4  A    between atoms: C6_6  and  C8_8 
ROOT
HETATM    1  C1  UNL     1     -34.957  14.883  -6.203  1.00 20.00     0.074 C 
HETATM    2  C7  UNL     1     -35.544  14.064  -5.126  1.00 20.00     0.192 C 
HETATM    3  N9  UNL     1     -34.494  15.525  -7.052  1.00 20.00    -0.196 NA
ENDROOT
BRANCH   2   4
HETATM    4  C2  UNL     1     -37.015  14.412  -4.944  1.00 20.00     0.276 C 
HETATM    5  O10 UNL     1     -37.813  13.766  -4.277  1.00 20.00    -0.264 OA
BRANCH   4   6
HETATM    6  O11 UNL     1     -37.298  15.557  -5.635  1.00 20.00    -0.325 OA
HETATM    7  C5  UNL     1     -38.036  16.547  -4.910  1.00 20.00     0.213 C 
ENDBRANCH   4   6
ENDBRANCH   2   4
BRANCH   2   8
HETATM    8  C6  UNL     1     -34.807  14.280  -3.793  1.00 20.00     0.033 C 
BRANCH   8   9
HETATM    9  C8  UNL     1     -34.571  15.755  -3.400  1.00 20.00    -0.021 C 
HETATM   10  C3  UNL     1     -33.067  16.043  -3.361  1.00 20.00     0.009 C 
HETATM   11  C4  UNL     1     -35.197  16.107  -2.051  1.00 20.00     0.009 C 
ENDBRANCH   8   9
ENDBRANCH   2   8
TORSDOF 4
ENDMDL
