MODEL 1
REMARK VINA RESULT:      -4.6      0.000      0.000
REMARK  3 active torsions:
REMARK  status: ('A' for Active; 'I' for Inactive)
REMARK    1  A    between atoms: C3_3  and  C9_9 
REMARK    2  A    between atoms: C7_7  and  O11_11 
REMARK    3  A    between atoms: C9_9  and  O11_11 
ROOT
HETATM    1  C1  UNL     1     -36.280  14.062  -4.839  1.00 20.00     0.129 C 
HETATM    2  C4  UNL     1     -36.056  14.864  -6.094  1.00 20.00     0.081 C 
HETATM    3  C5  UNL     1     -35.007  13.849  -4.057  1.00 20.00     0.110 C 
HETATM    4  C6  UNL     1     -34.534  14.856  -6.202  1.00 20.00     0.040 C 
HETATM    5  C7  UNL     1     -34.042  14.800  -4.761  1.00 20.00     0.129 C 
HETATM    6  O10 UNL     1     -37.374  13.633  -4.491  1.00 20.00    -0.298 OA
ENDROOT
BRANCH   5   7
HETATM    7  O11 UNL     1     -34.127  16.099  -4.185  1.00 20.00    -0.382 OA
BRANCH   7   8
HETATM    8  C9  UNL     1     -33.158  16.276  -3.161  1.00 20.00     0.195 C 
BRANCH   8   9
HETATM    9  C3  UNL     1     -33.806  16.957  -2.000  1.00 20.00    -0.005 C 
HETATM   10  C2  UNL     1     -34.965  16.561  -1.456  1.00 20.00    -0.033 C 
HETATM   11  C8  UNL     1     -35.617  17.243  -0.299  1.00 20.00     0.036 C 
ENDBRANCH   8   9
ENDBRANCH   7   8
ENDBRANCH   5   7
TORSDOF 3
ENDMDL
MODEL 2
REMARK VINA RESULT:      -4.4      1.777      2.335
REMARK  3 active torsions:
REMARK  status: ('A' for Active; 'I' for Inactive)
REMARK    1  A    between atoms: C3_3  and  C9_9 
REMARK    2  A    between atoms: C7_7  and  O11_11 
REMARK    3  A    between atoms: C9_9  and  O11_11 
ROOT
HETATM    1  C1  UNL     1     -35.687  13.750  -4.254  1.00 20.00     0.129 C 
HETATM    2  C4  UNL     1     -36.853  14.693  -4.114  1.00 20.00     0.081 C 
HETATM    3  C5  UNL     1     -34.360  14.445  -4.068  1.00 20.00     0.110 C 
HETATM    4  C6  UNL     1     -36.162  16.053  -4.151  1.00 20.00     0.040 C 
HETATM    5  C7  UNL     1     -34.790  15.808  -3.534  1.00 20.00     0.129 C 
HETATM    6  O10 UNL     1     -35.803  12.554  -4.490  1.00 20.00    -0.298 OA
ENDROOT
BRANCH   5   7
HETATM    7  O11 UNL     1     -34.915  15.762  -2.116  1.00 20.00    -0.382 OA
BRANCH   7   8
HETATM    8  C9  UNL     1     -34.875  17.063  -1.550  1.00 20.00     0.195 C 
BRANCH   8   9
HETATM    9  C3  UNL     1     -33.457  17.536  -1.531  1.00 20.00    -0.005 C 
HETATM   10  C2  UNL     1     -32.914  18.224  -0.517  1.00 20.00    -0.033 C 
HETATM   11  C8  UNL     1     -31.501  18.702  -0.499  1.00 20.00     0.036 C 
ENDBRANCH   8   9
ENDBRANCH   7   8
ENDBRANCH   5   7
TORSDOF 3
ENDMDL
MODEL 3
REMARK VINA RESULT:      -4.4      1.091      1.512
REMARK  3 active torsions:
REMARK  status: ('A' for Active; 'I' for Inactive)
REMARK    1  A    between atoms: C3_3  and  C9_9 
REMARK    2  A    between atoms: C7_7  and  O11_11 
REMARK    3  A    between atoms: C9_9  and  O11_11 
ROOT
HETATM    1  C1  UNL     1     -36.249  14.063  -4.820  1.00 20.00     0.129 C 
HETATM    2  C4  UNL     1     -36.006  14.847  -6.083  1.00 20.00     0.081 C 
HETATM    3  C5  UNL     1     -34.999  13.916  -3.986  1.00 20.00     0.110 C 
HETATM    4  C6  UNL     1     -34.483  14.895  -6.134  1.00 20.00     0.040 C 
HETATM    5  C7  UNL     1     -34.045  14.888  -4.674  1.00 20.00     0.129 C 
HETATM    6  O10 UNL     1     -37.338  13.600  -4.503  1.00 20.00    -0.298 OA
ENDROOT
BRANCH   5   7
HETATM    7  O11 UNL     1     -34.200  16.194  -4.131  1.00 20.00    -0.382 OA
BRANCH   7   8
HETATM    8  C9  UNL     1     -34.056  16.189  -2.718  1.00 20.00     0.195 C 
BRANCH   8   9
HETATM    9  C3  UNL     1     -32.930  17.097  -2.347  1.00 20.00    -0.005 C 
HETATM   10  C2  UNL     1     -32.908  17.838  -1.230  1.00 20.00    -0.033 C 
HETATM   11  C8  UNL     1     -31.787  18.751  -0.858  1.00 20.00     0.036 C 
ENDBRANCH   8   9
ENDBRANCH   7   8
ENDBRANCH   5   7
TORSDOF 3
ENDMDL
MODEL 4
REMARK VINA RESULT:      -4.3      1.334      1.589
REMARK  3 active torsions:
REMARK  status: ('A' for Active; 'I' for Inactive)
REMARK    1  A    between atoms: C3_3  and  C9_9 
REMARK    2  A    between atoms: C7_7  and  O11_11 
REMARK    3  A    between atoms: C9_9  and  O11_11 
ROOT
HETATM    1  C1  UNL     1     -35.410  13.871  -4.258  1.00 20.00     0.129 C 
HETATM    2  C4  UNL     1     -36.369  14.978  -3.907  1.00 20.00     0.081 C 
HETATM    3  C5  UNL     1     -34.004  14.376  -4.479  1.00 20.00     0.110 C 
HETATM    4  C6  UNL     1     -35.548  16.220  -4.237  1.00 20.00     0.040 C 
HETATM    5  C7  UNL     1     -34.103  15.812  -3.972  1.00 20.00     0.129 C 
HETATM    6  O10 UNL     1     -35.733  12.693  -4.353  1.00 20.00    -0.298 OA
ENDROOT
BRANCH   5   7
HETATM    7  O11 UNL     1     -33.852  15.856  -2.572  1.00 20.00    -0.382 OA
BRANCH   7   8
HETATM    8  C9  UNL     1     -33.333  17.118  -2.177  1.00 20.00     0.195 C 
BRANCH   8   9
HETATM    9  C3  UNL     1     -34.055  17.572  -0.950  1.00 20.00    -0.005 C 
HETATM   10  C2  UNL     1     -35.231  17.069  -0.550  1.00 20.00    -0.033 C 
HETATM   11  C8  UNL     1     -35.958  17.525   0.672  1.00 20.00     0.036 C 
ENDBRANCH   8   9
ENDBRANCH   7   8
ENDBRANCH   5   7
TORSDOF 3
ENDMDL
MODEL 5
REMARK VINA RESULT:      -4.3     11.042     13.304
REMARK  3 active torsions:
REMARK  status: ('A' for Active; 'I' for Inactive)
REMARK    1  A    between atoms: C3_3  and  C9_9 
REMARK    2  A    between atoms: C7_7  and  O11_11 
REMARK    3  A    between atoms: C9_9  and  O11_11 
ROOT
HETATM    1  C1  UNL     1     -42.109   8.085   0.073  1.00 20.00     0.129 C 
HETATM    2  C4  UNL     1     -42.759   7.052   0.954  1.00 20.00     0.081 C 
HETATM    3  C5  UNL     1     -41.279   7.464  -1.025  1.00 20.00     0.110 C 
HETATM    4  C6  UNL     1     -42.029   5.779   0.537  1.00 20.00     0.040 C 
HETATM    5  C7  UNL     1     -41.681   5.995  -0.931  1.00 20.00     0.129 C 
HETATM    6  O10 UNL     1     -42.240   9.293   0.226  1.00 20.00    -0.298 OA
ENDROOT
BRANCH   5   7
HETATM    7  O11 UNL     1     -42.836   5.752  -1.727  1.00 20.00    -0.382 OA
BRANCH   7   8
HETATM    8  C9  UNL     1     -43.324   4.431  -1.543  1.00 20.00     0.195 C 
BRANCH   8   9
HETATM    9  C3  UNL     1     -43.109   3.659  -2.805  1.00 20.00    -0.005 C 
HETATM   10  C2  UNL     1     -41.942   3.090  -3.140  1.00 20.00    -0.033 C 
HETATM   11  C8  UNL     1     -41.723   2.324  -4.402  1.00 20.00     0.036 C 
ENDBRANCH   8   9
ENDBRANCH   7   8
ENDBRANCH   5   7
TORSDOF 3
ENDMDL
MODEL 6
REMARK VINA RESULT:      -4.2      2.724      5.729
REMARK  3 active torsions:
REMARK  status: ('A' for Active; 'I' for Inactive)
REMARK    1  A    between atoms: C3_3  and  C9_9 
REMARK    2  A    between atoms: C7_7  and  O11_11 
REMARK    3  A    between atoms: C9_9  and  O11_11 
ROOT
HETATM    1  C1  UNL     1     -31.668  18.514  -0.725  1.00 20.00     0.129 C 
HETATM    2  C4  UNL     1     -32.248  18.676  -2.106  1.00 20.00     0.081 C 
HETATM    3  C5  UNL     1     -32.725  18.561   0.352  1.00 20.00     0.110 C 
HETATM    4  C6  UNL     1     -33.666  19.143  -1.797  1.00 20.00     0.040 C 
HETATM    5  C7  UNL     1     -34.011  18.484  -0.466  1.00 20.00     0.129 C 
HETATM    6  O10 UNL     1     -30.473  18.359  -0.501  1.00 20.00    -0.298 OA
ENDROOT
BRANCH   5   7
HETATM    7  O11 UNL     1     -34.366  17.125  -0.694  1.00 20.00    -0.382 OA
BRANCH   7   8
HETATM    8  C9  UNL     1     -35.432  17.017  -1.626  1.00 20.00     0.195 C 
BRANCH   8   9
HETATM    9  C3  UNL     1     -35.195  15.822  -2.492  1.00 20.00    -0.005 C 
HETATM   10  C2  UNL     1     -34.082  15.636  -3.215  1.00 20.00    -0.033 C 
HETATM   11  C8  UNL     1     -33.844  14.447  -4.085  1.00 20.00     0.036 C 
ENDBRANCH   8   9
ENDBRANCH   7   8
ENDBRANCH   5   7
TORSDOF 3
ENDMDL
MODEL 7
REMARK VINA RESULT:      -4.0     11.101     12.191
REMARK  3 active torsions:
REMARK  status: ('A' for Active; 'I' for Inactive)
REMARK    1  A    between atoms: C3_3  and  C9_9 
REMARK    2  A    between atoms: C7_7  and  O11_11 
REMARK    3  A    between atoms: C9_9  and  O11_11 
ROOT
HETATM    1  C1  UNL     1     -34.370   4.603   4.524  1.00 20.00     0.129 C 
HETATM    2  C4  UNL     1     -34.072   5.017   5.940  1.00 20.00     0.081 C 
HETATM    3  C5  UNL     1     -34.560   5.786   3.606  1.00 20.00     0.110 C 
HETATM    4  C6  UNL     1     -34.405   6.506   5.908  1.00 20.00     0.040 C 
HETATM    5  C7  UNL     1     -34.088   6.943   4.483  1.00 20.00     0.129 C 
HETATM    6  O10 UNL     1     -34.448   3.437   4.156  1.00 20.00    -0.298 OA
ENDROOT
BRANCH   5   7
HETATM    7  O11 UNL     1     -32.682   7.119   4.347  1.00 20.00    -0.382 OA
BRANCH   7   8
HETATM    8  C9  UNL     1     -32.258   6.892   3.011  1.00 20.00     0.195 C 
BRANCH   8   9
HETATM    9  C3  UNL     1     -32.633   8.077   2.180  1.00 20.00    -0.005 C 
HETATM   10  C2  UNL     1     -32.674   8.063   0.841  1.00 20.00    -0.033 C 
HETATM   11  C8  UNL     1     -33.043   9.246   0.008  1.00 20.00     0.036 C 
ENDBRANCH   8   9
ENDBRANCH   7   8
ENDBRANCH   5   7
TORSDOF 3
ENDMDL
MODEL 8
REMARK VINA RESULT:      -4.0      2.252      3.204
REMARK  3 active torsions:
REMARK  status: ('A' for Active; 'I' for Inactive)
REMARK    1  A    between atoms: C3_3  and  C9_9 
REMARK    2  A    between atoms: C7_7  and  O11_11 
REMARK    3  A    between atoms: C9_9  and  O11_11 
ROOT
HETATM    1  C1  UNL     1     -34.139  15.190  -5.072  1.00 20.00     0.129 C 
HETATM    2  C4  UNL     1     -34.171  14.459  -3.756  1.00 20.00     0.081 C 
HETATM    3  C5  UNL     1     -34.384  16.672  -4.913  1.00 20.00     0.110 C 
HETATM    4  C6  UNL     1     -34.763  15.513  -2.826  1.00 20.00     0.040 C 
HETATM    5  C7  UNL     1     -34.292  16.845  -3.399  1.00 20.00     0.129 C 
HETATM    6  O10 UNL     1     -33.935  14.645  -6.150  1.00 20.00    -0.298 OA
ENDROOT
BRANCH   5   7
HETATM    7  O11 UNL     1     -32.941  17.071  -3.013  1.00 20.00    -0.382 OA
BRANCH   7   8
HETATM    8  C9  UNL     1     -32.703  18.445  -2.742  1.00 20.00     0.195 C 
BRANCH   8   9
HETATM    9  C3  UNL     1     -32.374  18.598  -1.292  1.00 20.00    -0.005 C 
HETATM   10  C2  UNL     1     -31.243  18.146  -0.733  1.00 20.00    -0.033 C 
HETATM   11  C8  UNL     1     -30.915  18.293   0.716  1.00 20.00     0.036 C 
ENDBRANCH   8   9
ENDBRANCH   7   8
ENDBRANCH   5   7
TORSDOF 3
ENDMDL
MODEL 9
REMARK VINA RESULT:      -3.9      3.646      6.516
REMARK  3 active torsions:
REMARK  status: ('A' for Active; 'I' for Inactive)
REMARK    1  A    between atoms: C3_3  and  C9_9 
REMARK    2  A    between atoms: C7_7  and  O11_11 
REMARK    3  A    between atoms: C9_9  and  O11_11 
ROOT
HETATM    1  C1  UNL     1     -32.294  18.184   1.979  1.00 20.00     0.129 C 
HETATM    2  C4  UNL     1     -31.052  18.146   1.129  1.00 20.00     0.081 C 
HETATM    3  C5  UNL     1     -33.459  18.829   1.267  1.00 20.00     0.110 C 
HETATM    4  C6  UNL     1     -31.425  19.085  -0.014  1.00 20.00     0.040 C 
HETATM    5  C7  UNL     1     -32.934  18.935  -0.163  1.00 20.00     0.129 C 
HETATM    6  O10 UNL     1     -32.355  17.738   3.118  1.00 20.00    -0.298 OA
ENDROOT
BRANCH   5   7
HETATM    7  O11 UNL     1     -33.218  17.737  -0.877  1.00 20.00    -0.382 OA
BRANCH   7   8
HETATM    8  C9  UNL     1     -32.704  17.788  -2.200  1.00 20.00     0.195 C 
BRANCH   8   9
HETATM    9  C3  UNL     1     -33.135  16.559  -2.932  1.00 20.00    -0.005 C 
HETATM   10  C2  UNL     1     -34.329  15.973  -2.764  1.00 20.00    -0.033 C 
HETATM   11  C8  UNL     1     -34.760  14.741  -3.489  1.00 20.00     0.036 C 
ENDBRANCH   8   9
ENDBRANCH   7   8
ENDBRANCH   5   7
TORSDOF 3
ENDMDL
