MODEL 1
REMARK VINA RESULT:      -5.3      0.000      0.000
REMARK  0 active torsions:
REMARK  status: ('A' for Active; 'I' for Inactive)
ROOT
HETATM    1  C1  UNL     1     -32.913  15.709  -3.631  1.00 20.00     0.009 A 
HETATM    2  C2  UNL     1     -33.749  14.752  -4.208  1.00 20.00     0.024 A 
HETATM    3  C3  UNL     1     -35.608  15.464  -2.809  1.00 20.00     0.033 A 
HETATM    4  C4  UNL     1     -33.434  16.525  -2.642  1.00 20.00    -0.050 A 
HETATM    5  C5  UNL     1     -34.770  16.409  -2.238  1.00 20.00    -0.031 A 
HETATM    6  C6  UNL     1     -35.086  14.628  -3.800  1.00 20.00     0.034 A 
HETATM    7  C7  UNL     1     -32.743  17.628  -1.901  1.00 20.00     0.045 C 
HETATM    8  C8  UNL     1     -35.105  17.429  -1.190  1.00 20.00     0.119 C 
HETATM    9  C9  UNL     1     -33.684  17.800  -0.688  1.00 20.00     0.009 C 
HETATM   10  C10 UNL     1     -33.540  19.159  -0.019  1.00 20.00     0.012 C 
HETATM   11 CL11 UNL     1     -36.096  13.441  -4.533  1.00 20.00    -0.084 Cl
HETATM   12 CL12 UNL     1     -35.985  18.778  -1.945  1.00 20.00    -0.119 Cl
ENDROOT
TORSDOF 0
ENDMDL
MODEL 2
REMARK VINA RESULT:      -5.1      1.848      4.729
REMARK  0 active torsions:
REMARK  status: ('A' for Active; 'I' for Inactive)
ROOT
HETATM    1  C1  UNL     1     -35.212  16.809  -1.254  1.00 20.00     0.009 A 
HETATM    2  C2  UNL     1     -34.129  17.575  -0.820  1.00 20.00     0.024 A 
HETATM    3  C3  UNL     1     -32.827  16.921  -2.768  1.00 20.00     0.033 A 
HETATM    4  C4  UNL     1     -35.084  16.100  -2.436  1.00 20.00    -0.050 A 
HETATM    5  C5  UNL     1     -33.905  16.159  -3.191  1.00 20.00    -0.031 A 
HETATM    6  C6  UNL     1     -32.943  17.630  -1.570  1.00 20.00     0.034 A 
HETATM    7  C7  UNL     1     -36.107  15.237  -3.106  1.00 20.00     0.045 C 
HETATM    8  C8  UNL     1     -34.028  15.345  -4.445  1.00 20.00     0.119 C 
HETATM    9  C9  UNL     1     -35.217  14.420  -4.068  1.00 20.00     0.009 C 
HETATM   10  C10 UNL     1     -35.998  13.822  -5.229  1.00 20.00     0.012 C 
HETATM   11 CL11 UNL     1     -31.625  18.587  -1.013  1.00 20.00    -0.084 Cl
HETATM   12 CL12 UNL     1     -34.356  16.428  -5.817  1.00 20.00    -0.119 Cl
ENDROOT
TORSDOF 0
ENDMDL
MODEL 3
REMARK VINA RESULT:      -4.9      1.916      4.754
REMARK  0 active torsions:
REMARK  status: ('A' for Active; 'I' for Inactive)
ROOT
HETATM    1  C1  UNL     1     -35.180  17.013  -0.504  1.00 20.00     0.009 A 
HETATM    2  C2  UNL     1     -34.319  17.851   0.207  1.00 20.00     0.024 A 
HETATM    3  C3  UNL     1     -32.677  17.764  -1.586  1.00 20.00     0.033 A 
HETATM    4  C4  UNL     1     -34.771  16.553  -1.744  1.00 20.00    -0.050 A 
HETATM    5  C5  UNL     1     -33.534  16.928  -2.284  1.00 20.00    -0.031 A 
HETATM    6  C6  UNL     1     -33.076  18.223  -0.328  1.00 20.00     0.034 A 
HETATM    7  C7  UNL     1     -35.525  15.671  -2.691  1.00 20.00     0.045 C 
HETATM    8  C8  UNL     1     -33.343  16.339  -3.650  1.00 20.00     0.119 C 
HETATM    9  C9  UNL     1     -34.382  15.187  -3.612  1.00 20.00     0.009 C 
HETATM   10  C10 UNL     1     -34.884  14.687  -4.959  1.00 20.00     0.012 C 
HETATM   11 CL11 UNL     1     -32.038  19.263   0.570  1.00 20.00    -0.084 Cl
HETATM   12 CL12 UNL     1     -33.680  17.582  -4.877  1.00 20.00    -0.119 Cl
ENDROOT
TORSDOF 0
ENDMDL
MODEL 4
REMARK VINA RESULT:      -4.7      1.547      2.019
REMARK  0 active torsions:
REMARK  status: ('A' for Active; 'I' for Inactive)
ROOT
HETATM    1  C1  UNL     1     -34.709  14.267  -4.030  1.00 20.00     0.009 A 
HETATM    2  C2  UNL     1     -36.043  13.969  -4.312  1.00 20.00     0.024 A 
HETATM    3  C3  UNL     1     -36.757  16.127  -3.445  1.00 20.00     0.033 A 
HETATM    4  C4  UNL     1     -34.418  15.489  -3.448  1.00 20.00    -0.050 A 
HETATM    5  C5  UNL     1     -35.431  16.414  -3.162  1.00 20.00    -0.031 A 
HETATM    6  C6  UNL     1     -37.060  14.891  -4.021  1.00 20.00     0.034 A 
HETATM    7  C7  UNL     1     -33.073  16.035  -3.078  1.00 20.00     0.045 C 
HETATM    8  C8  UNL     1     -34.861  17.673  -2.579  1.00 20.00     0.119 C 
HETATM    9  C9  UNL     1     -33.474  17.164  -2.102  1.00 20.00     0.009 C 
HETATM   10  C10 UNL     1     -32.388  18.218  -1.943  1.00 20.00     0.012 C 
HETATM   11 CL11 UNL     1     -38.697  14.498  -4.385  1.00 20.00    -0.084 Cl
HETATM   12 CL12 UNL     1     -34.782  18.921  -3.844  1.00 20.00    -0.119 Cl
ENDROOT
TORSDOF 0
ENDMDL
MODEL 5
REMARK VINA RESULT:      -4.4      2.740      5.057
REMARK  0 active torsions:
REMARK  status: ('A' for Active; 'I' for Inactive)
ROOT
HETATM    1  C1  UNL     1     -31.015  18.347  -0.152  1.00 20.00     0.009 A 
HETATM    2  C2  UNL     1     -31.011  18.316   1.243  1.00 20.00     0.024 A 
HETATM    3  C3  UNL     1     -33.443  18.262   1.295  1.00 20.00     0.033 A 
HETATM    4  C4  UNL     1     -32.236  18.346  -0.805  1.00 20.00    -0.050 A 
HETATM    5  C5  UNL     1     -33.439  18.297  -0.090  1.00 20.00    -0.031 A 
HETATM    6  C6  UNL     1     -32.216  18.275   1.963  1.00 20.00     0.034 A 
HETATM    7  C7  UNL     1     -32.488  18.352  -2.281  1.00 20.00     0.045 C 
HETATM    8  C8  UNL     1     -34.616  18.260  -1.020  1.00 20.00     0.119 C 
HETATM    9  C9  UNL     1     -33.967  18.799  -2.323  1.00 20.00     0.009 C 
HETATM   10  C10 UNL     1     -34.659  18.423  -3.625  1.00 20.00     0.012 C 
HETATM   11 CL11 UNL     1     -32.180  18.232   3.684  1.00 20.00    -0.084 Cl
HETATM   12 CL12 UNL     1     -35.214  16.589  -1.142  1.00 20.00    -0.119 Cl
ENDROOT
TORSDOF 0
ENDMDL
MODEL 6
REMARK VINA RESULT:      -4.4      1.767      4.540
REMARK  0 active torsions:
REMARK  status: ('A' for Active; 'I' for Inactive)
ROOT
HETATM    1  C1  UNL     1     -33.129  16.592  -3.341  1.00 20.00     0.009 A 
HETATM    2  C2  UNL     1     -33.487  16.914  -2.031  1.00 20.00     0.024 A 
HETATM    3  C3  UNL     1     -35.780  16.207  -2.434  1.00 20.00     0.033 A 
HETATM    4  C4  UNL     1     -34.106  16.092  -4.184  1.00 20.00    -0.050 A 
HETATM    5  C5  UNL     1     -35.419  15.895  -3.735  1.00 20.00    -0.031 A 
HETATM    6  C6  UNL     1     -34.803  16.724  -1.580  1.00 20.00     0.034 A 
HETATM    7  C7  UNL     1     -33.957  15.659  -5.610  1.00 20.00     0.045 C 
HETATM    8  C8  UNL     1     -36.275  15.304  -4.817  1.00 20.00     0.119 C 
HETATM    9  C9  UNL     1     -35.432  15.656  -6.072  1.00 20.00     0.009 C 
HETATM   10  C10 UNL     1     -35.662  14.791  -7.302  1.00 20.00     0.012 C 
HETATM   11 CL11 UNL     1     -35.214  17.125   0.043  1.00 20.00    -0.084 Cl
HETATM   12 CL12 UNL     1     -36.458  13.558  -4.530  1.00 20.00    -0.119 Cl
ENDROOT
TORSDOF 0
ENDMDL
MODEL 7
REMARK VINA RESULT:      -4.3      1.758      2.346
REMARK  0 active torsions:
REMARK  status: ('A' for Active; 'I' for Inactive)
ROOT
HETATM    1  C1  UNL     1     -35.414  15.145  -2.727  1.00 20.00     0.009 A 
HETATM    2  C2  UNL     1     -35.024  14.789  -4.019  1.00 20.00     0.024 A 
HETATM    3  C3  UNL     1     -33.629  16.774  -4.194  1.00 20.00     0.033 A 
HETATM    4  C4  UNL     1     -34.913  16.318  -2.189  1.00 20.00    -0.050 A 
HETATM    5  C5  UNL     1     -34.024  17.123  -2.912  1.00 20.00    -0.031 A 
HETATM    6  C6  UNL     1     -34.139  15.598  -4.749  1.00 20.00     0.034 A 
HETATM    7  C7  UNL     1     -35.168  16.888  -0.828  1.00 20.00     0.045 C 
HETATM    8  C8  UNL     1     -33.591  18.309  -2.101  1.00 20.00     0.119 C 
HETATM    9  C9  UNL     1     -34.718  18.352  -1.035  1.00 20.00     0.009 C 
HETATM   10  C10 UNL     1     -34.382  19.054   0.272  1.00 20.00     0.012 C 
HETATM   11 CL11 UNL     1     -33.672  15.131  -6.339  1.00 20.00    -0.084 Cl
HETATM   12 CL12 UNL     1     -31.970  18.003  -1.435  1.00 20.00    -0.119 Cl
ENDROOT
TORSDOF 0
ENDMDL
MODEL 8
REMARK VINA RESULT:      -4.2     15.293     16.965
REMARK  0 active torsions:
REMARK  status: ('A' for Active; 'I' for Inactive)
ROOT
HETATM    1  C1  UNL     1     -24.173  18.804   9.599  1.00 20.00     0.009 A 
HETATM    2  C2  UNL     1     -22.963  18.439  10.193  1.00 20.00     0.024 A 
HETATM    3  C3  UNL     1     -24.086  17.964  12.298  1.00 20.00     0.033 A 
HETATM    4  C4  UNL     1     -25.323  18.753  10.368  1.00 20.00    -0.050 A 
HETATM    5  C5  UNL     1     -25.283  18.332  11.704  1.00 20.00    -0.031 A 
HETATM    6  C6  UNL     1     -22.919  18.023  11.533  1.00 20.00     0.034 A 
HETATM    7  C7  UNL     1     -26.724  19.072   9.948  1.00 20.00     0.045 C 
HETATM    8  C8  UNL     1     -26.657  18.321  12.306  1.00 20.00     0.119 C 
HETATM    9  C9  UNL     1     -27.407  19.259  11.322  1.00 20.00     0.009 C 
HETATM   10  C10 UNL     1     -28.918  19.095  11.255  1.00 20.00     0.012 C 
HETATM   11 CL11 UNL     1     -21.413  17.574  12.237  1.00 20.00    -0.084 Cl
HETATM   12 CL12 UNL     1     -27.272  16.652  12.331  1.00 20.00    -0.119 Cl
ENDROOT
TORSDOF 0
ENDMDL
MODEL 9
REMARK VINA RESULT:      -4.2      1.423      1.544
REMARK  0 active torsions:
REMARK  status: ('A' for Active; 'I' for Inactive)
ROOT
HETATM    1  C1  UNL     1     -34.165  16.924  -5.215  1.00 20.00     0.009 A 
HETATM    2  C2  UNL     1     -34.941  15.782  -5.418  1.00 20.00     0.024 A 
HETATM    3  C3  UNL     1     -34.953  15.309  -3.032  1.00 20.00     0.033 A 
HETATM    4  C4  UNL     1     -33.784  17.238  -3.922  1.00 20.00    -0.050 A 
HETATM    5  C5  UNL     1     -34.178  16.442  -2.838  1.00 20.00    -0.031 A 
HETATM    6  C6  UNL     1     -35.331  14.979  -4.335  1.00 20.00     0.034 A 
HETATM    7  C7  UNL     1     -32.979  18.413  -3.460  1.00 20.00     0.045 C 
HETATM    8  C8  UNL     1     -33.680  17.013  -1.543  1.00 20.00     0.119 C 
HETATM    9  C9  UNL     1     -32.542  17.936  -2.057  1.00 20.00     0.009 C 
HETATM   10  C10 UNL     1     -32.143  19.084  -1.142  1.00 20.00     0.012 C 
HETATM   11 CL11 UNL     1     -36.292  13.578  -4.615  1.00 20.00    -0.084 Cl
HETATM   12 CL12 UNL     1     -35.008  17.877  -0.734  1.00 20.00    -0.119 Cl
ENDROOT
TORSDOF 0
ENDMDL
