MODEL 1
REMARK VINA RESULT:      -5.3      0.000      0.000
REMARK  0 active torsions:
REMARK  status: ('A' for Active; 'I' for Inactive)
ROOT
HETATM    1  C1  UNL     1     -32.904  15.720  -3.621  1.00 20.00     0.009 A 
HETATM    2  C2  UNL     1     -33.737  14.761  -4.199  1.00 20.00     0.024 A 
HETATM    3  C3  UNL     1     -35.597  15.466  -2.798  1.00 20.00     0.032 A 
HETATM    4  C4  UNL     1     -33.427  16.533  -2.630  1.00 20.00    -0.050 A 
HETATM    5  C5  UNL     1     -34.764  16.415  -2.227  1.00 20.00    -0.035 A 
HETATM    6  C6  UNL     1     -35.074  14.633  -3.790  1.00 20.00     0.034 A 
HETATM    7  C7  UNL     1     -32.737  17.635  -1.885  1.00 20.00     0.045 C 
HETATM    8  C8  UNL     1     -35.098  17.430  -1.176  1.00 20.00     0.095 C 
HETATM    9  C9  UNL     1     -33.685  17.812  -0.677  1.00 20.00     0.005 C 
HETATM   10  C10 UNL     1     -33.531  19.163   0.005  1.00 20.00     0.011 C 
HETATM   11 CL11 UNL     1     -36.079  13.443  -4.523  1.00 20.00    -0.084 Cl
HETATM   12 BR12 UNL     1     -36.058  18.890  -2.025  1.00 20.00    -0.086 Br
ENDROOT
TORSDOF 0
ENDMDL
MODEL 2
REMARK VINA RESULT:      -5.0      2.727      4.728
REMARK  0 active torsions:
REMARK  status: ('A' for Active; 'I' for Inactive)
ROOT
HETATM    1  C1  UNL     1     -35.206  16.789  -1.234  1.00 20.00     0.009 A 
HETATM    2  C2  UNL     1     -34.124  17.565  -0.817  1.00 20.00     0.024 A 
HETATM    3  C3  UNL     1     -32.855  16.943  -2.798  1.00 20.00     0.032 A 
HETATM    4  C4  UNL     1     -35.094  16.091  -2.425  1.00 20.00    -0.050 A 
HETATM    5  C5  UNL     1     -33.933  16.173  -3.206  1.00 20.00    -0.035 A 
HETATM    6  C6  UNL     1     -32.955  17.640  -1.593  1.00 20.00     0.034 A 
HETATM    7  C7  UNL     1     -36.121  15.217  -3.078  1.00 20.00     0.045 C 
HETATM    8  C8  UNL     1     -34.074  15.364  -4.460  1.00 20.00     0.095 C 
HETATM    9  C9  UNL     1     -35.243  14.427  -4.075  1.00 20.00     0.005 C 
HETATM   10  C10 UNL     1     -36.043  13.813  -5.214  1.00 20.00     0.011 C 
HETATM   11 CL11 UNL     1     -31.637  18.608  -1.054  1.00 20.00    -0.084 Cl
HETATM   12 BR12 UNL     1     -34.481  16.577  -5.922  1.00 20.00    -0.086 Br
ENDROOT
TORSDOF 0
ENDMDL
MODEL 3
REMARK VINA RESULT:      -4.8      2.991      4.797
REMARK  0 active torsions:
REMARK  status: ('A' for Active; 'I' for Inactive)
ROOT
HETATM    1  C1  UNL     1     -35.526  17.011  -0.265  1.00 20.00     0.009 A 
HETATM    2  C2  UNL     1     -34.934  17.773   0.743  1.00 20.00     0.024 A 
HETATM    3  C3  UNL     1     -32.951  18.123  -0.623  1.00 20.00     0.032 A 
HETATM    4  C4  UNL     1     -34.817  16.806  -1.437  1.00 20.00    -0.050 A 
HETATM    5  C5  UNL     1     -33.544  17.365  -1.619  1.00 20.00    -0.035 A 
HETATM    6  C6  UNL     1     -33.655  18.325   0.566  1.00 20.00     0.034 A 
HETATM    7  C7  UNL     1     -35.250  16.047  -2.653  1.00 20.00     0.045 C 
HETATM    8  C8  UNL     1     -33.005  17.034  -2.979  1.00 20.00     0.095 C 
HETATM    9  C9  UNL     1     -33.894  15.828  -3.362  1.00 20.00     0.005 C 
HETATM   10  C10 UNL     1     -34.042  15.518  -4.844  1.00 20.00     0.011 C 
HETATM   11 CL11 UNL     1     -32.950  19.263   1.827  1.00 20.00    -0.084 Cl
HETATM   12 BR12 UNL     1     -33.246  18.588  -4.121  1.00 20.00    -0.086 Br
ENDROOT
TORSDOF 0
ENDMDL
MODEL 4
REMARK VINA RESULT:      -4.6      1.626      2.180
REMARK  0 active torsions:
REMARK  status: ('A' for Active; 'I' for Inactive)
ROOT
HETATM    1  C1  UNL     1     -34.903  14.169  -4.075  1.00 20.00     0.009 A 
HETATM    2  C2  UNL     1     -36.246  13.912  -4.353  1.00 20.00     0.024 A 
HETATM    3  C3  UNL     1     -36.890  16.096  -3.497  1.00 20.00     0.032 A 
HETATM    4  C4  UNL     1     -34.572  15.385  -3.500  1.00 20.00    -0.050 A 
HETATM    5  C5  UNL     1     -35.555  16.345  -3.222  1.00 20.00    -0.035 A 
HETATM    6  C6  UNL     1     -37.233  14.868  -4.065  1.00 20.00     0.034 A 
HETATM    7  C7  UNL     1     -33.210  15.888  -3.133  1.00 20.00     0.045 C 
HETATM    8  C8  UNL     1     -34.942  17.585  -2.644  1.00 20.00     0.095 C 
HETATM    9  C9  UNL     1     -33.572  17.044  -2.173  1.00 20.00     0.005 C 
HETATM   10  C10 UNL     1     -32.447  18.054  -2.008  1.00 20.00     0.011 C 
HETATM   11 CL11 UNL     1     -38.882  14.524  -4.423  1.00 20.00    -0.084 Cl
HETATM   12 BR12 UNL     1     -34.823  18.917  -4.055  1.00 20.00    -0.086 Br
ENDROOT
TORSDOF 0
ENDMDL
MODEL 5
REMARK VINA RESULT:      -4.4      3.870      5.002
REMARK  0 active torsions:
REMARK  status: ('A' for Active; 'I' for Inactive)
ROOT
HETATM    1  C1  UNL     1     -31.000  18.428  -0.088  1.00 20.00     0.009 A 
HETATM    2  C2  UNL     1     -31.090  18.263   1.295  1.00 20.00     0.024 A 
HETATM    3  C3  UNL     1     -33.519  18.202   1.176  1.00 20.00     0.032 A 
HETATM    4  C4  UNL     1     -32.174  18.488  -0.820  1.00 20.00    -0.050 A 
HETATM    5  C5  UNL     1     -33.424  18.367  -0.196  1.00 20.00    -0.035 A 
HETATM    6  C6  UNL     1     -32.341  18.152   1.923  1.00 20.00     0.034 A 
HETATM    7  C7  UNL     1     -32.326  18.640  -2.303  1.00 20.00     0.045 C 
HETATM    8  C8  UNL     1     -34.532  18.423  -1.204  1.00 20.00     0.095 C 
HETATM    9  C9  UNL     1     -33.806  19.075  -2.403  1.00 20.00     0.005 C 
HETATM   10  C10 UNL     1     -34.401  18.842  -3.784  1.00 20.00     0.011 C 
HETATM   11 CL11 UNL     1     -32.420  17.946   3.631  1.00 20.00    -0.084 Cl
HETATM   12 BR12 UNL     1     -35.139  16.607  -1.539  1.00 20.00    -0.086 Br
ENDROOT
TORSDOF 0
ENDMDL
MODEL 6
REMARK VINA RESULT:      -4.3      1.482      1.652
REMARK  0 active torsions:
REMARK  status: ('A' for Active; 'I' for Inactive)
ROOT
HETATM    1  C1  UNL     1     -34.287  16.938  -5.248  1.00 20.00     0.009 A 
HETATM    2  C2  UNL     1     -35.007  15.750  -5.384  1.00 20.00     0.024 A 
HETATM    3  C3  UNL     1     -34.814  15.306  -3.000  1.00 20.00     0.032 A 
HETATM    4  C4  UNL     1     -33.830  17.289  -3.989  1.00 20.00    -0.050 A 
HETATM    5  C5  UNL     1     -34.098  16.485  -2.872  1.00 20.00    -0.035 A 
HETATM    6  C6  UNL     1     -35.268  14.938  -4.268  1.00 20.00     0.034 A 
HETATM    7  C7  UNL     1     -33.060  18.513  -3.598  1.00 20.00     0.045 C 
HETATM    8  C8  UNL     1     -33.535  17.098  -1.625  1.00 20.00     0.095 C 
HETATM    9  C9  UNL     1     -32.503  18.083  -2.222  1.00 20.00     0.005 C 
HETATM   10  C10 UNL     1     -32.088  19.262  -1.355  1.00 20.00     0.011 C 
HETATM   11 CL11 UNL     1     -36.161  13.480  -4.466  1.00 20.00    -0.084 Cl
HETATM   12 BR12 UNL     1     -34.988  17.962  -0.664  1.00 20.00    -0.086 Br
ENDROOT
TORSDOF 0
ENDMDL
MODEL 7
REMARK VINA RESULT:      -4.3      1.763      2.232
REMARK  0 active torsions:
REMARK  status: ('A' for Active; 'I' for Inactive)
ROOT
HETATM    1  C1  UNL     1     -33.440  15.124  -4.627  1.00 20.00     0.009 A 
HETATM    2  C2  UNL     1     -33.951  14.859  -5.899  1.00 20.00     0.024 A 
HETATM    3  C3  UNL     1     -36.056  15.937  -5.328  1.00 20.00     0.032 A 
HETATM    4  C4  UNL     1     -34.250  15.784  -3.718  1.00 20.00    -0.050 A 
HETATM    5  C5  UNL     1     -35.544  16.196  -4.067  1.00 20.00    -0.035 A 
HETATM    6  C6  UNL     1     -35.251  15.261  -6.247  1.00 20.00     0.034 A 
HETATM    7  C7  UNL     1     -33.916  16.190  -2.316  1.00 20.00     0.045 C 
HETATM    8  C8  UNL     1     -36.199  16.921  -2.931  1.00 20.00     0.095 C 
HETATM    9  C9  UNL     1     -35.327  16.452  -1.742  1.00 20.00     0.005 C 
HETATM   10  C10 UNL     1     -35.310  17.335  -0.503  1.00 20.00     0.011 C 
HETATM   11 CL11 UNL     1     -35.853  14.923  -7.824  1.00 20.00    -0.084 Cl
HETATM   12 BR12 UNL     1     -36.090  18.829  -3.285  1.00 20.00    -0.086 Br
ENDROOT
TORSDOF 0
ENDMDL
MODEL 8
REMARK VINA RESULT:      -4.2      1.949      2.362
REMARK  0 active torsions:
REMARK  status: ('A' for Active; 'I' for Inactive)
ROOT
HETATM    1  C1  UNL     1     -35.082  14.797  -3.103  1.00 20.00     0.009 A 
HETATM    2  C2  UNL     1     -34.764  14.522  -4.434  1.00 20.00     0.024 A 
HETATM    3  C3  UNL     1     -34.117  16.837  -4.806  1.00 20.00     0.032 A 
HETATM    4  C4  UNL     1     -34.923  16.094  -2.644  1.00 20.00    -0.050 A 
HETATM    5  C5  UNL     1     -34.435  17.104  -3.485  1.00 20.00    -0.035 A 
HETATM    6  C6  UNL     1     -34.286  15.535  -5.280  1.00 20.00     0.034 A 
HETATM    7  C7  UNL     1     -35.178  16.619  -1.264  1.00 20.00     0.045 C 
HETATM    8  C8  UNL     1     -34.315  18.403  -2.746  1.00 20.00     0.095 C 
HETATM    9  C9  UNL     1     -35.241  18.139  -1.536  1.00 20.00     0.005 C 
HETATM   10  C10 UNL     1     -35.006  18.975  -0.287  1.00 20.00     0.011 C 
HETATM   11 CL11 UNL     1     -33.900  15.164  -6.917  1.00 20.00    -0.084 Cl
HETATM   12 BR12 UNL     1     -32.448  18.659  -2.271  1.00 20.00    -0.086 Br
ENDROOT
TORSDOF 0
ENDMDL
MODEL 9
REMARK VINA RESULT:      -4.1      2.758      4.357
REMARK  0 active torsions:
REMARK  status: ('A' for Active; 'I' for Inactive)
ROOT
HETATM    1  C1  UNL     1     -34.041  16.913  -1.581  1.00 20.00     0.009 A 
HETATM    2  C2  UNL     1     -35.044  17.525  -0.828  1.00 20.00     0.024 A 
HETATM    3  C3  UNL     1     -36.669  17.144  -2.598  1.00 20.00     0.032 A 
HETATM    4  C4  UNL     1     -34.364  16.433  -2.839  1.00 20.00    -0.050 A 
HETATM    5  C5  UNL     1     -35.668  16.538  -3.341  1.00 20.00    -0.035 A 
HETATM    6  C6  UNL     1     -36.349  17.642  -1.334  1.00 20.00     0.034 A 
HETATM    7  C7  UNL     1     -33.468  15.728  -3.812  1.00 20.00     0.045 C 
HETATM    8  C8  UNL     1     -35.771  15.910  -4.698  1.00 20.00     0.095 C 
HETATM    9  C9  UNL     1     -34.283  15.872  -5.117  1.00 20.00     0.005 C 
HETATM   10  C10 UNL     1     -33.887  14.856  -6.178  1.00 20.00     0.011 C 
HETATM   11 CL11 UNL     1     -37.567  18.400  -0.381  1.00 20.00    -0.084 Cl
HETATM   12 BR12 UNL     1     -36.581  14.155  -4.495  1.00 20.00    -0.086 Br
ENDROOT
TORSDOF 0
ENDMDL
