MODEL 1
REMARK VINA RESULT:      -5.3      0.000      0.000
REMARK  0 active torsions:
REMARK  status: ('A' for Active; 'I' for Inactive)
ROOT
HETATM    1  C1  UNL     1     -32.961  15.706  -3.757  1.00 20.00     0.009 A 
HETATM    2  C2  UNL     1     -33.809  14.773  -4.355  1.00 20.00     0.024 A 
HETATM    3  C3  UNL     1     -35.576  15.299  -2.768  1.00 20.00     0.033 A 
HETATM    4  C4  UNL     1     -33.439  16.436  -2.680  1.00 20.00    -0.050 A 
HETATM    5  C5  UNL     1     -34.739  16.243  -2.191  1.00 20.00    -0.031 A 
HETATM    6  C6  UNL     1     -35.106  14.569  -3.863  1.00 20.00     0.034 A 
HETATM    7  C7  UNL     1     -32.698  17.445  -1.860  1.00 20.00     0.045 C 
HETATM    8  C8  UNL     1     -34.978  17.109  -0.991  1.00 20.00     0.119 C 
HETATM    9  C9  UNL     1     -33.861  18.169  -1.151  1.00 20.00     0.009 C 
HETATM   10  C10 UNL     1     -33.436  18.790   0.174  1.00 20.00     0.012 C 
HETATM   11 CL11 UNL     1     -36.133  13.413  -4.621  1.00 20.00    -0.084 Cl
HETATM   12 CL12 UNL     1     -36.581  17.860  -0.971  1.00 20.00    -0.119 Cl
ENDROOT
TORSDOF 0
ENDMDL
MODEL 2
REMARK VINA RESULT:      -4.8      1.984      2.659
REMARK  0 active torsions:
REMARK  status: ('A' for Active; 'I' for Inactive)
ROOT
HETATM    1  C1  UNL     1     -35.499  15.673  -2.283  1.00 20.00     0.009 A 
HETATM    2  C2  UNL     1     -34.904  15.103  -3.409  1.00 20.00     0.024 A 
HETATM    3  C3  UNL     1     -32.935  16.504  -3.130  1.00 20.00     0.033 A 
HETATM    4  C4  UNL     1     -34.795  16.642  -1.585  1.00 20.00    -0.050 A 
HETATM    5  C5  UNL     1     -33.520  17.052  -1.997  1.00 20.00    -0.031 A 
HETATM    6  C6  UNL     1     -33.632  15.517  -3.831  1.00 20.00     0.034 A 
HETATM    7  C7  UNL     1     -35.252  17.418  -0.389  1.00 20.00     0.045 C 
HETATM    8  C8  UNL     1     -33.012  18.147  -1.108  1.00 20.00     0.119 C 
HETATM    9  C9  UNL     1     -33.913  17.973   0.138  1.00 20.00     0.009 C 
HETATM   10  C10 UNL     1     -34.091  19.262   0.929  1.00 20.00     0.012 C 
HETATM   11 CL11 UNL     1     -32.919  14.796  -5.223  1.00 20.00    -0.084 Cl
HETATM   12 CL12 UNL     1     -31.299  17.984  -0.694  1.00 20.00    -0.119 Cl
ENDROOT
TORSDOF 0
ENDMDL
MODEL 3
REMARK VINA RESULT:      -4.5      2.777      5.474
REMARK  0 active torsions:
REMARK  status: ('A' for Active; 'I' for Inactive)
ROOT
HETATM    1  C1  UNL     1     -30.769  18.409  -0.030  1.00 20.00     0.009 A 
HETATM    2  C2  UNL     1     -30.533  18.658   1.323  1.00 20.00     0.024 A 
HETATM    3  C3  UNL     1     -32.916  18.549   1.801  1.00 20.00     0.033 A 
HETATM    4  C4  UNL     1     -32.076  18.218  -0.446  1.00 20.00    -0.050 A 
HETATM    5  C5  UNL     1     -33.144  18.279   0.459  1.00 20.00    -0.031 A 
HETATM    6  C6  UNL     1     -31.599  18.729   2.232  1.00 20.00     0.034 A 
HETATM    7  C7  UNL     1     -32.565  17.990  -1.843  1.00 20.00     0.045 C 
HETATM    8  C8  UNL     1     -34.448  18.099  -0.259  1.00 20.00     0.119 C 
HETATM    9  C9  UNL     1     -33.982  17.440  -1.579  1.00 20.00     0.009 C 
HETATM   10  C10 UNL     1     -34.931  17.701  -2.742  1.00 20.00     0.012 C 
HETATM   11 CL11 UNL     1     -31.281  19.034   3.896  1.00 20.00    -0.084 Cl
HETATM   12 CL12 UNL     1     -35.595  17.067   0.608  1.00 20.00    -0.119 Cl
ENDROOT
TORSDOF 0
ENDMDL
MODEL 4
REMARK VINA RESULT:      -4.4      1.725      2.214
REMARK  0 active torsions:
REMARK  status: ('A' for Active; 'I' for Inactive)
ROOT
HETATM    1  C1  UNL     1     -34.837  14.190  -4.059  1.00 20.00     0.009 A 
HETATM    2  C2  UNL     1     -36.180  13.920  -4.328  1.00 20.00     0.024 A 
HETATM    3  C3  UNL     1     -36.828  16.120  -3.517  1.00 20.00     0.033 A 
HETATM    4  C4  UNL     1     -34.507  15.429  -3.536  1.00 20.00    -0.050 A 
HETATM    5  C5  UNL     1     -35.489  16.393  -3.272  1.00 20.00    -0.031 A 
HETATM    6  C6  UNL     1     -37.168  14.877  -4.057  1.00 20.00     0.034 A 
HETATM    7  C7  UNL     1     -33.150  15.915  -3.128  1.00 20.00     0.045 C 
HETATM    8  C8  UNL     1     -34.872  17.613  -2.657  1.00 20.00     0.119 C 
HETATM    9  C9  UNL     1     -33.386  17.438  -3.054  1.00 20.00     0.009 C 
HETATM   10  C10 UNL     1     -32.427  18.127  -2.093  1.00 20.00     0.012 C 
HETATM   11 CL11 UNL     1     -38.818  14.520  -4.401  1.00 20.00    -0.084 Cl
HETATM   12 CL12 UNL     1     -35.532  19.131  -3.283  1.00 20.00    -0.119 Cl
ENDROOT
TORSDOF 0
ENDMDL
MODEL 5
REMARK VINA RESULT:      -4.4      1.692      4.498
REMARK  0 active torsions:
REMARK  status: ('A' for Active; 'I' for Inactive)
ROOT
HETATM    1  C1  UNL     1     -33.095  16.272  -3.413  1.00 20.00     0.009 A 
HETATM    2  C2  UNL     1     -33.406  16.698  -2.121  1.00 20.00     0.024 A 
HETATM    3  C3  UNL     1     -35.777  16.337  -2.528  1.00 20.00     0.033 A 
HETATM    4  C4  UNL     1     -34.130  15.869  -4.241  1.00 20.00    -0.050 A 
HETATM    5  C5  UNL     1     -35.462  15.892  -3.804  1.00 20.00    -0.031 A 
HETATM    6  C6  UNL     1     -34.737  16.732  -1.682  1.00 20.00     0.034 A 
HETATM    7  C7  UNL     1     -34.038  15.425  -5.668  1.00 20.00     0.045 C 
HETATM    8  C8  UNL     1     -36.381  15.468  -4.909  1.00 20.00     0.119 C 
HETATM    9  C9  UNL     1     -35.403  14.731  -5.855  1.00 20.00     0.009 C 
HETATM   10  C10 UNL     1     -35.862  14.736  -7.308  1.00 20.00     0.012 C 
HETATM   11 CL11 UNL     1     -35.093  17.259  -0.082  1.00 20.00    -0.084 Cl
HETATM   12 CL12 UNL     1     -37.686  14.400  -4.371  1.00 20.00    -0.119 Cl
ENDROOT
TORSDOF 0
ENDMDL
MODEL 6
REMARK VINA RESULT:      -4.4      2.050      4.840
REMARK  0 active torsions:
REMARK  status: ('A' for Active; 'I' for Inactive)
ROOT
HETATM    1  C1  UNL     1     -35.535  18.073  -2.290  1.00 20.00     0.009 A 
HETATM    2  C2  UNL     1     -34.405  18.660  -1.720  1.00 20.00     0.024 A 
HETATM    3  C3  UNL     1     -33.045  16.738  -2.335  1.00 20.00     0.033 A 
HETATM    4  C4  UNL     1     -35.401  16.832  -2.890  1.00 20.00    -0.050 A 
HETATM    5  C5  UNL     1     -34.166  16.168  -2.921  1.00 20.00    -0.031 A 
HETATM    6  C6  UNL     1     -33.169  17.997  -1.740  1.00 20.00     0.034 A 
HETATM    7  C7  UNL     1     -36.477  15.999  -3.515  1.00 20.00     0.045 C 
HETATM    8  C8  UNL     1     -34.312  14.825  -3.571  1.00 20.00     0.119 C 
HETATM    9  C9  UNL     1     -35.642  15.001  -4.343  1.00 20.00     0.009 C 
HETATM   10  C10 UNL     1     -36.373  13.685  -4.577  1.00 20.00     0.012 C 
HETATM   11 CL11 UNL     1     -31.789  18.744  -1.031  1.00 20.00    -0.084 Cl
HETATM   12 CL12 UNL     1     -32.980  14.420  -4.663  1.00 20.00    -0.119 Cl
ENDROOT
TORSDOF 0
ENDMDL
MODEL 7
REMARK VINA RESULT:      -4.3      1.049      4.218
REMARK  0 active torsions:
REMARK  status: ('A' for Active; 'I' for Inactive)
ROOT
HETATM    1  C1  UNL     1     -33.375  17.388  -1.258  1.00 20.00     0.009 A 
HETATM    2  C2  UNL     1     -34.328  17.934  -0.398  1.00 20.00     0.024 A 
HETATM    3  C3  UNL     1     -36.133  17.053  -1.771  1.00 20.00     0.033 A 
HETATM    4  C4  UNL     1     -33.815  16.668  -2.357  1.00 20.00    -0.050 A 
HETATM    5  C5  UNL     1     -35.182  16.492  -2.611  1.00 20.00    -0.031 A 
HETATM    6  C6  UNL     1     -35.697  17.769  -0.653  1.00 20.00     0.034 A 
HETATM    7  C7  UNL     1     -32.981  16.040  -3.431  1.00 20.00     0.045 C 
HETATM    8  C8  UNL     1     -35.381  15.731  -3.887  1.00 20.00     0.119 C 
HETATM    9  C9  UNL     1     -33.994  15.069  -4.069  1.00 20.00     0.009 C 
HETATM   10  C10 UNL     1     -33.667  14.763  -5.525  1.00 20.00     0.012 C 
HETATM   11 CL11 UNL     1     -36.853  18.451   0.426  1.00 20.00    -0.084 Cl
HETATM   12 CL12 UNL     1     -36.668  14.519  -3.793  1.00 20.00    -0.119 Cl
ENDROOT
TORSDOF 0
ENDMDL
MODEL 8
REMARK VINA RESULT:      -4.3      2.087      2.558
REMARK  0 active torsions:
REMARK  status: ('A' for Active; 'I' for Inactive)
ROOT
HETATM    1  C1  UNL     1     -35.218  14.649  -3.492  1.00 20.00     0.009 A 
HETATM    2  C2  UNL     1     -34.977  14.468  -4.855  1.00 20.00     0.024 A 
HETATM    3  C3  UNL     1     -34.055  16.712  -5.033  1.00 20.00     0.033 A 
HETATM    4  C4  UNL     1     -34.859  15.856  -2.915  1.00 20.00    -0.050 A 
HETATM    5  C5  UNL     1     -34.275  16.880  -3.673  1.00 20.00    -0.031 A 
HETATM    6  C6  UNL     1     -34.402  15.492  -5.620  1.00 20.00     0.034 A 
HETATM    7  C7  UNL     1     -35.066  16.286  -1.495  1.00 20.00     0.045 C 
HETATM    8  C8  UNL     1     -34.043  18.092  -2.822  1.00 20.00     0.119 C 
HETATM    9  C9  UNL     1     -34.098  17.483  -1.400  1.00 20.00     0.009 C 
HETATM   10  C10 UNL     1     -34.522  18.489  -0.338  1.00 20.00     0.012 C 
HETATM   11 CL11 UNL     1     -34.113  15.242  -7.299  1.00 20.00    -0.084 Cl
HETATM   12 CL12 UNL     1     -32.489  18.882  -3.127  1.00 20.00    -0.119 Cl
ENDROOT
TORSDOF 0
ENDMDL
MODEL 9
REMARK VINA RESULT:      -4.2      2.569      3.864
REMARK  0 active torsions:
REMARK  status: ('A' for Active; 'I' for Inactive)
ROOT
HETATM    1  C1  UNL     1     -35.477  17.195  -0.594  1.00 20.00     0.009 A 
HETATM    2  C2  UNL     1     -35.208  16.918  -1.935  1.00 20.00     0.024 A 
HETATM    3  C3  UNL     1     -32.946  17.783  -1.703  1.00 20.00     0.033 A 
HETATM    4  C4  UNL     1     -34.470  17.749   0.179  1.00 20.00    -0.050 A 
HETATM    5  C5  UNL     1     -33.210  18.036  -0.364  1.00 20.00    -0.031 A 
HETATM    6  C6  UNL     1     -33.952  17.211  -2.486  1.00 20.00     0.034 A 
HETATM    7  C7  UNL     1     -34.548  18.172   1.613  1.00 20.00     0.045 C 
HETATM    8  C8  UNL     1     -32.333  18.682   0.665  1.00 20.00     0.119 C 
HETATM    9  C9  UNL     1     -33.053  18.283   1.976  1.00 20.00     0.009 C 
HETATM   10  C10 UNL     1     -32.804  19.263   3.115  1.00 20.00     0.012 C 
HETATM   11 CL11 UNL     1     -33.644  16.856  -4.143  1.00 20.00    -0.084 Cl
HETATM   12 CL12 UNL     1     -30.664  18.094   0.641  1.00 20.00    -0.119 Cl
ENDROOT
TORSDOF 0
ENDMDL
