MODEL 1
REMARK VINA RESULT:      -5.5      0.000      0.000
REMARK  1 active torsions:
REMARK  status: ('A' for Active; 'I' for Inactive)
REMARK    1  A    between atoms: C2_2  and  C3_3 
ROOT
HETATM    1  C1  UNL     1     -35.115  15.525  -3.547  1.00 20.00    -0.034 C 
HETATM    2  C2  UNL     1     -35.279  14.276  -4.008  1.00 20.00     0.194 C 
HETATM    3  C4  UNL     1     -34.014  15.884  -2.592  1.00 20.00     0.038 C 
HETATM    4  C5  UNL     1     -35.997  16.662  -4.003  1.00 20.00     0.042 C 
HETATM    5  C6  UNL     1     -33.112  16.996  -3.142  1.00 20.00     0.009 C 
HETATM    6  C7  UNL     1     -35.289  18.040  -4.010  1.00 20.00    -0.011 C 
HETATM    7  C8  UNL     1     -33.769  17.864  -4.233  1.00 20.00    -0.014 C 
HETATM    8  C9  UNL     1     -35.634  18.847  -2.752  1.00 20.00     0.010 C 
HETATM    9  C10 UNL     1     -33.024  19.190  -4.389  1.00 20.00     0.010 C 
HETATM   10  F13 UNL     1     -34.419  13.325  -3.588  1.00 20.00    -0.199 F 
ENDROOT
BRANCH   2  11
HETATM   11  C3  UNL     1     -36.399  13.896  -4.982  1.00 20.00     0.239 C 
HETATM   12  O11 UNL     1     -36.040  13.868  -6.196  1.00 20.00    -0.642 OA
HETATM   13  O12 UNL     1     -37.534  13.655  -4.482  1.00 20.00    -0.642 OA
ENDBRANCH   2  11
TORSDOF 1
ENDMDL
MODEL 2
REMARK VINA RESULT:      -5.4      1.604      2.418
REMARK  1 active torsions:
REMARK  status: ('A' for Active; 'I' for Inactive)
REMARK    1  A    between atoms: C2_2  and  C3_3 
ROOT
HETATM    1  C1  UNL     1     -35.077  15.691  -4.589  1.00 20.00    -0.034 C 
HETATM    2  C2  UNL     1     -35.878  14.862  -5.274  1.00 20.00     0.194 C 
HETATM    3  C4  UNL     1     -34.472  16.914  -5.215  1.00 20.00     0.038 C 
HETATM    4  C5  UNL     1     -34.775  15.474  -3.125  1.00 20.00     0.042 C 
HETATM    5  C6  UNL     1     -34.844  18.194  -4.457  1.00 20.00     0.009 C 
HETATM    6  C7  UNL     1     -34.514  16.783  -2.340  1.00 20.00    -0.011 C 
HETATM    7  C8  UNL     1     -35.268  17.964  -2.992  1.00 20.00    -0.014 C 
HETATM    8  C9  UNL     1     -33.010  17.035  -2.169  1.00 20.00     0.010 C 
HETATM    9  C10 UNL     1     -35.166  19.263  -2.191  1.00 20.00     0.010 C 
HETATM   10  F13 UNL     1     -36.137  15.152  -6.567  1.00 20.00    -0.199 F 
ENDROOT
BRANCH   2  11
HETATM   11  C3  UNL     1     -36.501  13.610  -4.649  1.00 20.00     0.239 C 
HETATM   12  O11 UNL     1     -37.726  13.736  -4.352  1.00 20.00    -0.642 OA
HETATM   13  O12 UNL     1     -35.745  12.609  -4.499  1.00 20.00    -0.642 OA
ENDBRANCH   2  11
TORSDOF 1
ENDMDL
MODEL 3
REMARK VINA RESULT:      -5.1      1.829      3.024
REMARK  1 active torsions:
REMARK  status: ('A' for Active; 'I' for Inactive)
REMARK    1  A    between atoms: C2_2  and  C3_3 
ROOT
HETATM    1  C1  UNL     1     -35.844  16.345  -4.132  1.00 20.00    -0.034 C 
HETATM    2  C2  UNL     1     -36.749  15.714  -4.894  1.00 20.00     0.194 C 
HETATM    3  C4  UNL     1     -35.945  17.809  -3.820  1.00 20.00     0.038 C 
HETATM    4  C5  UNL     1     -34.692  15.607  -3.493  1.00 20.00     0.042 C 
HETATM    5  C6  UNL     1     -35.986  18.077  -2.310  1.00 20.00     0.009 C 
HETATM    6  C7  UNL     1     -34.225  16.219  -2.149  1.00 20.00    -0.011 C 
HETATM    7  C8  UNL     1     -35.398  16.942  -1.448  1.00 20.00    -0.014 C 
HETATM    8  C9  UNL     1     -32.987  17.104  -2.343  1.00 20.00     0.010 C 
HETATM    9  C10 UNL     1     -35.045  17.453  -0.051  1.00 20.00     0.010 C 
HETATM   10  F13 UNL     1     -37.777  16.436  -5.389  1.00 20.00    -0.199 F 
ENDROOT
BRANCH   2  11
HETATM   11  C3  UNL     1     -36.658  14.220  -5.221  1.00 20.00     0.239 C 
HETATM   12  O11 UNL     1     -37.347  13.482  -4.457  1.00 20.00    -0.642 OA
HETATM   13  O12 UNL     1     -35.923  13.892  -6.194  1.00 20.00    -0.642 OA
ENDBRANCH   2  11
TORSDOF 1
ENDMDL
MODEL 4
REMARK VINA RESULT:      -5.1      3.915      5.106
REMARK  1 active torsions:
REMARK  status: ('A' for Active; 'I' for Inactive)
REMARK    1  A    between atoms: C2_2  and  C3_3 
ROOT
HETATM    1  C1  UNL     1     -33.717  16.851  -2.012  1.00 20.00    -0.034 C 
HETATM    2  C2  UNL     1     -33.235  17.872  -1.288  1.00 20.00     0.194 C 
HETATM    3  C4  UNL     1     -35.074  16.264  -1.758  1.00 20.00     0.038 C 
HETATM    4  C5  UNL     1     -32.943  16.262  -3.167  1.00 20.00     0.042 C 
HETATM    5  C6  UNL     1     -35.967  16.312  -3.004  1.00 20.00     0.009 C 
HETATM    6  C7  UNL     1     -33.838  15.687  -4.292  1.00 20.00    -0.011 C 
HETATM    7  C8  UNL     1     -35.195  16.427  -4.334  1.00 20.00    -0.014 C 
HETATM    8  C9  UNL     1     -33.974  14.164  -4.169  1.00 20.00     0.010 C 
HETATM    9  C10 UNL     1     -36.078  16.005  -5.509  1.00 20.00     0.010 C 
HETATM   10  F13 UNL     1     -34.010  18.374  -0.302  1.00 20.00    -0.199 F 
ENDROOT
BRANCH   2  11
HETATM   11  C3  UNL     1     -31.852  18.481  -1.535  1.00 20.00     0.239 C 
HETATM   12  O11 UNL     1     -31.802  19.263  -2.529  1.00 20.00    -0.642 OA
HETATM   13  O12 UNL     1     -30.929  18.146  -0.740  1.00 20.00    -0.642 OA
ENDBRANCH   2  11
TORSDOF 1
ENDMDL
MODEL 5
REMARK VINA RESULT:      -4.7      1.210      1.407
REMARK  1 active torsions:
REMARK  status: ('A' for Active; 'I' for Inactive)
REMARK    1  A    between atoms: C2_2  and  C3_3 
ROOT
HETATM    1  C1  UNL     1     -34.946  15.873  -3.790  1.00 20.00    -0.034 C 
HETATM    2  C2  UNL     1     -34.894  14.691  -4.422  1.00 20.00     0.194 C 
HETATM    3  C4  UNL     1     -34.785  15.989  -2.303  1.00 20.00     0.038 C 
HETATM    4  C5  UNL     1     -35.117  17.170  -4.544  1.00 20.00     0.042 C 
HETATM    5  C6  UNL     1     -33.629  16.920  -1.918  1.00 20.00     0.009 C 
HETATM    6  C7  UNL     1     -34.443  18.385  -3.860  1.00 20.00    -0.011 C 
HETATM    7  C8  UNL     1     -33.231  17.926  -3.017  1.00 20.00    -0.014 C 
HETATM    8  C9  UNL     1     -35.464  19.212  -3.068  1.00 20.00     0.010 C 
HETATM    9  C10 UNL     1     -32.434  19.088  -2.422  1.00 20.00     0.010 C 
HETATM   10  F13 UNL     1     -34.690  13.582  -3.681  1.00 20.00    -0.199 F 
ENDROOT
BRANCH   2  11
HETATM   11  C3  UNL     1     -35.057  14.557  -5.939  1.00 20.00     0.239 C 
HETATM   12  O11 UNL     1     -33.974  14.665  -6.587  1.00 20.00    -0.642 OA
HETATM   13  O12 UNL     1     -36.227  14.358  -6.373  1.00 20.00    -0.642 OA
ENDBRANCH   2  11
TORSDOF 1
ENDMDL
MODEL 6
REMARK VINA RESULT:      -4.6      1.535      1.875
REMARK  1 active torsions:
REMARK  status: ('A' for Active; 'I' for Inactive)
REMARK    1  A    between atoms: C2_2  and  C3_3 
ROOT
HETATM    1  C1  UNL     1     -35.662  15.040  -3.743  1.00 20.00    -0.034 C 
HETATM    2  C2  UNL     1     -36.441  14.406  -4.631  1.00 20.00     0.194 C 
HETATM    3  C4  UNL     1     -34.233  14.644  -3.510  1.00 20.00     0.038 C 
HETATM    4  C5  UNL     1     -36.158  16.231  -2.959  1.00 20.00     0.042 C 
HETATM    5  C6  UNL     1     -33.264  15.808  -3.748  1.00 20.00     0.009 C 
HETATM    6  C7  UNL     1     -35.047  17.249  -2.597  1.00 20.00    -0.011 C 
HETATM    7  C8  UNL     1     -33.911  17.204  -3.644  1.00 20.00    -0.014 C 
HETATM    8  C9  UNL     1     -34.561  17.047  -1.156  1.00 20.00     0.010 C 
HETATM    9  C10 UNL     1     -32.845  18.278  -3.426  1.00 20.00     0.010 C 
HETATM   10  F13 UNL     1     -35.908  13.379  -5.327  1.00 20.00    -0.199 F 
ENDROOT
BRANCH   2  11
HETATM   11  C3  UNL     1     -37.901  14.799  -4.879  1.00 20.00     0.239 C 
HETATM   12  O11 UNL     1     -38.740  14.096  -4.242  1.00 20.00    -0.642 OA
HETATM   13  O12 UNL     1     -38.107  15.760  -5.673  1.00 20.00    -0.642 OA
ENDBRANCH   2  11
TORSDOF 1
ENDMDL
MODEL 7
REMARK VINA RESULT:      -4.6      4.607      5.699
REMARK  1 active torsions:
REMARK  status: ('A' for Active; 'I' for Inactive)
REMARK    1  A    between atoms: C2_2  and  C3_3 
ROOT
HETATM    1  C1  UNL     1     -33.198  18.173  -1.185  1.00 20.00    -0.034 C 
HETATM    2  C2  UNL     1     -32.305  18.507  -0.242  1.00 20.00     0.194 C 
HETATM    3  C4  UNL     1     -32.859  18.192  -2.647  1.00 20.00     0.038 C 
HETATM    4  C5  UNL     1     -34.589  17.704  -0.831  1.00 20.00     0.042 C 
HETATM    5  C6  UNL     1     -33.085  16.828  -3.310  1.00 20.00     0.009 C 
HETATM    6  C7  UNL     1     -35.192  16.706  -1.851  1.00 20.00    -0.011 C 
HETATM    7  C8  UNL     1     -34.069  15.911  -2.556  1.00 20.00    -0.014 C 
HETATM    8  C9  UNL     1     -36.144  17.414  -2.822  1.00 20.00     0.010 C 
HETATM    9  C10 UNL     1     -34.595  14.810  -3.478  1.00 20.00     0.010 C 
HETATM   10  F13 UNL     1     -31.067  18.870  -0.639  1.00 20.00    -0.199 F 
ENDROOT
BRANCH   2  11
HETATM   11  C3  UNL     1     -32.638  18.493   1.253  1.00 20.00     0.239 C 
HETATM   12  O11 UNL     1     -31.929  17.693   1.932  1.00 20.00    -0.642 OA
HETATM   13  O12 UNL     1     -33.561  19.263   1.641  1.00 20.00    -0.642 OA
ENDBRANCH   2  11
TORSDOF 1
ENDMDL
MODEL 8
REMARK VINA RESULT:      -4.5      2.214      3.265
REMARK  1 active torsions:
REMARK  status: ('A' for Active; 'I' for Inactive)
REMARK    1  A    between atoms: C2_2  and  C3_3 
ROOT
HETATM    1  C1  UNL     1     -36.337  15.938  -4.736  1.00 20.00    -0.034 C 
HETATM    2  C2  UNL     1     -37.670  16.046  -4.829  1.00 20.00     0.194 C 
HETATM    3  C4  UNL     1     -35.411  16.947  -5.350  1.00 20.00     0.038 C 
HETATM    4  C5  UNL     1     -35.682  14.821  -3.959  1.00 20.00     0.042 C 
HETATM    5  C6  UNL     1     -34.470  17.574  -4.314  1.00 20.00     0.009 C 
HETATM    6  C7  UNL     1     -34.320  15.209  -3.332  1.00 20.00    -0.011 C 
HETATM    7  C8  UNL     1     -34.272  16.727  -3.041  1.00 20.00    -0.014 C 
HETATM    8  C9  UNL     1     -33.152  14.713  -4.194  1.00 20.00     0.010 C 
HETATM    9  C10 UNL     1     -33.010  17.160  -2.296  1.00 20.00     0.010 C 
HETATM   10  F13 UNL     1     -38.178  17.101  -5.501  1.00 20.00    -0.199 F 
ENDROOT
BRANCH   2  11
HETATM   11  C3  UNL     1     -38.627  15.024  -4.208  1.00 20.00     0.239 C 
HETATM   12  O11 UNL     1     -39.532  15.536  -3.486  1.00 20.00    -0.642 OA
HETATM   13  O12 UNL     1     -38.417  13.807  -4.476  1.00 20.00    -0.642 OA
ENDBRANCH   2  11
TORSDOF 1
ENDMDL
MODEL 9
REMARK VINA RESULT:      -4.4      4.144      5.267
REMARK  1 active torsions:
REMARK  status: ('A' for Active; 'I' for Inactive)
REMARK    1  A    between atoms: C2_2  and  C3_3 
ROOT
HETATM    1  C1  UNL     1     -33.749  17.821  -1.414  1.00 20.00    -0.034 C 
HETATM    2  C2  UNL     1     -33.171  18.169  -0.255  1.00 20.00     0.194 C 
HETATM    3  C4  UNL     1     -32.961  17.658  -2.681  1.00 20.00     0.038 C 
HETATM    4  C5  UNL     1     -35.226  17.520  -1.506  1.00 20.00     0.042 C 
HETATM    5  C6  UNL     1     -33.124  16.259  -3.287  1.00 20.00     0.009 C 
HETATM    6  C7  UNL     1     -35.585  16.480  -2.597  1.00 20.00    -0.011 C 
HETATM    7  C8  UNL     1     -34.399  15.518  -2.838  1.00 20.00    -0.014 C 
HETATM    8  C9  UNL     1     -36.086  17.167  -3.874  1.00 20.00     0.010 C 
HETATM    9  C10 UNL     1     -34.731  14.380  -3.804  1.00 20.00     0.010 C 
HETATM   10  F13 UNL     1     -31.837  18.375  -0.246  1.00 20.00    -0.199 F 
ENDROOT
BRANCH   2  11
HETATM   11  C3  UNL     1     -33.964  18.339   1.045  1.00 20.00     0.239 C 
HETATM   12  O11 UNL     1     -34.828  19.263   1.005  1.00 20.00    -0.642 OA
HETATM   13  O12 UNL     1     -33.677  17.559   1.996  1.00 20.00    -0.642 OA
ENDBRANCH   2  11
TORSDOF 1
ENDMDL
