MODEL 1
REMARK VINA RESULT:      -5.0      0.000      0.000
REMARK  0 active torsions:
REMARK  status: ('A' for Active; 'I' for Inactive)
ROOT
HETATM    1  C1  UNL     1     -35.257  16.455  -1.424  1.00 20.00     0.009 A 
HETATM    2  C2  UNL     1     -34.348  17.363  -0.875  1.00 20.00     0.019 A 
HETATM    3  C3  UNL     1     -32.885  17.134  -2.805  1.00 20.00     0.028 A 
HETATM    4  C4  UNL     1     -34.970  15.907  -2.662  1.00 20.00    -0.050 A 
HETATM    5  C5  UNL     1     -33.793  16.237  -3.345  1.00 20.00    -0.032 A 
HETATM    6  C6  UNL     1     -33.171  17.702  -1.562  1.00 20.00     0.011 A 
HETATM    7  C7  UNL     1     -35.773  14.902  -3.430  1.00 20.00     0.045 C 
HETATM    8  C8  UNL     1     -33.694  15.487  -4.639  1.00 20.00     0.119 C 
HETATM    9  C9  UNL     1     -35.157  15.021  -4.845  1.00 20.00     0.009 C 
HETATM   10  C10 UNL     1     -35.938  16.032  -5.697  1.00 20.00     0.012 C 
HETATM   11 CL11 UNL     1     -32.600  14.097  -4.436  1.00 20.00    -0.119 Cl
HETATM   12 BR12 UNL     1     -31.959  18.931  -0.791  1.00 20.00    -0.051 Br
ENDROOT
TORSDOF 0
ENDMDL
MODEL 2
REMARK VINA RESULT:      -4.6      1.037      1.209
REMARK  0 active torsions:
REMARK  status: ('A' for Active; 'I' for Inactive)
ROOT
HETATM    1  C1  UNL     1     -34.964  17.193  -0.585  1.00 20.00     0.009 A 
HETATM    2  C2  UNL     1     -33.940  17.913   0.034  1.00 20.00     0.019 A 
HETATM    3  C3  UNL     1     -32.559  17.752  -1.962  1.00 20.00     0.028 A 
HETATM    4  C4  UNL     1     -34.774  16.771  -1.890  1.00 20.00    -0.050 A 
HETATM    5  C5  UNL     1     -33.581  17.042  -2.571  1.00 20.00    -0.032 A 
HETATM    6  C6  UNL     1     -32.746  18.192  -0.650  1.00 20.00     0.011 A 
HETATM    7  C7  UNL     1     -35.709  15.970  -2.742  1.00 20.00     0.045 C 
HETATM    8  C8  UNL     1     -33.603  16.450  -3.948  1.00 20.00     0.119 C 
HETATM    9  C9  UNL     1     -35.116  16.189  -4.154  1.00 20.00     0.009 C 
HETATM   10  C10 UNL     1     -35.787  17.382  -4.850  1.00 20.00     0.012 C 
HETATM   11 CL11 UNL     1     -32.682  14.926  -3.953  1.00 20.00    -0.119 Cl
HETATM   12 BR12 UNL     1     -31.377  19.166   0.217  1.00 20.00    -0.051 Br
ENDROOT
TORSDOF 0
ENDMDL
MODEL 3
REMARK VINA RESULT:      -4.6      2.128      2.847
REMARK  0 active torsions:
REMARK  status: ('A' for Active; 'I' for Inactive)
ROOT
HETATM    1  C1  UNL     1     -32.801  17.653  -2.017  1.00 20.00     0.009 A 
HETATM    2  C2  UNL     1     -33.055  18.017  -0.692  1.00 20.00     0.019 A 
HETATM    3  C3  UNL     1     -35.264  17.003  -0.789  1.00 20.00     0.028 A 
HETATM    4  C4  UNL     1     -33.782  16.959  -2.706  1.00 20.00    -0.050 A 
HETATM    5  C5  UNL     1     -35.004  16.642  -2.101  1.00 20.00    -0.032 A 
HETATM    6  C6  UNL     1     -34.277  17.693  -0.082  1.00 20.00     0.011 A 
HETATM    7  C7  UNL     1     -33.748  16.492  -4.128  1.00 20.00     0.045 C 
HETATM    8  C8  UNL     1     -35.908  15.928  -3.060  1.00 20.00     0.119 C 
HETATM    9  C9  UNL     1     -34.909  15.469  -4.151  1.00 20.00     0.009 C 
HETATM   10  C10 UNL     1     -34.394  14.052  -3.860  1.00 20.00     0.012 C 
HETATM   11 CL11 UNL     1     -37.097  17.077  -3.722  1.00 20.00    -0.119 Cl
HETATM   12 BR12 UNL     1     -34.590  18.202   1.712  1.00 20.00    -0.051 Br
ENDROOT
TORSDOF 0
ENDMDL
MODEL 4
REMARK VINA RESULT:      -4.5      2.767      4.010
REMARK  0 active torsions:
REMARK  status: ('A' for Active; 'I' for Inactive)
ROOT
HETATM    1  C1  UNL     1     -31.466  18.219  -0.747  1.00 20.00     0.009 A 
HETATM    2  C2  UNL     1     -31.413  18.376   0.640  1.00 20.00     0.019 A 
HETATM    3  C3  UNL     1     -33.823  18.089   0.808  1.00 20.00     0.028 A 
HETATM    4  C4  UNL     1     -32.698  17.988  -1.335  1.00 20.00    -0.050 A 
HETATM    5  C5  UNL     1     -33.867  17.931  -0.567  1.00 20.00    -0.032 A 
HETATM    6  C6  UNL     1     -32.583  18.311   1.413  1.00 20.00     0.011 A 
HETATM    7  C7  UNL     1     -33.002  17.817  -2.792  1.00 20.00     0.045 C 
HETATM    8  C8  UNL     1     -35.069  17.710  -1.435  1.00 20.00     0.119 C 
HETATM    9  C9  UNL     1     -34.421  17.201  -2.747  1.00 20.00     0.009 C 
HETATM   10  C10 UNL     1     -34.352  15.667  -2.763  1.00 20.00     0.012 C 
HETATM   11 CL11 UNL     1     -35.905  19.261  -1.693  1.00 20.00    -0.119 Cl
HETATM   12 BR12 UNL     1     -32.480  18.531   3.287  1.00 20.00    -0.051 Br
ENDROOT
TORSDOF 0
ENDMDL
MODEL 5
REMARK VINA RESULT:      -4.5      1.869      2.664
REMARK  0 active torsions:
REMARK  status: ('A' for Active; 'I' for Inactive)
ROOT
HETATM    1  C1  UNL     1     -32.912  16.788  -3.102  1.00 20.00     0.009 A 
HETATM    2  C2  UNL     1     -32.996  17.425  -1.862  1.00 20.00     0.019 A 
HETATM    3  C3  UNL     1     -35.292  16.673  -1.578  1.00 20.00     0.028 A 
HETATM    4  C4  UNL     1     -34.020  16.093  -3.558  1.00 20.00    -0.050 A 
HETATM    5  C5  UNL     1     -35.201  16.040  -2.808  1.00 20.00    -0.032 A 
HETATM    6  C6  UNL     1     -34.176  17.367  -1.104  1.00 20.00     0.011 A 
HETATM    7  C7  UNL     1     -34.174  15.362  -4.856  1.00 20.00     0.045 C 
HETATM    8  C8  UNL     1     -36.261  15.265  -3.530  1.00 20.00     0.119 C 
HETATM    9  C9  UNL     1     -35.425  14.494  -4.582  1.00 20.00     0.009 C 
HETATM   10  C10 UNL     1     -35.024  13.109  -4.053  1.00 20.00     0.012 C 
HETATM   11 CL11 UNL     1     -37.393  16.395  -4.312  1.00 20.00    -0.119 Cl
HETATM   12 BR12 UNL     1     -34.258  18.242   0.570  1.00 20.00    -0.051 Br
ENDROOT
TORSDOF 0
ENDMDL
MODEL 6
REMARK VINA RESULT:      -4.3      1.403      1.599
REMARK  0 active torsions:
REMARK  status: ('A' for Active; 'I' for Inactive)
ROOT
HETATM    1  C1  UNL     1     -34.873  15.856  -2.178  1.00 20.00     0.009 A 
HETATM    2  C2  UNL     1     -34.035  16.935  -1.889  1.00 20.00     0.019 A 
HETATM    3  C3  UNL     1     -33.868  17.496  -4.250  1.00 20.00     0.028 A 
HETATM    4  C4  UNL     1     -35.205  15.619  -3.501  1.00 20.00    -0.050 A 
HETATM    5  C5  UNL     1     -34.703  16.426  -4.529  1.00 20.00    -0.032 A 
HETATM    6  C6  UNL     1     -33.536  17.751  -2.918  1.00 20.00     0.011 A 
HETATM    7  C7  UNL     1     -36.057  14.517  -4.050  1.00 20.00     0.045 C 
HETATM    8  C8  UNL     1     -35.173  15.945  -5.868  1.00 20.00     0.119 C 
HETATM    9  C9  UNL     1     -36.365  15.037  -5.475  1.00 20.00     0.009 C 
HETATM   10  C10 UNL     1     -37.683  15.825  -5.496  1.00 20.00     0.012 C 
HETATM   11 CL11 UNL     1     -33.879  15.002  -6.647  1.00 20.00    -0.119 Cl
HETATM   12 BR12 UNL     1     -32.401  19.202  -2.494  1.00 20.00    -0.051 Br
ENDROOT
TORSDOF 0
ENDMDL
MODEL 7
REMARK VINA RESULT:      -4.3      3.265      4.559
REMARK  0 active torsions:
REMARK  status: ('A' for Active; 'I' for Inactive)
ROOT
HETATM    1  C1  UNL     1     -35.076  14.348  -4.261  1.00 20.00     0.009 A 
HETATM    2  C2  UNL     1     -36.445  14.212  -4.501  1.00 20.00     0.019 A 
HETATM    3  C3  UNL     1     -36.908  16.266  -3.282  1.00 20.00     0.028 A 
HETATM    4  C4  UNL     1     -34.641  15.449  -3.543  1.00 20.00    -0.050 A 
HETATM    5  C5  UNL     1     -35.548  16.397  -3.051  1.00 20.00    -0.032 A 
HETATM    6  C6  UNL     1     -37.355  15.165  -4.016  1.00 20.00     0.011 A 
HETATM    7  C7  UNL     1     -33.239  15.790  -3.143  1.00 20.00     0.045 C 
HETATM    8  C8  UNL     1     -34.840  17.467  -2.277  1.00 20.00     0.119 C 
HETATM    9  C9  UNL     1     -33.376  17.281  -2.749  1.00 20.00     0.009 C 
HETATM   10  C10 UNL     1     -33.068  18.192  -3.946  1.00 20.00     0.012 C 
HETATM   11 CL11 UNL     1     -34.998  17.140  -0.534  1.00 20.00    -0.119 Cl
HETATM   12 BR12 UNL     1     -39.203  14.951  -4.354  1.00 20.00    -0.051 Br
ENDROOT
TORSDOF 0
ENDMDL
MODEL 8
REMARK VINA RESULT:      -4.3      3.138      4.450
REMARK  0 active torsions:
REMARK  status: ('A' for Active; 'I' for Inactive)
ROOT
HETATM    1  C1  UNL     1     -34.651  14.604  -3.606  1.00 20.00     0.009 A 
HETATM    2  C2  UNL     1     -34.448  14.480  -4.983  1.00 20.00     0.019 A 
HETATM    3  C3  UNL     1     -34.455  16.898  -5.247  1.00 20.00     0.028 A 
HETATM    4  C4  UNL     1     -34.743  15.876  -3.068  1.00 20.00    -0.050 A 
HETATM    5  C5  UNL     1     -34.653  17.013  -3.880  1.00 20.00    -0.032 A 
HETATM    6  C6  UNL     1     -34.349  15.619  -5.797  1.00 20.00     0.011 A 
HETATM    7  C7  UNL     1     -34.984  16.254  -1.639  1.00 20.00     0.045 C 
HETATM    8  C8  UNL     1     -34.820  18.265  -3.072  1.00 20.00     0.119 C 
HETATM    9  C9  UNL     1     -34.573  17.746  -1.634  1.00 20.00     0.009 C 
HETATM   10  C10 UNL     1     -33.097  17.904  -1.241  1.00 20.00     0.012 C 
HETATM   11 CL11 UNL     1     -36.484  18.871  -3.258  1.00 20.00    -0.119 Cl
HETATM   12 BR12 UNL     1     -34.077  15.418  -7.657  1.00 20.00    -0.051 Br
ENDROOT
TORSDOF 0
ENDMDL
MODEL 9
REMARK VINA RESULT:      -4.3      1.637      2.088
REMARK  0 active torsions:
REMARK  status: ('A' for Active; 'I' for Inactive)
ROOT
HETATM    1  C1  UNL     1     -34.946  18.210  -4.301  1.00 20.00     0.009 A 
HETATM    2  C2  UNL     1     -34.107  18.603  -3.255  1.00 20.00     0.019 A 
HETATM    3  C3  UNL     1     -33.103  16.389  -3.168  1.00 20.00     0.028 A 
HETATM    4  C4  UNL     1     -34.843  16.913  -4.772  1.00 20.00    -0.050 A 
HETATM    5  C5  UNL     1     -33.936  16.007  -4.208  1.00 20.00    -0.032 A 
HETATM    6  C6  UNL     1     -33.190  17.700  -2.694  1.00 20.00     0.011 A 
HETATM    7  C7  UNL     1     -35.648  16.263  -5.855  1.00 20.00     0.045 C 
HETATM    8  C8  UNL     1     -34.042  14.663  -4.862  1.00 20.00     0.119 C 
HETATM    9  C9  UNL     1     -34.798  15.008  -6.169  1.00 20.00     0.009 C 
HETATM   10  C10 UNL     1     -33.813  15.287  -7.313  1.00 20.00     0.012 C 
HETATM   11 CL11 UNL     1     -35.006  13.577  -3.830  1.00 20.00    -0.119 Cl
HETATM   12 BR12 UNL     1     -32.071  18.261  -1.278  1.00 20.00    -0.051 Br
ENDROOT
TORSDOF 0
ENDMDL
