MODEL 1
REMARK VINA RESULT:      -4.2      0.000      0.000
REMARK  2 active torsions:
REMARK  status: ('A' for Active; 'I' for Inactive)
REMARK    1  A    between atoms: C5_5  and  C9_9 
REMARK    2  A    between atoms: C5_5  and  O10_10 
ROOT
HETATM    1  C1  UNL     1     -34.244  14.947  -6.537  1.00 20.00     0.004 C 
HETATM    2  C2  UNL     1     -35.729  14.626  -6.366  1.00 20.00     0.012 C 
HETATM    3  C3  UNL     1     -33.678  15.185  -5.133  1.00 20.00     0.038 C 
HETATM    4  C4  UNL     1     -36.098  15.117  -4.951  1.00 20.00    -0.017 C 
HETATM    5  C5  UNL     1     -34.801  14.783  -4.165  1.00 20.00     0.064 C 
HETATM    6  C6  UNL     1     -37.337  14.374  -4.431  1.00 20.00     0.018 C 
HETATM    7  C7  UNL     1     -36.417  16.626  -4.989  1.00 20.00     0.018 C 
ENDROOT
BRANCH   5   8
HETATM    8  C9  UNL     1     -34.662  15.453  -2.802  1.00 20.00     0.034 C 
HETATM    9  C8  UNL     1     -33.466  16.348  -2.744  1.00 20.00     0.008 C 
ENDBRANCH   5   8
BRANCH   5  10
HETATM   10  O10 UNL     1     -34.719  13.366  -3.965  1.00 20.00    -0.389 OA
HETATM   11  H28 UNL     1     -34.055  13.231  -3.273  1.00 20.00     0.210 HD
ENDBRANCH   5  10
TORSDOF 2
ENDMDL
MODEL 2
REMARK VINA RESULT:      -4.0      1.529      3.214
REMARK  2 active torsions:
REMARK  status: ('A' for Active; 'I' for Inactive)
REMARK    1  A    between atoms: C5_5  and  C9_9 
REMARK    2  A    between atoms: C5_5  and  O10_10 
ROOT
HETATM    1  C1  UNL     1     -36.054  13.620  -4.734  1.00 20.00     0.004 C 
HETATM    2  C2  UNL     1     -34.891  13.936  -3.793  1.00 20.00     0.012 C 
HETATM    3  C3  UNL     1     -35.919  14.563  -5.935  1.00 20.00     0.038 C 
HETATM    4  C4  UNL     1     -34.377  15.325  -4.222  1.00 20.00    -0.017 C 
HETATM    5  C5  UNL     1     -34.559  15.254  -5.763  1.00 20.00     0.064 C 
HETATM    6  C6  UNL     1     -32.916  15.515  -3.787  1.00 20.00     0.018 C 
HETATM    7  C7  UNL     1     -35.229  16.425  -3.558  1.00 20.00     0.018 C 
ENDROOT
BRANCH   5   8
HETATM    8  C9  UNL     1     -34.485  16.587  -6.501  1.00 20.00     0.034 C 
HETATM    9  C8  UNL     1     -34.044  16.411  -7.918  1.00 20.00     0.008 C 
ENDBRANCH   5   8
BRANCH   5  10
HETATM   10  O10 UNL     1     -33.558  14.393  -6.320  1.00 20.00    -0.389 OA
HETATM   11  H28 UNL     1     -34.024  13.601  -6.624  1.00 20.00     0.210 HD
ENDBRANCH   5  10
TORSDOF 2
ENDMDL
MODEL 3
REMARK VINA RESULT:      -4.0     18.234     19.435
REMARK  2 active torsions:
REMARK  status: ('A' for Active; 'I' for Inactive)
REMARK    1  A    between atoms: C5_5  and  C9_9 
REMARK    2  A    between atoms: C5_5  and  O10_10 
ROOT
HETATM    1  C1  UNL     1     -24.812  19.069   9.402  1.00 20.00     0.004 C 
HETATM    2  C2  UNL     1     -23.293  19.118   9.234  1.00 20.00     0.012 C 
HETATM    3  C3  UNL     1     -25.101  18.064  10.522  1.00 20.00     0.038 C 
HETATM    4  C4  UNL     1     -22.759  17.844   9.919  1.00 20.00    -0.017 C 
HETATM    5  C5  UNL     1     -23.731  17.716  11.124  1.00 20.00     0.064 C 
HETATM    6  C6  UNL     1     -21.293  18.031  10.334  1.00 20.00     0.018 C 
HETATM    7  C7  UNL     1     -22.840  16.653   8.942  1.00 20.00     0.018 C 
ENDROOT
BRANCH   5   8
HETATM    8  C9  UNL     1     -23.732  16.366  11.834  1.00 20.00     0.034 C 
HETATM    9  C8  UNL     1     -25.103  15.774  11.893  1.00 20.00     0.008 C 
ENDBRANCH   5   8
BRANCH   5  10
HETATM   10  O10 UNL     1     -23.414  18.720  12.097  1.00 20.00    -0.389 OA
HETATM   11  H28 UNL     1     -22.745  18.329  12.678  1.00 20.00     0.210 HD
ENDBRANCH   5  10
TORSDOF 2
ENDMDL
MODEL 4
REMARK VINA RESULT:      -4.0      0.965      3.061
REMARK  2 active torsions:
REMARK  status: ('A' for Active; 'I' for Inactive)
REMARK    1  A    between atoms: C5_5  and  C9_9 
REMARK    2  A    between atoms: C5_5  and  O10_10 
ROOT
HETATM    1  C1  UNL     1     -34.122  15.955  -2.593  1.00 20.00     0.004 C 
HETATM    2  C2  UNL     1     -33.309  15.878  -3.886  1.00 20.00     0.012 C 
HETATM    3  C3  UNL     1     -35.440  15.219  -2.856  1.00 20.00     0.038 C 
HETATM    4  C4  UNL     1     -34.321  15.510  -4.990  1.00 20.00    -0.017 C 
HETATM    5  C5  UNL     1     -35.269  14.546  -4.226  1.00 20.00     0.064 C 
HETATM    6  C6  UNL     1     -33.605  14.850  -6.177  1.00 20.00     0.018 C 
HETATM    7  C7  UNL     1     -35.027  16.784  -5.497  1.00 20.00     0.018 C 
ENDROOT
BRANCH   5   8
HETATM    8  C9  UNL     1     -36.604  14.254  -4.903  1.00 20.00     0.034 C 
HETATM    9  C8  UNL     1     -37.751  14.825  -4.133  1.00 20.00     0.008 C 
ENDBRANCH   5   8
BRANCH   5  10
HETATM   10  O10 UNL     1     -34.604  13.294  -4.017  1.00 20.00    -0.389 OA
HETATM   11  H28 UNL     1     -34.969  12.929  -3.198  1.00 20.00     0.210 HD
ENDBRANCH   5  10
TORSDOF 2
ENDMDL
MODEL 5
REMARK VINA RESULT:      -3.9      1.449      2.131
REMARK  2 active torsions:
REMARK  status: ('A' for Active; 'I' for Inactive)
REMARK    1  A    between atoms: C5_5  and  C9_9 
REMARK    2  A    between atoms: C5_5  and  O10_10 
ROOT
HETATM    1  C1  UNL     1     -36.130  13.674  -4.576  1.00 20.00     0.004 C 
HETATM    2  C2  UNL     1     -36.750  15.035  -4.898  1.00 20.00     0.012 C 
HETATM    3  C3  UNL     1     -34.818  13.951  -3.834  1.00 20.00     0.038 C 
HETATM    4  C4  UNL     1     -35.604  16.056  -4.752  1.00 20.00    -0.017 C 
HETATM    5  C5  UNL     1     -34.816  15.461  -3.554  1.00 20.00     0.064 C 
HETATM    6  C6  UNL     1     -36.167  17.458  -4.477  1.00 20.00     0.018 C 
HETATM    7  C7  UNL     1     -34.783  16.110  -6.056  1.00 20.00     0.018 C 
ENDROOT
BRANCH   5   8
HETATM    8  C9  UNL     1     -33.409  16.013  -3.345  1.00 20.00     0.034 C 
HETATM    9  C8  UNL     1     -33.355  16.970  -2.199  1.00 20.00     0.008 C 
ENDBRANCH   5   8
BRANCH   5  10
HETATM   10  O10 UNL     1     -35.553  15.681  -2.344  1.00 20.00    -0.389 OA
HETATM   11  H28 UNL     1     -35.359  16.589  -2.072  1.00 20.00     0.210 HD
ENDBRANCH   5  10
TORSDOF 2
ENDMDL
MODEL 6
REMARK VINA RESULT:      -3.9      1.505      3.145
REMARK  2 active torsions:
REMARK  status: ('A' for Active; 'I' for Inactive)
REMARK    1  A    between atoms: C5_5  and  C9_9 
REMARK    2  A    between atoms: C5_5  and  O10_10 
ROOT
HETATM    1  C1  UNL     1     -33.518  16.042  -3.016  1.00 20.00     0.004 C 
HETATM    2  C2  UNL     1     -33.492  17.107  -4.114  1.00 20.00     0.012 C 
HETATM    3  C3  UNL     1     -34.288  14.843  -3.581  1.00 20.00     0.038 C 
HETATM    4  C4  UNL     1     -34.605  16.707  -5.104  1.00 20.00    -0.017 C 
HETATM    5  C5  UNL     1     -34.503  15.158  -5.069  1.00 20.00     0.064 C 
HETATM    6  C6  UNL     1     -34.331  17.306  -6.491  1.00 20.00     0.018 C 
HETATM    7  C7  UNL     1     -35.963  17.240  -4.605  1.00 20.00     0.018 C 
ENDROOT
BRANCH   5   8
HETATM    8  C9  UNL     1     -35.688  14.402  -5.659  1.00 20.00     0.034 C 
HETATM    9  C8  UNL     1     -36.389  13.579  -4.627  1.00 20.00     0.008 C 
ENDBRANCH   5   8
BRANCH   5  10
HETATM   10  O10 UNL     1     -33.326  14.744  -5.776  1.00 20.00    -0.389 OA
HETATM   11  H28 UNL     1     -33.511  14.893  -6.715  1.00 20.00     0.210 HD
ENDBRANCH   5  10
TORSDOF 2
ENDMDL
MODEL 7
REMARK VINA RESULT:      -3.8      1.834      2.706
REMARK  2 active torsions:
REMARK  status: ('A' for Active; 'I' for Inactive)
REMARK    1  A    between atoms: C5_5  and  C9_9 
REMARK    2  A    between atoms: C5_5  and  O10_10 
ROOT
HETATM    1  C1  UNL     1     -35.416  16.554  -5.883  1.00 20.00     0.004 C 
HETATM    2  C2  UNL     1     -34.382  15.430  -5.969  1.00 20.00     0.012 C 
HETATM    3  C3  UNL     1     -35.373  17.085  -4.445  1.00 20.00     0.038 C 
HETATM    4  C4  UNL     1     -34.088  15.026  -4.510  1.00 20.00    -0.017 C 
HETATM    5  C5  UNL     1     -34.163  16.401  -3.792  1.00 20.00     0.064 C 
HETATM    6  C6  UNL     1     -32.710  14.357  -4.406  1.00 20.00     0.018 C 
HETATM    7  C7  UNL     1     -35.153  14.024  -4.021  1.00 20.00     0.018 C 
ENDROOT
BRANCH   5   8
HETATM    8  C9  UNL     1     -34.274  16.349  -2.271  1.00 20.00     0.034 C 
HETATM    9  C8  UNL     1     -33.492  17.444  -1.622  1.00 20.00     0.008 C 
ENDBRANCH   5   8
BRANCH   5  10
HETATM   10  O10 UNL     1     -32.999  17.170  -4.117  1.00 20.00    -0.389 OA
HETATM   11  H28 UNL     1     -32.441  17.162  -3.326  1.00 20.00     0.210 HD
ENDBRANCH   5  10
TORSDOF 2
ENDMDL
MODEL 8
REMARK VINA RESULT:      -3.8      1.600      3.139
REMARK  2 active torsions:
REMARK  status: ('A' for Active; 'I' for Inactive)
REMARK    1  A    between atoms: C5_5  and  C9_9 
REMARK    2  A    between atoms: C5_5  and  O10_10 
ROOT
HETATM    1  C1  UNL     1     -34.078  15.837  -2.644  1.00 20.00     0.004 C 
HETATM    2  C2  UNL     1     -35.499  16.171  -3.102  1.00 20.00     0.012 C 
HETATM    3  C3  UNL     1     -33.305  15.392  -3.890  1.00 20.00     0.038 C 
HETATM    4  C4  UNL     1     -35.658  15.498  -4.481  1.00 20.00    -0.017 C 
HETATM    5  C5  UNL     1     -34.235  15.685  -5.077  1.00 20.00     0.064 C 
HETATM    6  C6  UNL     1     -36.757  16.195  -5.295  1.00 20.00     0.018 C 
HETATM    7  C7  UNL     1     -36.052  14.019  -4.297  1.00 20.00     0.018 C 
ENDROOT
BRANCH   5   8
HETATM    8  C9  UNL     1     -33.910  14.829  -6.297  1.00 20.00     0.034 C 
HETATM    9  C8  UNL     1     -33.980  15.622  -7.562  1.00 20.00     0.008 C 
ENDBRANCH   5   8
BRANCH   5  10
HETATM   10  O10 UNL     1     -34.052  17.058  -5.446  1.00 20.00    -0.389 OA
HETATM   11  H28 UNL     1     -33.136  17.276  -5.222  1.00 20.00     0.210 HD
ENDBRANCH   5  10
TORSDOF 2
ENDMDL
MODEL 9
REMARK VINA RESULT:      -3.8      1.654      3.190
REMARK  2 active torsions:
REMARK  status: ('A' for Active; 'I' for Inactive)
REMARK    1  A    between atoms: C5_5  and  C9_9 
REMARK    2  A    between atoms: C5_5  and  O10_10 
ROOT
HETATM    1  C1  UNL     1     -35.902  13.892  -4.566  1.00 20.00     0.004 C 
HETATM    2  C2  UNL     1     -34.583  14.070  -3.811  1.00 20.00     0.012 C 
HETATM    3  C3  UNL     1     -36.277  15.267  -5.129  1.00 20.00     0.038 C 
HETATM    4  C4  UNL     1     -34.450  15.586  -3.563  1.00 20.00    -0.017 C 
HETATM    5  C5  UNL     1     -35.057  16.163  -4.870  1.00 20.00     0.064 C 
HETATM    6  C6  UNL     1     -32.978  15.968  -3.352  1.00 20.00     0.018 C 
HETATM    7  C7  UNL     1     -35.240  15.979  -2.298  1.00 20.00     0.018 C 
ENDROOT
BRANCH   5   8
HETATM    8  C9  UNL     1     -35.419  17.645  -4.835  1.00 20.00     0.034 C 
HETATM    9  C8  UNL     1     -36.874  17.865  -5.096  1.00 20.00     0.008 C 
ENDBRANCH   5   8
BRANCH   5  10
HETATM   10  O10 UNL     1     -34.134  15.966  -5.949  1.00 20.00    -0.389 OA
HETATM   11  H28 UNL     1     -34.446  16.526  -6.675  1.00 20.00     0.210 HD
ENDBRANCH   5  10
TORSDOF 2
ENDMDL
