MODEL 1
REMARK VINA RESULT:      -4.2      0.000      0.000
REMARK  1 active torsions:
REMARK  status: ('A' for Active; 'I' for Inactive)
REMARK    1  A    between atoms: C4_4  and  C9_9 
ROOT
HETATM    1  C1  UNL     1     -36.494  14.754  -3.882  1.00 20.00     0.001 C 
HETATM    2  C2  UNL     1     -36.060  16.219  -3.812  1.00 20.00     0.007 C 
HETATM    3  C3  UNL     1     -35.230  13.933  -4.137  1.00 20.00     0.009 C 
HETATM    4  C4  UNL     1     -34.524  16.217  -3.837  1.00 20.00     0.011 C 
HETATM    5  C5  UNL     1     -34.177  14.934  -4.638  1.00 20.00    -0.043 C 
HETATM    6  C6  UNL     1     -32.756  14.409  -4.404  1.00 20.00     0.015 C 
HETATM    7  C7  UNL     1     -34.354  15.180  -6.151  1.00 20.00     0.015 C 
ENDROOT
BRANCH   4   8
HETATM    8  C9  UNL     1     -33.973  16.258  -2.408  1.00 20.00     0.083 C 
HETATM    9  C8  UNL     1     -32.900  17.324  -2.252  1.00 20.00     0.027 C 
HETATM   10 CL10 UNL     1     -35.305  16.580  -1.263  1.00 20.00    -0.125 Cl
ENDBRANCH   4   8
TORSDOF 1
ENDMDL
MODEL 2
REMARK VINA RESULT:      -4.1      1.407      2.734
REMARK  1 active torsions:
REMARK  status: ('A' for Active; 'I' for Inactive)
REMARK    1  A    between atoms: C4_4  and  C9_9 
ROOT
HETATM    1  C1  UNL     1     -33.793  15.071  -5.541  1.00 20.00     0.001 C 
HETATM    2  C2  UNL     1     -33.565  14.676  -4.081  1.00 20.00     0.007 C 
HETATM    3  C3  UNL     1     -35.236  15.566  -5.642  1.00 20.00     0.009 C 
HETATM    4  C4  UNL     1     -34.817  15.125  -3.311  1.00 20.00     0.011 C 
HETATM    5  C5  UNL     1     -35.942  15.053  -4.376  1.00 20.00    -0.043 C 
HETATM    6  C6  UNL     1     -37.177  15.899  -4.048  1.00 20.00     0.015 C 
HETATM    7  C7  UNL     1     -36.401  13.594  -4.577  1.00 20.00     0.015 C 
ENDROOT
BRANCH   4   8
HETATM    8  C9  UNL     1     -34.591  16.510  -2.698  1.00 20.00     0.083 C 
HETATM    9  C8  UNL     1     -35.140  16.593  -1.282  1.00 20.00     0.027 C 
HETATM   10 CL10 UNL     1     -32.844  16.880  -2.683  1.00 20.00    -0.125 Cl
ENDBRANCH   4   8
TORSDOF 1
ENDMDL
MODEL 3
REMARK VINA RESULT:      -3.7     15.869     17.814
REMARK  1 active torsions:
REMARK  status: ('A' for Active; 'I' for Inactive)
REMARK    1  A    between atoms: C4_4  and  C9_9 
ROOT
HETATM    1  C1  UNL     1     -21.973  18.212   9.100  1.00 20.00     0.001 C 
HETATM    2  C2  UNL     1     -22.627  16.850   9.337  1.00 20.00     0.007 C 
HETATM    3  C3  UNL     1     -23.068  19.262   9.282  1.00 20.00     0.009 C 
HETATM    4  C4  UNL     1     -24.050  17.135   9.841  1.00 20.00     0.011 C 
HETATM    5  C5  UNL     1     -24.398  18.498   9.189  1.00 20.00    -0.043 C 
HETATM    6  C6  UNL     1     -25.528  19.263   9.888  1.00 20.00     0.015 C 
HETATM    7  C7  UNL     1     -24.796  18.303   7.711  1.00 20.00     0.015 C 
ENDROOT
BRANCH   4   8
HETATM    8  C9  UNL     1     -24.080  17.122  11.372  1.00 20.00     0.083 C 
HETATM    9  C8  UNL     1     -24.682  15.834  11.910  1.00 20.00     0.027 C 
HETATM   10 CL10 UNL     1     -22.420  17.314  12.004  1.00 20.00    -0.125 Cl
ENDBRANCH   4   8
TORSDOF 1
ENDMDL
MODEL 4
REMARK VINA RESULT:      -3.7      1.855      3.369
REMARK  1 active torsions:
REMARK  status: ('A' for Active; 'I' for Inactive)
REMARK    1  A    between atoms: C4_4  and  C9_9 
ROOT
HETATM    1  C1  UNL     1     -36.630  16.801  -3.829  1.00 20.00     0.001 C 
HETATM    2  C2  UNL     1     -36.180  15.345  -3.692  1.00 20.00     0.007 C 
HETATM    3  C3  UNL     1     -35.467  17.667  -3.344  1.00 20.00     0.009 C 
HETATM    4  C4  UNL     1     -34.693  15.386  -3.309  1.00 20.00     0.011 C 
HETATM    5  C5  UNL     1     -34.553  16.726  -2.541  1.00 20.00    -0.043 C 
HETATM    6  C6  UNL     1     -33.121  17.269  -2.473  1.00 20.00     0.015 C 
HETATM    7  C7  UNL     1     -35.078  16.578  -1.098  1.00 20.00     0.015 C 
ENDROOT
BRANCH   4   8
HETATM    8  C9  UNL     1     -33.822  15.263  -4.563  1.00 20.00     0.083 C 
HETATM    9  C8  UNL     1     -32.708  14.245  -4.374  1.00 20.00     0.027 C 
HETATM   10 CL10 UNL     1     -34.838  14.785  -5.953  1.00 20.00    -0.125 Cl
ENDBRANCH   4   8
TORSDOF 1
ENDMDL
MODEL 5
REMARK VINA RESULT:      -3.7      1.161      3.042
REMARK  1 active torsions:
REMARK  status: ('A' for Active; 'I' for Inactive)
REMARK    1  A    between atoms: C4_4  and  C9_9 
ROOT
HETATM    1  C1  UNL     1     -33.885  16.949  -2.640  1.00 20.00     0.001 C 
HETATM    2  C2  UNL     1     -34.855  15.816  -2.304  1.00 20.00     0.007 C 
HETATM    3  C3  UNL     1     -33.621  16.870  -4.144  1.00 20.00     0.009 C 
HETATM    4  C4  UNL     1     -35.294  15.210  -3.646  1.00 20.00     0.011 C 
HETATM    5  C5  UNL     1     -34.078  15.467  -4.574  1.00 20.00    -0.043 C 
HETATM    6  C6  UNL     1     -34.406  15.424  -6.071  1.00 20.00     0.015 C 
HETATM    7  C7  UNL     1     -32.963  14.437  -4.299  1.00 20.00     0.015 C 
ENDROOT
BRANCH   4   8
HETATM    8  C9  UNL     1     -36.608  15.846  -4.108  1.00 20.00     0.083 C 
HETATM    9  C8  UNL     1     -37.699  14.804  -4.297  1.00 20.00     0.027 C 
HETATM   10 CL10 UNL     1     -37.141  17.056  -2.907  1.00 20.00    -0.125 Cl
ENDBRANCH   4   8
TORSDOF 1
ENDMDL
MODEL 6
REMARK VINA RESULT:      -3.7      2.255      3.608
REMARK  1 active torsions:
REMARK  status: ('A' for Active; 'I' for Inactive)
REMARK    1  A    between atoms: C4_4  and  C9_9 
ROOT
HETATM    1  C1  UNL     1     -34.472  13.906  -3.840  1.00 20.00     0.001 C 
HETATM    2  C2  UNL     1     -33.403  14.832  -4.421  1.00 20.00     0.007 C 
HETATM    3  C3  UNL     1     -35.657  14.791  -3.454  1.00 20.00     0.009 C 
HETATM    4  C4  UNL     1     -34.052  16.219  -4.543  1.00 20.00     0.011 C 
HETATM    5  C5  UNL     1     -35.108  16.226  -3.407  1.00 20.00    -0.043 C 
HETATM    6  C6  UNL     1     -36.228  17.256  -3.592  1.00 20.00     0.015 C 
HETATM    7  C7  UNL     1     -34.432  16.492  -2.046  1.00 20.00     0.015 C 
ENDROOT
BRANCH   4   8
HETATM    8  C9  UNL     1     -34.616  16.416  -5.953  1.00 20.00     0.083 C 
HETATM    9  C8  UNL     1     -34.296  17.799  -6.497  1.00 20.00     0.027 C 
HETATM   10 CL10 UNL     1     -33.941  15.174  -7.046  1.00 20.00    -0.125 Cl
ENDBRANCH   4   8
TORSDOF 1
ENDMDL
MODEL 7
REMARK VINA RESULT:      -3.6      1.885      3.557
REMARK  1 active torsions:
REMARK  status: ('A' for Active; 'I' for Inactive)
REMARK    1  A    between atoms: C4_4  and  C9_9 
ROOT
HETATM    1  C1  UNL     1     -34.049  16.320  -2.234  1.00 20.00     0.001 C 
HETATM    2  C2  UNL     1     -33.343  16.689  -3.539  1.00 20.00     0.007 C 
HETATM    3  C3  UNL     1     -35.499  15.999  -2.594  1.00 20.00     0.009 C 
HETATM    4  C4  UNL     1     -34.341  16.393  -4.669  1.00 20.00     0.011 C 
HETATM    5  C5  UNL     1     -35.723  16.595  -3.993  1.00 20.00    -0.043 C 
HETATM    6  C6  UNL     1     -36.885  15.901  -4.713  1.00 20.00     0.015 C 
HETATM    7  C7  UNL     1     -36.056  18.097  -3.884  1.00 20.00     0.015 C 
ENDROOT
BRANCH   4   8
HETATM    8  C9  UNL     1     -34.096  14.993  -5.237  1.00 20.00     0.083 C 
HETATM    9  C8  UNL     1     -33.909  15.025  -6.747  1.00 20.00     0.027 C 
HETATM   10 CL10 UNL     1     -32.646  14.283  -4.472  1.00 20.00    -0.125 Cl
ENDBRANCH   4   8
TORSDOF 1
ENDMDL
MODEL 8
REMARK VINA RESULT:      -3.6      2.230      3.753
REMARK  1 active torsions:
REMARK  status: ('A' for Active; 'I' for Inactive)
REMARK    1  A    between atoms: C4_4  and  C9_9 
ROOT
HETATM    1  C1  UNL     1     -33.074  17.725  -3.530  1.00 20.00     0.001 C 
HETATM    2  C2  UNL     1     -34.437  18.082  -4.124  1.00 20.00     0.007 C 
HETATM    3  C3  UNL     1     -33.064  16.210  -3.331  1.00 20.00     0.009 C 
HETATM    4  C4  UNL     1     -35.132  16.749  -4.442  1.00 20.00     0.011 C 
HETATM    5  C5  UNL     1     -34.536  15.771  -3.396  1.00 20.00    -0.043 C 
HETATM    6  C6  UNL     1     -34.658  14.291  -3.774  1.00 20.00     0.015 C 
HETATM    7  C7  UNL     1     -35.212  15.972  -2.024  1.00 20.00     0.015 C 
ENDROOT
BRANCH   4   8
HETATM    8  C9  UNL     1     -34.888  16.363  -5.904  1.00 20.00     0.083 C 
HETATM    9  C8  UNL     1     -36.170  15.904  -6.583  1.00 20.00     0.027 C 
HETATM   10 CL10 UNL     1     -34.212  17.760  -6.787  1.00 20.00    -0.125 Cl
ENDBRANCH   4   8
TORSDOF 1
ENDMDL
MODEL 9
REMARK VINA RESULT:      -3.6      2.028      2.710
REMARK  1 active torsions:
REMARK  status: ('A' for Active; 'I' for Inactive)
REMARK    1  A    between atoms: C4_4  and  C9_9 
ROOT
HETATM    1  C1  UNL     1     -35.898  14.047  -4.616  1.00 20.00     0.001 C 
HETATM    2  C2  UNL     1     -35.451  14.853  -5.836  1.00 20.00     0.007 C 
HETATM    3  C3  UNL     1     -35.096  14.570  -3.425  1.00 20.00     0.009 C 
HETATM    4  C4  UNL     1     -34.532  15.964  -5.307  1.00 20.00     0.011 C 
HETATM    5  C5  UNL     1     -33.911  15.343  -4.028  1.00 20.00    -0.043 C 
HETATM    6  C6  UNL     1     -33.354  16.368  -3.034  1.00 20.00     0.015 C 
HETATM    7  C7  UNL     1     -32.774  14.369  -4.399  1.00 20.00     0.015 C 
ENDROOT
BRANCH   4   8
HETATM    8  C9  UNL     1     -35.335  17.249  -5.079  1.00 20.00     0.083 C 
HETATM    9  C8  UNL     1     -34.626  18.462  -5.662  1.00 20.00     0.027 C 
HETATM   10 CL10 UNL     1     -36.949  17.085  -5.826  1.00 20.00    -0.125 Cl
ENDBRANCH   4   8
TORSDOF 1
ENDMDL
