MODEL 1
REMARK VINA RESULT:      -4.8      0.000      0.000
REMARK  1 active torsions:
REMARK  status: ('A' for Active; 'I' for Inactive)
REMARK    1  A    between atoms: C2_2  and  C5_5 
ROOT
HETATM    1  C1  UNL     1     -33.351   6.821   3.998  1.00 20.00     0.075 A 
HETATM    2  C2  UNL     1     -33.941   5.751   4.546  1.00 20.00     0.039 A 
HETATM    3  C3  UNL     1     -32.901   6.575   2.621  1.00 20.00     0.209 A 
HETATM    4  C4  UNL     1     -34.051   4.515   3.709  1.00 20.00     0.126 A 
HETATM    5  O6  UNL     1     -32.337   7.399   1.920  1.00 20.00    -0.281 OA
HETATM    6  S10 UNL     1     -33.280   4.939   2.121  1.00 20.00    -0.084 SA
ENDROOT
BRANCH   2   7
HETATM    7  C5  UNL     1     -34.490   5.722   5.933  1.00 20.00     0.414 C 
HETATM    8  F7  UNL     1     -35.774   5.303   5.941  1.00 20.00    -0.166 F 
HETATM    9  F8  UNL     1     -33.783   4.886   6.722  1.00 20.00    -0.166 F 
HETATM   10  F9  UNL     1     -34.456   6.947   6.501  1.00 20.00    -0.166 F 
ENDBRANCH   2   7
TORSDOF 1
ENDMDL
MODEL 2
REMARK VINA RESULT:      -4.7     15.835     16.281
REMARK  1 active torsions:
REMARK  status: ('A' for Active; 'I' for Inactive)
REMARK    1  A    between atoms: C2_2  and  C5_5 
ROOT
HETATM    1  C1  UNL     1     -23.011  16.939   9.355  1.00 20.00     0.075 A 
HETATM    2  C2  UNL     1     -23.927  17.250  10.282  1.00 20.00     0.039 A 
HETATM    3  C3  UNL     1     -22.981  17.900   8.245  1.00 20.00     0.209 A 
HETATM    4  C4  UNL     1     -24.748  18.480  10.059  1.00 20.00     0.126 A 
HETATM    5  O6  UNL     1     -22.232  17.826   7.284  1.00 20.00    -0.281 OA
HETATM    6  S10 UNL     1     -24.168  19.167   8.482  1.00 20.00    -0.084 SA
ENDROOT
BRANCH   2   7
HETATM    7  C5  UNL     1     -24.171  16.444  11.514  1.00 20.00     0.414 C 
HETATM    8  F7  UNL     1     -24.664  15.224  11.209  1.00 20.00    -0.166 F 
HETATM    9  F8  UNL     1     -23.030  16.261  12.213  1.00 20.00    -0.166 F 
HETATM   10  F9  UNL     1     -25.058  17.051  12.331  1.00 20.00    -0.166 F 
ENDBRANCH   2   7
TORSDOF 1
ENDMDL
MODEL 3
REMARK VINA RESULT:      -4.6     12.137     12.810
REMARK  1 active torsions:
REMARK  status: ('A' for Active; 'I' for Inactive)
REMARK    1  A    between atoms: C2_2  and  C5_5 
ROOT
HETATM    1  C1  UNL     1     -34.712  14.416  -3.701  1.00 20.00     0.075 A 
HETATM    2  C2  UNL     1     -34.962  15.675  -3.317  1.00 20.00     0.039 A 
HETATM    3  C3  UNL     1     -35.891  13.754  -4.274  1.00 20.00     0.209 A 
HETATM    4  C4  UNL     1     -36.348  16.199  -3.521  1.00 20.00     0.126 A 
HETATM    5  O6  UNL     1     -35.907  12.608  -4.692  1.00 20.00    -0.281 OA
HETATM    6  S10 UNL     1     -37.274  14.831  -4.275  1.00 20.00    -0.084 SA
ENDROOT
BRANCH   2   7
HETATM    7  C5  UNL     1     -33.944  16.576  -2.702  1.00 20.00     0.414 C 
HETATM    8  F7  UNL     1     -32.692  16.118  -2.921  1.00 20.00    -0.166 F 
HETATM    9  F8  UNL     1     -34.020  17.822  -3.215  1.00 20.00    -0.166 F 
HETATM   10  F9  UNL     1     -34.116  16.673  -1.366  1.00 20.00    -0.166 F 
ENDBRANCH   2   7
TORSDOF 1
ENDMDL
MODEL 4
REMARK VINA RESULT:      -4.5     12.457     13.130
REMARK  1 active torsions:
REMARK  status: ('A' for Active; 'I' for Inactive)
REMARK    1  A    between atoms: C2_2  and  C5_5 
ROOT
HETATM    1  C1  UNL     1     -35.589  14.746  -3.720  1.00 20.00     0.075 A 
HETATM    2  C2  UNL     1     -34.508  15.316  -4.270  1.00 20.00     0.039 A 
HETATM    3  C3  UNL     1     -36.530  14.233  -4.725  1.00 20.00     0.209 A 
HETATM    4  C4  UNL     1     -34.422  15.342  -5.763  1.00 20.00     0.126 A 
HETATM    5  O6  UNL     1     -37.583  13.675  -4.465  1.00 20.00    -0.281 OA
HETATM    6  S10 UNL     1     -35.937  14.530  -6.347  1.00 20.00    -0.084 SA
ENDROOT
BRANCH   2   7
HETATM    7  C5  UNL     1     -33.394  15.920  -3.482  1.00 20.00     0.414 C 
HETATM    8  F7  UNL     1     -33.151  17.189  -3.876  1.00 20.00    -0.166 F 
HETATM    9  F8  UNL     1     -33.688  15.951  -2.164  1.00 20.00    -0.166 F 
HETATM   10  F9  UNL     1     -32.250  15.219  -3.629  1.00 20.00    -0.166 F 
ENDBRANCH   2   7
TORSDOF 1
ENDMDL
MODEL 5
REMARK VINA RESULT:      -4.5     12.452     13.108
REMARK  1 active torsions:
REMARK  status: ('A' for Active; 'I' for Inactive)
REMARK    1  A    between atoms: C2_2  and  C5_5 
ROOT
HETATM    1  C1  UNL     1     -35.553  14.724  -3.735  1.00 20.00     0.075 A 
HETATM    2  C2  UNL     1     -34.487  15.317  -4.286  1.00 20.00     0.039 A 
HETATM    3  C3  UNL     1     -36.495  14.209  -4.737  1.00 20.00     0.209 A 
HETATM    4  C4  UNL     1     -34.414  15.365  -5.779  1.00 20.00     0.126 A 
HETATM    5  O6  UNL     1     -37.538  13.631  -4.476  1.00 20.00    -0.281 OA
HETATM    6  S10 UNL     1     -35.922  14.537  -6.360  1.00 20.00    -0.084 SA
ENDROOT
BRANCH   2   7
HETATM    7  C5  UNL     1     -33.375  15.929  -3.500  1.00 20.00     0.414 C 
HETATM    8  F7  UNL     1     -33.665  15.949  -2.181  1.00 20.00    -0.166 F 
HETATM    9  F8  UNL     1     -32.227  15.237  -3.656  1.00 20.00    -0.166 F 
HETATM   10  F9  UNL     1     -33.141  17.202  -3.887  1.00 20.00    -0.166 F 
ENDBRANCH   2   7
TORSDOF 1
ENDMDL
MODEL 6
REMARK VINA RESULT:      -4.4      3.455      4.013
REMARK  1 active torsions:
REMARK  status: ('A' for Active; 'I' for Inactive)
REMARK    1  A    between atoms: C2_2  and  C5_5 
ROOT
HETATM    1  C1  UNL     1     -33.727   6.811   4.500  1.00 20.00     0.075 A 
HETATM    2  C2  UNL     1     -33.245   6.487   3.293  1.00 20.00     0.039 A 
HETATM    3  C3  UNL     1     -34.470   5.709   5.127  1.00 20.00     0.209 A 
HETATM    4  C4  UNL     1     -33.522   5.108   2.784  1.00 20.00     0.126 A 
HETATM    5  O6  UNL     1     -35.000   5.768   6.224  1.00 20.00    -0.281 OA
HETATM    6  S10 UNL     1     -34.494   4.300   4.086  1.00 20.00    -0.084 SA
ENDROOT
BRANCH   2   7
HETATM    7  C5  UNL     1     -32.453   7.418   2.436  1.00 20.00     0.414 C 
HETATM    8  F7  UNL     1     -31.428   7.963   3.126  1.00 20.00    -0.166 F 
HETATM    9  F8  UNL     1     -31.932   6.776   1.369  1.00 20.00    -0.166 F 
HETATM   10  F9  UNL     1     -33.218   8.429   1.971  1.00 20.00    -0.166 F 
ENDBRANCH   2   7
TORSDOF 1
ENDMDL
MODEL 7
REMARK VINA RESULT:      -4.4      1.710      2.106
REMARK  1 active torsions:
REMARK  status: ('A' for Active; 'I' for Inactive)
REMARK    1  A    between atoms: C2_2  and  C5_5 
ROOT
HETATM    1  C1  UNL     1     -33.550   6.125   2.777  1.00 20.00     0.075 A 
HETATM    2  C2  UNL     1     -33.931   6.044   4.058  1.00 20.00     0.039 A 
HETATM    3  C3  UNL     1     -32.520   7.150   2.558  1.00 20.00     0.209 A 
HETATM    4  C4  UNL     1     -33.279   6.968   5.036  1.00 20.00     0.126 A 
HETATM    5  O6  UNL     1     -32.019   7.408   1.476  1.00 20.00    -0.281 OA
HETATM    6  S10 UNL     1     -32.110   7.955   4.059  1.00 20.00    -0.084 SA
ENDROOT
BRANCH   2   7
HETATM    7  C5  UNL     1     -34.963   5.089   4.560  1.00 20.00     0.414 C 
HETATM    8  F7  UNL     1     -36.188   5.402   4.086  1.00 20.00    -0.166 F 
HETATM    9  F8  UNL     1     -34.687   3.825   4.177  1.00 20.00    -0.166 F 
HETATM   10  F9  UNL     1     -35.031   5.102   5.909  1.00 20.00    -0.166 F 
ENDBRANCH   2   7
TORSDOF 1
ENDMDL
MODEL 8
REMARK VINA RESULT:      -4.3     12.272     12.896
REMARK  1 active torsions:
REMARK  status: ('A' for Active; 'I' for Inactive)
REMARK    1  A    between atoms: C2_2  and  C5_5 
ROOT
HETATM    1  C1  UNL     1     -35.069  15.801  -2.232  1.00 20.00     0.075 A 
HETATM    2  C2  UNL     1     -34.015  15.721  -3.054  1.00 20.00     0.039 A 
HETATM    3  C3  UNL     1     -34.965  16.919  -1.285  1.00 20.00     0.209 A 
HETATM    4  C4  UNL     1     -32.933  16.742  -2.894  1.00 20.00     0.126 A 
HETATM    5  O6  UNL     1     -35.802  17.192  -0.440  1.00 20.00    -0.281 OA
HETATM    6  S10 UNL     1     -33.476  17.809  -1.530  1.00 20.00    -0.084 SA
ENDROOT
BRANCH   2   7
HETATM    7  C5  UNL     1     -33.861  14.680  -4.112  1.00 20.00     0.414 C 
HETATM    8  F7  UNL     1     -34.510  13.544  -3.776  1.00 20.00    -0.166 F 
HETATM    9  F8  UNL     1     -34.361  15.103  -5.292  1.00 20.00    -0.166 F 
HETATM   10  F9  UNL     1     -32.562  14.366  -4.308  1.00 20.00    -0.166 F 
ENDBRANCH   2   7
TORSDOF 1
ENDMDL
MODEL 9
REMARK VINA RESULT:      -4.3     12.264     12.880
REMARK  1 active torsions:
REMARK  status: ('A' for Active; 'I' for Inactive)
REMARK    1  A    between atoms: C2_2  and  C5_5 
ROOT
HETATM    1  C1  UNL     1     -35.087  15.798  -2.235  1.00 20.00     0.075 A 
HETATM    2  C2  UNL     1     -34.038  15.706  -3.063  1.00 20.00     0.039 A 
HETATM    3  C3  UNL     1     -34.968  16.919  -1.294  1.00 20.00     0.209 A 
HETATM    4  C4  UNL     1     -32.946  16.717  -2.913  1.00 20.00     0.126 A 
HETATM    5  O6  UNL     1     -35.797  17.202  -0.445  1.00 20.00    -0.281 OA
HETATM    6  S10 UNL     1     -33.472  17.795  -1.550  1.00 20.00    -0.084 SA
ENDROOT
BRANCH   2   7
HETATM    7  C5  UNL     1     -33.899  14.659  -4.117  1.00 20.00     0.414 C 
HETATM    8  F7  UNL     1     -34.430  15.073  -5.288  1.00 20.00    -0.166 F 
HETATM    9  F8  UNL     1     -32.602  14.358  -4.340  1.00 20.00    -0.166 F 
HETATM   10  F9  UNL     1     -34.529  13.518  -3.763  1.00 20.00    -0.166 F 
ENDBRANCH   2   7
TORSDOF 1
ENDMDL
