MODEL 1
REMARK VINA RESULT:      -3.9      0.000      0.000
REMARK  3 active torsions:
REMARK  status: ('A' for Active; 'I' for Inactive)
REMARK    1  A    between atoms: C1_1  and  C2_2 
REMARK    2  A    between atoms: C1_1  and  C3_3 
REMARK    3  A    between atoms: C3_3  and  O4_4 
ROOT
HETATM    1  C3  UNL     1     -34.362   5.038   3.490  1.00 20.00     0.216 C 
HETATM    2 CL6  UNL     1     -32.965   4.920   2.397  1.00 20.00    -0.096 Cl
ENDROOT
BRANCH   1   3
HETATM    3  C1  UNL     1     -34.250   6.227   4.436  1.00 20.00     0.079 C 
BRANCH   3   4
HETATM    4  C2  UNL     1     -34.512   5.883   5.892  1.00 20.00     0.226 C 
HETATM    5  F5  UNL     1     -34.367   7.014   6.634  1.00 20.00    -0.255 F 
ENDBRANCH   3   4
ENDBRANCH   1   3
BRANCH   1   6
HETATM    6  O4  UNL     1     -34.431   3.846   4.260  1.00 20.00    -0.380 OA
HETATM    7  H12 UNL     1     -34.670   3.131   3.646  1.00 20.00     0.211 HD
ENDBRANCH   1   6
TORSDOF 3
ENDMDL
MODEL 2
REMARK VINA RESULT:      -3.8      2.945      3.195
REMARK  3 active torsions:
REMARK  status: ('A' for Active; 'I' for Inactive)
REMARK    1  A    between atoms: C1_1  and  C2_2 
REMARK    2  A    between atoms: C1_1  and  C3_3 
REMARK    3  A    between atoms: C3_3  and  O4_4 
ROOT
HETATM    1  C3  UNL     1     -34.652   5.217   4.475  1.00 20.00     0.216 C 
HETATM    2 CL6  UNL     1     -34.607   5.229   6.253  1.00 20.00    -0.096 Cl
ENDROOT
BRANCH   1   3
HETATM    3  C1  UNL     1     -33.867   6.377   3.876  1.00 20.00     0.079 C 
BRANCH   3   4
HETATM    4  C2  UNL     1     -33.027   5.994   2.670  1.00 20.00     0.226 C 
HETATM    5  F5  UNL     1     -33.260   4.685   2.381  1.00 20.00    -0.255 F 
ENDBRANCH   3   4
ENDBRANCH   1   3
BRANCH   1   6
HETATM    6  O4  UNL     1     -36.007   5.320   4.061  1.00 20.00    -0.380 OA
HETATM    7  H12 UNL     1     -35.995   5.667   3.153  1.00 20.00     0.211 HD
ENDBRANCH   1   6
TORSDOF 3
ENDMDL
MODEL 3
REMARK VINA RESULT:      -3.7      2.208      2.466
REMARK  3 active torsions:
REMARK  status: ('A' for Active; 'I' for Inactive)
REMARK    1  A    between atoms: C1_1  and  C2_2 
REMARK    2  A    between atoms: C1_1  and  C3_3 
REMARK    3  A    between atoms: C3_3  and  O4_4 
ROOT
HETATM    1  C3  UNL     1     -34.894   5.437   4.502  1.00 20.00     0.216 C 
HETATM    2 CL6  UNL     1     -34.185   3.988   3.754  1.00 20.00    -0.096 Cl
ENDROOT
BRANCH   1   3
HETATM    3  C1  UNL     1     -33.951   6.631   4.440  1.00 20.00     0.079 C 
BRANCH   3   4
HETATM    4  C2  UNL     1     -33.064   6.653   3.207  1.00 20.00     0.226 C 
HETATM    5  F5  UNL     1     -31.934   7.351   3.502  1.00 20.00    -0.255 F 
ENDBRANCH   3   4
ENDBRANCH   1   3
BRANCH   1   6
HETATM    6  O4  UNL     1     -35.174   5.146   5.865  1.00 20.00    -0.380 OA
HETATM    7  H12 UNL     1     -35.273   6.000   6.317  1.00 20.00     0.211 HD
ENDBRANCH   1   6
TORSDOF 3
ENDMDL
MODEL 4
REMARK VINA RESULT:      -3.6      1.835      1.835
REMARK  3 active torsions:
REMARK  status: ('A' for Active; 'I' for Inactive)
REMARK    1  A    between atoms: C1_1  and  C2_2 
REMARK    2  A    between atoms: C1_1  and  C3_3 
REMARK    3  A    between atoms: C3_3  and  O4_4 
ROOT
HETATM    1  C3  UNL     1     -33.563   6.265   3.065  1.00 20.00     0.216 C 
HETATM    2 CL6  UNL     1     -32.061   7.206   2.927  1.00 20.00    -0.096 Cl
ENDROOT
BRANCH   1   3
HETATM    3  C1  UNL     1     -34.126   6.290   4.479  1.00 20.00     0.079 C 
BRANCH   3   4
HETATM    4  C2  UNL     1     -34.968   5.075   4.829  1.00 20.00     0.226 C 
HETATM    5  F5  UNL     1     -35.150   5.051   6.178  1.00 20.00    -0.255 F 
ENDBRANCH   3   4
ENDBRANCH   1   3
BRANCH   1   6
HETATM    6  O4  UNL     1     -33.282   4.918   2.708  1.00 20.00    -0.380 OA
HETATM    7  H12 UNL     1     -34.058   4.591   2.222  1.00 20.00     0.211 HD
ENDBRANCH   1   6
TORSDOF 3
ENDMDL
MODEL 5
REMARK VINA RESULT:      -3.6      3.235      3.606
REMARK  3 active torsions:
REMARK  status: ('A' for Active; 'I' for Inactive)
REMARK    1  A    between atoms: C1_1  and  C2_2 
REMARK    2  A    between atoms: C1_1  and  C3_3 
REMARK    3  A    between atoms: C3_3  and  O4_4 
ROOT
HETATM    1  C3  UNL     1     -34.596   5.999   4.634  1.00 20.00     0.216 C 
HETATM    2 CL6  UNL     1     -34.787   5.281   6.250  1.00 20.00    -0.096 Cl
ENDROOT
BRANCH   1   3
HETATM    3  C1  UNL     1     -34.343   4.943   3.566  1.00 20.00     0.079 C 
BRANCH   3   4
HETATM    4  C2  UNL     1     -33.261   5.321   2.569  1.00 20.00     0.226 C 
HETATM    5  F5  UNL     1     -32.751   4.179   2.034  1.00 20.00    -0.255 F 
ENDBRANCH   3   4
ENDBRANCH   1   3
BRANCH   1   6
HETATM    6  O4  UNL     1     -33.488   6.889   4.668  1.00 20.00    -0.380 OA
HETATM    7  H12 UNL     1     -33.122   6.843   5.568  1.00 20.00     0.211 HD
ENDBRANCH   1   6
TORSDOF 3
ENDMDL
MODEL 6
REMARK VINA RESULT:      -3.6      2.829      2.951
REMARK  3 active torsions:
REMARK  status: ('A' for Active; 'I' for Inactive)
REMARK    1  A    between atoms: C1_1  and  C2_2 
REMARK    2  A    between atoms: C1_1  and  C3_3 
REMARK    3  A    between atoms: C3_3  and  O4_4 
ROOT
HETATM    1  C3  UNL     1     -33.466   6.794   3.700  1.00 20.00     0.216 C 
HETATM    2 CL6  UNL     1     -33.467   7.047   5.460  1.00 20.00    -0.096 Cl
ENDROOT
BRANCH   1   3
HETATM    3  C1  UNL     1     -33.793   5.354   3.329  1.00 20.00     0.079 C 
BRANCH   3   4
HETATM    4  C2  UNL     1     -34.794   4.690   4.259  1.00 20.00     0.226 C 
HETATM    5  F5  UNL     1     -35.952   5.405   4.226  1.00 20.00    -0.255 F 
ENDBRANCH   3   4
ENDBRANCH   1   3
BRANCH   1   6
HETATM    6  O4  UNL     1     -32.173   7.112   3.203  1.00 20.00    -0.380 OA
HETATM    7  H12 UNL     1     -31.743   7.665   3.877  1.00 20.00     0.211 HD
ENDBRANCH   1   6
TORSDOF 3
ENDMDL
MODEL 7
REMARK VINA RESULT:      -3.5      3.197      3.491
REMARK  3 active torsions:
REMARK  status: ('A' for Active; 'I' for Inactive)
REMARK    1  A    between atoms: C1_1  and  C2_2 
REMARK    2  A    between atoms: C1_1  and  C3_3 
REMARK    3  A    between atoms: C3_3  and  O4_4 
ROOT
HETATM    1  C3  UNL     1     -34.161   6.536   4.817  1.00 20.00     0.216 C 
HETATM    2 CL6  UNL     1     -34.828   5.169   5.738  1.00 20.00    -0.096 Cl
ENDROOT
BRANCH   1   3
HETATM    3  C1  UNL     1     -33.621   6.103   3.461  1.00 20.00     0.079 C 
BRANCH   3   4
HETATM    4  C2  UNL     1     -32.452   6.938   2.967  1.00 20.00     0.226 C 
HETATM    5  F5  UNL     1     -32.874   7.686   1.911  1.00 20.00    -0.255 F 
ENDBRANCH   3   4
ENDBRANCH   1   3
BRANCH   1   6
HETATM    6  O4  UNL     1     -33.100   7.108   5.570  1.00 20.00    -0.380 OA
HETATM    7  H12 UNL     1     -32.488   6.384   5.785  1.00 20.00     0.211 HD
ENDBRANCH   1   6
TORSDOF 3
ENDMDL
MODEL 8
REMARK VINA RESULT:      -3.4      4.483      4.789
REMARK  3 active torsions:
REMARK  status: ('A' for Active; 'I' for Inactive)
REMARK    1  A    between atoms: C1_1  and  C2_2 
REMARK    2  A    between atoms: C1_1  and  C3_3 
REMARK    3  A    between atoms: C3_3  and  O4_4 
ROOT
HETATM    1  C3  UNL     1     -32.765   7.205   2.504  1.00 20.00     0.216 C 
HETATM    2 CL6  UNL     1     -33.117   5.463   2.473  1.00 20.00    -0.096 Cl
ENDROOT
BRANCH   1   3
HETATM    3  C1  UNL     1     -32.315   7.722   1.144  1.00 20.00     0.079 C 
BRANCH   3   4
HETATM    4  C2  UNL     1     -32.969   9.031   0.735  1.00 20.00     0.226 C 
HETATM    5  F5  UNL     1     -33.743   8.802  -0.360  1.00 20.00    -0.255 F 
ENDBRANCH   3   4
ENDBRANCH   1   3
BRANCH   1   6
HETATM    6  O4  UNL     1     -31.726   7.434   3.447  1.00 20.00    -0.380 OA
HETATM    7  H12 UNL     1     -30.903   7.117   3.037  1.00 20.00     0.211 HD
ENDBRANCH   1   6
TORSDOF 3
ENDMDL
MODEL 9
REMARK VINA RESULT:      -3.4      2.790      3.029
REMARK  3 active torsions:
REMARK  status: ('A' for Active; 'I' for Inactive)
REMARK    1  A    between atoms: C1_1  and  C2_2 
REMARK    2  A    between atoms: C1_1  and  C3_3 
REMARK    3  A    between atoms: C3_3  and  O4_4 
ROOT
HETATM    1  C3  UNL     1     -32.577   6.521   2.899  1.00 20.00     0.216 C 
HETATM    2 CL6  UNL     1     -32.627   7.731   1.598  1.00 20.00    -0.096 Cl
ENDROOT
BRANCH   1   3
HETATM    3  C1  UNL     1     -33.470   5.323   2.600  1.00 20.00     0.079 C 
BRANCH   3   4
HETATM    4  C2  UNL     1     -34.413   4.960   3.735  1.00 20.00     0.226 C 
HETATM    5  F5  UNL     1     -34.156   3.679   4.114  1.00 20.00    -0.255 F 
ENDBRANCH   3   4
ENDBRANCH   1   3
BRANCH   1   6
HETATM    6  O4  UNL     1     -33.023   7.136   4.100  1.00 20.00    -0.380 OA
HETATM    7  H12 UNL     1     -33.461   7.965   3.842  1.00 20.00     0.211 HD
ENDBRANCH   1   6
TORSDOF 3
ENDMDL
