MODEL 1
REMARK VINA RESULT:      -4.2      0.000      0.000
REMARK  0 active torsions:
REMARK  status: ('A' for Active; 'I' for Inactive)
ROOT
HETATM    1  C1  UNL     1     -32.994   6.830   2.968  1.00 20.00     0.098 C 
HETATM    2  C2  UNL     1     -34.433   5.046   3.829  1.00 20.00     0.160 A 
HETATM    3  C3  UNL     1     -33.749   6.178   3.962  1.00 20.00     0.063 A 
HETATM    4  C4  UNL     1     -33.952   6.598   5.366  1.00 20.00     0.225 A 
HETATM    5  N5  UNL     1     -32.372   7.368   2.149  1.00 20.00    -0.192 NA
HETATM    6  N6  UNL     1     -35.063   4.673   4.986  1.00 20.00    -0.166 NA
HETATM    7  N7  UNL     1     -34.827   5.517   5.898  1.00 20.00    -0.188 NA
ENDROOT
TORSDOF 0
ENDMDL
MODEL 2
REMARK VINA RESULT:      -4.1     11.333     11.874
REMARK  0 active torsions:
REMARK  status: ('A' for Active; 'I' for Inactive)
ROOT
HETATM    1  C1  UNL     1     -34.329  15.667  -2.955  1.00 20.00     0.098 C 
HETATM    2  C2  UNL     1     -34.887  13.526  -4.005  1.00 20.00     0.160 A 
HETATM    3  C3  UNL     1     -35.194  14.748  -3.580  1.00 20.00     0.063 A 
HETATM    4  C4  UNL     1     -36.626  14.928  -3.903  1.00 20.00     0.225 A 
HETATM    5  N5  UNL     1     -33.616  16.424  -2.441  1.00 20.00    -0.192 NA
HETATM    6  N6  UNL     1     -35.954  12.882  -4.571  1.00 20.00    -0.166 NA
HETATM    7  N7  UNL     1     -36.974  13.629  -4.543  1.00 20.00    -0.188 NA
ENDROOT
TORSDOF 0
ENDMDL
MODEL 3
REMARK VINA RESULT:      -4.0     16.839     17.426
REMARK  0 active torsions:
REMARK  status: ('A' for Active; 'I' for Inactive)
ROOT
HETATM    1  C1  UNL     1     -22.565  17.801  10.816  1.00 20.00     0.098 C 
HETATM    2  C2  UNL     1     -21.720  17.402   8.553  1.00 20.00     0.160 A 
HETATM    3  C3  UNL     1     -22.605  17.899   9.412  1.00 20.00     0.063 A 
HETATM    4  C4  UNL     1     -23.627  18.569   8.579  1.00 20.00     0.225 A 
HETATM    5  N5  UNL     1     -22.532  17.722  11.973  1.00 20.00    -0.192 NA
HETATM    6  N6  UNL     1     -22.044  17.668   7.250  1.00 20.00    -0.166 NA
HETATM    7  N7  UNL     1     -23.120  18.330   7.199  1.00 20.00    -0.188 NA
ENDROOT
TORSDOF 0
ENDMDL
MODEL 4
REMARK VINA RESULT:      -3.9     11.390     11.935
REMARK  0 active torsions:
REMARK  status: ('A' for Active; 'I' for Inactive)
ROOT
HETATM    1  C1  UNL     1     -34.878  15.822  -2.692  1.00 20.00     0.098 C 
HETATM    2  C2  UNL     1     -36.748  14.764  -3.867  1.00 20.00     0.160 A 
HETATM    3  C3  UNL     1     -35.483  14.807  -3.457  1.00 20.00     0.063 A 
HETATM    4  C4  UNL     1     -34.860  13.570  -3.976  1.00 20.00     0.225 A 
HETATM    5  N5  UNL     1     -34.379  16.658  -2.060  1.00 20.00    -0.192 NA
HETATM    6  N6  UNL     1     -37.027  13.640  -4.596  1.00 20.00    -0.166 NA
HETATM    7  N7  UNL     1     -35.992  12.920  -4.693  1.00 20.00    -0.188 NA
ENDROOT
TORSDOF 0
ENDMDL
MODEL 5
REMARK VINA RESULT:      -3.9     11.496     12.139
REMARK  0 active torsions:
REMARK  status: ('A' for Active; 'I' for Inactive)
ROOT
HETATM    1  C1  UNL     1     -35.318  13.776  -4.102  1.00 20.00     0.098 C 
HETATM    2  C2  UNL     1     -33.391  15.271  -3.880  1.00 20.00     0.160 A 
HETATM    3  C3  UNL     1     -34.601  14.843  -3.529  1.00 20.00     0.063 A 
HETATM    4  C4  UNL     1     -35.021  15.724  -2.417  1.00 20.00     0.225 A 
HETATM    5  N5  UNL     1     -35.910  12.897  -4.574  1.00 20.00    -0.192 NA
HETATM    6  N6  UNL     1     -32.969  16.333  -3.126  1.00 20.00    -0.166 NA
HETATM    7  N7  UNL     1     -33.854  16.637  -2.276  1.00 20.00    -0.188 NA
ENDROOT
TORSDOF 0
ENDMDL
MODEL 6
REMARK VINA RESULT:      -3.8     11.489     12.163
REMARK  0 active torsions:
REMARK  status: ('A' for Active; 'I' for Inactive)
ROOT
HETATM    1  C1  UNL     1     -35.437  13.780  -4.066  1.00 20.00     0.098 C 
HETATM    2  C2  UNL     1     -34.953  15.635  -2.542  1.00 20.00     0.160 A 
HETATM    3  C3  UNL     1     -34.640  14.817  -3.543  1.00 20.00     0.063 A 
HETATM    4  C4  UNL     1     -33.289  15.230  -3.979  1.00 20.00     0.225 A 
HETATM    5  N5  UNL     1     -36.092  12.926  -4.499  1.00 20.00    -0.192 NA
HETATM    6  N6  UNL     1     -33.961  16.539  -2.271  1.00 20.00    -0.166 NA
HETATM    7  N7  UNL     1     -32.987  16.358  -3.056  1.00 20.00    -0.188 NA
ENDROOT
TORSDOF 0
ENDMDL
MODEL 7
REMARK VINA RESULT:      -3.8     11.838     12.776
REMARK  0 active torsions:
REMARK  status: ('A' for Active; 'I' for Inactive)
ROOT
HETATM    1  C1  UNL     1     -37.127  14.187  -4.513  1.00 20.00     0.098 C 
HETATM    2  C2  UNL     1     -34.735  14.003  -4.019  1.00 20.00     0.160 A 
HETATM    3  C3  UNL     1     -35.757  14.288  -4.822  1.00 20.00     0.063 A 
HETATM    4  C4  UNL     1     -35.145  14.729  -6.094  1.00 20.00     0.225 A 
HETATM    5  N5  UNL     1     -38.256  14.105  -4.260  1.00 20.00    -0.192 NA
HETATM    6  N6  UNL     1     -33.522  14.205  -4.619  1.00 20.00    -0.166 NA
HETATM    7  N7  UNL     1     -33.689  14.620  -5.802  1.00 20.00    -0.188 NA
ENDROOT
TORSDOF 0
ENDMDL
MODEL 8
REMARK VINA RESULT:      -3.7     16.524     16.877
REMARK  0 active torsions:
REMARK  status: ('A' for Active; 'I' for Inactive)
ROOT
HETATM    1  C1  UNL     1     -24.343  18.083  10.372  1.00 20.00     0.098 C 
HETATM    2  C2  UNL     1     -24.321  18.824   8.038  1.00 20.00     0.160 A 
HETATM    3  C3  UNL     1     -23.805  18.168   9.073  1.00 20.00     0.063 A 
HETATM    4  C4  UNL     1     -22.559  17.554   8.567  1.00 20.00     0.225 A 
HETATM    5  N5  UNL     1     -24.786  18.013  11.442  1.00 20.00    -0.192 NA
HETATM    6  N6  UNL     1     -23.555  18.712   6.909  1.00 20.00    -0.166 NA
HETATM    7  N7  UNL     1     -22.537  18.000   7.147  1.00 20.00    -0.188 NA
ENDROOT
TORSDOF 0
ENDMDL
MODEL 9
REMARK VINA RESULT:      -3.7     16.102     16.891
REMARK  0 active torsions:
REMARK  status: ('A' for Active; 'I' for Inactive)
ROOT
HETATM    1  C1  UNL     1     -22.492  17.544   8.393  1.00 20.00     0.098 C 
HETATM    2  C2  UNL     1     -22.198  17.825  10.807  1.00 20.00     0.160 A 
HETATM    3  C3  UNL     1     -22.825  17.331   9.744  1.00 20.00     0.063 A 
HETATM    4  C4  UNL     1     -23.936  16.519  10.286  1.00 20.00     0.225 A 
HETATM    5  N5  UNL     1     -22.218  17.719   7.279  1.00 20.00    -0.192 NA
HETATM    6  N6  UNL     1     -22.770  17.430  11.987  1.00 20.00    -0.166 NA
HETATM    7  N7  UNL     1     -23.764  16.684  11.756  1.00 20.00    -0.188 NA
ENDROOT
TORSDOF 0
ENDMDL
