MODEL 1
REMARK VINA RESULT:      -4.3      0.000      0.000
REMARK  1 active torsions:
REMARK  status: ('A' for Active; 'I' for Inactive)
REMARK    1  A    between atoms: C1_1  and  C4_4 
ROOT
HETATM    1  C1  UNL     1     -32.781   7.389   2.973  1.00 20.00    -0.079 C 
HETATM    2  C2  UNL     1     -32.472   7.589   1.831  1.00 20.00    -0.106 C 
HETATM    3  C7  UNL     1     -32.095   7.834   0.439  1.00 20.00     0.112 C 
ENDROOT
BRANCH   1   4
HETATM    4  C4  UNL     1     -33.149   7.153   4.327  1.00 20.00     0.070 C 
HETATM    5  C3  UNL     1     -33.963   6.158   4.676  1.00 20.00    -0.017 C 
HETATM    6  C5  UNL     1     -34.526   5.658   5.976  1.00 20.00     0.306 C 
HETATM    7  C6  UNL     1     -34.686   5.071   3.928  1.00 20.00     0.306 C 
HETATM    8  N8  UNL     1     -35.462   4.868   5.161  1.00 20.00     0.091 N 
HETATM    9  H17 UNL     1     -35.565   3.896   5.448  1.00 20.00     0.316 HD
ENDBRANCH   1   4
TORSDOF 1
ENDMDL
MODEL 2
REMARK VINA RESULT:      -4.0     15.343     16.327
REMARK  1 active torsions:
REMARK  status: ('A' for Active; 'I' for Inactive)
REMARK    1  A    between atoms: C1_1  and  C4_4 
ROOT
HETATM    1  C1  UNL     1     -27.041  18.027  12.258  1.00 20.00    -0.079 C 
HETATM    2  C2  UNL     1     -28.193  17.688  12.276  1.00 20.00    -0.106 C 
HETATM    3  C7  UNL     1     -29.596  17.274  12.299  1.00 20.00     0.112 C 
ENDROOT
BRANCH   1   4
HETATM    4  C4  UNL     1     -25.677  18.427  12.237  1.00 20.00     0.070 C 
HETATM    5  C3  UNL     1     -24.688  17.558  12.034  1.00 20.00    -0.017 C 
HETATM    6  C5  UNL     1     -23.190  17.658  11.956  1.00 20.00     0.306 C 
HETATM    7  C6  UNL     1     -24.616  16.077  11.781  1.00 20.00     0.306 C 
HETATM    8  N8  UNL     1     -23.178  16.191  12.068  1.00 20.00     0.091 N 
HETATM    9  H17 UNL     1     -22.568  15.715  11.406  1.00 20.00     0.316 HD
ENDBRANCH   1   4
TORSDOF 1
ENDMDL
MODEL 3
REMARK VINA RESULT:      -3.9     15.496     16.161
REMARK  1 active torsions:
REMARK  status: ('A' for Active; 'I' for Inactive)
REMARK    1  A    between atoms: C1_1  and  C4_4 
ROOT
HETATM    1  C1  UNL     1     -24.584  18.926   8.093  1.00 20.00    -0.079 C 
HETATM    2  C2  UNL     1     -25.451  18.871   7.264  1.00 20.00    -0.106 C 
HETATM    3  C7  UNL     1     -26.506  18.804   6.254  1.00 20.00     0.112 C 
ENDROOT
BRANCH   1   4
HETATM    4  C4  UNL     1     -23.557  18.992   9.074  1.00 20.00     0.070 C 
HETATM    5  C3  UNL     1     -23.313  17.986   9.912  1.00 20.00    -0.017 C 
HETATM    6  C5  UNL     1     -22.332  17.750  11.026  1.00 20.00     0.306 C 
HETATM    7  C6  UNL     1     -23.903  16.618  10.123  1.00 20.00     0.306 C 
HETATM    8  N8  UNL     1     -23.172  16.601  11.400  1.00 20.00     0.091 N 
HETATM    9  H17 UNL     1     -22.662  15.741  11.591  1.00 20.00     0.316 HD
ENDBRANCH   1   4
TORSDOF 1
ENDMDL
MODEL 4
REMARK VINA RESULT:      -3.8     11.414     11.945
REMARK  1 active torsions:
REMARK  status: ('A' for Active; 'I' for Inactive)
REMARK    1  A    between atoms: C1_1  and  C4_4 
ROOT
HETATM    1  C1  UNL     1     -33.578  15.930  -3.102  1.00 20.00    -0.079 C 
HETATM    2  C2  UNL     1     -33.061  16.870  -2.563  1.00 20.00    -0.106 C 
HETATM    3  C7  UNL     1     -32.430  18.014  -1.906  1.00 20.00     0.112 C 
ENDROOT
BRANCH   1   4
HETATM    4  C4  UNL     1     -34.190  14.816  -3.739  1.00 20.00     0.070 C 
HETATM    5  C3  UNL     1     -35.499  14.769  -3.979  1.00 20.00    -0.017 C 
HETATM    6  C5  UNL     1     -36.424  13.769  -4.613  1.00 20.00     0.306 C 
HETATM    7  C6  UNL     1     -36.654  15.701  -3.732  1.00 20.00     0.306 C 
HETATM    8  N8  UNL     1     -37.524  14.553  -4.031  1.00 20.00     0.091 N 
HETATM    9  H17 UNL     1     -38.293  14.752  -4.667  1.00 20.00     0.316 HD
ENDBRANCH   1   4
TORSDOF 1
ENDMDL
MODEL 5
REMARK VINA RESULT:      -3.7     16.219     17.195
REMARK  1 active torsions:
REMARK  status: ('A' for Active; 'I' for Inactive)
REMARK    1  A    between atoms: C1_1  and  C4_4 
ROOT
HETATM    1  C1  UNL     1     -24.472  17.973  11.588  1.00 20.00    -0.079 C 
HETATM    2  C2  UNL     1     -25.624  18.006  11.922  1.00 20.00    -0.106 C 
HETATM    3  C7  UNL     1     -27.028  18.046  12.331  1.00 20.00     0.112 C 
ENDROOT
BRANCH   1   4
HETATM    4  C4  UNL     1     -23.106  17.934  11.193  1.00 20.00     0.070 C 
HETATM    5  C3  UNL     1     -22.731  18.109   9.927  1.00 20.00    -0.017 C 
HETATM    6  C5  UNL     1     -21.411  18.126   9.207  1.00 20.00     0.306 C 
HETATM    7  C6  UNL     1     -23.454  18.381   8.637  1.00 20.00     0.306 C 
HETATM    8  N8  UNL     1     -22.193  18.034   7.964  1.00 20.00     0.091 N 
HETATM    9  H17 UNL     1     -21.907  18.679   7.229  1.00 20.00     0.316 HD
ENDBRANCH   1   4
TORSDOF 1
ENDMDL
MODEL 6
REMARK VINA RESULT:      -3.7     11.500     12.137
REMARK  1 active torsions:
REMARK  status: ('A' for Active; 'I' for Inactive)
REMARK    1  A    between atoms: C1_1  and  C4_4 
ROOT
HETATM    1  C1  UNL     1     -34.083  16.415  -2.328  1.00 20.00    -0.079 C 
HETATM    2  C2  UNL     1     -33.250  17.240  -2.072  1.00 20.00    -0.106 C 
HETATM    3  C7  UNL     1     -32.234  18.245  -1.759  1.00 20.00     0.112 C 
ENDROOT
BRANCH   1   4
HETATM    4  C4  UNL     1     -35.071  15.438  -2.630  1.00 20.00     0.070 C 
HETATM    5  C3  UNL     1     -35.204  14.919  -3.849  1.00 20.00    -0.017 C 
HETATM    6  C5  UNL     1     -36.117  13.902  -4.474  1.00 20.00     0.306 C 
HETATM    7  C6  UNL     1     -34.493  15.106  -5.162  1.00 20.00     0.306 C 
HETATM    8  N8  UNL     1     -35.624  14.389  -5.771  1.00 20.00     0.091 N 
HETATM    9  H17 UNL     1     -35.364  13.660  -6.432  1.00 20.00     0.316 HD
ENDBRANCH   1   4
TORSDOF 1
ENDMDL
MODEL 7
REMARK VINA RESULT:      -3.6     15.761     16.686
REMARK  1 active torsions:
REMARK  status: ('A' for Active; 'I' for Inactive)
REMARK    1  A    between atoms: C1_1  and  C4_4 
ROOT
HETATM    1  C1  UNL     1     -23.091  18.132   9.788  1.00 20.00    -0.079 C 
HETATM    2  C2  UNL     1     -22.760  17.965  10.930  1.00 20.00    -0.106 C 
HETATM    3  C7  UNL     1     -22.356  17.762  12.320  1.00 20.00     0.112 C 
ENDROOT
BRANCH   1   4
HETATM    4  C4  UNL     1     -23.482  18.330   8.435  1.00 20.00     0.070 C 
HETATM    5  C3  UNL     1     -24.681  18.808   8.107  1.00 20.00    -0.017 C 
HETATM    6  C5  UNL     1     -25.378  19.124   6.813  1.00 20.00     0.306 C 
HETATM    7  C6  UNL     1     -25.887  19.262   8.883  1.00 20.00     0.306 C 
HETATM    8  N8  UNL     1     -26.614  19.208   7.606  1.00 20.00     0.091 N 
HETATM    9  H17 UNL     1     -27.196  20.020   7.408  1.00 20.00     0.316 HD
ENDBRANCH   1   4
TORSDOF 1
ENDMDL
MODEL 8
REMARK VINA RESULT:      -3.6     11.518     12.165
REMARK  1 active torsions:
REMARK  status: ('A' for Active; 'I' for Inactive)
REMARK    1  A    between atoms: C1_1  and  C4_4 
ROOT
HETATM    1  C1  UNL     1     -34.818  16.924  -1.168  1.00 20.00    -0.079 C 
HETATM    2  C2  UNL     1     -34.526  17.774  -0.372  1.00 20.00    -0.106 C 
HETATM    3  C7  UNL     1     -34.170  18.809   0.598  1.00 20.00     0.112 C 
ENDROOT
BRANCH   1   4
HETATM    4  C4  UNL     1     -35.164  15.915  -2.109  1.00 20.00     0.070 C 
HETATM    5  C3  UNL     1     -34.322  15.516  -3.060  1.00 20.00    -0.017 C 
HETATM    6  C5  UNL     1     -34.382  14.506  -4.172  1.00 20.00     0.306 C 
HETATM    7  C6  UNL     1     -32.918  15.887  -3.454  1.00 20.00     0.306 C 
HETATM    8  N8  UNL     1     -33.176  15.158  -4.705  1.00 20.00     0.091 N 
HETATM    9  H17 UNL     1     -32.435  14.521  -4.991  1.00 20.00     0.316 HD
ENDBRANCH   1   4
TORSDOF 1
ENDMDL
MODEL 9
REMARK VINA RESULT:      -3.6     11.467     12.121
REMARK  1 active torsions:
REMARK  status: ('A' for Active; 'I' for Inactive)
REMARK    1  A    between atoms: C1_1  and  C4_4 
ROOT
HETATM    1  C1  UNL     1     -33.601  17.242  -1.611  1.00 20.00    -0.079 C 
HETATM    2  C2  UNL     1     -32.746  17.985  -1.211  1.00 20.00    -0.106 C 
HETATM    3  C7  UNL     1     -31.704  18.890  -0.726  1.00 20.00     0.112 C 
ENDROOT
BRANCH   1   4
HETATM    4  C4  UNL     1     -34.612  16.361  -2.084  1.00 20.00     0.070 C 
HETATM    5  C3  UNL     1     -34.407  15.534  -3.107  1.00 20.00    -0.017 C 
HETATM    6  C5  UNL     1     -35.242  14.511  -3.825  1.00 20.00     0.306 C 
HETATM    7  C6  UNL     1     -33.240  15.234  -4.008  1.00 20.00     0.306 C 
HETATM    8  N8  UNL     1     -34.204  14.530  -4.868  1.00 20.00     0.091 N 
HETATM    9  H17 UNL     1     -33.902  13.612  -5.189  1.00 20.00     0.316 HD
ENDBRANCH   1   4
TORSDOF 1
ENDMDL
