MODEL 1
REMARK VINA RESULT:      -5.1      0.000      0.000
REMARK  0 active torsions:
REMARK  status: ('A' for Active; 'I' for Inactive)
ROOT
HETATM    1  C1  UNL     1     -22.112  17.584   8.029  1.00 20.00     0.088 C 
HETATM    2  C2  UNL     1     -23.612  17.587   9.914  1.00 20.00    -0.062 C 
HETATM    3  C3  UNL     1     -22.381  17.400   9.406  1.00 20.00     0.097 C 
HETATM    4  C4  UNL     1     -24.739  18.003   8.991  1.00 20.00     0.036 C 
HETATM    5  C5  UNL     1     -25.436  19.263   9.499  1.00 20.00     0.004 C 
HETATM    6  C6  UNL     1     -25.902  19.108  10.942  1.00 20.00     0.001 C 
HETATM    7  C7  UNL     1     -24.746  18.702  11.859  1.00 20.00     0.013 C 
HETATM    8  C8  UNL     1     -23.985  17.431  11.395  1.00 20.00    -0.024 C 
HETATM    9  C9  UNL     1     -22.768  17.260  12.332  1.00 20.00     0.019 C 
HETATM   10  C10 UNL     1     -24.871  16.179  11.573  1.00 20.00     0.019 C 
HETATM   11  N11 UNL     1     -21.881  17.733   6.902  1.00 20.00    -0.192 NA
ENDROOT
TORSDOF 0
ENDMDL
MODEL 2
REMARK VINA RESULT:      -4.6     13.011     14.562
REMARK  0 active torsions:
REMARK  status: ('A' for Active; 'I' for Inactive)
ROOT
HETATM    1  C1  UNL     1     -30.754  18.586   0.326  1.00 20.00     0.088 C 
HETATM    2  C2  UNL     1     -32.896  18.184  -0.700  1.00 20.00    -0.062 C 
HETATM    3  C3  UNL     1     -31.553  18.124  -0.747  1.00 20.00     0.097 C 
HETATM    4  C4  UNL     1     -33.570  18.761   0.527  1.00 20.00     0.036 C 
HETATM    5  C5  UNL     1     -34.601  17.793   1.103  1.00 20.00     0.004 C 
HETATM    6  C6  UNL     1     -35.608  17.348   0.048  1.00 20.00     0.001 C 
HETATM    7  C7  UNL     1     -34.907  16.755  -1.176  1.00 20.00     0.013 C 
HETATM    8  C8  UNL     1     -33.837  17.686  -1.807  1.00 20.00    -0.024 C 
HETATM    9  C9  UNL     1     -33.126  16.878  -2.916  1.00 20.00     0.019 C 
HETATM   10  C10 UNL     1     -34.512  18.895  -2.491  1.00 20.00     0.019 C 
HETATM   11  N11 UNL     1     -30.090  18.962   1.199  1.00 20.00    -0.192 NA
ENDROOT
TORSDOF 0
ENDMDL
MODEL 3
REMARK VINA RESULT:      -4.5     16.430     17.763
REMARK  0 active torsions:
REMARK  status: ('A' for Active; 'I' for Inactive)
ROOT
HETATM    1  C1  UNL     1     -35.324  13.711  -4.153  1.00 20.00     0.088 C 
HETATM    2  C2  UNL     1     -35.205  15.881  -3.115  1.00 20.00    -0.062 C 
HETATM    3  C3  UNL     1     -34.606  14.740  -3.500  1.00 20.00     0.097 C 
HETATM    4  C4  UNL     1     -36.684  16.069  -3.384  1.00 20.00     0.036 C 
HETATM    5  C5  UNL     1     -36.949  17.369  -4.139  1.00 20.00     0.004 C 
HETATM    6  C6  UNL     1     -36.336  18.571  -3.428  1.00 20.00     0.001 C 
HETATM    7  C7  UNL     1     -34.840  18.366  -3.179  1.00 20.00     0.013 C 
HETATM    8  C8  UNL     1     -34.497  17.055  -2.422  1.00 20.00    -0.024 C 
HETATM    9  C9  UNL     1     -32.957  16.930  -2.399  1.00 20.00     0.019 C 
HETATM   10  C10 UNL     1     -34.966  17.142  -0.953  1.00 20.00     0.019 C 
HETATM   11  N11 UNL     1     -35.904  12.861  -4.689  1.00 20.00    -0.192 NA
ENDROOT
TORSDOF 0
ENDMDL
MODEL 4
REMARK VINA RESULT:      -4.4     16.914     18.308
REMARK  0 active torsions:
REMARK  status: ('A' for Active; 'I' for Inactive)
ROOT
HETATM    1  C1  UNL     1     -37.130  14.340  -4.188  1.00 20.00     0.088 C 
HETATM    2  C2  UNL     1     -35.541  16.041  -3.570  1.00 20.00    -0.062 C 
HETATM    3  C3  UNL     1     -35.811  14.767  -3.907  1.00 20.00     0.097 C 
HETATM    4  C4  UNL     1     -36.675  17.042  -3.487  1.00 20.00     0.036 C 
HETATM    5  C5  UNL     1     -36.394  18.272  -4.348  1.00 20.00     0.004 C 
HETATM    6  C6  UNL     1     -35.046  18.900  -4.012  1.00 20.00     0.001 C 
HETATM    7  C7  UNL     1     -33.914  17.876  -4.117  1.00 20.00     0.013 C 
HETATM    8  C8  UNL     1     -34.140  16.594  -3.272  1.00 20.00    -0.024 C 
HETATM    9  C9  UNL     1     -32.995  15.613  -3.615  1.00 20.00     0.019 C 
HETATM   10  C10 UNL     1     -34.023  16.914  -1.765  1.00 20.00     0.019 C 
HETATM   11  N11 UNL     1     -38.208  13.979  -4.421  1.00 20.00    -0.192 NA
ENDROOT
TORSDOF 0
ENDMDL
MODEL 5
REMARK VINA RESULT:      -4.4     13.954     15.409
REMARK  0 active torsions:
REMARK  status: ('A' for Active; 'I' for Inactive)
ROOT
HETATM    1  C1  UNL     1     -33.998  15.474  -3.232  1.00 20.00     0.088 C 
HETATM    2  C2  UNL     1     -34.099  17.238  -1.594  1.00 20.00    -0.062 C 
HETATM    3  C3  UNL     1     -34.580  16.086  -2.096  1.00 20.00     0.097 C 
HETATM    4  C4  UNL     1     -32.907  17.896  -2.258  1.00 20.00     0.036 C 
HETATM    5  C5  UNL     1     -31.790  18.165  -1.253  1.00 20.00     0.004 C 
HETATM    6  C6  UNL     1     -32.290  18.958  -0.051  1.00 20.00     0.001 C 
HETATM    7  C7  UNL     1     -33.483  18.268   0.614  1.00 20.00     0.013 C 
HETATM    8  C8  UNL     1     -34.655  17.956  -0.356  1.00 20.00    -0.024 C 
HETATM    9  C9  UNL     1     -35.693  17.128   0.435  1.00 20.00     0.019 C 
HETATM   10  C10 UNL     1     -35.356  19.262  -0.791  1.00 20.00     0.019 C 
HETATM   11  N11 UNL     1     -33.528  14.964  -4.161  1.00 20.00    -0.192 NA
ENDROOT
TORSDOF 0
ENDMDL
MODEL 6
REMARK VINA RESULT:      -4.3     17.219     18.706
REMARK  0 active torsions:
REMARK  status: ('A' for Active; 'I' for Inactive)
ROOT
HETATM    1  C1  UNL     1     -37.705  14.553  -4.639  1.00 20.00     0.088 C 
HETATM    2  C2  UNL     1     -35.402  15.196  -4.341  1.00 20.00    -0.062 C 
HETATM    3  C3  UNL     1     -36.459  14.990  -5.148  1.00 20.00     0.097 C 
HETATM    4  C4  UNL     1     -35.548  14.954  -2.853  1.00 20.00     0.036 C 
HETATM    5  C5  UNL     1     -35.122  16.178  -2.046  1.00 20.00     0.004 C 
HETATM    6  C6  UNL     1     -33.718  16.640  -2.420  1.00 20.00     0.001 C 
HETATM    7  C7  UNL     1     -33.598  16.894  -3.924  1.00 20.00     0.013 C 
HETATM    8  C8  UNL     1     -34.024  15.689  -4.805  1.00 20.00    -0.024 C 
HETATM    9  C9  UNL     1     -33.994  16.166  -6.275  1.00 20.00     0.019 C 
HETATM   10  C10 UNL     1     -32.999  14.541  -4.681  1.00 20.00     0.019 C 
HETATM   11  N11 UNL     1     -38.730  14.196  -4.232  1.00 20.00    -0.192 NA
ENDROOT
TORSDOF 0
ENDMDL
MODEL 7
REMARK VINA RESULT:      -4.3     16.924     18.424
REMARK  0 active torsions:
REMARK  status: ('A' for Active; 'I' for Inactive)
ROOT
HETATM    1  C1  UNL     1     -35.956  13.859  -4.671  1.00 20.00     0.088 C 
HETATM    2  C2  UNL     1     -35.382  16.130  -4.107  1.00 20.00    -0.062 C 
HETATM    3  C3  UNL     1     -36.024  15.254  -4.900  1.00 20.00     0.097 C 
HETATM    4  C4  UNL     1     -34.564  15.613  -2.941  1.00 20.00     0.036 C 
HETATM    5  C5  UNL     1     -34.982  16.277  -1.632  1.00 20.00     0.004 C 
HETATM    6  C6  UNL     1     -34.943  17.798  -1.733  1.00 20.00     0.001 C 
HETATM    7  C7  UNL     1     -35.787  18.300  -2.907  1.00 20.00     0.013 C 
HETATM    8  C8  UNL     1     -35.420  17.656  -4.271  1.00 20.00    -0.024 C 
HETATM    9  C9  UNL     1     -36.461  18.149  -5.302  1.00 20.00     0.019 C 
HETATM   10  C10 UNL     1     -34.040  18.157  -4.749  1.00 20.00     0.019 C 
HETATM   11  N11 UNL     1     -35.907  12.715  -4.491  1.00 20.00    -0.192 NA
ENDROOT
TORSDOF 0
ENDMDL
MODEL 8
REMARK VINA RESULT:      -4.3     17.098     18.693
REMARK  0 active torsions:
REMARK  status: ('A' for Active; 'I' for Inactive)
ROOT
HETATM    1  C1  UNL     1     -36.946  17.749  -2.364  1.00 20.00     0.088 C 
HETATM    2  C2  UNL     1     -35.894  16.002  -3.647  1.00 20.00    -0.062 C 
HETATM    3  C3  UNL     1     -36.849  16.941  -3.522  1.00 20.00     0.097 C 
HETATM    4  C4  UNL     1     -34.899  15.802  -2.523  1.00 20.00     0.036 C 
HETATM    5  C5  UNL     1     -33.462  15.891  -3.029  1.00 20.00     0.004 C 
HETATM    6  C6  UNL     1     -33.214  14.938  -4.194  1.00 20.00     0.001 C 
HETATM    7  C7  UNL     1     -34.219  15.168  -5.324  1.00 20.00     0.013 C 
HETATM    8  C8  UNL     1     -35.704  15.100  -4.875  1.00 20.00    -0.024 C 
HETATM    9  C9  UNL     1     -36.568  15.508  -6.091  1.00 20.00     0.019 C 
HETATM   10  C10 UNL     1     -36.091  13.650  -4.513  1.00 20.00     0.019 C 
HETATM   11  N11 UNL     1     -37.033  18.416  -1.419  1.00 20.00    -0.192 NA
ENDROOT
TORSDOF 0
ENDMDL
MODEL 9
REMARK VINA RESULT:      -4.2     17.182     18.720
REMARK  0 active torsions:
REMARK  status: ('A' for Active; 'I' for Inactive)
ROOT
HETATM    1  C1  UNL     1     -37.895  14.967  -4.186  1.00 20.00     0.088 C 
HETATM    2  C2  UNL     1     -35.750  16.063  -4.155  1.00 20.00    -0.062 C 
HETATM    3  C3  UNL     1     -37.063  16.066  -3.864  1.00 20.00     0.097 C 
HETATM    4  C4  UNL     1     -35.146  14.857  -4.845  1.00 20.00     0.036 C 
HETATM    5  C5  UNL     1     -33.946  14.317  -4.071  1.00 20.00     0.004 C 
HETATM    6  C6  UNL     1     -32.912  15.405  -3.802  1.00 20.00     0.001 C 
HETATM    7  C7  UNL     1     -33.539  16.606  -3.092  1.00 20.00     0.013 C 
HETATM    8  C8  UNL     1     -34.774  17.200  -3.822  1.00 20.00    -0.024 C 
HETATM    9  C9  UNL     1     -35.371  18.287  -2.899  1.00 20.00     0.019 C 
HETATM   10  C10 UNL     1     -34.340  17.904  -5.126  1.00 20.00     0.019 C 
HETATM   11  N11 UNL     1     -38.585  14.072  -4.446  1.00 20.00    -0.192 NA
ENDROOT
TORSDOF 0
ENDMDL
