MODEL 1
REMARK VINA RESULT:      -4.2      0.000      0.000
REMARK  2 active torsions:
REMARK  status: ('A' for Active; 'I' for Inactive)
REMARK    1  A    between atoms: C5_5  and  C10_10 
REMARK    2  A    between atoms: C5_5  and  O11_11 
ROOT
HETATM    1  C1  UNL     1     -34.449  16.735  -6.098  1.00 20.00     0.004 C 
HETATM    2  C2  UNL     1     -34.861  15.269  -5.950  1.00 20.00     0.012 C 
HETATM    3  C3  UNL     1     -34.259  17.289  -4.682  1.00 20.00     0.039 C 
HETATM    4  C4  UNL     1     -34.476  14.872  -4.511  1.00 20.00    -0.016 C 
HETATM    5  C5  UNL     1     -34.757  16.189  -3.733  1.00 20.00     0.068 C 
HETATM    6  C6  UNL     1     -32.994  14.450  -4.473  1.00 20.00     0.018 C 
HETATM    7  C7  UNL     1     -35.330  13.689  -4.033  1.00 20.00     0.018 C 
ENDROOT
BRANCH   5   8
HETATM    8  C10 UNL     1     -34.116  16.289  -2.354  1.00 20.00     0.012 C 
HETATM    9  C8  UNL     1     -33.018  17.350  -2.347  1.00 20.00     0.012 C 
HETATM   10  C9  UNL     1     -35.170  16.601  -1.292  1.00 20.00     0.012 C 
ENDBRANCH   5   8
BRANCH   5  11
HETATM   11  O11 UNL     1     -36.165  16.371  -3.534  1.00 20.00    -0.389 OA
HETATM   12  H31 UNL     1     -36.532  16.591  -4.401  1.00 20.00     0.210 HD
ENDBRANCH   5  11
TORSDOF 2
ENDMDL
MODEL 2
REMARK VINA RESULT:      -4.1      1.663      3.552
REMARK  2 active torsions:
REMARK  status: ('A' for Active; 'I' for Inactive)
REMARK    1  A    between atoms: C5_5  and  C10_10 
REMARK    2  A    between atoms: C5_5  and  O11_11 
ROOT
HETATM    1  C1  UNL     1     -33.854  16.379  -2.866  1.00 20.00     0.004 C 
HETATM    2  C2  UNL     1     -34.798  15.176  -2.849  1.00 20.00     0.012 C 
HETATM    3  C3  UNL     1     -33.615  16.739  -4.337  1.00 20.00     0.039 C 
HETATM    4  C4  UNL     1     -35.441  15.133  -4.250  1.00 20.00    -0.016 C 
HETATM    5  C5  UNL     1     -34.268  15.613  -5.152  1.00 20.00     0.068 C 
HETATM    6  C6  UNL     1     -36.659  16.078  -4.286  1.00 20.00     0.018 C 
HETATM    7  C7  UNL     1     -35.919  13.712  -4.579  1.00 20.00     0.018 C 
ENDROOT
BRANCH   5   8
HETATM    8  C10 UNL     1     -34.659  16.072  -6.552  1.00 20.00     0.012 C 
HETATM    9  C8  UNL     1     -34.381  17.564  -6.726  1.00 20.00     0.012 C 
HETATM   10  C9  UNL     1     -33.916  15.261  -7.612  1.00 20.00     0.012 C 
ENDBRANCH   5   8
BRANCH   5  11
HETATM   11  O11 UNL     1     -33.303  14.568  -5.329  1.00 20.00    -0.389 OA
HETATM   12  H31 UNL     1     -33.170  14.486  -6.284  1.00 20.00     0.210 HD
ENDBRANCH   5  11
TORSDOF 2
ENDMDL
MODEL 3
REMARK VINA RESULT:      -4.1      1.440      3.521
REMARK  2 active torsions:
REMARK  status: ('A' for Active; 'I' for Inactive)
REMARK    1  A    between atoms: C5_5  and  C10_10 
REMARK    2  A    between atoms: C5_5  and  O11_11 
ROOT
HETATM    1  C1  UNL     1     -36.237  18.060  -3.875  1.00 20.00     0.004 C 
HETATM    2  C2  UNL     1     -35.095  18.490  -2.952  1.00 20.00     0.012 C 
HETATM    3  C3  UNL     1     -35.919  16.635  -4.342  1.00 20.00     0.039 C 
HETATM    4  C4  UNL     1     -34.378  17.189  -2.543  1.00 20.00    -0.016 C 
HETATM    5  C5  UNL     1     -34.499  16.339  -3.840  1.00 20.00     0.068 C 
HETATM    6  C6  UNL     1     -35.104  16.559  -1.337  1.00 20.00     0.018 C 
HETATM    7  C7  UNL     1     -32.926  17.479  -2.139  1.00 20.00     0.018 C 
ENDROOT
BRANCH   5   8
HETATM    8  C10 UNL     1     -34.250  14.844  -3.673  1.00 20.00     0.012 C 
HETATM    9  C8  UNL     1     -35.448  14.041  -4.176  1.00 20.00     0.012 C 
HETATM   10  C9  UNL     1     -32.977  14.425  -4.408  1.00 20.00     0.012 C 
ENDBRANCH   5   8
BRANCH   5  11
HETATM   11  O11 UNL     1     -33.568  16.790  -4.832  1.00 20.00    -0.389 OA
HETATM   12  H31 UNL     1     -32.723  16.370  -4.617  1.00 20.00     0.210 HD
ENDBRANCH   5  11
TORSDOF 2
ENDMDL
MODEL 4
REMARK VINA RESULT:      -4.1      1.451      3.610
REMARK  2 active torsions:
REMARK  status: ('A' for Active; 'I' for Inactive)
REMARK    1  A    between atoms: C5_5  and  C10_10 
REMARK    2  A    between atoms: C5_5  and  O11_11 
ROOT
HETATM    1  C1  UNL     1     -35.471  16.704  -2.871  1.00 20.00     0.004 C 
HETATM    2  C2  UNL     1     -34.251  15.789  -2.754  1.00 20.00     0.012 C 
HETATM    3  C3  UNL     1     -35.857  16.745  -4.354  1.00 20.00     0.039 C 
HETATM    4  C4  UNL     1     -34.218  14.971  -4.060  1.00 20.00    -0.016 C 
HETATM    5  C5  UNL     1     -34.733  16.009  -5.097  1.00 20.00     0.068 C 
HETATM    6  C6  UNL     1     -35.142  13.744  -3.922  1.00 20.00     0.018 C 
HETATM    7  C7  UNL     1     -32.794  14.477  -4.350  1.00 20.00     0.018 C 
ENDROOT
BRANCH   5   8
HETATM    8  C10 UNL     1     -35.207  15.433  -6.427  1.00 20.00     0.012 C 
HETATM    9  C8  UNL     1     -36.552  16.038  -6.826  1.00 20.00     0.012 C 
HETATM   10  C9  UNL     1     -34.166  15.673  -7.519  1.00 20.00     0.012 C 
ENDBRANCH   5   8
BRANCH   5  11
HETATM   11  O11 UNL     1     -33.709  16.959  -5.417  1.00 20.00    -0.389 OA
HETATM   12  H31 UNL     1     -34.097  17.833  -5.265  1.00 20.00     0.210 HD
ENDBRANCH   5  11
TORSDOF 2
ENDMDL
MODEL 5
REMARK VINA RESULT:      -4.0      1.473      2.864
REMARK  2 active torsions:
REMARK  status: ('A' for Active; 'I' for Inactive)
REMARK    1  A    between atoms: C5_5  and  C10_10 
REMARK    2  A    between atoms: C5_5  and  O11_11 
ROOT
HETATM    1  C1  UNL     1     -35.968  13.773  -5.022  1.00 20.00     0.004 C 
HETATM    2  C2  UNL     1     -35.750  14.770  -6.162  1.00 20.00     0.012 C 
HETATM    3  C3  UNL     1     -35.316  14.376  -3.772  1.00 20.00     0.039 C 
HETATM    4  C4  UNL     1     -35.385  16.105  -5.483  1.00 20.00    -0.016 C 
HETATM    5  C5  UNL     1     -34.560  15.622  -4.257  1.00 20.00     0.068 C 
HETATM    6  C6  UNL     1     -36.676  16.851  -5.088  1.00 20.00     0.018 C 
HETATM    7  C7  UNL     1     -34.584  16.995  -6.443  1.00 20.00     0.018 C 
ENDROOT
BRANCH   5   8
HETATM    8  C10 UNL     1     -34.372  16.646  -3.144  1.00 20.00     0.012 C 
HETATM    9  C8  UNL     1     -35.053  16.176  -1.859  1.00 20.00     0.012 C 
HETATM   10  C9  UNL     1     -32.887  16.909  -2.898  1.00 20.00     0.012 C 
ENDBRANCH   5   8
BRANCH   5  11
HETATM   11  O11 UNL     1     -33.243  15.221  -4.656  1.00 20.00    -0.389 OA
HETATM   12  H31 UNL     1     -32.640  15.889  -4.302  1.00 20.00     0.210 HD
ENDBRANCH   5  11
TORSDOF 2
ENDMDL
MODEL 6
REMARK VINA RESULT:      -3.9      1.500      2.548
REMARK  2 active torsions:
REMARK  status: ('A' for Active; 'I' for Inactive)
REMARK    1  A    between atoms: C5_5  and  C10_10 
REMARK    2  A    between atoms: C5_5  and  O11_11 
ROOT
HETATM    1  C1  UNL     1     -35.512  15.249  -7.194  1.00 20.00     0.004 C 
HETATM    2  C2  UNL     1     -36.659  15.710  -6.292  1.00 20.00     0.012 C 
HETATM    3  C3  UNL     1     -34.263  15.152  -6.311  1.00 20.00     0.039 C 
HETATM    4  C4  UNL     1     -36.186  15.444  -4.849  1.00 20.00    -0.016 C 
HETATM    5  C5  UNL     1     -34.664  15.748  -4.954  1.00 20.00     0.068 C 
HETATM    6  C6  UNL     1     -36.487  13.980  -4.470  1.00 20.00     0.018 C 
HETATM    7  C7  UNL     1     -36.923  16.362  -3.865  1.00 20.00     0.018 C 
ENDROOT
BRANCH   5   8
HETATM    8  C10 UNL     1     -33.805  15.210  -3.815  1.00 20.00     0.012 C 
HETATM    9  C8  UNL     1     -32.667  14.350  -4.361  1.00 20.00     0.012 C 
HETATM   10  C9  UNL     1     -33.253  16.356  -2.969  1.00 20.00     0.012 C 
ENDBRANCH   5   8
BRANCH   5  11
HETATM   11  O11 UNL     1     -34.430  17.161  -4.997  1.00 20.00    -0.389 OA
HETATM   12  H31 UNL     1     -34.887  17.532  -4.230  1.00 20.00     0.210 HD
ENDBRANCH   5  11
TORSDOF 2
ENDMDL
MODEL 7
REMARK VINA RESULT:      -3.9     16.822     18.483
REMARK  2 active torsions:
REMARK  status: ('A' for Active; 'I' for Inactive)
REMARK    1  A    between atoms: C5_5  and  C10_10 
REMARK    2  A    between atoms: C5_5  and  O11_11 
ROOT
HETATM    1  C1  UNL     1     -21.724  17.906  11.336  1.00 20.00     0.004 C 
HETATM    2  C2  UNL     1     -22.276  18.450  10.017  1.00 20.00     0.012 C 
HETATM    3  C3  UNL     1     -22.913  17.326  12.112  1.00 20.00     0.039 C 
HETATM    4  C4  UNL     1     -23.661  17.795   9.844  1.00 20.00    -0.016 C 
HETATM    5  C5  UNL     1     -24.164  17.723  11.314  1.00 20.00     0.068 C 
HETATM    6  C6  UNL     1     -23.496  16.407   9.193  1.00 20.00     0.018 C 
HETATM    7  C7  UNL     1     -24.553  18.654   8.938  1.00 20.00     0.018 C 
ENDROOT
BRANCH   5   8
HETATM    8  C10 UNL     1     -25.329  16.773  11.567  1.00 20.00     0.012 C 
HETATM    9  C8  UNL     1     -24.859  15.537  12.331  1.00 20.00     0.012 C 
HETATM   10  C9  UNL     1     -26.446  17.482  12.331  1.00 20.00     0.012 C 
ENDBRANCH   5   8
BRANCH   5  11
HETATM   11  O11 UNL     1     -24.595  19.013  11.768  1.00 20.00    -0.389 OA
HETATM   12  H31 UNL     1     -23.832  19.600  11.671  1.00 20.00     0.210 HD
ENDBRANCH   5  11
TORSDOF 2
ENDMDL
MODEL 8
REMARK VINA RESULT:      -3.8      1.693      3.212
REMARK  2 active torsions:
REMARK  status: ('A' for Active; 'I' for Inactive)
REMARK    1  A    between atoms: C5_5  and  C10_10 
REMARK    2  A    between atoms: C5_5  and  O11_11 
ROOT
HETATM    1  C1  UNL     1     -32.977  17.795  -3.400  1.00 20.00     0.004 C 
HETATM    2  C2  UNL     1     -32.934  16.285  -3.155  1.00 20.00     0.012 C 
HETATM    3  C3  UNL     1     -34.179  18.065  -4.312  1.00 20.00     0.039 C 
HETATM    4  C4  UNL     1     -34.332  15.762  -3.541  1.00 20.00    -0.016 C 
HETATM    5  C5  UNL     1     -34.695  16.683  -4.740  1.00 20.00     0.068 C 
HETATM    6  C6  UNL     1     -35.290  15.921  -2.343  1.00 20.00     0.018 C 
HETATM    7  C7  UNL     1     -34.265  14.275  -3.915  1.00 20.00     0.018 C 
ENDROOT
BRANCH   5   8
HETATM    8  C10 UNL     1     -36.171  16.717  -5.122  1.00 20.00     0.012 C 
HETATM    9  C8  UNL     1     -36.689  18.154  -5.142  1.00 20.00     0.012 C 
HETATM   10  C9  UNL     1     -36.391  16.049  -6.479  1.00 20.00     0.012 C 
ENDBRANCH   5   8
BRANCH   5  11
HETATM   11  O11 UNL     1     -33.986  16.285  -5.921  1.00 20.00    -0.389 OA
HETATM   12  H31 UNL     1     -34.535  15.612  -6.348  1.00 20.00     0.210 HD
ENDBRANCH   5  11
TORSDOF 2
ENDMDL
MODEL 9
REMARK VINA RESULT:      -3.8      1.504      3.448
REMARK  2 active torsions:
REMARK  status: ('A' for Active; 'I' for Inactive)
REMARK    1  A    between atoms: C5_5  and  C10_10 
REMARK    2  A    between atoms: C5_5  and  O11_11 
ROOT
HETATM    1  C1  UNL     1     -33.527  16.221  -2.950  1.00 20.00     0.004 C 
HETATM    2  C2  UNL     1     -34.075  17.507  -3.571  1.00 20.00     0.012 C 
HETATM    3  C3  UNL     1     -34.563  15.122  -3.214  1.00 20.00     0.039 C 
HETATM    4  C4  UNL     1     -35.174  17.059  -4.555  1.00 20.00    -0.016 C 
HETATM    5  C5  UNL     1     -35.784  15.837  -3.812  1.00 20.00     0.068 C 
HETATM    6  C6  UNL     1     -34.535  16.688  -5.907  1.00 20.00     0.018 C 
HETATM    7  C7  UNL     1     -36.181  18.194  -4.788  1.00 20.00     0.018 C 
ENDROOT
BRANCH   5   8
HETATM    8  C10 UNL     1     -36.633  14.902  -4.667  1.00 20.00     0.012 C 
HETATM    9  C8  UNL     1     -36.116  13.468  -4.571  1.00 20.00     0.012 C 
HETATM   10  C9  UNL     1     -38.100  14.972  -4.247  1.00 20.00     0.012 C 
ENDBRANCH   5   8
BRANCH   5  11
HETATM   11  O11 UNL     1     -36.626  16.265  -2.734  1.00 20.00    -0.389 OA
HETATM   12  H31 UNL     1     -36.666  17.230  -2.792  1.00 20.00     0.210 HD
ENDBRANCH   5  11
TORSDOF 2
ENDMDL
