MODEL 1
REMARK VINA RESULT:      -5.2      0.000      0.000
REMARK  0 active torsions:
REMARK  status: ('A' for Active; 'I' for Inactive)
ROOT
HETATM    1  C1  UNL     1     -35.946  13.939  -4.507  1.00 20.00     0.086 C 
HETATM    2  C2  UNL     1     -35.035  15.823  -2.247  1.00 20.00     0.003 C 
HETATM    3  C3  UNL     1     -33.654  16.214  -2.759  1.00 20.00     0.001 C 
HETATM    4  C4  UNL     1     -36.131  16.069  -3.286  1.00 20.00     0.042 C 
HETATM    5  C5  UNL     1     -33.332  15.559  -4.102  1.00 20.00     0.012 C 
HETATM    6  C6  UNL     1     -35.822  15.408  -4.647  1.00 20.00     0.132 C 
HETATM    7  C7  UNL     1     -34.406  15.825  -5.193  1.00 20.00    -0.013 C 
HETATM    8  C8  UNL     1     -34.006  15.030  -6.460  1.00 20.00     0.018 C 
HETATM    9  C9  UNL     1     -34.353  17.326  -5.581  1.00 20.00     0.018 C 
HETATM   10  N10 UNL     1     -36.043  12.787  -4.398  1.00 20.00    -0.195 NA
HETATM   11 CL11 UNL     1     -37.145  15.856  -5.793  1.00 20.00    -0.102 Cl
ENDROOT
TORSDOF 0
ENDMDL
MODEL 2
REMARK VINA RESULT:      -4.4      2.155      3.241
REMARK  0 active torsions:
REMARK  status: ('A' for Active; 'I' for Inactive)
ROOT
HETATM    1  C1  UNL     1     -34.327  17.225  -5.518  1.00 20.00     0.086 C 
HETATM    2  C2  UNL     1     -33.659  16.296  -2.659  1.00 20.00     0.003 C 
HETATM    3  C3  UNL     1     -35.048  15.911  -2.166  1.00 20.00     0.001 C 
HETATM    4  C4  UNL     1     -33.298  15.605  -3.976  1.00 20.00     0.042 C 
HETATM    5  C5  UNL     1     -36.117  16.122  -3.238  1.00 20.00     0.012 C 
HETATM    6  C6  UNL     1     -34.366  15.814  -5.071  1.00 20.00     0.132 C 
HETATM    7  C7  UNL     1     -35.801  15.397  -4.577  1.00 20.00    -0.013 C 
HETATM    8  C8  UNL     1     -36.907  15.773  -5.595  1.00 20.00     0.018 C 
HETATM    9  C9  UNL     1     -35.915  13.867  -4.349  1.00 20.00     0.018 C 
HETATM   10  N10 UNL     1     -34.296  18.331  -5.869  1.00 20.00    -0.195 NA
HETATM   11 CL11 UNL     1     -33.857  14.875  -6.528  1.00 20.00    -0.102 Cl
ENDROOT
TORSDOF 0
ENDMDL
MODEL 3
REMARK VINA RESULT:      -4.4      1.583      2.044
REMARK  0 active torsions:
REMARK  status: ('A' for Active; 'I' for Inactive)
ROOT
HETATM    1  C1  UNL     1     -37.177  14.781  -4.414  1.00 20.00     0.086 C 
HETATM    2  C2  UNL     1     -36.968  17.434  -2.864  1.00 20.00     0.003 C 
HETATM    3  C3  UNL     1     -35.752  17.145  -1.993  1.00 20.00     0.001 C 
HETATM    4  C4  UNL     1     -36.688  17.193  -4.349  1.00 20.00     0.042 C 
HETATM    5  C5  UNL     1     -35.177  15.752  -2.251  1.00 20.00     0.012 C 
HETATM    6  C6  UNL     1     -36.112  15.788  -4.628  1.00 20.00     0.132 C 
HETATM    7  C7  UNL     1     -34.842  15.490  -3.747  1.00 20.00    -0.013 C 
HETATM    8  C8  UNL     1     -34.366  14.022  -3.877  1.00 20.00     0.018 C 
HETATM    9  C9  UNL     1     -33.637  16.381  -4.145  1.00 20.00     0.018 C 
HETATM   10  N10 UNL     1     -38.012  13.992  -4.248  1.00 20.00    -0.195 NA
HETATM   11 CL11 UNL     1     -35.747  15.678  -6.393  1.00 20.00    -0.102 Cl
ENDROOT
TORSDOF 0
ENDMDL
MODEL 4
REMARK VINA RESULT:      -4.4      1.673      2.160
REMARK  0 active torsions:
REMARK  status: ('A' for Active; 'I' for Inactive)
ROOT
HETATM    1  C1  UNL     1     -37.244  14.788  -4.231  1.00 20.00     0.086 C 
HETATM    2  C2  UNL     1     -34.227  14.328  -3.821  1.00 20.00     0.003 C 
HETATM    3  C3  UNL     1     -33.694  14.795  -5.170  1.00 20.00     0.001 C 
HETATM    4  C4  UNL     1     -35.113  15.381  -3.151  1.00 20.00     0.042 C 
HETATM    5  C5  UNL     1     -34.813  15.278  -6.094  1.00 20.00     0.012 C 
HETATM    6  C6  UNL     1     -36.251  15.875  -4.070  1.00 20.00     0.132 C 
HETATM    7  C7  UNL     1     -35.707  16.380  -5.458  1.00 20.00    -0.013 C 
HETATM    8  C8  UNL     1     -36.846  16.703  -6.455  1.00 20.00     0.018 C 
HETATM    9  C9  UNL     1     -34.866  17.675  -5.315  1.00 20.00     0.018 C 
HETATM   10  N10 UNL     1     -38.023  13.937  -4.358  1.00 20.00    -0.195 NA
HETATM   11 CL11 UNL     1     -37.152  17.170  -3.189  1.00 20.00    -0.102 Cl
ENDROOT
TORSDOF 0
ENDMDL
MODEL 5
REMARK VINA RESULT:      -4.3      1.784      3.146
REMARK  0 active torsions:
REMARK  status: ('A' for Active; 'I' for Inactive)
ROOT
HETATM    1  C1  UNL     1     -35.658  13.829  -4.381  1.00 20.00     0.086 C 
HETATM    2  C2  UNL     1     -33.999  15.049  -6.671  1.00 20.00     0.003 C 
HETATM    3  C3  UNL     1     -35.009  16.034  -7.244  1.00 20.00     0.001 C 
HETATM    4  C4  UNL     1     -33.796  15.236  -5.165  1.00 20.00     0.042 C 
HETATM    5  C5  UNL     1     -36.332  16.013  -6.478  1.00 20.00     0.012 C 
HETATM    6  C6  UNL     1     -35.123  15.211  -4.377  1.00 20.00     0.132 C 
HETATM    7  C7  UNL     1     -36.165  16.242  -4.949  1.00 20.00    -0.013 C 
HETATM    8  C8  UNL     1     -37.559  16.098  -4.291  1.00 20.00     0.018 C 
HETATM    9  C9  UNL     1     -35.717  17.708  -4.717  1.00 20.00     0.018 C 
HETATM   10  N10 UNL     1     -36.077  12.747  -4.383  1.00 20.00    -0.195 NA
HETATM   11 CL11 UNL     1     -34.742  15.532  -2.640  1.00 20.00    -0.102 Cl
ENDROOT
TORSDOF 0
ENDMDL
MODEL 6
REMARK VINA RESULT:      -4.3      1.748      3.080
REMARK  0 active torsions:
REMARK  status: ('A' for Active; 'I' for Inactive)
ROOT
HETATM    1  C1  UNL     1     -36.017  14.254  -4.546  1.00 20.00     0.086 C 
HETATM    2  C2  UNL     1     -35.388  16.484  -6.576  1.00 20.00     0.003 C 
HETATM    3  C3  UNL     1     -35.374  17.696  -5.653  1.00 20.00     0.001 C 
HETATM    4  C4  UNL     1     -34.457  15.372  -6.088  1.00 20.00     0.042 C 
HETATM    5  C5  UNL     1     -35.646  17.314  -4.198  1.00 20.00     0.012 C 
HETATM    6  C6  UNL     1     -34.723  14.971  -4.621  1.00 20.00     0.132 C 
HETATM    7  C7  UNL     1     -34.688  16.215  -3.658  1.00 20.00    -0.013 C 
HETATM    8  C8  UNL     1     -35.136  15.859  -2.219  1.00 20.00     0.018 C 
HETATM    9  C9  UNL     1     -33.264  16.817  -3.539  1.00 20.00     0.018 C 
HETATM   10  N10 UNL     1     -37.031  13.693  -4.487  1.00 20.00    -0.195 NA
HETATM   11 CL11 UNL     1     -33.500  13.725  -4.156  1.00 20.00    -0.102 Cl
ENDROOT
TORSDOF 0
ENDMDL
MODEL 7
REMARK VINA RESULT:      -4.2      2.065      3.133
REMARK  0 active torsions:
REMARK  status: ('A' for Active; 'I' for Inactive)
ROOT
HETATM    1  C1  UNL     1     -34.475  15.903  -6.464  1.00 20.00     0.086 C 
HETATM    2  C2  UNL     1     -37.243  15.447  -5.193  1.00 20.00     0.003 C 
HETATM    3  C3  UNL     1     -36.901  14.366  -4.176  1.00 20.00     0.001 C 
HETATM    4  C4  UNL     1     -36.342  16.677  -5.058  1.00 20.00     0.042 C 
HETATM    5  C5  UNL     1     -35.418  13.998  -4.205  1.00 20.00     0.012 C 
HETATM    6  C6  UNL     1     -34.840  16.323  -5.091  1.00 20.00     0.132 C 
HETATM    7  C7  UNL     1     -34.474  15.222  -4.028  1.00 20.00    -0.013 C 
HETATM    8  C8  UNL     1     -33.015  14.723  -4.174  1.00 20.00     0.018 C 
HETATM    9  C9  UNL     1     -34.616  15.747  -2.576  1.00 20.00     0.018 C 
HETATM   10  N10 UNL     1     -34.189  15.575  -7.540  1.00 20.00    -0.195 NA
HETATM   11 CL11 UNL     1     -33.905  17.846  -4.831  1.00 20.00    -0.102 Cl
ENDROOT
TORSDOF 0
ENDMDL
MODEL 8
REMARK VINA RESULT:      -4.2      1.674      2.460
REMARK  0 active torsions:
REMARK  status: ('A' for Active; 'I' for Inactive)
ROOT
HETATM    1  C1  UNL     1     -36.504  15.596  -5.369  1.00 20.00     0.086 C 
HETATM    2  C2  UNL     1     -34.975  17.834  -3.905  1.00 20.00     0.003 C 
HETATM    3  C3  UNL     1     -34.417  17.054  -2.722  1.00 20.00     0.001 C 
HETATM    4  C4  UNL     1     -34.627  17.184  -5.246  1.00 20.00     0.042 C 
HETATM    5  C5  UNL     1     -34.814  15.578  -2.768  1.00 20.00     0.012 C 
HETATM    6  C6  UNL     1     -35.027  15.695  -5.310  1.00 20.00     0.132 C 
HETATM    7  C7  UNL     1     -34.435  14.877  -4.103  1.00 20.00    -0.013 C 
HETATM    8  C8  UNL     1     -34.979  13.427  -4.050  1.00 20.00     0.018 C 
HETATM    9  C9  UNL     1     -32.890  14.764  -4.179  1.00 20.00     0.018 C 
HETATM   10  N10 UNL     1     -37.661  15.519  -5.415  1.00 20.00    -0.195 NA
HETATM   11 CL11 UNL     1     -34.477  15.040  -6.901  1.00 20.00    -0.102 Cl
ENDROOT
TORSDOF 0
ENDMDL
MODEL 9
REMARK VINA RESULT:      -4.1      2.121      3.125
REMARK  0 active torsions:
REMARK  status: ('A' for Active; 'I' for Inactive)
ROOT
HETATM    1  C1  UNL     1     -34.862  16.833  -5.829  1.00 20.00     0.086 C 
HETATM    2  C2  UNL     1     -36.297  14.228  -5.030  1.00 20.00     0.003 C 
HETATM    3  C3  UNL     1     -35.292  13.656  -4.039  1.00 20.00     0.001 C 
HETATM    4  C4  UNL     1     -36.701  15.663  -4.686  1.00 20.00     0.042 C 
HETATM    5  C5  UNL     1     -34.079  14.569  -3.860  1.00 20.00     0.012 C 
HETATM    6  C6  UNL     1     -35.486  16.599  -4.507  1.00 20.00     0.132 C 
HETATM    7  C7  UNL     1     -34.454  16.026  -3.467  1.00 20.00    -0.013 C 
HETATM    8  C8  UNL     1     -33.147  16.856  -3.415  1.00 20.00     0.018 C 
HETATM    9  C9  UNL     1     -35.026  16.016  -2.025  1.00 20.00     0.018 C 
HETATM   10  N10 UNL     1     -34.372  17.017  -6.865  1.00 20.00    -0.195 NA
HETATM   11 CL11 UNL     1     -36.105  18.223  -4.016  1.00 20.00    -0.102 Cl
ENDROOT
TORSDOF 0
ENDMDL
