MODEL 1
REMARK VINA RESULT:      -4.7      0.000      0.000
REMARK  2 active torsions:
REMARK  status: ('A' for Active; 'I' for Inactive)
REMARK    1  A    between atoms: C3_3  and  C9_9 
REMARK    2  A    between atoms: C7_7  and  C9_9 
ROOT
HETATM    1  C4  UNL     1     -33.250  15.559  -3.746  1.00 20.00     0.006 C 
HETATM    2  C5  UNL     1     -34.378  14.561  -3.974  1.00 20.00     0.020 C 
HETATM    3  C6  UNL     1     -35.119  16.012  -2.217  1.00 20.00     0.025 C 
HETATM    4  C7  UNL     1     -33.614  16.259  -2.429  1.00 20.00    -0.007 C 
HETATM    5  C8  UNL     1     -35.615  15.290  -3.468  1.00 20.00     0.082 C 
HETATM    6 CL12 UNL     1     -36.199  16.467  -4.681  1.00 20.00    -0.125 Cl
ENDROOT
BRANCH   4   7
HETATM    7  C9  UNL     1     -33.254  17.739  -2.444  1.00 20.00     0.071 C 
BRANCH   7   8
HETATM    8  C3  UNL     1     -32.563  18.158  -1.173  1.00 20.00     0.074 A 
HETATM    9  N10 UNL     1     -31.264  18.312  -1.048  1.00 20.00    -0.258 NA
HETATM   10  C1  UNL     1     -30.982  18.702   0.246  1.00 20.00     0.124 A 
HETATM   11  C2  UNL     1     -32.069  18.838   1.085  1.00 20.00     0.070 A 
HETATM   12  S11 UNL     1     -33.507  18.467   0.227  1.00 20.00    -0.085 SA
ENDBRANCH   7   8
ENDBRANCH   4   7
TORSDOF 2
ENDMDL
MODEL 2
REMARK VINA RESULT:      -4.7      3.939      5.923
REMARK  2 active torsions:
REMARK  status: ('A' for Active; 'I' for Inactive)
REMARK    1  A    between atoms: C3_3  and  C9_9 
REMARK    2  A    between atoms: C7_7  and  C9_9 
ROOT
HETATM    1  C4  UNL     1     -35.328  15.483  -2.785  1.00 20.00     0.006 C 
HETATM    2  C5  UNL     1     -34.167  16.277  -2.201  1.00 20.00     0.020 C 
HETATM    3  C6  UNL     1     -33.278  15.084  -4.080  1.00 20.00     0.025 C 
HETATM    4  C7  UNL     1     -34.672  14.505  -3.769  1.00 20.00    -0.007 C 
HETATM    5  C8  UNL     1     -33.210  16.437  -3.375  1.00 20.00     0.082 C 
HETATM    6 CL12 UNL     1     -33.758  17.741  -4.468  1.00 20.00    -0.125 Cl
ENDROOT
BRANCH   4   7
HETATM    7  C9  UNL     1     -35.515  14.291  -5.018  1.00 20.00     0.071 C 
BRANCH   7   8
HETATM    8  C3  UNL     1     -36.932  14.759  -4.823  1.00 20.00     0.074 A 
HETATM    9  N10 UNL     1     -37.884  14.041  -4.270  1.00 20.00    -0.258 NA
HETATM   10  C1  UNL     1     -39.050  14.780  -4.253  1.00 20.00     0.124 A 
HETATM   11  C2  UNL     1     -38.968  16.047  -4.794  1.00 20.00     0.070 A 
HETATM   12  S11 UNL     1     -37.370  16.334  -5.347  1.00 20.00    -0.085 SA
ENDBRANCH   7   8
ENDBRANCH   4   7
TORSDOF 2
ENDMDL
MODEL 3
REMARK VINA RESULT:      -4.3      1.486      1.700
REMARK  2 active torsions:
REMARK  status: ('A' for Active; 'I' for Inactive)
REMARK    1  A    between atoms: C3_3  and  C9_9 
REMARK    2  A    between atoms: C7_7  and  C9_9 
ROOT
HETATM    1  C4  UNL     1     -33.119  15.973  -3.356  1.00 20.00     0.006 C 
HETATM    2  C5  UNL     1     -33.316  14.828  -4.340  1.00 20.00     0.020 C 
HETATM    3  C6  UNL     1     -35.418  15.116  -3.228  1.00 20.00     0.025 C 
HETATM    4  C7  UNL     1     -34.360  15.925  -2.454  1.00 20.00    -0.007 C 
HETATM    5  C8  UNL     1     -34.816  14.826  -4.601  1.00 20.00     0.082 C 
HETATM    6 CL12 UNL     1     -35.260  16.110  -5.763  1.00 20.00    -0.125 Cl
ENDROOT
BRANCH   4   7
HETATM    7  C9  UNL     1     -34.845  17.315  -2.065  1.00 20.00     0.071 C 
BRANCH   7   8
HETATM    8  C3  UNL     1     -34.375  17.707  -0.690  1.00 20.00     0.074 A 
HETATM    9  N10 UNL     1     -33.205  18.245  -0.429  1.00 20.00    -0.258 NA
HETATM   10  C1  UNL     1     -33.111  18.474   0.929  1.00 20.00     0.124 A 
HETATM   11  C2  UNL     1     -34.208  18.107   1.680  1.00 20.00     0.070 A 
HETATM   12  S11 UNL     1     -35.413  17.448   0.652  1.00 20.00    -0.085 SA
ENDBRANCH   7   8
ENDBRANCH   4   7
TORSDOF 2
ENDMDL
MODEL 4
REMARK VINA RESULT:      -4.2      3.389      5.421
REMARK  2 active torsions:
REMARK  status: ('A' for Active; 'I' for Inactive)
REMARK    1  A    between atoms: C3_3  and  C9_9 
REMARK    2  A    between atoms: C7_7  and  C9_9 
ROOT
HETATM    1  C4  UNL     1     -34.982  16.411  -1.769  1.00 20.00     0.006 C 
HETATM    2  C5  UNL     1     -33.838  17.353  -1.418  1.00 20.00     0.020 C 
HETATM    3  C6  UNL     1     -33.190  16.244  -3.441  1.00 20.00     0.025 C 
HETATM    4  C7  UNL     1     -34.413  15.503  -2.867  1.00 20.00    -0.007 C 
HETATM    5  C8  UNL     1     -33.156  17.608  -2.756  1.00 20.00     0.082 C 
HETATM    6 CL12 UNL     1     -34.065  18.814  -3.713  1.00 20.00    -0.125 Cl
ENDROOT
BRANCH   4   7
HETATM    7  C9  UNL     1     -35.450  15.162  -3.929  1.00 20.00     0.071 C 
BRANCH   7   8
HETATM    8  C3  UNL     1     -34.912  15.366  -5.320  1.00 20.00     0.074 A 
HETATM    9  N10 UNL     1     -34.053  14.566  -5.911  1.00 20.00    -0.258 NA
HETATM   10  C1  UNL     1     -33.782  15.055  -7.174  1.00 20.00     0.124 A 
HETATM   11  C2  UNL     1     -34.438  16.216  -7.524  1.00 20.00     0.070 A 
HETATM   12  S11 UNL     1     -35.437  16.726  -6.227  1.00 20.00    -0.085 SA
ENDBRANCH   7   8
ENDBRANCH   4   7
TORSDOF 2
ENDMDL
MODEL 5
REMARK VINA RESULT:      -4.2      1.772      2.255
REMARK  2 active torsions:
REMARK  status: ('A' for Active; 'I' for Inactive)
REMARK    1  A    between atoms: C3_3  and  C9_9 
REMARK    2  A    between atoms: C7_7  and  C9_9 
ROOT
HETATM    1  C4  UNL     1     -34.934  13.982  -3.801  1.00 20.00     0.006 C 
HETATM    2  C5  UNL     1     -35.947  13.824  -4.927  1.00 20.00     0.020 C 
HETATM    3  C6  UNL     1     -35.593  16.180  -4.678  1.00 20.00     0.025 C 
HETATM    4  C7  UNL     1     -34.968  15.477  -3.458  1.00 20.00    -0.007 C 
HETATM    5  C8  UNL     1     -35.788  15.101  -5.740  1.00 20.00     0.082 C 
HETATM    6 CL12 UNL     1     -34.354  15.002  -6.804  1.00 20.00    -0.125 Cl
ENDROOT
BRANCH   4   7
HETATM    7  C9  UNL     1     -33.589  16.020  -3.105  1.00 20.00     0.071 C 
BRANCH   7   8
HETATM    8  C3  UNL     1     -33.643  16.963  -1.933  1.00 20.00     0.074 A 
HETATM    9  N10 UNL     1     -32.656  17.748  -1.563  1.00 20.00    -0.258 NA
HETATM   10  C1  UNL     1     -33.051  18.472  -0.456  1.00 20.00     0.124 A 
HETATM   11  C2  UNL     1     -34.330  18.228  -0.001  1.00 20.00     0.070 A 
HETATM   12  S11 UNL     1     -35.077  17.046  -0.994  1.00 20.00    -0.085 SA
ENDBRANCH   7   8
ENDBRANCH   4   7
TORSDOF 2
ENDMDL
MODEL 6
REMARK VINA RESULT:      -4.1      1.541      2.058
REMARK  2 active torsions:
REMARK  status: ('A' for Active; 'I' for Inactive)
REMARK    1  A    between atoms: C3_3  and  C9_9 
REMARK    2  A    between atoms: C7_7  and  C9_9 
ROOT
HETATM    1  C4  UNL     1     -35.161  16.401  -4.640  1.00 20.00     0.006 C 
HETATM    2  C5  UNL     1     -35.515  15.399  -5.731  1.00 20.00     0.020 C 
HETATM    3  C6  UNL     1     -34.978  14.103  -3.788  1.00 20.00     0.025 C 
HETATM    4  C7  UNL     1     -34.528  15.554  -3.528  1.00 20.00    -0.007 C 
HETATM    5  C8  UNL     1     -35.956  14.163  -4.960  1.00 20.00     0.082 C 
HETATM    6 CL12 UNL     1     -37.633  14.349  -4.368  1.00 20.00    -0.125 Cl
ENDROOT
BRANCH   4   7
HETATM    7  C9  UNL     1     -34.906  16.049  -2.138  1.00 20.00     0.071 C 
BRANCH   7   8
HETATM    8  C3  UNL     1     -33.936  17.082  -1.631  1.00 20.00     0.074 A 
HETATM    9  N10 UNL     1     -32.757  17.321  -2.161  1.00 20.00    -0.258 NA
HETATM   10  C1  UNL     1     -32.140  18.327  -1.446  1.00 20.00     0.124 A 
HETATM   11  C2  UNL     1     -32.857  18.838  -0.384  1.00 20.00     0.070 A 
HETATM   12  S11 UNL     1     -34.367  18.034  -0.269  1.00 20.00    -0.085 SA
ENDBRANCH   7   8
ENDBRANCH   4   7
TORSDOF 2
ENDMDL
MODEL 7
REMARK VINA RESULT:      -4.0      2.643      3.120
REMARK  2 active torsions:
REMARK  status: ('A' for Active; 'I' for Inactive)
REMARK    1  A    between atoms: C3_3  and  C9_9 
REMARK    2  A    between atoms: C7_7  and  C9_9 
ROOT
HETATM    1  C4  UNL     1     -33.392  16.590  -2.748  1.00 20.00     0.006 C 
HETATM    2  C5  UNL     1     -32.983  15.457  -3.680  1.00 20.00     0.020 C 
HETATM    3  C6  UNL     1     -35.294  15.091  -3.164  1.00 20.00     0.025 C 
HETATM    4  C7  UNL     1     -34.757  16.160  -2.194  1.00 20.00    -0.007 C 
HETATM    5  C8  UNL     1     -34.295  15.018  -4.316  1.00 20.00     0.082 C 
HETATM    6 CL12 UNL     1     -34.769  16.136  -5.628  1.00 20.00    -0.125 Cl
ENDROOT
BRANCH   4   7
HETATM    7  C9  UNL     1     -35.709  17.338  -2.027  1.00 20.00     0.071 C 
BRANCH   7   8
HETATM    8  C3  UNL     1     -35.992  17.625  -0.576  1.00 20.00     0.074 A 
HETATM    9  N10 UNL     1     -35.139  17.425   0.403  1.00 20.00    -0.258 NA
HETATM   10  C1  UNL     1     -35.730  17.797   1.594  1.00 20.00     0.124 A 
HETATM   11  C2  UNL     1     -37.021  18.272   1.504  1.00 20.00     0.070 A 
HETATM   12  S11 UNL     1     -37.525  18.259  -0.136  1.00 20.00    -0.085 SA
ENDBRANCH   7   8
ENDBRANCH   4   7
TORSDOF 2
ENDMDL
MODEL 8
REMARK VINA RESULT:      -4.0      1.894      2.369
REMARK  2 active torsions:
REMARK  status: ('A' for Active; 'I' for Inactive)
REMARK    1  A    between atoms: C3_3  and  C9_9 
REMARK    2  A    between atoms: C7_7  and  C9_9 
ROOT
HETATM    1  C4  UNL     1     -34.771  16.934  -4.636  1.00 20.00     0.006 C 
HETATM    2  C5  UNL     1     -34.456  16.283  -5.976  1.00 20.00     0.020 C 
HETATM    3  C6  UNL     1     -33.690  14.754  -4.298  1.00 20.00     0.025 C 
HETATM    4  C7  UNL     1     -34.000  16.096  -3.608  1.00 20.00    -0.007 C 
HETATM    5  C8  UNL     1     -34.394  14.796  -5.652  1.00 20.00     0.082 C 
HETATM    6 CL12 UNL     1     -36.039  14.105  -5.525  1.00 20.00    -0.125 Cl
ENDROOT
BRANCH   4   7
HETATM    7  C9  UNL     1     -34.770  15.927  -2.305  1.00 20.00     0.071 C 
BRANCH   7   8
HETATM    8  C3  UNL     1     -34.443  17.016  -1.318  1.00 20.00     0.074 A 
HETATM    9  N10 UNL     1     -33.334  17.720  -1.327  1.00 20.00    -0.258 NA
HETATM   10  C1  UNL     1     -33.370  18.626  -0.285  1.00 20.00     0.124 A 
HETATM   11  C2  UNL     1     -34.504  18.596   0.500  1.00 20.00     0.070 A 
HETATM   12  S11 UNL     1     -35.575  17.390  -0.083  1.00 20.00    -0.085 SA
ENDBRANCH   7   8
ENDBRANCH   4   7
TORSDOF 2
ENDMDL
MODEL 9
REMARK VINA RESULT:      -3.9      4.261      6.210
REMARK  2 active torsions:
REMARK  status: ('A' for Active; 'I' for Inactive)
REMARK    1  A    between atoms: C3_3  and  C9_9 
REMARK    2  A    between atoms: C7_7  and  C9_9 
ROOT
HETATM    1  C4  UNL     1     -35.025  16.789  -4.721  1.00 20.00     0.006 C 
HETATM    2  C5  UNL     1     -33.693  17.238  -4.138  1.00 20.00     0.020 C 
HETATM    3  C6  UNL     1     -34.589  15.641  -2.593  1.00 20.00     0.025 C 
HETATM    4  C7  UNL     1     -35.709  16.023  -3.580  1.00 20.00    -0.007 C 
HETATM    5  C8  UNL     1     -33.278  16.078  -3.243  1.00 20.00     0.082 C 
HETATM    6 CL12 UNL     1     -32.584  14.745  -4.212  1.00 20.00    -0.125 Cl
ENDROOT
BRANCH   4   7
HETATM    7  C9  UNL     1     -36.492  14.817  -4.082  1.00 20.00     0.071 C 
BRANCH   7   8
HETATM    8  C3  UNL     1     -37.968  15.105  -4.164  1.00 20.00     0.074 A 
HETATM    9  N10 UNL     1     -38.884  14.212  -4.465  1.00 20.00    -0.258 NA
HETATM   10  C1  UNL     1     -40.124  14.820  -4.447  1.00 20.00     0.124 A 
HETATM   11  C2  UNL     1     -40.132  16.163  -4.135  1.00 20.00     0.070 A 
HETATM   12  S11 UNL     1     -38.527  16.696  -3.848  1.00 20.00    -0.085 SA
ENDBRANCH   7   8
ENDBRANCH   4   7
TORSDOF 2
ENDMDL
