MODEL 1
REMARK VINA RESULT:      -4.1      0.000      0.000
REMARK  1 active torsions:
REMARK  status: ('A' for Active; 'I' for Inactive)
REMARK    1  A    between atoms: C4_4  and  C9_9 
ROOT
HETATM    1  C1  UNL     1     -34.139  15.494  -3.600  1.00 20.00     0.001 C 
HETATM    2  C2  UNL     1     -33.053  16.537  -3.330  1.00 20.00     0.007 C 
HETATM    3  C3  UNL     1     -35.115  15.577  -2.428  1.00 20.00     0.009 C 
HETATM    4  C4  UNL     1     -33.376  17.130  -1.953  1.00 20.00     0.011 C 
HETATM    5  C5  UNL     1     -34.910  16.978  -1.825  1.00 20.00    -0.043 C 
HETATM    6  C6  UNL     1     -35.702  18.028  -2.622  1.00 20.00     0.015 C 
HETATM    7  C7  UNL     1     -35.368  17.015  -0.363  1.00 20.00     0.015 C 
ENDROOT
BRANCH   4   8
HETATM    8  C9  UNL     1     -32.822  18.538  -1.781  1.00 20.00     0.083 C 
HETATM    9  C8  UNL     1     -32.386  19.134  -3.110  1.00 20.00     0.027 C 
HETATM   10 CL10 UNL     1     -31.435  18.500  -0.656  1.00 20.00    -0.125 Cl
ENDBRANCH   4   8
TORSDOF 1
ENDMDL
MODEL 2
REMARK VINA RESULT:      -3.9      2.306      3.114
REMARK  1 active torsions:
REMARK  status: ('A' for Active; 'I' for Inactive)
REMARK    1  A    between atoms: C4_4  and  C9_9 
ROOT
HETATM    1  C1  UNL     1     -35.979  13.587  -4.502  1.00 20.00     0.001 C 
HETATM    2  C2  UNL     1     -34.858  14.295  -3.739  1.00 20.00     0.007 C 
HETATM    3  C3  UNL     1     -37.198  14.506  -4.425  1.00 20.00     0.009 C 
HETATM    4  C4  UNL     1     -35.487  15.565  -3.153  1.00 20.00     0.011 C 
HETATM    5  C5  UNL     1     -36.633  15.908  -4.134  1.00 20.00    -0.043 C 
HETATM    6  C6  UNL     1     -36.151  16.574  -5.435  1.00 20.00     0.015 C 
HETATM    7  C7  UNL     1     -37.695  16.801  -3.483  1.00 20.00     0.015 C 
ENDROOT
BRANCH   4   8
HETATM    8  C9  UNL     1     -34.461  16.662  -2.905  1.00 20.00     0.083 C 
HETATM    9  C8  UNL     1     -33.059  16.213  -3.285  1.00 20.00     0.027 C 
HETATM   10 CL10 UNL     1     -34.495  17.132  -1.182  1.00 20.00    -0.125 Cl
ENDBRANCH   4   8
TORSDOF 1
ENDMDL
MODEL 3
REMARK VINA RESULT:      -3.9      2.912      4.450
REMARK  1 active torsions:
REMARK  status: ('A' for Active; 'I' for Inactive)
REMARK    1  A    between atoms: C4_4  and  C9_9 
ROOT
HETATM    1  C1  UNL     1     -34.494  17.248  -1.612  1.00 20.00     0.001 C 
HETATM    2  C2  UNL     1     -35.717  16.544  -2.201  1.00 20.00     0.007 C 
HETATM    3  C3  UNL     1     -33.277  16.669  -2.331  1.00 20.00     0.009 C 
HETATM    4  C4  UNL     1     -35.168  15.501  -3.181  1.00 20.00     0.011 C 
HETATM    5  C5  UNL     1     -33.820  16.095  -3.652  1.00 20.00    -0.043 C 
HETATM    6  C6  UNL     1     -33.971  17.210  -4.701  1.00 20.00     0.015 C 
HETATM    7  C7  UNL     1     -32.882  15.017  -4.205  1.00 20.00     0.015 C 
ENDROOT
BRANCH   4   8
HETATM    8  C9  UNL     1     -36.166  15.145  -4.274  1.00 20.00     0.083 C 
HETATM    9  C8  UNL     1     -37.563  15.648  -3.942  1.00 20.00     0.027 C 
HETATM   10 CL10 UNL     1     -36.204  13.373  -4.496  1.00 20.00    -0.125 Cl
ENDBRANCH   4   8
TORSDOF 1
ENDMDL
MODEL 4
REMARK VINA RESULT:      -3.9      1.962      3.228
REMARK  1 active torsions:
REMARK  status: ('A' for Active; 'I' for Inactive)
REMARK    1  A    between atoms: C4_4  and  C9_9 
ROOT
HETATM    1  C1  UNL     1     -35.476  17.004  -0.560  1.00 20.00     0.001 C 
HETATM    2  C2  UNL     1     -35.266  16.238  -1.867  1.00 20.00     0.007 C 
HETATM    3  C3  UNL     1     -34.194  17.800  -0.318  1.00 20.00     0.009 C 
HETATM    4  C4  UNL     1     -33.825  16.534  -2.300  1.00 20.00     0.011 C 
HETATM    5  C5  UNL     1     -33.528  17.928  -1.701  1.00 20.00    -0.043 C 
HETATM    6  C6  UNL     1     -34.156  19.087  -2.494  1.00 20.00     0.015 C 
HETATM    7  C7  UNL     1     -32.023  18.182  -1.560  1.00 20.00     0.015 C 
ENDROOT
BRANCH   4   8
HETATM    8  C9  UNL     1     -33.627  16.391  -3.803  1.00 20.00     0.083 C 
HETATM    9  C8  UNL     1     -34.956  16.366  -4.543  1.00 20.00     0.027 C 
HETATM   10 CL10 UNL     1     -32.722  14.889  -4.145  1.00 20.00    -0.125 Cl
ENDBRANCH   4   8
TORSDOF 1
ENDMDL
MODEL 5
REMARK VINA RESULT:      -3.8      1.823      3.530
REMARK  1 active torsions:
REMARK  status: ('A' for Active; 'I' for Inactive)
REMARK    1  A    between atoms: C4_4  and  C9_9 
ROOT
HETATM    1  C1  UNL     1     -35.746  16.131  -5.715  1.00 20.00     0.001 C 
HETATM    2  C2  UNL     1     -35.520  16.799  -4.357  1.00 20.00     0.007 C 
HETATM    3  C3  UNL     1     -34.597  15.141  -5.903  1.00 20.00     0.009 C 
HETATM    4  C4  UNL     1     -34.188  16.247  -3.836  1.00 20.00     0.011 C 
HETATM    5  C5  UNL     1     -34.077  14.847  -4.484  1.00 20.00    -0.043 C 
HETATM    6  C6  UNL     1     -34.951  13.781  -3.801  1.00 20.00     0.015 C 
HETATM    7  C7  UNL     1     -32.629  14.349  -4.526  1.00 20.00     0.015 C 
ENDROOT
BRANCH   4   8
HETATM    8  C9  UNL     1     -34.092  16.295  -2.317  1.00 20.00     0.083 C 
HETATM    9  C8  UNL     1     -35.403  16.740  -1.687  1.00 20.00     0.027 C 
HETATM   10 CL10 UNL     1     -32.786  17.415  -1.837  1.00 20.00    -0.125 Cl
ENDBRANCH   4   8
TORSDOF 1
ENDMDL
MODEL 6
REMARK VINA RESULT:      -3.8      3.340      4.431
REMARK  1 active torsions:
REMARK  status: ('A' for Active; 'I' for Inactive)
REMARK    1  A    between atoms: C4_4  and  C9_9 
ROOT
HETATM    1  C1  UNL     1     -33.861  17.077  -2.778  1.00 20.00     0.001 C 
HETATM    2  C2  UNL     1     -34.093  17.463  -4.239  1.00 20.00     0.007 C 
HETATM    3  C3  UNL     1     -34.443  15.674  -2.606  1.00 20.00     0.009 C 
HETATM    4  C4  UNL     1     -34.895  16.310  -4.854  1.00 20.00     0.011 C 
HETATM    5  C5  UNL     1     -34.481  15.073  -4.023  1.00 20.00    -0.043 C 
HETATM    6  C6  UNL     1     -33.102  14.508  -4.404  1.00 20.00     0.015 C 
HETATM    7  C7  UNL     1     -35.519  13.950  -4.112  1.00 20.00     0.015 C 
ENDROOT
BRANCH   4   8
HETATM    8  C9  UNL     1     -34.701  16.204  -6.361  1.00 20.00     0.083 C 
HETATM    9  C8  UNL     1     -34.313  17.542  -6.971  1.00 20.00     0.027 C 
HETATM   10 CL10 UNL     1     -36.208  15.615  -7.117  1.00 20.00    -0.125 Cl
ENDBRANCH   4   8
TORSDOF 1
ENDMDL
MODEL 7
REMARK VINA RESULT:      -3.8      2.684      3.851
REMARK  1 active torsions:
REMARK  status: ('A' for Active; 'I' for Inactive)
REMARK    1  A    between atoms: C4_4  and  C9_9 
ROOT
HETATM    1  C1  UNL     1     -35.994  13.833  -4.486  1.00 20.00     0.001 C 
HETATM    2  C2  UNL     1     -36.402  15.196  -5.049  1.00 20.00     0.007 C 
HETATM    3  C3  UNL     1     -34.614  14.024  -3.859  1.00 20.00     0.009 C 
HETATM    4  C4  UNL     1     -35.201  16.120  -4.821  1.00 20.00     0.011 C 
HETATM    5  C5  UNL     1     -34.501  15.532  -3.573  1.00 20.00    -0.043 C 
HETATM    6  C6  UNL     1     -35.205  15.882  -2.250  1.00 20.00     0.015 C 
HETATM    7  C7  UNL     1     -33.033  15.963  -3.483  1.00 20.00     0.015 C 
ENDROOT
BRANCH   4   8
HETATM    8  C9  UNL     1     -35.601  17.587  -4.740  1.00 20.00     0.083 C 
HETATM    9  C8  UNL     1     -37.058  17.791  -5.124  1.00 20.00     0.027 C 
HETATM   10 CL10 UNL     1     -34.555  18.552  -5.819  1.00 20.00    -0.125 Cl
ENDBRANCH   4   8
TORSDOF 1
ENDMDL
MODEL 8
REMARK VINA RESULT:      -3.7      1.931      2.724
REMARK  1 active torsions:
REMARK  status: ('A' for Active; 'I' for Inactive)
REMARK    1  A    between atoms: C4_4  and  C9_9 
ROOT
HETATM    1  C1  UNL     1     -33.016  14.961  -4.242  1.00 20.00     0.001 C 
HETATM    2  C2  UNL     1     -33.159  15.964  -3.096  1.00 20.00     0.007 C 
HETATM    3  C3  UNL     1     -34.425  14.459  -4.552  1.00 20.00     0.009 C 
HETATM    4  C4  UNL     1     -34.641  15.944  -2.705  1.00 20.00     0.011 C 
HETATM    5  C5  UNL     1     -35.372  15.544  -4.007  1.00 20.00    -0.043 C 
HETATM    6  C6  UNL     1     -35.507  16.696  -5.018  1.00 20.00     0.015 C 
HETATM    7  C7  UNL     1     -36.763  14.963  -3.728  1.00 20.00     0.015 C 
ENDROOT
BRANCH   4   8
HETATM    8  C9  UNL     1     -35.090  17.245  -2.053  1.00 20.00     0.083 C 
HETATM    9  C8  UNL     1     -34.019  18.320  -2.156  1.00 20.00     0.027 C 
HETATM   10 CL10 UNL     1     -35.479  16.950  -0.335  1.00 20.00    -0.125 Cl
ENDBRANCH   4   8
TORSDOF 1
ENDMDL
MODEL 9
REMARK VINA RESULT:      -3.7      3.497      4.764
REMARK  1 active torsions:
REMARK  status: ('A' for Active; 'I' for Inactive)
REMARK    1  A    between atoms: C4_4  and  C9_9 
ROOT
HETATM    1  C1  UNL     1     -33.822  15.884  -3.093  1.00 20.00     0.001 C 
HETATM    2  C2  UNL     1     -33.759  15.981  -4.618  1.00 20.00     0.007 C 
HETATM    3  C3  UNL     1     -35.240  15.429  -2.750  1.00 20.00     0.009 C 
HETATM    4  C4  UNL     1     -35.176  15.673  -5.116  1.00 20.00     0.011 C 
HETATM    5  C5  UNL     1     -35.769  14.751  -4.026  1.00 20.00    -0.043 C 
HETATM    6  C6  UNL     1     -35.270  13.298  -4.110  1.00 20.00     0.015 C 
HETATM    7  C7  UNL     1     -37.302  14.751  -4.049  1.00 20.00     0.015 C 
ENDROOT
BRANCH   4   8
HETATM    8  C9  UNL     1     -35.188  15.129  -6.539  1.00 20.00     0.083 C 
HETATM    9  C8  UNL     1     -33.789  15.091  -7.135  1.00 20.00     0.027 C 
HETATM   10 CL10 UNL     1     -36.246  16.146  -7.558  1.00 20.00    -0.125 Cl
ENDBRANCH   4   8
TORSDOF 1
ENDMDL
