MODEL 1
REMARK VINA RESULT:      -5.0      0.000      0.000
REMARK  2 active torsions:
REMARK  status: ('A' for Active; 'I' for Inactive)
REMARK    1  A    between atoms: C6_6  and  N11_11 
REMARK    2  A    between atoms: C10_10  and  N11_11 
ROOT
HETATM    1  C1  UNL     1     -32.990   8.958   0.327  1.00 20.00     0.013 C 
HETATM    2  C2  UNL     1     -32.656   8.255   1.242  1.00 20.00    -0.087 C 
HETATM    3  C10 UNL     1     -32.244   7.401   2.357  1.00 20.00     0.362 C 
ENDROOT
BRANCH   3   4
HETATM    4  N11 UNL     1     -33.240   6.367   2.608  1.00 20.00     0.099 N 
HETATM    5  H28 UNL     1     -32.986   5.525   2.092  1.00 20.00     0.317 HD
BRANCH   4   6
HETATM    6  C6  UNL     1     -33.321   6.054   4.027  1.00 20.00     0.229 C 
HETATM    7  C4  UNL     1     -33.510   7.302   4.891  1.00 20.00     0.036 C 
HETATM    8  C3  UNL     1     -34.120   6.792   6.198  1.00 20.00     0.003 C 
HETATM    9  C5  UNL     1     -34.477   5.320   5.967  1.00 20.00     0.011 C 
HETATM   10  C7  UNL     1     -34.490   5.132   4.438  1.00 20.00    -0.017 C 
HETATM   11  C8  UNL     1     -35.849   5.568   3.859  1.00 20.00     0.017 C 
HETATM   12  C9  UNL     1     -34.234   3.671   4.055  1.00 20.00     0.017 C 
ENDBRANCH   4   6
ENDBRANCH   3   4
TORSDOF 2
ENDMDL
MODEL 2
REMARK VINA RESULT:      -4.7     15.156     16.254
REMARK  2 active torsions:
REMARK  status: ('A' for Active; 'I' for Inactive)
REMARK    1  A    between atoms: C6_6  and  N11_11 
REMARK    2  A    between atoms: C10_10  and  N11_11 
ROOT
HETATM    1  C1  UNL     1     -26.181  19.231   5.622  1.00 20.00     0.013 C 
HETATM    2  C2  UNL     1     -25.442  19.204   6.569  1.00 20.00    -0.087 C 
HETATM    3  C10 UNL     1     -24.538  19.173   7.720  1.00 20.00     0.362 C 
ENDROOT
BRANCH   3   4
HETATM    4  N11 UNL     1     -24.987  18.194   8.701  1.00 20.00     0.099 N 
HETATM    5  H28 UNL     1     -24.501  17.312   8.541  1.00 20.00     0.317 HD
BRANCH   4   6
HETATM    6  C6  UNL     1     -24.719  18.651  10.056  1.00 20.00     0.229 C 
HETATM    7  C4  UNL     1     -25.999  18.851  10.869  1.00 20.00     0.036 C 
HETATM    8  C3  UNL     1     -25.557  18.769  12.332  1.00 20.00     0.003 C 
HETATM    9  C5  UNL     1     -24.098  18.301  12.321  1.00 20.00     0.011 C 
HETATM   10  C7  UNL     1     -23.867  17.698  10.923  1.00 20.00    -0.017 C 
HETATM   11  C8  UNL     1     -24.354  16.236  10.887  1.00 20.00     0.017 C 
HETATM   12  C9  UNL     1     -22.385  17.736  10.537  1.00 20.00     0.017 C 
ENDBRANCH   4   6
ENDBRANCH   3   4
TORSDOF 2
ENDMDL
MODEL 3
REMARK VINA RESULT:      -4.6     15.285     16.358
REMARK  2 active torsions:
REMARK  status: ('A' for Active; 'I' for Inactive)
REMARK    1  A    between atoms: C6_6  and  N11_11 
REMARK    2  A    between atoms: C10_10  and  N11_11 
ROOT
HETATM    1  C1  UNL     1     -26.215  19.055   6.277  1.00 20.00     0.013 C 
HETATM    2  C2  UNL     1     -25.531  19.038   7.264  1.00 20.00    -0.087 C 
HETATM    3  C10 UNL     1     -24.694  19.019   8.466  1.00 20.00     0.362 C 
ENDROOT
BRANCH   3   4
HETATM    4  N11 UNL     1     -25.133  17.974   9.382  1.00 20.00     0.099 N 
HETATM    5  H28 UNL     1     -25.594  17.235   8.851  1.00 20.00     0.317 HD
BRANCH   4   6
HETATM    6  C6  UNL     1     -24.006  17.411  10.110  1.00 20.00     0.229 C 
HETATM    7  C4  UNL     1     -22.762  18.296  10.036  1.00 20.00     0.036 C 
HETATM    8  C3  UNL     1     -21.913  17.890  11.243  1.00 20.00     0.003 C 
HETATM    9  C5  UNL     1     -22.784  16.962  12.096  1.00 20.00     0.011 C 
HETATM   10  C7  UNL     1     -24.231  17.202  11.624  1.00 20.00    -0.017 C 
HETATM   11  C8  UNL     1     -24.824  18.436  12.332  1.00 20.00     0.017 C 
HETATM   12  C9  UNL     1     -25.120  15.989  11.914  1.00 20.00     0.017 C 
ENDBRANCH   4   6
ENDBRANCH   3   4
TORSDOF 2
ENDMDL
MODEL 4
REMARK VINA RESULT:      -4.3      8.691     10.478
REMARK  2 active torsions:
REMARK  status: ('A' for Active; 'I' for Inactive)
REMARK    1  A    between atoms: C6_6  and  N11_11 
REMARK    2  A    between atoms: C10_10  and  N11_11 
ROOT
HETATM    1  C1  UNL     1     -41.666   2.267  -4.012  1.00 20.00     0.013 C 
HETATM    2  C2  UNL     1     -42.292   2.989  -3.283  1.00 20.00    -0.087 C 
HETATM    3  C10 UNL     1     -43.058   3.868  -2.397  1.00 20.00     0.362 C 
ENDROOT
BRANCH   3   4
HETATM    4  N11 UNL     1     -42.180   4.520  -1.435  1.00 20.00     0.099 N 
HETATM    5  H28 UNL     1     -41.506   5.100  -1.935  1.00 20.00     0.317 HD
BRANCH   4   6
HETATM    6  C6  UNL     1     -42.940   5.353  -0.515  1.00 20.00     0.229 C 
HETATM    7  C4  UNL     1     -43.134   4.691   0.849  1.00 20.00     0.036 C 
HETATM    8  C3  UNL     1     -43.417   5.844   1.814  1.00 20.00     0.003 C 
HETATM    9  C5  UNL     1     -43.152   7.138   1.037  1.00 20.00     0.011 C 
HETATM   10  C7  UNL     1     -42.306   6.723  -0.181  1.00 20.00    -0.017 C 
HETATM   11  C8  UNL     1     -40.818   6.632   0.208  1.00 20.00     0.017 C 
HETATM   12  C9  UNL     1     -42.457   7.724  -1.331  1.00 20.00     0.017 C 
ENDBRANCH   4   6
ENDBRANCH   3   4
TORSDOF 2
ENDMDL
MODEL 5
REMARK VINA RESULT:      -4.3     11.316     12.837
REMARK  2 active torsions:
REMARK  status: ('A' for Active; 'I' for Inactive)
REMARK    1  A    between atoms: C6_6  and  N11_11 
REMARK    2  A    between atoms: C10_10  and  N11_11 
ROOT
HETATM    1  C1  UNL     1     -32.591  18.817  -2.759  1.00 20.00     0.013 C 
HETATM    2  C2  UNL     1     -32.886  17.654  -2.823  1.00 20.00    -0.087 C 
HETATM    3  C10 UNL     1     -33.246  16.236  -2.896  1.00 20.00     0.362 C 
ENDROOT
BRANCH   3   4
HETATM    4  N11 UNL     1     -32.862  15.674  -4.184  1.00 20.00     0.099 N 
HETATM    5  H28 UNL     1     -31.986  15.162  -4.079  1.00 20.00     0.317 HD
BRANCH   4   6
HETATM    6  C6  UNL     1     -33.887  14.771  -4.686  1.00 20.00     0.229 C 
HETATM    7  C4  UNL     1     -34.984  14.503  -3.655  1.00 20.00     0.036 C 
HETATM    8  C3  UNL     1     -36.194  14.045  -4.473  1.00 20.00     0.003 C 
HETATM    9  C5  UNL     1     -35.841  14.282  -5.945  1.00 20.00     0.011 C 
HETATM   10  C7  UNL     1     -34.656  15.265  -5.932  1.00 20.00    -0.017 C 
HETATM   11  C8  UNL     1     -35.166  16.714  -5.805  1.00 20.00     0.017 C 
HETATM   12  C9  UNL     1     -33.819  15.145  -7.210  1.00 20.00     0.017 C 
ENDBRANCH   4   6
ENDBRANCH   3   4
TORSDOF 2
ENDMDL
MODEL 6
REMARK VINA RESULT:      -4.2     11.532     12.607
REMARK  2 active torsions:
REMARK  status: ('A' for Active; 'I' for Inactive)
REMARK    1  A    between atoms: C6_6  and  N11_11 
REMARK    2  A    between atoms: C10_10  and  N11_11 
ROOT
HETATM    1  C1  UNL     1     -33.805  18.128   1.737  1.00 20.00     0.013 C 
HETATM    2  C2  UNL     1     -34.746  17.794   1.067  1.00 20.00    -0.087 C 
HETATM    3  C10 UNL     1     -35.893  17.384   0.255  1.00 20.00     0.362 C 
ENDROOT
BRANCH   3   4
HETATM    4  N11 UNL     1     -35.645  17.648  -1.156  1.00 20.00     0.099 N 
HETATM    5  H28 UNL     1     -35.256  18.585  -1.258  1.00 20.00     0.317 HD
BRANCH   4   6
HETATM    6  C6  UNL     1     -34.714  16.679  -1.712  1.00 20.00     0.229 C 
HETATM    7  C4  UNL     1     -35.401  15.673  -2.637  1.00 20.00     0.036 C 
HETATM    8  C3  UNL     1     -34.285  15.131  -3.533  1.00 20.00     0.003 C 
HETATM    9  C5  UNL     1     -33.049  15.995  -3.262  1.00 20.00     0.011 C 
HETATM   10  C7  UNL     1     -33.577  17.269  -2.576  1.00 20.00    -0.017 C 
HETATM   11  C8  UNL     1     -34.070  18.277  -3.633  1.00 20.00     0.017 C 
HETATM   12  C9  UNL     1     -32.491  17.934  -1.725  1.00 20.00     0.017 C 
ENDBRANCH   4   6
ENDBRANCH   3   4
TORSDOF 2
ENDMDL
MODEL 7
REMARK VINA RESULT:      -4.2     11.410     12.476
REMARK  2 active torsions:
REMARK  status: ('A' for Active; 'I' for Inactive)
REMARK    1  A    between atoms: C6_6  and  N11_11 
REMARK    2  A    between atoms: C10_10  and  N11_11 
ROOT
HETATM    1  C1  UNL     1     -39.905  15.034  -4.281  1.00 20.00     0.013 C 
HETATM    2  C2  UNL     1     -38.719  14.844  -4.267  1.00 20.00    -0.087 C 
HETATM    3  C10 UNL     1     -37.273  14.610  -4.253  1.00 20.00     0.362 C 
ENDROOT
BRANCH   3   4
HETATM    4  N11 UNL     1     -36.642  15.352  -3.170  1.00 20.00     0.099 N 
HETATM    5  H28 UNL     1     -37.057  15.068  -2.283  1.00 20.00     0.317 HD
BRANCH   4   6
HETATM    6  C6  UNL     1     -35.209  15.103  -3.132  1.00 20.00     0.229 C 
HETATM    7  C4  UNL     1     -34.718  14.328  -4.355  1.00 20.00     0.036 C 
HETATM    8  C3  UNL     1     -33.222  14.637  -4.447  1.00 20.00     0.003 C 
HETATM    9  C5  UNL     1     -32.943  15.748  -3.429  1.00 20.00     0.011 C 
HETATM   10  C7  UNL     1     -34.316  16.364  -3.101  1.00 20.00    -0.017 C 
HETATM   11  C8  UNL     1     -34.697  17.412  -4.165  1.00 20.00     0.017 C 
HETATM   12  C9  UNL     1     -34.311  17.034  -1.724  1.00 20.00     0.017 C 
ENDBRANCH   4   6
ENDBRANCH   3   4
TORSDOF 2
ENDMDL
MODEL 8
REMARK VINA RESULT:      -4.0     11.628     13.228
REMARK  2 active torsions:
REMARK  status: ('A' for Active; 'I' for Inactive)
REMARK    1  A    between atoms: C6_6  and  N11_11 
REMARK    2  A    between atoms: C10_10  and  N11_11 
ROOT
HETATM    1  C1  UNL     1     -31.781  18.279  -0.888  1.00 20.00     0.013 C 
HETATM    2  C2  UNL     1     -32.260  18.529  -1.961  1.00 20.00    -0.087 C 
HETATM    3  C10 UNL     1     -32.845  18.838  -3.268  1.00 20.00     0.362 C 
ENDROOT
BRANCH   3   4
HETATM    4  N11 UNL     1     -32.885  17.648  -4.108  1.00 20.00     0.099 N 
HETATM    5  H28 UNL     1     -32.372  16.896  -3.647  1.00 20.00     0.317 HD
BRANCH   4   6
HETATM    6  C6  UNL     1     -34.256  17.220  -4.343  1.00 20.00     0.229 C 
HETATM    7  C4  UNL     1     -34.579  17.088  -5.831  1.00 20.00     0.036 C 
HETATM    8  C3  UNL     1     -35.777  16.138  -5.895  1.00 20.00     0.003 C 
HETATM    9  C5  UNL     1     -35.962  15.574  -4.482  1.00 20.00     0.011 C 
HETATM   10  C7  UNL     1     -34.633  15.843  -3.752  1.00 20.00    -0.017 C 
HETATM   11  C8  UNL     1     -33.612  14.735  -4.078  1.00 20.00     0.017 C 
HETATM   12  C9  UNL     1     -34.833  15.901  -2.234  1.00 20.00     0.017 C 
ENDBRANCH   4   6
ENDBRANCH   3   4
TORSDOF 2
ENDMDL
MODEL 9
REMARK VINA RESULT:      -4.0     11.556     12.843
REMARK  2 active torsions:
REMARK  status: ('A' for Active; 'I' for Inactive)
REMARK    1  A    between atoms: C6_6  and  N11_11 
REMARK    2  A    between atoms: C10_10  and  N11_11 
ROOT
HETATM    1  C1  UNL     1     -34.929  17.006  -1.069  1.00 20.00     0.013 C 
HETATM    2  C2  UNL     1     -34.191  16.661  -1.951  1.00 20.00    -0.087 C 
HETATM    3  C10 UNL     1     -33.288  16.244  -3.026  1.00 20.00     0.362 C 
ENDROOT
BRANCH   3   4
HETATM    4  N11 UNL     1     -33.855  15.127  -3.770  1.00 20.00     0.099 N 
HETATM    5  H28 UNL     1     -34.508  14.622  -3.170  1.00 20.00     0.317 HD
BRANCH   4   6
HETATM    6  C6  UNL     1     -34.557  15.592  -4.957  1.00 20.00     0.229 C 
HETATM    7  C4  UNL     1     -33.955  15.033  -6.247  1.00 20.00     0.036 C 
HETATM    8  C3  UNL     1     -35.076  15.133  -7.284  1.00 20.00     0.003 C 
HETATM    9  C5  UNL     1     -36.345  15.523  -6.518  1.00 20.00     0.011 C 
HETATM   10  C7  UNL     1     -36.050  15.206  -5.040  1.00 20.00    -0.017 C 
HETATM   11  C8  UNL     1     -36.316  13.715  -4.752  1.00 20.00     0.017 C 
HETATM   12  C9  UNL     1     -36.918  16.053  -4.104  1.00 20.00     0.017 C 
ENDBRANCH   4   6
ENDBRANCH   3   4
TORSDOF 2
ENDMDL
