MODEL 1
REMARK VINA RESULT:      -4.3      0.000      0.000
REMARK  0 active torsions:
REMARK  status: ('A' for Active; 'I' for Inactive)
ROOT
HETATM    1  C1  UNL     1     -33.135  17.300  -1.958  1.00 20.00     0.021 C 
HETATM    2  C2  UNL     1     -32.781  16.633  -3.066  1.00 20.00     0.001 C 
HETATM    3  C3  UNL     1     -35.349  16.308  -1.892  1.00 20.00     0.003 C 
HETATM    4  C4  UNL     1     -34.486  17.236  -1.452  1.00 20.00     0.030 C 
HETATM    5  C5  UNL     1     -34.950  15.290  -2.944  1.00 20.00     0.033 C 
HETATM    6  C6  UNL     1     -33.764  15.780  -3.847  1.00 20.00     0.058 C 
HETATM    7  C7  UNL     1     -36.186  14.810  -3.717  1.00 20.00     0.016 C 
HETATM    8  C8  UNL     1     -33.035  14.583  -4.474  1.00 20.00     0.037 C 
HETATM    9 CL9  UNL     1     -34.942  18.349  -0.215  1.00 20.00    -0.085 Cl
HETATM   10 CL10 UNL     1     -34.353  16.833  -5.199  1.00 20.00    -0.115 Cl
ENDROOT
TORSDOF 0
ENDMDL
MODEL 2
REMARK VINA RESULT:      -4.2      1.267      4.111
REMARK  0 active torsions:
REMARK  status: ('A' for Active; 'I' for Inactive)
ROOT
HETATM    1  C1  UNL     1     -34.984  15.511  -2.659  1.00 20.00     0.021 C 
HETATM    2  C2  UNL     1     -35.312  16.370  -1.682  1.00 20.00     0.001 C 
HETATM    3  C3  UNL     1     -32.878  16.623  -3.130  1.00 20.00     0.003 C 
HETATM    4  C4  UNL     1     -33.817  15.731  -3.481  1.00 20.00     0.030 C 
HETATM    5  C5  UNL     1     -33.001  17.445  -1.861  1.00 20.00     0.033 C 
HETATM    6  C6  UNL     1     -34.488  17.608  -1.382  1.00 20.00     0.058 C 
HETATM    7  C7  UNL     1     -32.228  18.763  -2.002  1.00 20.00     0.016 C 
HETATM    8  C8  UNL     1     -34.538  17.919   0.120  1.00 20.00     0.037 C 
HETATM    9 CL9  UNL     1     -33.630  14.766  -4.899  1.00 20.00    -0.085 Cl
HETATM   10 CL10 UNL     1     -35.317  18.964  -2.251  1.00 20.00    -0.115 Cl
ENDROOT
TORSDOF 0
ENDMDL
MODEL 3
REMARK VINA RESULT:      -4.1      1.790      2.742
REMARK  0 active torsions:
REMARK  status: ('A' for Active; 'I' for Inactive)
ROOT
HETATM    1  C1  UNL     1     -36.414  16.658  -2.976  1.00 20.00     0.021 C 
HETATM    2  C2  UNL     1     -36.534  16.111  -4.195  1.00 20.00     0.001 C 
HETATM    3  C3  UNL     1     -34.129  15.888  -2.695  1.00 20.00     0.003 C 
HETATM    4  C4  UNL     1     -35.242  16.419  -2.166  1.00 20.00     0.030 C 
HETATM    5  C5  UNL     1     -34.052  15.508  -4.162  1.00 20.00     0.033 C 
HETATM    6  C6  UNL     1     -35.461  15.219  -4.792  1.00 20.00     0.058 C 
HETATM    7  C7  UNL     1     -33.019  14.392  -4.370  1.00 20.00     0.016 C 
HETATM    8  C8  UNL     1     -35.416  15.403  -6.315  1.00 20.00     0.037 C 
HETATM    9 CL9  UNL     1     -35.291  16.897  -0.509  1.00 20.00    -0.085 Cl
HETATM   10 CL10 UNL     1     -35.999  13.522  -4.458  1.00 20.00    -0.115 Cl
ENDROOT
TORSDOF 0
ENDMDL
MODEL 4
REMARK VINA RESULT:      -3.9      1.547      2.122
REMARK  0 active torsions:
REMARK  status: ('A' for Active; 'I' for Inactive)
ROOT
HETATM    1  C1  UNL     1     -33.030  15.570  -3.454  1.00 20.00     0.021 C 
HETATM    2  C2  UNL     1     -33.813  14.829  -4.253  1.00 20.00     0.001 C 
HETATM    3  C3  UNL     1     -34.890  16.861  -2.582  1.00 20.00     0.003 C 
HETATM    4  C4  UNL     1     -33.566  16.690  -2.718  1.00 20.00     0.030 C 
HETATM    5  C5  UNL     1     -35.882  15.894  -3.199  1.00 20.00     0.033 C 
HETATM    6  C6  UNL     1     -35.292  15.118  -4.429  1.00 20.00     0.058 C 
HETATM    7  C7  UNL     1     -37.217  16.600  -3.469  1.00 20.00     0.016 C 
HETATM    8  C8  UNL     1     -36.058  13.807  -4.656  1.00 20.00     0.037 C 
HETATM    9 CL9  UNL     1     -32.453  17.770  -1.962  1.00 20.00    -0.085 Cl
HETATM   10 CL10 UNL     1     -35.417  16.096  -5.949  1.00 20.00    -0.115 Cl
ENDROOT
TORSDOF 0
ENDMDL
MODEL 5
REMARK VINA RESULT:      -3.8      1.912      2.620
REMARK  0 active torsions:
REMARK  status: ('A' for Active; 'I' for Inactive)
ROOT
HETATM    1  C1  UNL     1     -34.014  16.903  -1.951  1.00 20.00     0.021 C 
HETATM    2  C2  UNL     1     -34.717  15.830  -2.341  1.00 20.00     0.001 C 
HETATM    3  C3  UNL     1     -33.788  17.758  -4.211  1.00 20.00     0.003 C 
HETATM    4  C4  UNL     1     -33.427  17.799  -2.919  1.00 20.00     0.030 C 
HETATM    5  C5  UNL     1     -34.820  16.767  -4.715  1.00 20.00     0.033 C 
HETATM    6  C6  UNL     1     -34.938  15.494  -3.804  1.00 20.00     0.058 C 
HETATM    7  C7  UNL     1     -34.592  16.470  -6.203  1.00 20.00     0.016 C 
HETATM    8  C8  UNL     1     -36.308  14.827  -3.987  1.00 20.00     0.037 C 
HETATM    9 CL9  UNL     1     -32.293  18.971  -2.356  1.00 20.00    -0.085 Cl
HETATM   10 CL10 UNL     1     -33.670  14.267  -4.217  1.00 20.00    -0.115 Cl
ENDROOT
TORSDOF 0
ENDMDL
MODEL 6
REMARK VINA RESULT:      -3.8      2.043      3.949
REMARK  0 active torsions:
REMARK  status: ('A' for Active; 'I' for Inactive)
ROOT
HETATM    1  C1  UNL     1     -33.780  14.883  -4.965  1.00 20.00     0.021 C 
HETATM    2  C2  UNL     1     -33.311  15.361  -3.803  1.00 20.00     0.001 C 
HETATM    3  C3  UNL     1     -35.277  16.763  -5.303  1.00 20.00     0.003 C 
HETATM    4  C4  UNL     1     -34.877  15.529  -5.646  1.00 20.00     0.030 C 
HETATM    5  C5  UNL     1     -34.603  17.532  -4.182  1.00 20.00     0.033 C 
HETATM    6  C6  UNL     1     -33.896  16.595  -3.140  1.00 20.00     0.058 C 
HETATM    7  C7  UNL     1     -35.578  18.547  -3.570  1.00 20.00     0.016 C 
HETATM    8  C8  UNL     1     -32.794  17.358  -2.392  1.00 20.00     0.037 C 
HETATM    9 CL9  UNL     1     -35.620  14.695  -6.961  1.00 20.00    -0.085 Cl
HETATM   10 CL10 UNL     1     -35.068  15.974  -1.907  1.00 20.00    -0.115 Cl
ENDROOT
TORSDOF 0
ENDMDL
MODEL 7
REMARK VINA RESULT:      -3.8      1.634      1.845
REMARK  0 active torsions:
REMARK  status: ('A' for Active; 'I' for Inactive)
ROOT
HETATM    1  C1  UNL     1     -34.070  17.247  -3.522  1.00 20.00     0.021 C 
HETATM    2  C2  UNL     1     -34.134  16.947  -4.828  1.00 20.00     0.001 C 
HETATM    3  C3  UNL     1     -35.166  15.189  -2.847  1.00 20.00     0.003 C 
HETATM    4  C4  UNL     1     -34.721  16.417  -2.536  1.00 20.00     0.030 C 
HETATM    5  C5  UNL     1     -35.012  14.621  -4.245  1.00 20.00     0.033 C 
HETATM    6  C6  UNL     1     -34.884  15.733  -5.345  1.00 20.00     0.058 C 
HETATM    7  C7  UNL     1     -36.102  13.575  -4.518  1.00 20.00     0.016 C 
HETATM    8  C8  UNL     1     -34.183  15.178  -6.592  1.00 20.00     0.037 C 
HETATM    9 CL9  UNL     1     -34.855  17.023  -0.927  1.00 20.00    -0.085 Cl
HETATM   10 CL10 UNL     1     -36.509  16.349  -5.856  1.00 20.00    -0.115 Cl
ENDROOT
TORSDOF 0
ENDMDL
MODEL 8
REMARK VINA RESULT:      -3.7      2.423      3.927
REMARK  0 active torsions:
REMARK  status: ('A' for Active; 'I' for Inactive)
ROOT
HETATM    1  C1  UNL     1     -36.830  14.212  -4.426  1.00 20.00     0.021 C 
HETATM    2  C2  UNL     1     -35.552  14.020  -4.066  1.00 20.00     0.001 C 
HETATM    3  C3  UNL     1     -36.430  16.483  -5.182  1.00 20.00     0.003 C 
HETATM    4  C4  UNL     1     -37.294  15.508  -4.858  1.00 20.00     0.030 C 
HETATM    5  C5  UNL     1     -34.930  16.271  -5.102  1.00 20.00     0.033 C 
HETATM    6  C6  UNL     1     -34.528  15.140  -4.091  1.00 20.00     0.058 C 
HETATM    7  C7  UNL     1     -34.213  17.609  -4.882  1.00 20.00     0.016 C 
HETATM    8  C8  UNL     1     -33.144  14.574  -4.439  1.00 20.00     0.037 C 
HETATM    9 CL9  UNL     1     -38.996  15.751  -5.010  1.00 20.00    -0.085 Cl
HETATM   10 CL10 UNL     1     -34.453  15.767  -2.393  1.00 20.00    -0.115 Cl
ENDROOT
TORSDOF 0
ENDMDL
MODEL 9
REMARK VINA RESULT:      -3.7      1.948      2.301
REMARK  0 active torsions:
REMARK  status: ('A' for Active; 'I' for Inactive)
ROOT
HETATM    1  C1  UNL     1     -33.198  18.474  -3.812  1.00 20.00     0.021 C 
HETATM    2  C2  UNL     1     -33.981  18.134  -4.847  1.00 20.00     0.001 C 
HETATM    3  C3  UNL     1     -33.229  16.239  -2.866  1.00 20.00     0.003 C 
HETATM    4  C4  UNL     1     -32.939  17.543  -2.739  1.00 20.00     0.030 C 
HETATM    5  C5  UNL     1     -33.847  15.684  -4.135  1.00 20.00     0.033 C 
HETATM    6  C6  UNL     1     -34.634  16.768  -4.954  1.00 20.00     0.058 C 
HETATM    7  C7  UNL     1     -34.647  14.412  -3.826  1.00 20.00     0.016 C 
HETATM    8  C8  UNL     1     -34.742  16.354  -6.428  1.00 20.00     0.037 C 
HETATM    9 CL9  UNL     1     -32.184  18.145  -1.309  1.00 20.00    -0.085 Cl
HETATM   10 CL10 UNL     1     -36.317  16.984  -4.319  1.00 20.00    -0.115 Cl
ENDROOT
TORSDOF 0
ENDMDL
