MODEL 1
REMARK VINA RESULT:      -4.0      0.000      0.000
REMARK  3 active torsions:
REMARK  status: ('A' for Active; 'I' for Inactive)
REMARK    1  A    between atoms: C1_1  and  C6_6 
REMARK    2  A    between atoms: C2_2  and  C7_7 
REMARK    3  A    between atoms: C5_5  and  C6_6 
ROOT
HETATM    1  C3  UNL     1     -30.580  18.463   1.007  1.00 20.00     0.124 A 
HETATM    2  C4  UNL     1     -31.792  18.578   1.653  1.00 20.00     0.070 A 
HETATM    3  C5  UNL     1     -31.892  18.445  -0.751  1.00 20.00     0.085 A 
HETATM    4  N8  UNL     1     -30.634  18.386  -0.371  1.00 20.00    -0.257 NA
HETATM    5  S9  UNL     1     -33.060  18.593   0.498  1.00 20.00    -0.084 SA
ENDROOT
BRANCH   3   6
HETATM    6  C6  UNL     1     -32.353  18.391  -2.184  1.00 20.00     0.161 C 
BRANCH   6   7
HETATM    7  C1  UNL     1     -33.304  17.297  -2.413  1.00 20.00    -0.099 C 
HETATM    8  C2  UNL     1     -34.084  16.404  -2.603  1.00 20.00    -0.091 C 
BRANCH   8   9
HETATM    9  C7  UNL     1     -35.034  15.319  -2.835  1.00 20.00     0.208 C 
HETATM   10 CL10 UNL     1     -34.292  14.128  -3.920  1.00 20.00    -0.117 Cl
ENDBRANCH   8   9
ENDBRANCH   6   7
ENDBRANCH   3   6
TORSDOF 3
ENDMDL
MODEL 2
REMARK VINA RESULT:      -4.0      9.562     11.779
REMARK  3 active torsions:
REMARK  status: ('A' for Active; 'I' for Inactive)
REMARK    1  A    between atoms: C1_1  and  C6_6 
REMARK    2  A    between atoms: C2_2  and  C7_7 
REMARK    3  A    between atoms: C5_5  and  C6_6 
ROOT
HETATM    1  C3  UNL     1     -24.843  19.248   3.499  1.00 20.00     0.124 A 
HETATM    2  C4  UNL     1     -26.112  19.263   2.961  1.00 20.00     0.070 A 
HETATM    3  C5  UNL     1     -25.992  19.229   5.367  1.00 20.00     0.085 A 
HETATM    4  N8  UNL     1     -24.771  19.229   4.878  1.00 20.00    -0.257 NA
HETATM    5  S9  UNL     1     -27.272  19.252   4.225  1.00 20.00    -0.084 SA
ENDROOT
BRANCH   3   6
HETATM    6  C6  UNL     1     -26.321  19.211   6.837  1.00 20.00     0.161 C 
BRANCH   6   7
HETATM    7  C1  UNL     1     -25.127  19.003   7.664  1.00 20.00    -0.099 C 
HETATM    8  C2  UNL     1     -24.152  18.833   8.345  1.00 20.00    -0.091 C 
BRANCH   8   9
HETATM    9  C7  UNL     1     -22.967  18.627   9.173  1.00 20.00     0.208 C 
HETATM   10 CL10 UNL     1     -22.359  16.982   8.907  1.00 20.00    -0.117 Cl
ENDBRANCH   8   9
ENDBRANCH   6   7
ENDBRANCH   3   6
TORSDOF 3
ENDMDL
MODEL 3
REMARK VINA RESULT:      -3.9     11.152     13.137
REMARK  3 active torsions:
REMARK  status: ('A' for Active; 'I' for Inactive)
REMARK    1  A    between atoms: C1_1  and  C6_6 
REMARK    2  A    between atoms: C2_2  and  C7_7 
REMARK    3  A    between atoms: C5_5  and  C6_6 
ROOT
HETATM    1  C3  UNL     1     -24.535  16.067  11.353  1.00 20.00     0.124 A 
HETATM    2  C4  UNL     1     -25.435  16.882  12.006  1.00 20.00     0.070 A 
HETATM    3  C5  UNL     1     -24.239  17.892  10.174  1.00 20.00     0.085 A 
HETATM    4  N8  UNL     1     -23.849  16.643  10.302  1.00 20.00    -0.257 NA
HETATM    5  S9  UNL     1     -25.429  18.438  11.284  1.00 20.00    -0.084 SA
ENDROOT
BRANCH   3   6
HETATM    6  C6  UNL     1     -23.714  18.847   9.134  1.00 20.00     0.161 C 
BRANCH   6   7
HETATM    7  C1  UNL     1     -24.606  18.937   7.973  1.00 20.00    -0.099 C 
HETATM    8  C2  UNL     1     -25.336  19.007   7.021  1.00 20.00    -0.091 C 
BRANCH   8   9
HETATM    9  C7  UNL     1     -26.224  19.092   5.864  1.00 20.00     0.208 C 
HETATM   10 CL10 UNL     1     -25.240  19.263   4.398  1.00 20.00    -0.117 Cl
ENDBRANCH   8   9
ENDBRANCH   6   7
ENDBRANCH   3   6
TORSDOF 3
ENDMDL
MODEL 4
REMARK VINA RESULT:      -3.9     11.171     12.001
REMARK  3 active torsions:
REMARK  status: ('A' for Active; 'I' for Inactive)
REMARK    1  A    between atoms: C1_1  and  C6_6 
REMARK    2  A    between atoms: C2_2  and  C7_7 
REMARK    3  A    between atoms: C5_5  and  C6_6 
ROOT
HETATM    1  C3  UNL     1     -34.164   6.606   6.039  1.00 20.00     0.124 A 
HETATM    2  C4  UNL     1     -34.984   5.498   6.018  1.00 20.00     0.070 A 
HETATM    3  C5  UNL     1     -33.597   5.816   4.073  1.00 20.00     0.085 A 
HETATM    4  N8  UNL     1     -33.367   6.791   4.925  1.00 20.00    -0.257 NA
HETATM    5  S9  UNL     1     -34.759   4.645   4.547  1.00 20.00    -0.084 SA
ENDROOT
BRANCH   3   6
HETATM    6  C6  UNL     1     -32.916   5.674   2.737  1.00 20.00     0.161 C 
BRANCH   6   7
HETATM    7  C1  UNL     1     -32.826   6.956   2.028  1.00 20.00    -0.099 C 
HETATM    8  C2  UNL     1     -32.755   8.004   1.446  1.00 20.00    -0.091 C 
BRANCH   8   9
HETATM    9  C7  UNL     1     -32.670   9.278   0.736  1.00 20.00     0.208 C 
HETATM   10 CL10 UNL     1     -33.719   9.212  -0.692  1.00 20.00    -0.117 Cl
ENDBRANCH   8   9
ENDBRANCH   6   7
ENDBRANCH   3   6
TORSDOF 3
ENDMDL
MODEL 5
REMARK VINA RESULT:      -3.9      3.933      5.985
REMARK  3 active torsions:
REMARK  status: ('A' for Active; 'I' for Inactive)
REMARK    1  A    between atoms: C1_1  and  C6_6 
REMARK    2  A    between atoms: C2_2  and  C7_7 
REMARK    3  A    between atoms: C5_5  and  C6_6 
ROOT
HETATM    1  C3  UNL     1     -36.321  13.598  -4.530  1.00 20.00     0.124 A 
HETATM    2  C4  UNL     1     -37.016  14.751  -4.236  1.00 20.00     0.070 A 
HETATM    3  C5  UNL     1     -34.616  14.907  -4.096  1.00 20.00     0.085 A 
HETATM    4  N8  UNL     1     -34.944  13.685  -4.451  1.00 20.00    -0.257 NA
HETATM    5  S9  UNL     1     -35.912  16.003  -3.841  1.00 20.00    -0.084 SA
ENDROOT
BRANCH   3   6
HETATM    6  C6  UNL     1     -33.201  15.389  -3.905  1.00 20.00     0.161 C 
BRANCH   6   7
HETATM    7  C1  UNL     1     -33.110  16.426  -2.871  1.00 20.00    -0.099 C 
HETATM    8  C2  UNL     1     -33.032  17.277  -2.026  1.00 20.00    -0.091 C 
BRANCH   8   9
HETATM    9  C7  UNL     1     -32.936  18.311  -1.000  1.00 20.00     0.208 C 
HETATM   10 CL10 UNL     1     -31.265  18.380  -0.408  1.00 20.00    -0.117 Cl
ENDBRANCH   8   9
ENDBRANCH   6   7
ENDBRANCH   3   6
TORSDOF 3
ENDMDL
MODEL 6
REMARK VINA RESULT:      -3.9      4.657      6.935
REMARK  3 active torsions:
REMARK  status: ('A' for Active; 'I' for Inactive)
REMARK    1  A    between atoms: C1_1  and  C6_6 
REMARK    2  A    between atoms: C2_2  and  C7_7 
REMARK    3  A    between atoms: C5_5  and  C6_6 
ROOT
HETATM    1  C3  UNL     1     -39.199  14.878  -4.489  1.00 20.00     0.124 A 
HETATM    2  C4  UNL     1     -38.848  16.134  -4.935  1.00 20.00     0.070 A 
HETATM    3  C5  UNL     1     -37.019  14.663  -4.389  1.00 20.00     0.085 A 
HETATM    4  N8  UNL     1     -38.153  14.032  -4.175  1.00 20.00    -0.257 NA
HETATM    5  S9  UNL     1     -37.138  16.275  -4.967  1.00 20.00    -0.084 SA
ENDROOT
BRANCH   3   6
HETATM    6  C6  UNL     1     -35.655  14.066  -4.160  1.00 20.00     0.161 C 
BRANCH   6   7
HETATM    7  C1  UNL     1     -34.724  15.035  -3.571  1.00 20.00    -0.099 C 
HETATM    8  C2  UNL     1     -33.963  15.831  -3.092  1.00 20.00    -0.091 C 
BRANCH   8   9
HETATM    9  C7  UNL     1     -33.037  16.799  -2.510  1.00 20.00     0.208 C 
HETATM   10 CL10 UNL     1     -33.817  17.577  -1.120  1.00 20.00    -0.117 Cl
ENDBRANCH   8   9
ENDBRANCH   6   7
ENDBRANCH   3   6
TORSDOF 3
ENDMDL
MODEL 7
REMARK VINA RESULT:      -3.9      4.184      6.105
REMARK  3 active torsions:
REMARK  status: ('A' for Active; 'I' for Inactive)
REMARK    1  A    between atoms: C1_1  and  C6_6 
REMARK    2  A    between atoms: C2_2  and  C7_7 
REMARK    3  A    between atoms: C5_5  and  C6_6 
ROOT
HETATM    1  C3  UNL     1     -34.135  15.129  -6.923  1.00 20.00     0.124 A 
HETATM    2  C4  UNL     1     -34.608  16.422  -6.987  1.00 20.00     0.070 A 
HETATM    3  C5  UNL     1     -34.175  15.569  -4.775  1.00 20.00     0.085 A 
HETATM    4  N8  UNL     1     -33.885  14.638  -5.657  1.00 20.00    -0.257 NA
HETATM    5  S9  UNL     1     -34.753  17.059  -5.401  1.00 20.00    -0.084 SA
ENDROOT
BRANCH   3   6
HETATM    6  C6  UNL     1     -34.033  15.407  -3.285  1.00 20.00     0.161 C 
BRANCH   6   7
HETATM    7  C1  UNL     1     -33.383  16.567  -2.666  1.00 20.00    -0.099 C 
HETATM    8  C2  UNL     1     -32.851  17.516  -2.155  1.00 20.00    -0.091 C 
BRANCH   8   9
HETATM    9  C7  UNL     1     -32.204  18.669  -1.534  1.00 20.00     0.208 C 
HETATM   10 CL10 UNL     1     -31.009  18.092  -0.357  1.00 20.00    -0.117 Cl
ENDBRANCH   8   9
ENDBRANCH   6   7
ENDBRANCH   3   6
TORSDOF 3
ENDMDL
MODEL 8
REMARK VINA RESULT:      -3.8      4.442      6.517
REMARK  3 active torsions:
REMARK  status: ('A' for Active; 'I' for Inactive)
REMARK    1  A    between atoms: C1_1  and  C6_6 
REMARK    2  A    between atoms: C2_2  and  C7_7 
REMARK    3  A    between atoms: C5_5  and  C6_6 
ROOT
HETATM    1  C3  UNL     1     -34.274  15.194  -7.388  1.00 20.00     0.124 A 
HETATM    2  C4  UNL     1     -35.598  15.575  -7.419  1.00 20.00     0.070 A 
HETATM    3  C5  UNL     1     -34.786  14.771  -5.298  1.00 20.00     0.085 A 
HETATM    4  N8  UNL     1     -33.805  14.733  -6.173  1.00 20.00    -0.257 NA
HETATM    5  S9  UNL     1     -36.298  15.349  -5.869  1.00 20.00    -0.084 SA
ENDROOT
BRANCH   3   6
HETATM    6  C6  UNL     1     -34.661  14.345  -3.859  1.00 20.00     0.161 C 
BRANCH   6   7
HETATM    7  C1  UNL     1     -34.410  15.485  -2.969  1.00 20.00    -0.099 C 
HETATM    8  C2  UNL     1     -34.209  16.420  -2.243  1.00 20.00    -0.091 C 
BRANCH   8   9
HETATM    9  C7  UNL     1     -33.964  17.558  -1.360  1.00 20.00     0.208 C 
HETATM   10 CL10 UNL     1     -32.235  17.953  -1.397  1.00 20.00    -0.117 Cl
ENDBRANCH   8   9
ENDBRANCH   6   7
ENDBRANCH   3   6
TORSDOF 3
ENDMDL
MODEL 9
REMARK VINA RESULT:      -3.7      1.369      1.744
REMARK  3 active torsions:
REMARK  status: ('A' for Active; 'I' for Inactive)
REMARK    1  A    between atoms: C1_1  and  C6_6 
REMARK    2  A    between atoms: C2_2  and  C7_7 
REMARK    3  A    between atoms: C5_5  and  C6_6 
ROOT
HETATM    1  C3  UNL     1     -31.411  18.517  -0.732  1.00 20.00     0.124 A 
HETATM    2  C4  UNL     1     -31.630  18.876   0.581  1.00 20.00     0.070 A 
HETATM    3  C5  UNL     1     -33.515  17.919  -0.575  1.00 20.00     0.085 A 
HETATM    4  N8  UNL     1     -32.490  17.967  -1.397  1.00 20.00    -0.257 NA
HETATM    5  S9  UNL     1     -33.251  18.518   1.012  1.00 20.00    -0.084 SA
ENDROOT
BRANCH   3   6
HETATM    6  C6  UNL     1     -34.875  17.382  -0.938  1.00 20.00     0.161 C 
BRANCH   6   7
HETATM    7  C1  UNL     1     -34.795  16.338  -1.967  1.00 20.00    -0.099 C 
HETATM    8  C2  UNL     1     -34.732  15.482  -2.806  1.00 20.00    -0.091 C 
BRANCH   8   9
HETATM    9  C7  UNL     1     -34.654  14.439  -3.826  1.00 20.00     0.208 C 
HETATM   10 CL10 UNL     1     -33.002  14.385  -4.469  1.00 20.00    -0.117 Cl
ENDBRANCH   8   9
ENDBRANCH   6   7
ENDBRANCH   3   6
TORSDOF 3
ENDMDL
