MODEL 1
REMARK VINA RESULT:      -4.2      0.000      0.000
REMARK  0 active torsions:
REMARK  status: ('A' for Active; 'I' for Inactive)
ROOT
HETATM    1  C1  UNL     1     -33.572   6.577   4.704  1.00 20.00    -0.081 C 
HETATM    2  C2  UNL     1     -33.785   7.015   5.951  1.00 20.00     0.015 C 
HETATM    3  C3  UNL     1     -32.599   7.230   3.758  1.00 20.00     0.034 C 
HETATM    4  C4  UNL     1     -32.991   6.664   2.402  1.00 20.00     0.005 C 
HETATM    5  C5  UNL     1     -33.467   5.253   2.725  1.00 20.00     0.013 C 
HETATM    6  C6  UNL     1     -34.267   5.400   4.036  1.00 20.00    -0.025 C 
HETATM    7  C7  UNL     1     -35.738   5.737   3.738  1.00 20.00     0.019 C 
HETATM    8  C8  UNL     1     -34.191   4.105   4.853  1.00 20.00     0.019 C 
ENDROOT
TORSDOF 0
ENDMDL
MODEL 2
REMARK VINA RESULT:      -4.2     15.660     16.791
REMARK  0 active torsions:
REMARK  status: ('A' for Active; 'I' for Inactive)
ROOT
HETATM    1  C1  UNL     1     -25.287  18.572  11.064  1.00 20.00    -0.081 C 
HETATM    2  C2  UNL     1     -26.183  18.737  12.046  1.00 20.00     0.015 C 
HETATM    3  C3  UNL     1     -25.405  19.244   9.722  1.00 20.00     0.034 C 
HETATM    4  C4  UNL     1     -24.432  18.465   8.851  1.00 20.00     0.005 C 
HETATM    5  C5  UNL     1     -23.320  18.072   9.815  1.00 20.00     0.013 C 
HETATM    6  C6  UNL     1     -24.050  17.688  11.119  1.00 20.00    -0.025 C 
HETATM    7  C7  UNL     1     -24.444  16.201  11.101  1.00 20.00     0.019 C 
HETATM    8  C8  UNL     1     -23.155  17.970  12.331  1.00 20.00     0.019 C 
ENDROOT
TORSDOF 0
ENDMDL
MODEL 3
REMARK VINA RESULT:      -4.1     15.541     16.817
REMARK  0 active torsions:
REMARK  status: ('A' for Active; 'I' for Inactive)
ROOT
HETATM    1  C1  UNL     1     -24.730  18.289  10.241  1.00 20.00    -0.081 C 
HETATM    2  C2  UNL     1     -23.970  18.207   9.141  1.00 20.00     0.015 C 
HETATM    3  C3  UNL     1     -25.881  19.251  10.376  1.00 20.00     0.034 C 
HETATM    4  C4  UNL     1     -26.157  19.263  11.871  1.00 20.00     0.005 C 
HETATM    5  C5  UNL     1     -25.824  17.842  12.310  1.00 20.00     0.013 C 
HETATM    6  C6  UNL     1     -24.556  17.473  11.513  1.00 20.00    -0.025 C 
HETATM    7  C7  UNL     1     -23.292  17.913  12.272  1.00 20.00     0.019 C 
HETATM    8  C8  UNL     1     -24.507  15.961  11.264  1.00 20.00     0.019 C 
ENDROOT
TORSDOF 0
ENDMDL
MODEL 4
REMARK VINA RESULT:      -4.0      8.799      9.461
REMARK  0 active torsions:
REMARK  status: ('A' for Active; 'I' for Inactive)
ROOT
HETATM    1  C1  UNL     1     -42.183   6.440   0.529  1.00 20.00    -0.081 C 
HETATM    2  C2  UNL     1     -42.696   5.550   1.389  1.00 20.00     0.015 C 
HETATM    3  C3  UNL     1     -41.688   7.797   0.949  1.00 20.00     0.034 C 
HETATM    4  C4  UNL     1     -41.592   8.559  -0.363  1.00 20.00     0.005 C 
HETATM    5  C5  UNL     1     -41.206   7.487  -1.375  1.00 20.00     0.013 C 
HETATM    6  C6  UNL     1     -42.040   6.253  -0.974  1.00 20.00    -0.025 C 
HETATM    7  C7  UNL     1     -43.417   6.283  -1.658  1.00 20.00     0.019 C 
HETATM    8  C8  UNL     1     -41.301   4.965  -1.358  1.00 20.00     0.019 C 
ENDROOT
TORSDOF 0
ENDMDL
MODEL 5
REMARK VINA RESULT:      -4.0     15.638     17.160
REMARK  0 active torsions:
REMARK  status: ('A' for Active; 'I' for Inactive)
ROOT
HETATM    1  C1  UNL     1     -24.022  18.473   9.830  1.00 20.00    -0.081 C 
HETATM    2  C2  UNL     1     -25.148  18.865   9.218  1.00 20.00     0.015 C 
HETATM    3  C3  UNL     1     -22.649  18.737   9.272  1.00 20.00     0.034 C 
HETATM    4  C4  UNL     1     -21.760  17.791  10.063  1.00 20.00     0.005 C 
HETATM    5  C5  UNL     1     -22.423  17.736  11.434  1.00 20.00     0.013 C 
HETATM    6  C6  UNL     1     -23.936  17.699  11.136  1.00 20.00    -0.025 C 
HETATM    7  C7  UNL     1     -24.414  16.250  10.941  1.00 20.00     0.019 C 
HETATM    8  C8  UNL     1     -24.719  18.350  12.282  1.00 20.00     0.019 C 
ENDROOT
TORSDOF 0
ENDMDL
MODEL 6
REMARK VINA RESULT:      -4.0     11.808     12.640
REMARK  0 active torsions:
REMARK  status: ('A' for Active; 'I' for Inactive)
ROOT
HETATM    1  C1  UNL     1     -35.130  15.462  -3.178  1.00 20.00    -0.081 C 
HETATM    2  C2  UNL     1     -36.125  14.687  -3.628  1.00 20.00     0.015 C 
HETATM    3  C3  UNL     1     -35.150  16.123  -1.826  1.00 20.00     0.034 C 
HETATM    4  C4  UNL     1     -34.057  17.175  -1.931  1.00 20.00     0.005 C 
HETATM    5  C5  UNL     1     -33.026  16.532  -2.851  1.00 20.00     0.013 C 
HETATM    6  C6  UNL     1     -33.860  15.819  -3.935  1.00 20.00    -0.025 C 
HETATM    7  C7  UNL     1     -34.172  16.779  -5.096  1.00 20.00     0.019 C 
HETATM    8  C8  UNL     1     -33.104  14.596  -4.467  1.00 20.00     0.019 C 
ENDROOT
TORSDOF 0
ENDMDL
MODEL 7
REMARK VINA RESULT:      -3.9     15.420     16.862
REMARK  0 active torsions:
REMARK  status: ('A' for Active; 'I' for Inactive)
ROOT
HETATM    1  C1  UNL     1     -25.055  16.756  11.862  1.00 20.00    -0.081 C 
HETATM    2  C2  UNL     1     -24.585  15.512  11.695  1.00 20.00     0.015 C 
HETATM    3  C3  UNL     1     -26.458  17.050  12.319  1.00 20.00     0.034 C 
HETATM    4  C4  UNL     1     -26.640  18.520  11.976  1.00 20.00     0.005 C 
HETATM    5  C5  UNL     1     -25.249  19.110  12.172  1.00 20.00     0.013 C 
HETATM    6  C6  UNL     1     -24.289  18.045  11.605  1.00 20.00    -0.025 C 
HETATM    7  C7  UNL     1     -24.074  18.257  10.097  1.00 20.00     0.019 C 
HETATM    8  C8  UNL     1     -22.940  18.106  12.332  1.00 20.00     0.019 C 
ENDROOT
TORSDOF 0
ENDMDL
MODEL 8
REMARK VINA RESULT:      -3.8     11.670     12.539
REMARK  0 active torsions:
REMARK  status: ('A' for Active; 'I' for Inactive)
ROOT
HETATM    1  C1  UNL     1     -33.939  15.099  -3.942  1.00 20.00    -0.081 C 
HETATM    2  C2  UNL     1     -32.866  14.469  -4.440  1.00 20.00     0.015 C 
HETATM    3  C3  UNL     1     -33.897  15.926  -2.686  1.00 20.00     0.034 C 
HETATM    4  C4  UNL     1     -35.364  16.084  -2.319  1.00 20.00     0.005 C 
HETATM    5  C5  UNL     1     -36.070  16.128  -3.668  1.00 20.00     0.013 C 
HETATM    6  C6  UNL     1     -35.345  15.070  -4.524  1.00 20.00    -0.025 C 
HETATM    7  C7  UNL     1     -35.984  13.684  -4.329  1.00 20.00     0.019 C 
HETATM    8  C8  UNL     1     -35.398  15.458  -6.006  1.00 20.00     0.019 C 
ENDROOT
TORSDOF 0
ENDMDL
MODEL 9
REMARK VINA RESULT:      -3.8     11.842     12.654
REMARK  0 active torsions:
REMARK  status: ('A' for Active; 'I' for Inactive)
ROOT
HETATM    1  C1  UNL     1     -33.420  16.976  -2.429  1.00 20.00    -0.081 C 
HETATM    2  C2  UNL     1     -32.585  17.921  -1.975  1.00 20.00     0.015 C 
HETATM    3  C3  UNL     1     -32.981  15.862  -3.340  1.00 20.00     0.034 C 
HETATM    4  C4  UNL     1     -34.292  15.316  -3.886  1.00 20.00     0.005 C 
HETATM    5  C5  UNL     1     -35.269  15.504  -2.731  1.00 20.00     0.013 C 
HETATM    6  C6  UNL     1     -34.909  16.881  -2.134  1.00 20.00    -0.025 C 
HETATM    7  C7  UNL     1     -35.678  18.001  -2.856  1.00 20.00     0.019 C 
HETATM    8  C8  UNL     1     -35.236  16.912  -0.637  1.00 20.00     0.019 C 
ENDROOT
TORSDOF 0
ENDMDL
