MODEL 1
REMARK VINA RESULT:      -4.7      0.000      0.000
REMARK  2 active torsions:
REMARK  status: ('A' for Active; 'I' for Inactive)
REMARK    1  A    between atoms: C3_3  and  C9_9 
REMARK    2  A    between atoms: C7_7  and  C9_9 
ROOT
HETATM    1  C4  UNL     1     -33.041  15.566  -3.695  1.00 20.00     0.006 C 
HETATM    2  C5  UNL     1     -34.115  14.565  -4.092  1.00 20.00     0.020 C 
HETATM    3  C6  UNL     1     -35.196  16.230  -2.733  1.00 20.00     0.025 C 
HETATM    4  C7  UNL     1     -33.673  16.351  -2.539  1.00 20.00    -0.007 C 
HETATM    5  C8  UNL     1     -35.378  15.406  -4.006  1.00 20.00     0.082 C 
HETATM    6 CL12 UNL     1     -36.846  14.417  -3.972  1.00 20.00    -0.125 Cl
ENDROOT
BRANCH   4   7
HETATM    7  C9  UNL     1     -33.192  17.794  -2.485  1.00 20.00     0.071 C 
BRANCH   7   8
HETATM    8  C3  UNL     1     -32.543  18.119  -1.166  1.00 20.00     0.074 A 
HETATM    9  N10 UNL     1     -31.247  18.252  -0.987  1.00 20.00    -0.258 NA
HETATM   10  C1  UNL     1     -31.008  18.549   0.341  1.00 20.00     0.124 A 
HETATM   11  C2  UNL     1     -32.122  18.638   1.148  1.00 20.00     0.070 A 
HETATM   12  S11 UNL     1     -33.533  18.341   0.218  1.00 20.00    -0.085 SA
ENDBRANCH   7   8
ENDBRANCH   4   7
TORSDOF 2
ENDMDL
MODEL 2
REMARK VINA RESULT:      -4.6      1.287      1.421
REMARK  2 active torsions:
REMARK  status: ('A' for Active; 'I' for Inactive)
REMARK    1  A    between atoms: C3_3  and  C9_9 
REMARK    2  A    between atoms: C7_7  and  C9_9 
ROOT
HETATM    1  C4  UNL     1     -33.070  15.955  -3.463  1.00 20.00     0.006 C 
HETATM    2  C5  UNL     1     -33.646  14.724  -4.144  1.00 20.00     0.020 C 
HETATM    3  C6  UNL     1     -35.391  15.619  -2.750  1.00 20.00     0.025 C 
HETATM    4  C7  UNL     1     -34.049  16.241  -2.318  1.00 20.00    -0.007 C 
HETATM    5  C8  UNL     1     -35.136  15.026  -4.134  1.00 20.00     0.082 C 
HETATM    6 CL12 UNL     1     -36.118  13.588  -4.449  1.00 20.00    -0.125 Cl
ENDROOT
BRANCH   4   7
HETATM    7  C9  UNL     1     -34.156  17.726  -2.002  1.00 20.00     0.071 C 
BRANCH   7   8
HETATM    8  C3  UNL     1     -33.435  18.080  -0.728  1.00 20.00     0.074 A 
HETATM    9  N10 UNL     1     -34.003  18.141   0.457  1.00 20.00    -0.258 NA
HETATM   10  C1  UNL     1     -33.050  18.493   1.392  1.00 20.00     0.124 A 
HETATM   11  C2  UNL     1     -31.775  18.694   0.906  1.00 20.00     0.070 A 
HETATM   12  S11 UNL     1     -31.757  18.433  -0.790  1.00 20.00    -0.085 SA
ENDBRANCH   7   8
ENDBRANCH   4   7
TORSDOF 2
ENDMDL
MODEL 3
REMARK VINA RESULT:      -4.4      3.980      5.921
REMARK  2 active torsions:
REMARK  status: ('A' for Active; 'I' for Inactive)
REMARK    1  A    between atoms: C3_3  and  C9_9 
REMARK    2  A    between atoms: C7_7  and  C9_9 
ROOT
HETATM    1  C4  UNL     1     -35.378  15.904  -2.285  1.00 20.00     0.006 C 
HETATM    2  C5  UNL     1     -34.526  16.903  -1.518  1.00 20.00     0.020 C 
HETATM    3  C6  UNL     1     -33.176  16.108  -3.344  1.00 20.00     0.025 C 
HETATM    4  C7  UNL     1     -34.370  15.152  -3.163  1.00 20.00    -0.007 C 
HETATM    5  C8  UNL     1     -33.557  17.379  -2.588  1.00 20.00     0.082 C 
HETATM    6 CL12 UNL     1     -32.152  18.210  -1.903  1.00 20.00    -0.125 Cl
ENDROOT
BRANCH   4   7
HETATM    7  C9  UNL     1     -34.975  14.698  -4.484  1.00 20.00     0.071 C 
BRANCH   7   8
HETATM    8  C3  UNL     1     -36.459  14.948  -4.536  1.00 20.00     0.074 A 
HETATM    9  N10 UNL     1     -37.371  14.102  -4.109  1.00 20.00    -0.258 NA
HETATM   10  C1  UNL     1     -38.621  14.655  -4.309  1.00 20.00     0.124 A 
HETATM   11  C2  UNL     1     -38.640  15.909  -4.883  1.00 20.00     0.070 A 
HETATM   12  S11 UNL     1     -37.034  16.428  -5.187  1.00 20.00    -0.085 SA
ENDBRANCH   7   8
ENDBRANCH   4   7
TORSDOF 2
ENDMDL
MODEL 4
REMARK VINA RESULT:      -4.3      2.539      2.833
REMARK  2 active torsions:
REMARK  status: ('A' for Active; 'I' for Inactive)
REMARK    1  A    between atoms: C3_3  and  C9_9 
REMARK    2  A    between atoms: C7_7  and  C9_9 
ROOT
HETATM    1  C4  UNL     1     -33.113  16.014  -3.482  1.00 20.00     0.006 C 
HETATM    2  C5  UNL     1     -33.617  14.774  -4.205  1.00 20.00     0.020 C 
HETATM    3  C6  UNL     1     -35.388  15.485  -2.740  1.00 20.00     0.025 C 
HETATM    4  C7  UNL     1     -34.084  16.182  -2.308  1.00 20.00    -0.007 C 
HETATM    5  C8  UNL     1     -35.124  14.970  -4.153  1.00 20.00     0.082 C 
HETATM    6 CL12 UNL     1     -36.010  13.481  -4.511  1.00 20.00    -0.125 Cl
ENDROOT
BRANCH   4   7
HETATM    7  C9  UNL     1     -34.287  17.641  -1.925  1.00 20.00     0.071 C 
BRANCH   7   8
HETATM    8  C3  UNL     1     -35.265  17.792  -0.790  1.00 20.00     0.074 A 
HETATM    9  N10 UNL     1     -35.063  17.343   0.430  1.00 20.00    -0.258 NA
HETATM   10  C1  UNL     1     -36.161  17.655   1.208  1.00 20.00     0.124 A 
HETATM   11  C2  UNL     1     -37.178  18.334   0.570  1.00 20.00     0.070 A 
HETATM   12  S11 UNL     1     -36.752  18.600  -1.071  1.00 20.00    -0.085 SA
ENDBRANCH   7   8
ENDBRANCH   4   7
TORSDOF 2
ENDMDL
MODEL 5
REMARK VINA RESULT:      -4.3      3.742      5.613
REMARK  2 active torsions:
REMARK  status: ('A' for Active; 'I' for Inactive)
REMARK    1  A    between atoms: C3_3  and  C9_9 
REMARK    2  A    between atoms: C7_7  and  C9_9 
ROOT
HETATM    1  C4  UNL     1     -35.157  16.338  -1.634  1.00 20.00     0.006 C 
HETATM    2  C5  UNL     1     -34.233  17.483  -1.249  1.00 20.00     0.020 C 
HETATM    3  C6  UNL     1     -33.404  16.598  -3.327  1.00 20.00     0.025 C 
HETATM    4  C7  UNL     1     -34.377  15.575  -2.712  1.00 20.00    -0.007 C 
HETATM    5  C8  UNL     1     -33.683  17.911  -2.600  1.00 20.00     0.082 C 
HETATM    6 CL12 UNL     1     -32.239  18.925  -2.449  1.00 20.00    -0.125 Cl
ENDROOT
BRANCH   4   7
HETATM    7  C9  UNL     1     -35.291  14.928  -3.742  1.00 20.00     0.071 C 
BRANCH   7   8
HETATM    8  C3  UNL     1     -34.852  15.234  -5.150  1.00 20.00     0.074 A 
HETATM    9  N10 UNL     1     -33.957  14.540  -5.818  1.00 20.00    -0.258 NA
HETATM   10  C1  UNL     1     -33.802  15.100  -7.072  1.00 20.00     0.124 A 
HETATM   11  C2  UNL     1     -34.580  16.207  -7.336  1.00 20.00     0.070 A 
HETATM   12  S11 UNL     1     -35.550  16.571  -5.969  1.00 20.00    -0.085 SA
ENDBRANCH   7   8
ENDBRANCH   4   7
TORSDOF 2
ENDMDL
MODEL 6
REMARK VINA RESULT:      -4.2      3.417      5.491
REMARK  2 active torsions:
REMARK  status: ('A' for Active; 'I' for Inactive)
REMARK    1  A    between atoms: C3_3  and  C9_9 
REMARK    2  A    between atoms: C7_7  and  C9_9 
ROOT
HETATM    1  C4  UNL     1     -32.918  17.508  -1.844  1.00 20.00     0.006 C 
HETATM    2  C5  UNL     1     -33.766  18.187  -0.781  1.00 20.00     0.020 C 
HETATM    3  C6  UNL     1     -35.213  16.654  -1.940  1.00 20.00     0.025 C 
HETATM    4  C7  UNL     1     -33.943  16.865  -2.786  1.00 20.00    -0.007 C 
HETATM    5  C8  UNL     1     -34.858  17.157  -0.543  1.00 20.00     0.082 C 
HETATM    6 CL12 UNL     1     -36.252  17.836   0.310  1.00 20.00    -0.125 Cl
ENDROOT
BRANCH   4   7
HETATM    7  C9  UNL     1     -33.427  15.580  -3.417  1.00 20.00     0.071 C 
BRANCH   7   8
HETATM    8  C3  UNL     1     -34.425  14.989  -4.378  1.00 20.00     0.074 A 
HETATM    9  N10 UNL     1     -35.099  13.880  -4.163  1.00 20.00    -0.258 NA
HETATM   10  C1  UNL     1     -35.919  13.638  -5.248  1.00 20.00     0.124 A 
HETATM   11  C2  UNL     1     -35.855  14.563  -6.268  1.00 20.00     0.070 A 
HETATM   12  S11 UNL     1     -34.729  15.792  -5.864  1.00 20.00    -0.085 SA
ENDBRANCH   7   8
ENDBRANCH   4   7
TORSDOF 2
ENDMDL
MODEL 7
REMARK VINA RESULT:      -4.1      3.741      5.813
REMARK  2 active torsions:
REMARK  status: ('A' for Active; 'I' for Inactive)
REMARK    1  A    between atoms: C3_3  and  C9_9 
REMARK    2  A    between atoms: C7_7  and  C9_9 
ROOT
HETATM    1  C4  UNL     1     -34.925  17.649  -0.719  1.00 20.00     0.006 C 
HETATM    2  C5  UNL     1     -33.692  17.972   0.111  1.00 20.00     0.020 C 
HETATM    3  C6  UNL     1     -32.905  17.316  -2.066  1.00 20.00     0.025 C 
HETATM    4  C7  UNL     1     -34.374  16.874  -1.921  1.00 20.00    -0.007 C 
HETATM    5  C8  UNL     1     -32.681  18.346  -0.961  1.00 20.00     0.082 C 
HETATM    6 CL12 UNL     1     -31.019  18.338  -0.351  1.00 20.00    -0.125 Cl
ENDROOT
BRANCH   4   7
HETATM    7  C9  UNL     1     -35.191  17.102  -3.185  1.00 20.00     0.071 C 
BRANCH   7   8
HETATM    8  C3  UNL     1     -35.785  15.820  -3.706  1.00 20.00     0.074 A 
HETATM    9  N10 UNL     1     -37.061  15.645  -3.973  1.00 20.00    -0.258 NA
HETATM   10  C1  UNL     1     -37.249  14.356  -4.431  1.00 20.00     0.124 A 
HETATM   11  C2  UNL     1     -36.117  13.572  -4.504  1.00 20.00     0.070 A 
HETATM   12  S11 UNL     1     -34.755  14.475  -3.983  1.00 20.00    -0.085 SA
ENDBRANCH   7   8
ENDBRANCH   4   7
TORSDOF 2
ENDMDL
MODEL 8
REMARK VINA RESULT:      -3.9      1.830      2.312
REMARK  2 active torsions:
REMARK  status: ('A' for Active; 'I' for Inactive)
REMARK    1  A    between atoms: C3_3  and  C9_9 
REMARK    2  A    between atoms: C7_7  and  C9_9 
ROOT
HETATM    1  C4  UNL     1     -35.002  14.256  -3.808  1.00 20.00     0.006 C 
HETATM    2  C5  UNL     1     -35.817  14.022  -5.071  1.00 20.00     0.020 C 
HETATM    3  C6  UNL     1     -34.702  16.135  -5.353  1.00 20.00     0.025 C 
HETATM    4  C7  UNL     1     -34.649  15.747  -3.863  1.00 20.00    -0.007 C 
HETATM    5  C8  UNL     1     -35.055  14.848  -6.095  1.00 20.00     0.082 C 
HETATM    6 CL12 UNL     1     -36.003  15.146  -7.560  1.00 20.00    -0.125 Cl
ENDROOT
BRANCH   4   7
HETATM    7  C9  UNL     1     -33.305  16.050  -3.216  1.00 20.00     0.071 C 
BRANCH   7   8
HETATM    8  C3  UNL     1     -33.442  17.007  -2.061  1.00 20.00     0.074 A 
HETATM    9  N10 UNL     1     -32.486  17.804  -1.638  1.00 20.00    -0.258 NA
HETATM   10  C1  UNL     1     -32.958  18.538  -0.567  1.00 20.00     0.124 A 
HETATM   11  C2  UNL     1     -34.262  18.289  -0.195  1.00 20.00     0.070 A 
HETATM   12  S11 UNL     1     -34.936  17.089  -1.220  1.00 20.00    -0.085 SA
ENDBRANCH   7   8
ENDBRANCH   4   7
TORSDOF 2
ENDMDL
MODEL 9
REMARK VINA RESULT:      -3.9      3.544      5.639
REMARK  2 active torsions:
REMARK  status: ('A' for Active; 'I' for Inactive)
REMARK    1  A    between atoms: C3_3  and  C9_9 
REMARK    2  A    between atoms: C7_7  and  C9_9 
ROOT
HETATM    1  C4  UNL     1     -33.741  18.346  -0.173  1.00 20.00     0.006 C 
HETATM    2  C5  UNL     1     -32.861  18.526   1.054  1.00 20.00     0.020 C 
HETATM    3  C6  UNL     1     -31.380  18.293  -0.828  1.00 20.00     0.025 C 
HETATM    4  C7  UNL     1     -32.783  17.814  -1.246  1.00 20.00    -0.007 C 
HETATM    5  C8  UNL     1     -31.591  19.104   0.449  1.00 20.00     0.082 C 
HETATM    6 CL12 UNL     1     -30.212  19.004   1.554  1.00 20.00    -0.125 Cl
ENDROOT
BRANCH   4   7
HETATM    7  C9  UNL     1     -33.173  18.262  -2.647  1.00 20.00     0.071 C 
BRANCH   7   8
HETATM    8  C3  UNL     1     -33.479  17.091  -3.544  1.00 20.00     0.074 A 
HETATM    9  N10 UNL     1     -33.067  15.861  -3.329  1.00 20.00    -0.258 NA
HETATM   10  C1  UNL     1     -33.531  15.050  -4.346  1.00 20.00     0.124 A 
HETATM   11  C2  UNL     1     -34.287  15.673  -5.316  1.00 20.00     0.070 A 
HETATM   12  S11 UNL     1     -34.431  17.343  -4.949  1.00 20.00    -0.085 SA
ENDBRANCH   7   8
ENDBRANCH   4   7
TORSDOF 2
ENDMDL
