MODEL 1
REMARK VINA RESULT:      -4.1      0.000      0.000
REMARK  0 active torsions:
REMARK  status: ('A' for Active; 'I' for Inactive)
ROOT
HETATM    1  C1  UNL     1     -42.396   8.641   0.408  1.00 20.00     0.035 C 
HETATM    2  C2  UNL     1     -41.276   7.586   0.387  1.00 20.00     0.014 C 
HETATM    3  C3  UNL     1     -43.309   8.249  -0.711  1.00 20.00     0.152 A 
HETATM    4  C4  UNL     1     -43.037   6.834  -1.079  1.00 20.00     0.158 A 
HETATM    5  C5  UNL     1     -41.940   6.301  -0.184  1.00 20.00    -0.019 C 
HETATM    6  C6  UNL     1     -42.549   5.463   0.948  1.00 20.00     0.017 C 
HETATM    7  C7  UNL     1     -40.938   5.459  -0.974  1.00 20.00     0.017 C 
HETATM    8  O8  UNL     1     -42.679   7.916  -1.952  1.00 20.00    -0.375 OA
ENDROOT
TORSDOF 0
ENDMDL
MODEL 2
REMARK VINA RESULT:      -3.9     23.284     24.094
REMARK  0 active torsions:
REMARK  status: ('A' for Active; 'I' for Inactive)
ROOT
HETATM    1  C1  UNL     1     -24.613  18.579   8.688  1.00 20.00     0.035 C 
HETATM    2  C2  UNL     1     -24.642  18.611  10.227  1.00 20.00     0.014 C 
HETATM    3  C3  UNL     1     -23.219  18.158   8.344  1.00 20.00     0.152 A 
HETATM    4  C4  UNL     1     -22.594  17.538   9.542  1.00 20.00     0.158 A 
HETATM    5  C5  UNL     1     -23.597  17.551  10.675  1.00 20.00    -0.019 C 
HETATM    6  C6  UNL     1     -24.255  16.171  10.806  1.00 20.00     0.017 C 
HETATM    7  C7  UNL     1     -22.937  17.941  11.997  1.00 20.00     0.017 C 
HETATM    8  O8  UNL     1     -22.167  18.819   9.054  1.00 20.00    -0.375 OA
ENDROOT
TORSDOF 0
ENDMDL
MODEL 3
REMARK VINA RESULT:      -3.9     23.025     24.007
REMARK  0 active torsions:
REMARK  status: ('A' for Active; 'I' for Inactive)
ROOT
HETATM    1  C1  UNL     1     -22.373  18.304   8.847  1.00 20.00     0.035 C 
HETATM    2  C2  UNL     1     -22.588  16.982   9.605  1.00 20.00     0.014 C 
HETATM    3  C3  UNL     1     -23.649  19.063   9.039  1.00 20.00     0.152 A 
HETATM    4  C4  UNL     1     -24.390  18.476  10.186  1.00 20.00     0.158 A 
HETATM    5  C5  UNL     1     -23.583  17.326  10.749  1.00 20.00    -0.019 C 
HETATM    6  C6  UNL     1     -22.823  17.785  12.001  1.00 20.00     0.017 C 
HETATM    7  C7  UNL     1     -24.476  16.134  11.090  1.00 20.00     0.017 C 
HETATM    8  O8  UNL     1     -24.859  18.325   8.837  1.00 20.00    -0.375 OA
ENDROOT
TORSDOF 0
ENDMDL
MODEL 4
REMARK VINA RESULT:      -3.8      1.463      2.189
REMARK  0 active torsions:
REMARK  status: ('A' for Active; 'I' for Inactive)
ROOT
HETATM    1  C1  UNL     1     -41.194   8.386  -0.427  1.00 20.00     0.035 C 
HETATM    2  C2  UNL     1     -41.930   7.549  -1.489  1.00 20.00     0.014 C 
HETATM    3  C3  UNL     1     -41.634   7.810   0.882  1.00 20.00     0.152 A 
HETATM    4  C4  UNL     1     -42.207   6.459   0.645  1.00 20.00     0.158 A 
HETATM    5  C5  UNL     1     -42.134   6.153  -0.835  1.00 20.00    -0.019 C 
HETATM    6  C6  UNL     1     -40.930   5.245  -1.122  1.00 20.00     0.017 C 
HETATM    7  C7  UNL     1     -43.417   5.487  -1.330  1.00 20.00     0.017 C 
HETATM    8  O8  UNL     1     -43.037   7.568   1.026  1.00 20.00    -0.375 OA
ENDROOT
TORSDOF 0
ENDMDL
MODEL 5
REMARK VINA RESULT:      -3.7     10.476     11.247
REMARK  0 active torsions:
REMARK  status: ('A' for Active; 'I' for Inactive)
ROOT
HETATM    1  C1  UNL     1     -36.650  15.325  -5.148  1.00 20.00     0.035 C 
HETATM    2  C2  UNL     1     -35.143  15.612  -5.279  1.00 20.00     0.014 C 
HETATM    3  C3  UNL     1     -36.725  13.993  -4.470  1.00 20.00     0.152 A 
HETATM    4  C4  UNL     1     -35.416  13.707  -3.826  1.00 20.00     0.158 A 
HETATM    5  C5  UNL     1     -34.483  14.870  -4.083  1.00 20.00    -0.019 C 
HETATM    6  C6  UNL     1     -34.431  15.781  -2.849  1.00 20.00     0.017 C 
HETATM    7  C7  UNL     1     -33.076  14.387  -4.434  1.00 20.00     0.017 C 
HETATM    8  O8  UNL     1     -35.857  12.976  -4.980  1.00 20.00    -0.375 OA
ENDROOT
TORSDOF 0
ENDMDL
MODEL 6
REMARK VINA RESULT:      -3.7      1.442      2.721
REMARK  0 active torsions:
REMARK  status: ('A' for Active; 'I' for Inactive)
ROOT
HETATM    1  C1  UNL     1     -43.196   5.832  -1.729  1.00 20.00     0.035 C 
HETATM    2  C2  UNL     1     -43.143   7.299  -1.268  1.00 20.00     0.014 C 
HETATM    3  C3  UNL     1     -41.990   5.196  -1.113  1.00 20.00     0.152 A 
HETATM    4  C4  UNL     1     -41.505   6.060  -0.005  1.00 20.00     0.158 A 
HETATM    5  C5  UNL     1     -42.410   7.268   0.103  1.00 20.00    -0.019 C 
HETATM    6  C6  UNL     1     -43.416   7.066   1.245  1.00 20.00     0.017 C 
HETATM    7  C7  UNL     1     -41.607   8.547   0.336  1.00 20.00     0.017 C 
HETATM    8  O8  UNL     1     -40.764   5.926  -1.228  1.00 20.00    -0.375 OA
ENDROOT
TORSDOF 0
ENDMDL
MODEL 7
REMARK VINA RESULT:      -3.7      1.241      1.576
REMARK  0 active torsions:
REMARK  status: ('A' for Active; 'I' for Inactive)
ROOT
HETATM    1  C1  UNL     1     -43.153   7.935   0.759  1.00 20.00     0.035 C 
HETATM    2  C2  UNL     1     -42.519   6.535   0.674  1.00 20.00     0.014 C 
HETATM    3  C3  UNL     1     -42.513   8.710  -0.350  1.00 20.00     0.152 A 
HETATM    4  C4  UNL     1     -41.901   7.756  -1.312  1.00 20.00     0.158 A 
HETATM    5  C5  UNL     1     -42.153   6.345  -0.825  1.00 20.00    -0.019 C 
HETATM    6  C6  UNL     1     -43.332   5.730  -1.592  1.00 20.00     0.017 C 
HETATM    7  C7  UNL     1     -40.911   5.470  -0.990  1.00 20.00     0.017 C 
HETATM    8  O8  UNL     1     -41.092   8.587  -0.466  1.00 20.00    -0.375 OA
ENDROOT
TORSDOF 0
ENDMDL
MODEL 8
REMARK VINA RESULT:      -3.7     11.047     11.900
REMARK  0 active torsions:
REMARK  status: ('A' for Active; 'I' for Inactive)
ROOT
HETATM    1  C1  UNL     1     -33.661  15.884  -3.000  1.00 20.00     0.035 C 
HETATM    2  C2  UNL     1     -35.124  15.418  -2.890  1.00 20.00     0.014 C 
HETATM    3  C3  UNL     1     -33.144  15.221  -4.238  1.00 20.00     0.152 A 
HETATM    4  C4  UNL     1     -34.298  14.775  -5.063  1.00 20.00     0.158 A 
HETATM    5  C5  UNL     1     -35.579  15.159  -4.354  1.00 20.00    -0.019 C 
HETATM    6  C6  UNL     1     -36.155  16.440  -4.972  1.00 20.00     0.017 C 
HETATM    7  C7  UNL     1     -36.612  14.035  -4.427  1.00 20.00     0.017 C 
HETATM    8  O8  UNL     1     -33.453  13.832  -4.386  1.00 20.00    -0.375 OA
ENDROOT
TORSDOF 0
ENDMDL
MODEL 9
REMARK VINA RESULT:      -3.5     10.969     11.809
REMARK  0 active torsions:
REMARK  status: ('A' for Active; 'I' for Inactive)
ROOT
HETATM    1  C1  UNL     1     -35.747  14.451  -6.137  1.00 20.00     0.035 C 
HETATM    2  C2  UNL     1     -34.441  15.201  -5.817  1.00 20.00     0.014 C 
HETATM    3  C3  UNL     1     -36.146  13.815  -4.843  1.00 20.00     0.152 A 
HETATM    4  C4  UNL     1     -35.422  14.487  -3.733  1.00 20.00     0.158 A 
HETATM    5  C5  UNL     1     -34.547  15.578  -4.313  1.00 20.00    -0.019 C 
HETATM    6  C6  UNL     1     -35.234  16.941  -4.148  1.00 20.00     0.017 C 
HETATM    7  C7  UNL     1     -33.173  15.603  -3.645  1.00 20.00     0.017 C 
HETATM    8  O8  UNL     1     -35.107  13.142  -4.124  1.00 20.00    -0.375 OA
ENDROOT
TORSDOF 0
ENDMDL
