MODEL 1
REMARK VINA RESULT:      -4.9      0.000      0.000
REMARK  2 active torsions:
REMARK  status: ('A' for Active; 'I' for Inactive)
REMARK    1  A    between atoms: C1_1  and  C5_5 
REMARK    2  A    between atoms: C1_1  and  C10_10 
ROOT
HETATM    1  C2  UNL     1     -34.396  16.896  -2.394  1.00 20.00     0.002 C 
HETATM    2  C3  UNL     1     -35.520  15.865  -2.497  1.00 20.00     0.013 C 
HETATM    3  C4  UNL     1     -33.183  16.257  -3.061  1.00 20.00     0.010 C 
HETATM    4  C5  UNL     1     -34.973  14.719  -3.354  1.00 20.00     0.063 C 
HETATM    5  C6  UNL     1     -33.777  15.318  -4.124  1.00 20.00    -0.037 C 
HETATM    6  C7  UNL     1     -34.189  16.117  -5.376  1.00 20.00     0.015 C 
HETATM    7  C8  UNL     1     -32.765  14.241  -4.533  1.00 20.00     0.015 C 
ENDROOT
BRANCH   4   8
HETATM    8  C1  UNL     1     -36.025  14.122  -4.236  1.00 20.00     0.131 C 
HETATM    9  O11 UNL     1     -35.976  12.941  -4.573  1.00 20.00    -0.298 OA
BRANCH   8  10
HETATM   10  C10 UNL     1     -37.136  15.058  -4.678  1.00 20.00     0.074 C 
HETATM   11  C9  UNL     1     -38.510  14.582  -4.240  1.00 20.00     0.013 C 
ENDBRANCH   8  10
ENDBRANCH   4   8
TORSDOF 2
ENDMDL
MODEL 2
REMARK VINA RESULT:      -4.5      1.592      1.758
REMARK  2 active torsions:
REMARK  status: ('A' for Active; 'I' for Inactive)
REMARK    1  A    between atoms: C1_1  and  C5_5 
REMARK    2  A    between atoms: C1_1  and  C10_10 
ROOT
HETATM    1  C2  UNL     1     -34.008  17.502  -1.463  1.00 20.00     0.002 C 
HETATM    2  C3  UNL     1     -35.249  16.624  -1.626  1.00 20.00     0.013 C 
HETATM    3  C4  UNL     1     -32.933  16.869  -2.340  1.00 20.00     0.010 C 
HETATM    4  C5  UNL     1     -34.906  15.594  -2.708  1.00 20.00     0.063 C 
HETATM    5  C6  UNL     1     -33.713  16.194  -3.480  1.00 20.00    -0.037 C 
HETATM    6  C7  UNL     1     -34.125  17.235  -4.538  1.00 20.00     0.015 C 
HETATM    7  C8  UNL     1     -32.867  15.107  -4.155  1.00 20.00     0.015 C 
ENDROOT
BRANCH   4   8
HETATM    8  C1  UNL     1     -36.087  15.270  -3.570  1.00 20.00     0.131 C 
HETATM    9  O11 UNL     1     -37.050  16.031  -3.638  1.00 20.00    -0.298 OA
BRANCH   8  10
HETATM   10  C10 UNL     1     -36.015  13.963  -4.339  1.00 20.00     0.074 C 
HETATM   11  C9  UNL     1     -35.983  14.170  -5.842  1.00 20.00     0.013 C 
ENDBRANCH   8  10
ENDBRANCH   4   8
TORSDOF 2
ENDMDL
MODEL 3
REMARK VINA RESULT:      -4.5      2.778      5.067
REMARK  2 active torsions:
REMARK  status: ('A' for Active; 'I' for Inactive)
REMARK    1  A    between atoms: C1_1  and  C5_5 
REMARK    2  A    between atoms: C1_1  and  C10_10 
ROOT
HETATM    1  C2  UNL     1     -34.193  15.112  -3.817  1.00 20.00     0.002 C 
HETATM    2  C3  UNL     1     -32.964  15.979  -3.545  1.00 20.00     0.013 C 
HETATM    3  C4  UNL     1     -35.128  15.334  -2.632  1.00 20.00     0.010 C 
HETATM    4  C5  UNL     1     -33.284  16.795  -2.289  1.00 20.00     0.063 C 
HETATM    5  C6  UNL     1     -34.822  16.765  -2.161  1.00 20.00    -0.037 C 
HETATM    6  C7  UNL     1     -35.534  17.791  -3.064  1.00 20.00     0.015 C 
HETATM    7  C8  UNL     1     -35.277  16.976  -0.713  1.00 20.00     0.015 C 
ENDROOT
BRANCH   4   8
HETATM    8  C1  UNL     1     -32.707  18.176  -2.351  1.00 20.00     0.131 C 
HETATM    9  O11 UNL     1     -32.499  18.727  -3.431  1.00 20.00    -0.298 OA
BRANCH   8  10
HETATM   10  C10 UNL     1     -32.401  18.834  -1.019  1.00 20.00     0.074 C 
HETATM   11  C9  UNL     1     -31.132  18.297  -0.379  1.00 20.00     0.013 C 
ENDBRANCH   8  10
ENDBRANCH   4   8
TORSDOF 2
ENDMDL
MODEL 4
REMARK VINA RESULT:      -4.2      1.790      3.927
REMARK  2 active torsions:
REMARK  status: ('A' for Active; 'I' for Inactive)
REMARK    1  A    between atoms: C1_1  and  C5_5 
REMARK    2  A    between atoms: C1_1  and  C10_10 
ROOT
HETATM    1  C2  UNL     1     -33.977  14.791  -6.181  1.00 20.00     0.002 C 
HETATM    2  C3  UNL     1     -33.422  14.874  -4.758  1.00 20.00     0.013 C 
HETATM    3  C4  UNL     1     -35.490  14.676  -6.031  1.00 20.00     0.010 C 
HETATM    4  C5  UNL     1     -34.638  14.958  -3.829  1.00 20.00     0.063 C 
HETATM    5  C6  UNL     1     -35.806  15.422  -4.724  1.00 20.00    -0.037 C 
HETATM    6  C7  UNL     1     -35.829  16.943  -4.966  1.00 20.00     0.015 C 
HETATM    7  C8  UNL     1     -37.164  14.987  -4.159  1.00 20.00     0.015 C 
ENDROOT
BRANCH   4   8
HETATM    8  C1  UNL     1     -34.385  15.847  -2.651  1.00 20.00     0.131 C 
HETATM    9  O11 UNL     1     -35.188  15.912  -1.722  1.00 20.00    -0.298 OA
BRANCH   8  10
HETATM   10  C10 UNL     1     -33.097  16.648  -2.681  1.00 20.00     0.074 C 
HETATM   11  C9  UNL     1     -33.062  17.740  -1.627  1.00 20.00     0.013 C 
ENDBRANCH   8  10
ENDBRANCH   4   8
TORSDOF 2
ENDMDL
MODEL 5
REMARK VINA RESULT:      -4.2      1.720      4.014
REMARK  2 active torsions:
REMARK  status: ('A' for Active; 'I' for Inactive)
REMARK    1  A    between atoms: C1_1  and  C5_5 
REMARK    2  A    between atoms: C1_1  and  C10_10 
ROOT
HETATM    1  C2  UNL     1     -36.250  13.702  -4.616  1.00 20.00     0.002 C 
HETATM    2  C3  UNL     1     -34.937  13.845  -3.846  1.00 20.00     0.013 C 
HETATM    3  C4  UNL     1     -37.096  14.909  -4.223  1.00 20.00     0.010 C 
HETATM    4  C5  UNL     1     -34.996  15.207  -3.146  1.00 20.00     0.063 C 
HETATM    5  C6  UNL     1     -36.072  16.011  -3.906  1.00 20.00    -0.037 C 
HETATM    6  C7  UNL     1     -35.555  16.653  -5.208  1.00 20.00     0.015 C 
HETATM    7  C8  UNL     1     -36.694  17.102  -3.026  1.00 20.00     0.015 C 
ENDROOT
BRANCH   4   8
HETATM    8  C1  UNL     1     -33.657  15.876  -3.099  1.00 20.00     0.131 C 
HETATM    9  O11 UNL     1     -32.740  15.508  -3.831  1.00 20.00    -0.298 OA
BRANCH   8  10
HETATM   10  C10 UNL     1     -33.513  17.015  -2.107  1.00 20.00     0.074 C 
HETATM   11  C9  UNL     1     -32.755  18.198  -2.682  1.00 20.00     0.013 C 
ENDBRANCH   8  10
ENDBRANCH   4   8
TORSDOF 2
ENDMDL
MODEL 6
REMARK VINA RESULT:      -4.1      1.416      2.380
REMARK  2 active torsions:
REMARK  status: ('A' for Active; 'I' for Inactive)
REMARK    1  A    between atoms: C1_1  and  C5_5 
REMARK    2  A    between atoms: C1_1  and  C10_10 
ROOT
HETATM    1  C2  UNL     1     -34.022  18.268  -4.971  1.00 20.00     0.002 C 
HETATM    2  C3  UNL     1     -34.789  17.176  -5.718  1.00 20.00     0.013 C 
HETATM    3  C4  UNL     1     -34.203  17.962  -3.488  1.00 20.00     0.010 C 
HETATM    4  C5  UNL     1     -35.267  16.183  -4.653  1.00 20.00     0.063 C 
HETATM    5  C6  UNL     1     -34.367  16.434  -3.425  1.00 20.00    -0.037 C 
HETATM    6  C7  UNL     1     -32.992  15.744  -3.518  1.00 20.00     0.015 C 
HETATM    7  C8  UNL     1     -35.051  16.008  -2.121  1.00 20.00     0.015 C 
ENDROOT
BRANCH   4   8
HETATM    8  C1  UNL     1     -35.238  14.770  -5.148  1.00 20.00     0.131 C 
HETATM    9  O11 UNL     1     -34.441  14.418  -6.016  1.00 20.00    -0.298 OA
BRANCH   8  10
HETATM   10  C10 UNL     1     -36.241  13.821  -4.519  1.00 20.00     0.074 C 
HETATM   11  C9  UNL     1     -37.604  14.459  -4.319  1.00 20.00     0.013 C 
ENDBRANCH   8  10
ENDBRANCH   4   8
TORSDOF 2
ENDMDL
MODEL 7
REMARK VINA RESULT:      -4.1      1.809      2.917
REMARK  2 active torsions:
REMARK  status: ('A' for Active; 'I' for Inactive)
REMARK    1  A    between atoms: C1_1  and  C5_5 
REMARK    2  A    between atoms: C1_1  and  C10_10 
ROOT
HETATM    1  C2  UNL     1     -33.781  16.113  -2.793  1.00 20.00     0.002 C 
HETATM    2  C3  UNL     1     -33.639  16.356  -4.296  1.00 20.00     0.013 C 
HETATM    3  C4  UNL     1     -35.200  15.592  -2.589  1.00 20.00     0.010 C 
HETATM    4  C5  UNL     1     -34.925  15.827  -4.940  1.00 20.00     0.063 C 
HETATM    5  C6  UNL     1     -35.536  14.863  -3.901  1.00 20.00    -0.037 C 
HETATM    6  C7  UNL     1     -34.899  13.461  -3.914  1.00 20.00     0.015 C 
HETATM    7  C8  UNL     1     -37.052  14.723  -4.078  1.00 20.00     0.015 C 
ENDROOT
BRANCH   4   8
HETATM    8  C1  UNL     1     -34.669  15.199  -6.275  1.00 20.00     0.131 C 
HETATM    9  O11 UNL     1     -33.592  14.662  -6.527  1.00 20.00    -0.298 OA
BRANCH   8  10
HETATM   10  C10 UNL     1     -35.807  15.270  -7.276  1.00 20.00     0.074 C 
HETATM   11  C9  UNL     1     -36.539  16.599  -7.236  1.00 20.00     0.013 C 
ENDBRANCH   8  10
ENDBRANCH   4   8
TORSDOF 2
ENDMDL
MODEL 8
REMARK VINA RESULT:      -4.0      1.231      1.437
REMARK  2 active torsions:
REMARK  status: ('A' for Active; 'I' for Inactive)
REMARK    1  A    between atoms: C1_1  and  C5_5 
REMARK    2  A    between atoms: C1_1  and  C10_10 
ROOT
HETATM    1  C2  UNL     1     -35.265  16.534  -2.189  1.00 20.00     0.002 C 
HETATM    2  C3  UNL     1     -36.306  15.760  -2.998  1.00 20.00     0.013 C 
HETATM    3  C4  UNL     1     -33.911  15.973  -2.608  1.00 20.00     0.010 C 
HETATM    4  C5  UNL     1     -35.521  14.877  -3.974  1.00 20.00     0.063 C 
HETATM    5  C6  UNL     1     -34.117  15.512  -4.061  1.00 20.00    -0.037 C 
HETATM    6  C7  UNL     1     -34.044  16.716  -5.020  1.00 20.00     0.015 C 
HETATM    7  C8  UNL     1     -33.052  14.487  -4.468  1.00 20.00     0.015 C 
ENDROOT
BRANCH   4   8
HETATM    8  C1  UNL     1     -36.211  14.747  -5.296  1.00 20.00     0.131 C 
HETATM    9  O11 UNL     1     -35.904  13.856  -6.086  1.00 20.00    -0.298 OA
BRANCH   8  10
HETATM   10  C10 UNL     1     -37.293  15.769  -5.589  1.00 20.00     0.074 C 
HETATM   11  C9  UNL     1     -37.160  16.382  -6.972  1.00 20.00     0.013 C 
ENDBRANCH   8  10
ENDBRANCH   4   8
TORSDOF 2
ENDMDL
MODEL 9
REMARK VINA RESULT:      -4.0     10.102     12.377
REMARK  2 active torsions:
REMARK  status: ('A' for Active; 'I' for Inactive)
REMARK    1  A    between atoms: C1_1  and  C5_5 
REMARK    2  A    between atoms: C1_1  and  C10_10 
ROOT
HETATM    1  C2  UNL     1     -43.052   4.983   1.463  1.00 20.00     0.002 C 
HETATM    2  C3  UNL     1     -43.121   6.480   1.161  1.00 20.00     0.013 C 
HETATM    3  C4  UNL     1     -43.317   4.279   0.137  1.00 20.00     0.010 C 
HETATM    4  C5  UNL     1     -43.274   6.605  -0.358  1.00 20.00     0.063 C 
HETATM    5  C6  UNL     1     -42.792   5.254  -0.930  1.00 20.00    -0.037 C 
HETATM    6  C7  UNL     1     -41.260   5.147  -1.047  1.00 20.00     0.015 C 
HETATM    7  C8  UNL     1     -43.417   4.960  -2.299  1.00 20.00     0.015 C 
ENDROOT
BRANCH   4   8
HETATM    8  C1  UNL     1     -42.540   7.791  -0.903  1.00 20.00     0.131 C 
HETATM    9  O11 UNL     1     -42.923   8.359  -1.924  1.00 20.00    -0.298 OA
BRANCH   8  10
HETATM   10  C10 UNL     1     -41.315   8.234  -0.124  1.00 20.00     0.074 C 
HETATM   11  C9  UNL     1     -41.392   9.688   0.308  1.00 20.00     0.013 C 
ENDBRANCH   8  10
ENDBRANCH   4   8
TORSDOF 2
ENDMDL
