MODEL 1
REMARK VINA RESULT:      -4.3      0.000      0.000
REMARK  2 active torsions:
REMARK  status: ('A' for Active; 'I' for Inactive)
REMARK    1  A    between atoms: C2_2  and  C6_6 
REMARK    2  A    between atoms: C6_6  and  O10_10 
ROOT
HETATM    1  C3  UNL     1     -36.263  13.961  -4.413  1.00 20.00     0.004 C 
HETATM    2  C4  UNL     1     -35.162  14.519  -3.502  1.00 20.00     0.043 C 
HETATM    3  C5  UNL     1     -35.794  14.177  -5.853  1.00 20.00     0.012 C 
HETATM    4  C6  UNL     1     -33.990  14.860  -4.434  1.00 20.00     0.082 C 
HETATM    5  C7  UNL     1     -34.691  15.251  -5.769  1.00 20.00    -0.013 C 
HETATM    6  C8  UNL     1     -33.771  15.176  -6.996  1.00 20.00     0.018 C 
HETATM    7  C9  UNL     1     -35.336  16.653  -5.735  1.00 20.00     0.018 C 
ENDROOT
BRANCH   4   8
HETATM    8  C2  UNL     1     -33.075  15.885  -3.839  1.00 20.00     0.001 C 
HETATM    9  C1  UNL     1     -33.309  16.517  -2.685  1.00 20.00     0.010 C 
ENDBRANCH   4   8
BRANCH   4  10
HETATM   10  O10 UNL     1     -33.246  13.646  -4.608  1.00 20.00    -0.385 OA
HETATM   11  H26 UNL     1     -32.649  13.800  -5.354  1.00 20.00     0.211 HD
ENDBRANCH   4  10
TORSDOF 2
ENDMDL
MODEL 2
REMARK VINA RESULT:      -4.3     10.905     12.685
REMARK  2 active torsions:
REMARK  status: ('A' for Active; 'I' for Inactive)
REMARK    1  A    between atoms: C2_2  and  C6_6 
REMARK    2  A    between atoms: C6_6  and  O10_10 
ROOT
HETATM    1  C3  UNL     1     -43.417   5.453   1.644  1.00 20.00     0.004 C 
HETATM    2  C4  UNL     1     -43.147   6.930   1.331  1.00 20.00     0.043 C 
HETATM    3  C5  UNL     1     -42.549   4.635   0.685  1.00 20.00     0.012 C 
HETATM    4  C6  UNL     1     -41.976   6.934   0.339  1.00 20.00     0.082 C 
HETATM    5  C7  UNL     1     -42.165   5.605  -0.451  1.00 20.00    -0.013 C 
HETATM    6  C8  UNL     1     -40.895   5.123  -1.165  1.00 20.00     0.018 C 
HETATM    7  C9  UNL     1     -43.308   5.666  -1.486  1.00 20.00     0.018 C 
ENDROOT
BRANCH   4   8
HETATM    8  C2  UNL     1     -41.930   8.189  -0.475  1.00 20.00     0.001 C 
HETATM    9  C1  UNL     1     -41.513   9.371  -0.007  1.00 20.00     0.010 C 
ENDBRANCH   4   8
BRANCH   4  10
HETATM   10  O10 UNL     1     -40.778   6.870   1.127  1.00 20.00    -0.385 OA
HETATM   11  H26 UNL     1     -40.247   7.638   0.872  1.00 20.00     0.211 HD
ENDBRANCH   4  10
TORSDOF 2
ENDMDL
MODEL 3
REMARK VINA RESULT:      -4.0      1.134      3.025
REMARK  2 active torsions:
REMARK  status: ('A' for Active; 'I' for Inactive)
REMARK    1  A    between atoms: C2_2  and  C6_6 
REMARK    2  A    between atoms: C6_6  and  O10_10 
ROOT
HETATM    1  C3  UNL     1     -33.822  15.944  -2.765  1.00 20.00     0.004 C 
HETATM    2  C4  UNL     1     -33.474  15.441  -4.172  1.00 20.00     0.043 C 
HETATM    3  C5  UNL     1     -35.329  15.751  -2.589  1.00 20.00     0.012 C 
HETATM    4  C6  UNL     1     -34.754  14.779  -4.701  1.00 20.00     0.082 C 
HETATM    5  C7  UNL     1     -35.893  15.592  -4.016  1.00 20.00    -0.013 C 
HETATM    6  C8  UNL     1     -37.243  14.862  -3.985  1.00 20.00     0.018 C 
HETATM    7  C9  UNL     1     -36.112  16.986  -4.643  1.00 20.00     0.018 C 
ENDROOT
BRANCH   4   8
HETATM    8  C2  UNL     1     -34.785  14.723  -6.196  1.00 20.00     0.001 C 
HETATM    9  C1  UNL     1     -33.769  15.099  -6.981  1.00 20.00     0.010 C 
ENDBRANCH   4   8
BRANCH   4  10
HETATM   10  O10 UNL     1     -34.747  13.432  -4.205  1.00 20.00    -0.385 OA
HETATM   11  H26 UNL     1     -35.042  12.874  -4.939  1.00 20.00     0.211 HD
ENDBRANCH   4  10
TORSDOF 2
ENDMDL
MODEL 4
REMARK VINA RESULT:      -3.9      1.589      3.217
REMARK  2 active torsions:
REMARK  status: ('A' for Active; 'I' for Inactive)
REMARK    1  A    between atoms: C2_2  and  C6_6 
REMARK    2  A    between atoms: C6_6  and  O10_10 
ROOT
HETATM    1  C3  UNL     1     -35.689  16.511  -2.988  1.00 20.00     0.004 C 
HETATM    2  C4  UNL     1     -35.972  16.533  -4.495  1.00 20.00     0.043 C 
HETATM    3  C5  UNL     1     -34.399  15.711  -2.793  1.00 20.00     0.012 C 
HETATM    4  C6  UNL     1     -34.729  15.919  -5.156  1.00 20.00     0.082 C 
HETATM    5  C7  UNL     1     -34.219  14.901  -4.093  1.00 20.00    -0.013 C 
HETATM    6  C8  UNL     1     -32.748  14.499  -4.277  1.00 20.00     0.018 C 
HETATM    7  C9  UNL     1     -35.066  13.614  -4.021  1.00 20.00     0.018 C 
ENDROOT
BRANCH   4   8
HETATM    8  C2  UNL     1     -35.027  15.367  -6.515  1.00 20.00     0.001 C 
HETATM    9  C1  UNL     1     -34.174  15.410  -7.544  1.00 20.00     0.010 C 
ENDBRANCH   4   8
BRANCH   4  10
HETATM   10  O10 UNL     1     -33.783  16.987  -5.307  1.00 20.00    -0.385 OA
HETATM   11  H26 UNL     1     -33.932  17.356  -6.189  1.00 20.00     0.211 HD
ENDBRANCH   4  10
TORSDOF 2
ENDMDL
MODEL 5
REMARK VINA RESULT:      -3.8      1.862      3.431
REMARK  2 active torsions:
REMARK  status: ('A' for Active; 'I' for Inactive)
REMARK    1  A    between atoms: C2_2  and  C6_6 
REMARK    2  A    between atoms: C6_6  and  O10_10 
ROOT
HETATM    1  C3  UNL     1     -33.672  16.836  -2.196  1.00 20.00     0.004 C 
HETATM    2  C4  UNL     1     -34.903  15.923  -2.128  1.00 20.00     0.043 C 
HETATM    3  C5  UNL     1     -33.365  17.050  -3.679  1.00 20.00     0.012 C 
HETATM    4  C6  UNL     1     -35.402  15.796  -3.574  1.00 20.00     0.082 C 
HETATM    5  C7  UNL     1     -34.099  15.913  -4.419  1.00 20.00    -0.013 C 
HETATM    6  C8  UNL     1     -34.344  16.295  -5.886  1.00 20.00     0.018 C 
HETATM    7  C9  UNL     1     -33.233  14.635  -4.391  1.00 20.00     0.018 C 
ENDROOT
BRANCH   4   8
HETATM    8  C2  UNL     1     -36.220  14.559  -3.783  1.00 20.00     0.001 C 
HETATM    9  C1  UNL     1     -37.399  14.539  -4.414  1.00 20.00     0.010 C 
ENDBRANCH   4   8
BRANCH   4  10
HETATM   10  O10 UNL     1     -36.245  16.932  -3.812  1.00 20.00    -0.385 OA
HETATM   11  H26 UNL     1     -36.763  16.723  -4.602  1.00 20.00     0.211 HD
ENDBRANCH   4  10
TORSDOF 2
ENDMDL
MODEL 6
REMARK VINA RESULT:      -3.7      1.765      2.727
REMARK  2 active torsions:
REMARK  status: ('A' for Active; 'I' for Inactive)
REMARK    1  A    between atoms: C2_2  and  C6_6 
REMARK    2  A    between atoms: C6_6  and  O10_10 
ROOT
HETATM    1  C3  UNL     1     -35.445  16.616  -5.866  1.00 20.00     0.004 C 
HETATM    2  C4  UNL     1     -35.338  17.061  -4.402  1.00 20.00     0.043 C 
HETATM    3  C5  UNL     1     -35.471  15.086  -5.860  1.00 20.00     0.012 C 
HETATM    4  C6  UNL     1     -35.512  15.783  -3.569  1.00 20.00     0.082 C 
HETATM    5  C7  UNL     1     -34.915  14.671  -4.483  1.00 20.00    -0.013 C 
HETATM    6  C8  UNL     1     -35.380  13.254  -4.117  1.00 20.00     0.018 C 
HETATM    7  C9  UNL     1     -33.372  14.677  -4.526  1.00 20.00     0.018 C 
ENDROOT
BRANCH   4   8
HETATM    8  C2  UNL     1     -34.912  15.914  -2.204  1.00 20.00     0.001 C 
HETATM    9  C1  UNL     1     -34.194  16.966  -1.799  1.00 20.00     0.010 C 
ENDBRANCH   4   8
BRANCH   4  10
HETATM   10  O10 UNL     1     -36.925  15.588  -3.419  1.00 20.00    -0.385 OA
HETATM   11  H26 UNL     1     -37.138  15.851  -2.512  1.00 20.00     0.211 HD
ENDBRANCH   4  10
TORSDOF 2
ENDMDL
MODEL 7
REMARK VINA RESULT:      -3.7      2.075      2.987
REMARK  2 active torsions:
REMARK  status: ('A' for Active; 'I' for Inactive)
REMARK    1  A    between atoms: C2_2  and  C6_6 
REMARK    2  A    between atoms: C6_6  and  O10_10 
ROOT
HETATM    1  C3  UNL     1     -34.380  14.268  -3.946  1.00 20.00     0.004 C 
HETATM    2  C4  UNL     1     -33.201  15.247  -3.874  1.00 20.00     0.043 C 
HETATM    3  C5  UNL     1     -35.654  15.102  -3.798  1.00 20.00     0.012 C 
HETATM    4  C6  UNL     1     -33.828  16.648  -3.890  1.00 20.00     0.082 C 
HETATM    5  C7  UNL     1     -35.200  16.441  -3.182  1.00 20.00    -0.013 C 
HETATM    6  C8  UNL     1     -36.223  17.546  -3.478  1.00 20.00     0.018 C 
HETATM    7  C9  UNL     1     -35.081  16.290  -1.650  1.00 20.00     0.018 C 
ENDROOT
BRANCH   4   8
HETATM    8  C2  UNL     1     -32.921  17.679  -3.293  1.00 20.00     0.001 C 
HETATM    9  C1  UNL     1     -32.775  18.918  -3.777  1.00 20.00     0.010 C 
ENDBRANCH   4   8
BRANCH   4  10
HETATM   10  O10 UNL     1     -34.034  16.982  -5.270  1.00 20.00    -0.385 OA
HETATM   11  H26 UNL     1     -34.725  16.384  -5.591  1.00 20.00     0.211 HD
ENDBRANCH   4  10
TORSDOF 2
ENDMDL
MODEL 8
REMARK VINA RESULT:      -3.7      1.371      1.693
REMARK  2 active torsions:
REMARK  status: ('A' for Active; 'I' for Inactive)
REMARK    1  A    between atoms: C2_2  and  C6_6 
REMARK    2  A    between atoms: C6_6  and  O10_10 
ROOT
HETATM    1  C3  UNL     1     -35.989  13.752  -5.004  1.00 20.00     0.004 C 
HETATM    2  C4  UNL     1     -35.027  13.977  -3.830  1.00 20.00     0.043 C 
HETATM    3  C5  UNL     1     -36.181  15.110  -5.683  1.00 20.00     0.012 C 
HETATM    4  C6  UNL     1     -34.524  15.420  -3.982  1.00 20.00     0.082 C 
HETATM    5  C7  UNL     1     -35.726  16.156  -4.645  1.00 20.00    -0.013 C 
HETATM    6  C8  UNL     1     -35.341  17.471  -5.337  1.00 20.00     0.018 C 
HETATM    7  C9  UNL     1     -36.882  16.447  -3.664  1.00 20.00     0.018 C 
ENDROOT
BRANCH   4   8
HETATM    8  C2  UNL     1     -34.032  15.985  -2.685  1.00 20.00     0.001 C 
HETATM    9  C1  UNL     1     -33.045  16.882  -2.586  1.00 20.00     0.010 C 
ENDBRANCH   4   8
BRANCH   4  10
HETATM   10  O10 UNL     1     -33.417  15.368  -4.893  1.00 20.00    -0.385 OA
HETATM   11  H26 UNL     1     -33.692  15.863  -5.678  1.00 20.00     0.211 HD
ENDBRANCH   4  10
TORSDOF 2
ENDMDL
MODEL 9
REMARK VINA RESULT:      -3.7      1.842      3.711
REMARK  2 active torsions:
REMARK  status: ('A' for Active; 'I' for Inactive)
REMARK    1  A    between atoms: C2_2  and  C6_6 
REMARK    2  A    between atoms: C6_6  and  O10_10 
ROOT
HETATM    1  C3  UNL     1     -32.970  17.774  -3.361  1.00 20.00     0.004 C 
HETATM    2  C4  UNL     1     -34.198  18.081  -4.227  1.00 20.00     0.043 C 
HETATM    3  C5  UNL     1     -32.932  16.256  -3.173  1.00 20.00     0.012 C 
HETATM    4  C6  UNL     1     -34.726  16.716  -4.691  1.00 20.00     0.082 C 
HETATM    5  C7  UNL     1     -34.353  15.764  -3.516  1.00 20.00    -0.013 C 
HETATM    6  C8  UNL     1     -34.330  14.279  -3.905  1.00 20.00     0.018 C 
HETATM    7  C9  UNL     1     -35.267  15.926  -2.283  1.00 20.00     0.018 C 
ENDROOT
BRANCH   4   8
HETATM    8  C2  UNL     1     -36.173  16.769  -5.069  1.00 20.00     0.001 C 
HETATM    9  C1  UNL     1     -36.706  16.093  -6.093  1.00 20.00     0.010 C 
ENDBRANCH   4   8
BRANCH   4  10
HETATM   10  O10 UNL     1     -33.973  16.368  -5.862  1.00 20.00    -0.385 OA
HETATM   11  H26 UNL     1     -34.623  16.161  -6.549  1.00 20.00     0.211 HD
ENDBRANCH   4  10
TORSDOF 2
ENDMDL
