MODEL 1
REMARK VINA RESULT:      -4.1      0.000      0.000
REMARK  2 active torsions:
REMARK  status: ('A' for Active; 'I' for Inactive)
REMARK    1  A    between atoms: C6_6  and  N11_11 
REMARK    2  A    between atoms: C10_10  and  N11_11 
ROOT
HETATM    1  C1  UNL     1     -32.734  17.697  -2.094  1.00 20.00     0.013 C 
HETATM    2  C2  UNL     1     -33.818  17.276  -1.793  1.00 20.00    -0.087 C 
HETATM    3  C10 UNL     1     -35.140  16.768  -1.422  1.00 20.00     0.362 C 
ENDROOT
BRANCH   3   4
HETATM    4  N11 UNL     1     -35.481  15.593  -2.216  1.00 20.00     0.099 N 
HETATM    5  H28 UNL     1     -36.357  15.200  -1.871  1.00 20.00     0.317 HD
BRANCH   4   6
HETATM    6  C6  UNL     1     -35.629  15.939  -3.632  1.00 20.00     0.229 C 
HETATM    7  C4  UNL     1     -37.118  15.880  -3.992  1.00 20.00     0.036 C 
HETATM    8  C3  UNL     1     -37.398  14.424  -4.370  1.00 20.00     0.003 C 
HETATM    9  C5  UNL     1     -36.035  13.749  -4.555  1.00 20.00     0.011 C 
HETATM   10  C7  UNL     1     -35.002  14.890  -4.588  1.00 20.00    -0.017 C 
HETATM   11  C8  UNL     1     -34.885  15.459  -6.018  1.00 20.00     0.017 C 
HETATM   12  C9  UNL     1     -33.611  14.404  -4.161  1.00 20.00     0.017 C 
ENDBRANCH   4   6
ENDBRANCH   3   4
TORSDOF 2
ENDMDL
MODEL 2
REMARK VINA RESULT:      -3.8      1.775      4.173
REMARK  2 active torsions:
REMARK  status: ('A' for Active; 'I' for Inactive)
REMARK    1  A    between atoms: C6_6  and  N11_11 
REMARK    2  A    between atoms: C10_10  and  N11_11 
ROOT
HETATM    1  C1  UNL     1     -34.068  15.169  -7.057  1.00 20.00     0.013 C 
HETATM    2  C2  UNL     1     -33.737  14.940  -5.926  1.00 20.00    -0.087 C 
HETATM    3  C10 UNL     1     -33.332  14.655  -4.547  1.00 20.00     0.362 C 
ENDROOT
BRANCH   3   4
HETATM    4  N11 UNL     1     -33.025  15.890  -3.835  1.00 20.00     0.099 N 
HETATM    5  H28 UNL     1     -33.235  16.684  -4.439  1.00 20.00     0.317 HD
BRANCH   4   6
HETATM    6  C6  UNL     1     -33.811  15.996  -2.603  1.00 20.00     0.229 C 
HETATM    7  C4  UNL     1     -35.279  15.707  -2.939  1.00 20.00     0.036 C 
HETATM    8  C3  UNL     1     -35.878  17.046  -3.377  1.00 20.00     0.003 C 
HETATM    9  C5  UNL     1     -34.874  18.129  -2.970  1.00 20.00     0.011 C 
HETATM   10  C7  UNL     1     -33.866  17.438  -2.033  1.00 20.00    -0.017 C 
HETATM   11  C8  UNL     1     -34.404  17.431  -0.586  1.00 20.00     0.017 C 
HETATM   12  C9  UNL     1     -32.513  18.161  -2.027  1.00 20.00     0.017 C 
ENDBRANCH   4   6
ENDBRANCH   3   4
TORSDOF 2
ENDMDL
MODEL 3
REMARK VINA RESULT:      -3.8      1.617      3.055
REMARK  2 active torsions:
REMARK  status: ('A' for Active; 'I' for Inactive)
REMARK    1  A    between atoms: C6_6  and  N11_11 
REMARK    2  A    between atoms: C10_10  and  N11_11 
ROOT
HETATM    1  C1  UNL     1     -37.311  18.381   0.216  1.00 20.00     0.013 C 
HETATM    2  C2  UNL     1     -36.336  17.787  -0.154  1.00 20.00    -0.087 C 
HETATM    3  C10 UNL     1     -35.143  17.064  -0.602  1.00 20.00     0.362 C 
ENDROOT
BRANCH   3   4
HETATM    4  N11 UNL     1     -35.438  16.270  -1.789  1.00 20.00     0.099 N 
HETATM    5  H28 UNL     1     -36.001  16.827  -2.431  1.00 20.00     0.317 HD
BRANCH   4   6
HETATM    6  C6  UNL     1     -34.205  15.852  -2.461  1.00 20.00     0.229 C 
HETATM    7  C4  UNL     1     -33.347  17.097  -2.718  1.00 20.00     0.036 C 
HETATM    8  C3  UNL     1     -33.826  17.662  -4.058  1.00 20.00     0.003 C 
HETATM    9  C5  UNL     1     -34.689  16.577  -4.709  1.00 20.00     0.011 C 
HETATM   10  C7  UNL     1     -34.443  15.297  -3.890  1.00 20.00    -0.017 C 
HETATM   11  C8  UNL     1     -33.183  14.569  -4.408  1.00 20.00     0.017 C 
HETATM   12  C9  UNL     1     -35.624  14.323  -3.996  1.00 20.00     0.017 C 
ENDBRANCH   4   6
ENDBRANCH   3   4
TORSDOF 2
ENDMDL
MODEL 4
REMARK VINA RESULT:      -3.8      2.202      3.408
REMARK  2 active torsions:
REMARK  status: ('A' for Active; 'I' for Inactive)
REMARK    1  A    between atoms: C6_6  and  N11_11 
REMARK    2  A    between atoms: C10_10  and  N11_11 
ROOT
HETATM    1  C1  UNL     1     -30.752  18.211   1.054  1.00 20.00     0.013 C 
HETATM    2  C2  UNL     1     -31.304  18.491   0.025  1.00 20.00    -0.087 C 
HETATM    3  C10 UNL     1     -31.977  18.837  -1.230  1.00 20.00     0.362 C 
ENDROOT
BRANCH   3   4
HETATM    4  N11 UNL     1     -32.363  17.634  -1.956  1.00 20.00     0.099 N 
HETATM    5  H28 UNL     1     -32.529  16.880  -1.290  1.00 20.00     0.317 HD
BRANCH   4   6
HETATM    6  C6  UNL     1     -33.578  17.861  -2.743  1.00 20.00     0.229 C 
HETATM    7  C4  UNL     1     -34.638  18.486  -1.828  1.00 20.00     0.036 C 
HETATM    8  C3  UNL     1     -35.353  17.311  -1.156  1.00 20.00     0.003 C 
HETATM    9  C5  UNL     1     -34.947  16.051  -1.928  1.00 20.00     0.011 C 
HETATM   10  C7  UNL     1     -34.260  16.549  -3.212  1.00 20.00    -0.017 C 
HETATM   11  C8  UNL     1     -35.315  16.843  -4.300  1.00 20.00     0.017 C 
HETATM   12  C9  UNL     1     -33.287  15.504  -3.774  1.00 20.00     0.017 C 
ENDBRANCH   4   6
ENDBRANCH   3   4
TORSDOF 2
ENDMDL
MODEL 5
REMARK VINA RESULT:      -3.7      1.857      2.685
REMARK  2 active torsions:
REMARK  status: ('A' for Active; 'I' for Inactive)
REMARK    1  A    between atoms: C6_6  and  N11_11 
REMARK    2  A    between atoms: C10_10  and  N11_11 
ROOT
HETATM    1  C1  UNL     1     -31.618  18.310  -0.786  1.00 20.00     0.013 C 
HETATM    2  C2  UNL     1     -32.165  18.441  -1.847  1.00 20.00    -0.087 C 
HETATM    3  C10 UNL     1     -32.832  18.607  -3.141  1.00 20.00     0.362 C 
ENDROOT
BRANCH   3   4
HETATM    4  N11 UNL     1     -32.955  17.325  -3.824  1.00 20.00     0.099 N 
HETATM    5  H28 UNL     1     -32.361  16.639  -3.358  1.00 20.00     0.317 HD
BRANCH   4   6
HETATM    6  C6  UNL     1     -34.342  16.853  -3.812  1.00 20.00     0.229 C 
HETATM    7  C4  UNL     1     -34.409  15.564  -2.984  1.00 20.00     0.036 C 
HETATM    8  C3  UNL     1     -34.083  14.427  -3.956  1.00 20.00     0.003 C 
HETATM    9  C5  UNL     1     -34.171  15.018  -5.367  1.00 20.00     0.011 C 
HETATM   10  C7  UNL     1     -34.846  16.392  -5.205  1.00 20.00    -0.017 C 
HETATM   11  C8  UNL     1     -36.382  16.234  -5.204  1.00 20.00     0.017 C 
HETATM   12  C9  UNL     1     -34.473  17.342  -6.352  1.00 20.00     0.017 C 
ENDBRANCH   4   6
ENDBRANCH   3   4
TORSDOF 2
ENDMDL
MODEL 6
REMARK VINA RESULT:      -3.7      1.812      4.308
REMARK  2 active torsions:
REMARK  status: ('A' for Active; 'I' for Inactive)
REMARK    1  A    between atoms: C6_6  and  N11_11 
REMARK    2  A    between atoms: C10_10  and  N11_11 
ROOT
HETATM    1  C1  UNL     1     -36.206  15.398  -7.917  1.00 20.00     0.013 C 
HETATM    2  C2  UNL     1     -35.096  15.268  -7.477  1.00 20.00    -0.087 C 
HETATM    3  C10 UNL     1     -33.740  15.110  -6.945  1.00 20.00     0.362 C 
ENDROOT
BRANCH   3   4
HETATM    4  N11 UNL     1     -33.758  15.089  -5.487  1.00 20.00     0.099 N 
HETATM    5  H28 UNL     1     -32.809  15.224  -5.140  1.00 20.00     0.317 HD
BRANCH   4   6
HETATM    6  C6  UNL     1     -34.624  16.145  -4.957  1.00 20.00     0.229 C 
HETATM    7  C4  UNL     1     -33.748  17.165  -4.219  1.00 20.00     0.036 C 
HETATM    8  C3  UNL     1     -33.604  16.634  -2.791  1.00 20.00     0.003 C 
HETATM    9  C5  UNL     1     -34.652  15.528  -2.626  1.00 20.00     0.011 C 
HETATM   10  C7  UNL     1     -35.585  15.649  -3.844  1.00 20.00    -0.017 C 
HETATM   11  C8  UNL     1     -36.686  16.696  -3.569  1.00 20.00     0.017 C 
HETATM   12  C9  UNL     1     -36.275  14.316  -4.161  1.00 20.00     0.017 C 
ENDBRANCH   4   6
ENDBRANCH   3   4
TORSDOF 2
ENDMDL
MODEL 7
REMARK VINA RESULT:      -3.7      1.130      2.732
REMARK  2 active torsions:
REMARK  status: ('A' for Active; 'I' for Inactive)
REMARK    1  A    between atoms: C6_6  and  N11_11 
REMARK    2  A    between atoms: C10_10  and  N11_11 
ROOT
HETATM    1  C1  UNL     1     -35.234  16.972  -0.678  1.00 20.00     0.013 C 
HETATM    2  C2  UNL     1     -34.384  17.015  -1.526  1.00 20.00    -0.087 C 
HETATM    3  C10 UNL     1     -33.343  17.068  -2.555  1.00 20.00     0.362 C 
ENDROOT
BRANCH   3   4
HETATM    4  N11 UNL     1     -33.906  16.786  -3.870  1.00 20.00     0.099 N 
HETATM    5  H28 UNL     1     -33.207  16.994  -4.584  1.00 20.00     0.317 HD
BRANCH   4   6
HETATM    6  C6  UNL     1     -34.308  15.382  -3.981  1.00 20.00     0.229 C 
HETATM    7  C4  UNL     1     -33.341  14.674  -4.937  1.00 20.00     0.036 C 
HETATM    8  C3  UNL     1     -33.908  14.894  -6.341  1.00 20.00     0.003 C 
HETATM    9  C5  UNL     1     -35.338  15.414  -6.161  1.00 20.00     0.011 C 
HETATM   10  C7  UNL     1     -35.681  15.190  -4.676  1.00 20.00    -0.017 C 
HETATM   11  C8  UNL     1     -36.204  13.753  -4.463  1.00 20.00     0.017 C 
HETATM   12  C9  UNL     1     -36.769  16.161  -4.197  1.00 20.00     0.017 C 
ENDBRANCH   4   6
ENDBRANCH   3   4
TORSDOF 2
ENDMDL
MODEL 8
REMARK VINA RESULT:      -3.7      1.950      3.248
REMARK  2 active torsions:
REMARK  status: ('A' for Active; 'I' for Inactive)
REMARK    1  A    between atoms: C6_6  and  N11_11 
REMARK    2  A    between atoms: C10_10  and  N11_11 
ROOT
HETATM    1  C1  UNL     1     -35.162  16.423  -1.592  1.00 20.00     0.013 C 
HETATM    2  C2  UNL     1     -34.210  16.369  -2.322  1.00 20.00    -0.087 C 
HETATM    3  C10 UNL     1     -33.046  16.301  -3.208  1.00 20.00     0.362 C 
ENDROOT
BRANCH   3   4
HETATM    4  N11 UNL     1     -33.409  16.687  -4.566  1.00 20.00     0.099 N 
HETATM    5  H28 UNL     1     -32.611  16.530  -5.182  1.00 20.00     0.317 HD
BRANCH   4   6
HETATM    6  C6  UNL     1     -34.554  15.909  -5.046  1.00 20.00     0.229 C 
HETATM    7  C4  UNL     1     -34.057  14.919  -6.106  1.00 20.00     0.036 C 
HETATM    8  C3  UNL     1     -34.083  15.682  -7.433  1.00 20.00     0.003 C 
HETATM    9  C5  UNL     1     -34.898  16.956  -7.190  1.00 20.00     0.011 C 
HETATM   10  C7  UNL     1     -35.588  16.760  -5.828  1.00 20.00    -0.017 C 
HETATM   11  C8  UNL     1     -36.909  15.980  -6.009  1.00 20.00     0.017 C 
HETATM   12  C9  UNL     1     -35.924  18.103  -5.167  1.00 20.00     0.017 C 
ENDBRANCH   4   6
ENDBRANCH   3   4
TORSDOF 2
ENDMDL
MODEL 9
REMARK VINA RESULT:      -3.6      2.233      4.387
REMARK  2 active torsions:
REMARK  status: ('A' for Active; 'I' for Inactive)
REMARK    1  A    between atoms: C6_6  and  N11_11 
REMARK    2  A    between atoms: C10_10  and  N11_11 
ROOT
HETATM    1  C1  UNL     1     -35.484  15.140  -7.437  1.00 20.00     0.013 C 
HETATM    2  C2  UNL     1     -35.019  16.210  -7.153  1.00 20.00    -0.087 C 
HETATM    3  C10 UNL     1     -34.455  17.518  -6.811  1.00 20.00     0.362 C 
ENDROOT
BRANCH   3   4
HETATM    4  N11 UNL     1     -33.694  17.442  -5.570  1.00 20.00     0.099 N 
HETATM    5  H28 UNL     1     -33.212  18.328  -5.419  1.00 20.00     0.317 HD
BRANCH   4   6
HETATM    6  C6  UNL     1     -34.573  17.167  -4.430  1.00 20.00     0.229 C 
HETATM    7  C4  UNL     1     -34.644  18.427  -3.559  1.00 20.00     0.036 C 
HETATM    8  C3  UNL     1     -33.455  18.338  -2.600  1.00 20.00     0.003 C 
HETATM    9  C5  UNL     1     -32.925  16.903  -2.690  1.00 20.00     0.011 C 
HETATM   10  C7  UNL     1     -33.998  16.107  -3.455  1.00 20.00    -0.017 C 
HETATM   11  C8  UNL     1     -35.090  15.615  -2.481  1.00 20.00     0.017 C 
HETATM   12  C9  UNL     1     -33.399  14.876  -4.149  1.00 20.00     0.017 C 
ENDBRANCH   4   6
ENDBRANCH   3   4
TORSDOF 2
ENDMDL
