MODEL 1
REMARK VINA RESULT:      -4.6      0.000      0.000
REMARK  2 active torsions:
REMARK  status: ('A' for Active; 'I' for Inactive)
REMARK    1  A    between atoms: C2_2  and  C6_6 
REMARK    2  A    between atoms: C6_6  and  O9_9 
ROOT
HETATM    1  C3  UNL     1     -24.516  17.958  10.135  1.00 20.00     0.058 C 
HETATM    2  C4  UNL     1     -22.133  17.858  10.689  1.00 20.00     0.116 C 
HETATM    3  C5  UNL     1     -24.656  17.623  11.620  1.00 20.00     0.046 C 
HETATM    4  C6  UNL     1     -23.173  17.387   9.671  1.00 20.00     0.089 C 
HETATM    5  C8  UNL     1     -25.672  18.506  12.327  1.00 20.00     0.021 C 
HETATM    6  S10 UNL     1     -22.983  17.858  12.300  1.00 20.00    -0.161 SA
ENDROOT
BRANCH   4   7
HETATM    7  C2  UNL     1     -22.845  17.830   8.279  1.00 20.00    -0.058 C 
HETATM    8  C1  UNL     1     -21.727  17.434   7.654  1.00 20.00     0.017 C 
HETATM    9  C7  UNL     1     -23.841  18.741   7.623  1.00 20.00     0.046 C 
ENDBRANCH   4   7
BRANCH   4  10
HETATM   10  O9  UNL     1     -23.245  15.960   9.682  1.00 20.00    -0.385 OA
HETATM   11  H24 UNL     1     -22.550  15.647   9.085  1.00 20.00     0.211 HD
ENDBRANCH   4  10
TORSDOF 2
ENDMDL
MODEL 2
REMARK VINA RESULT:      -4.1      1.662      3.830
REMARK  2 active torsions:
REMARK  status: ('A' for Active; 'I' for Inactive)
REMARK    1  A    between atoms: C2_2  and  C6_6 
REMARK    2  A    between atoms: C6_6  and  O9_9 
ROOT
HETATM    1  C3  UNL     1     -23.601  17.148   9.442  1.00 20.00     0.058 C 
HETATM    2  C4  UNL     1     -22.487  17.776  11.531  1.00 20.00     0.116 C 
HETATM    3  C5  UNL     1     -22.445  17.945   8.836  1.00 20.00     0.046 C 
HETATM    4  C6  UNL     1     -23.852  17.716  10.841  1.00 20.00     0.089 C 
HETATM    5  C8  UNL     1     -21.774  17.218   7.683  1.00 20.00     0.021 C 
HETATM    6  S10 UNL     1     -21.293  18.202  10.222  1.00 20.00    -0.161 SA
ENDROOT
BRANCH   4   7
HETATM    7  C2  UNL     1     -24.833  16.878  11.601  1.00 20.00    -0.058 C 
HETATM    8  C1  UNL     1     -24.670  15.556  11.751  1.00 20.00     0.017 C 
HETATM    9  C7  UNL     1     -26.010  17.603  12.185  1.00 20.00     0.046 C 
ENDBRANCH   4   7
BRANCH   4  10
HETATM   10  O9  UNL     1     -24.389  19.035  10.721  1.00 20.00    -0.385 OA
HETATM   11  H24 UNL     1     -23.754  19.628  11.147  1.00 20.00     0.211 HD
ENDBRANCH   4  10
TORSDOF 2
ENDMDL
MODEL 3
REMARK VINA RESULT:      -3.9     15.497     16.823
REMARK  2 active torsions:
REMARK  status: ('A' for Active; 'I' for Inactive)
REMARK    1  A    between atoms: C2_2  and  C6_6 
REMARK    2  A    between atoms: C6_6  and  O9_9 
ROOT
HETATM    1  C3  UNL     1     -32.910  16.744  -2.795  1.00 20.00     0.058 C 
HETATM    2  C4  UNL     1     -35.119  16.155  -1.919  1.00 20.00     0.116 C 
HETATM    3  C5  UNL     1     -33.121  17.972  -1.909  1.00 20.00     0.046 C 
HETATM    4  C6  UNL     1     -34.297  16.243  -3.206  1.00 20.00     0.089 C 
HETATM    5  C8  UNL     1     -31.908  18.291  -1.051  1.00 20.00     0.021 C 
HETATM    6  S10 UNL     1     -34.567  17.551  -0.886  1.00 20.00    -0.161 SA
ENDROOT
BRANCH   4   7
HETATM    7  C2  UNL     1     -34.212  14.927  -3.914  1.00 20.00    -0.058 C 
HETATM    8  C1  UNL     1     -33.056  14.458  -4.405  1.00 20.00     0.017 C 
HETATM    9  C7  UNL     1     -35.496  14.160  -4.042  1.00 20.00     0.046 C 
ENDBRANCH   4   7
BRANCH   4  10
HETATM   10  O9  UNL     1     -34.891  17.191  -4.094  1.00 20.00    -0.385 OA
HETATM   11  H24 UNL     1     -35.721  17.470  -3.680  1.00 20.00     0.211 HD
ENDBRANCH   4  10
TORSDOF 2
ENDMDL
MODEL 4
REMARK VINA RESULT:      -3.8     16.859     18.166
REMARK  2 active torsions:
REMARK  status: ('A' for Active; 'I' for Inactive)
REMARK    1  A    between atoms: C2_2  and  C6_6 
REMARK    2  A    between atoms: C6_6  and  O9_9 
ROOT
HETATM    1  C3  UNL     1     -34.497  15.624  -3.063  1.00 20.00     0.058 C 
HETATM    2  C4  UNL     1     -34.381  16.891  -5.156  1.00 20.00     0.116 C 
HETATM    3  C5  UNL     1     -33.534  16.717  -2.597  1.00 20.00     0.046 C 
HETATM    4  C6  UNL     1     -34.311  15.476  -4.575  1.00 20.00     0.089 C 
HETATM    5  C8  UNL     1     -33.922  17.306  -1.252  1.00 20.00     0.021 C 
HETATM    6  S10 UNL     1     -33.598  17.972  -3.916  1.00 20.00    -0.161 SA
ENDROOT
BRANCH   4   7
HETATM    7  C2  UNL     1     -35.346  14.570  -5.165  1.00 20.00    -0.058 C 
HETATM    8  C1  UNL     1     -36.018  13.681  -4.419  1.00 20.00     0.017 C 
HETATM    9  C7  UNL     1     -35.590  14.716  -6.638  1.00 20.00     0.046 C 
ENDBRANCH   4   7
BRANCH   4  10
HETATM   10  O9  UNL     1     -33.023  14.913  -4.834  1.00 20.00    -0.385 OA
HETATM   11  H24 UNL     1     -32.607  15.478  -5.502  1.00 20.00     0.211 HD
ENDBRANCH   4  10
TORSDOF 2
ENDMDL
MODEL 5
REMARK VINA RESULT:      -3.8     18.385     19.885
REMARK  2 active torsions:
REMARK  status: ('A' for Active; 'I' for Inactive)
REMARK    1  A    between atoms: C2_2  and  C6_6 
REMARK    2  A    between atoms: C6_6  and  O9_9 
ROOT
HETATM    1  C3  UNL     1     -34.391  16.680  -5.991  1.00 20.00     0.058 C 
HETATM    2  C4  UNL     1     -35.604  14.600  -6.439  1.00 20.00     0.116 C 
HETATM    3  C5  UNL     1     -34.670  16.912  -7.477  1.00 20.00     0.046 C 
HETATM    4  C6  UNL     1     -34.347  15.166  -5.773  1.00 20.00     0.089 C 
HETATM    5  C8  UNL     1     -35.208  18.304  -7.762  1.00 20.00     0.021 C 
HETATM    6  S10 UNL     1     -35.883  15.627  -7.918  1.00 20.00    -0.161 SA
ENDROOT
BRANCH   4   7
HETATM    7  C2  UNL     1     -34.276  14.827  -4.317  1.00 20.00    -0.058 C 
HETATM    8  C1  UNL     1     -34.942  13.785  -3.798  1.00 20.00     0.017 C 
HETATM    9  C7  UNL     1     -33.415  15.719  -3.471  1.00 20.00     0.046 C 
ENDBRANCH   4   7
BRANCH   4  10
HETATM   10  O9  UNL     1     -33.184  14.636  -6.413  1.00 20.00    -0.385 OA
HETATM   11  H24 UNL     1     -32.505  14.560  -5.727  1.00 20.00     0.211 HD
ENDBRANCH   4  10
TORSDOF 2
ENDMDL
MODEL 6
REMARK VINA RESULT:      -3.8     16.999     18.490
REMARK  2 active torsions:
REMARK  status: ('A' for Active; 'I' for Inactive)
REMARK    1  A    between atoms: C2_2  and  C6_6 
REMARK    2  A    between atoms: C6_6  and  O9_9 
ROOT
HETATM    1  C3  UNL     1     -34.447  16.744  -5.079  1.00 20.00     0.058 C 
HETATM    2  C4  UNL     1     -35.159  14.690  -3.952  1.00 20.00     0.116 C 
HETATM    3  C5  UNL     1     -34.763  15.915  -6.325  1.00 20.00     0.046 C 
HETATM    4  C6  UNL     1     -34.065  15.760  -3.971  1.00 20.00     0.089 C 
HETATM    5  C8  UNL     1     -35.599  16.678  -7.340  1.00 20.00     0.021 C 
HETATM    6  S10 UNL     1     -35.654  14.460  -5.690  1.00 20.00    -0.161 SA
ENDROOT
BRANCH   4   7
HETATM    7  C2  UNL     1     -33.927  16.453  -2.651  1.00 20.00    -0.058 C 
HETATM    8  C1  UNL     1     -32.853  17.198  -2.350  1.00 20.00     0.017 C 
HETATM    9  C7  UNL     1     -35.060  16.268  -1.685  1.00 20.00     0.046 C 
ENDBRANCH   4   7
BRANCH   4  10
HETATM   10  O9  UNL     1     -32.809  15.158  -4.294  1.00 20.00    -0.385 OA
HETATM   11  H24 UNL     1     -32.420  14.870  -3.456  1.00 20.00     0.211 HD
ENDBRANCH   4  10
TORSDOF 2
ENDMDL
MODEL 7
REMARK VINA RESULT:      -3.8     16.544     17.798
REMARK  2 active torsions:
REMARK  status: ('A' for Active; 'I' for Inactive)
REMARK    1  A    between atoms: C2_2  and  C6_6 
REMARK    2  A    between atoms: C6_6  and  O9_9 
ROOT
HETATM    1  C3  UNL     1     -34.860  15.622  -2.756  1.00 20.00     0.058 C 
HETATM    2  C4  UNL     1     -34.352  17.253  -4.510  1.00 20.00     0.116 C 
HETATM    3  C5  UNL     1     -34.288  16.724  -1.863  1.00 20.00     0.046 C 
HETATM    4  C6  UNL     1     -34.209  15.777  -4.133  1.00 20.00     0.089 C 
HETATM    5  C8  UNL     1     -35.157  17.004  -0.648  1.00 20.00     0.021 C 
HETATM    6  S10 UNL     1     -34.177  18.180  -2.951  1.00 20.00    -0.161 SA
ENDROOT
BRANCH   4   7
HETATM    7  C2  UNL     1     -34.845  14.871  -5.141  1.00 20.00    -0.058 C 
HETATM    8  C1  UNL     1     -34.532  14.929  -6.443  1.00 20.00     0.017 C 
HETATM    9  C7  UNL     1     -35.851  13.893  -4.609  1.00 20.00     0.046 C 
ENDBRANCH   4   7
BRANCH   4  10
HETATM   10  O9  UNL     1     -32.824  15.437  -4.036  1.00 20.00    -0.385 OA
HETATM   11  H24 UNL     1     -32.421  16.099  -3.455  1.00 20.00     0.211 HD
ENDBRANCH   4  10
TORSDOF 2
ENDMDL
MODEL 8
REMARK VINA RESULT:      -3.8     17.486     19.011
REMARK  2 active torsions:
REMARK  status: ('A' for Active; 'I' for Inactive)
REMARK    1  A    between atoms: C2_2  and  C6_6 
REMARK    2  A    between atoms: C6_6  and  O9_9 
ROOT
HETATM    1  C3  UNL     1     -33.938  15.445  -5.254  1.00 20.00     0.058 C 
HETATM    2  C4  UNL     1     -36.198  16.156  -4.636  1.00 20.00     0.116 C 
HETATM    3  C5  UNL     1     -34.661  14.978  -6.518  1.00 20.00     0.046 C 
HETATM    4  C6  UNL     1     -34.961  15.420  -4.116  1.00 20.00     0.089 C 
HETATM    5  C8  UNL     1     -33.943  15.393  -7.791  1.00 20.00     0.021 C 
HETATM    6  S10 UNL     1     -36.311  15.740  -6.406  1.00 20.00    -0.161 SA
ENDROOT
BRANCH   4   7
HETATM    7  C2  UNL     1     -34.409  16.047  -2.874  1.00 20.00    -0.058 C 
HETATM    8  C1  UNL     1     -35.144  16.181  -1.760  1.00 20.00     0.017 C 
HETATM    9  C7  UNL     1     -32.986  16.516  -2.946  1.00 20.00     0.046 C 
ENDBRANCH   4   7
BRANCH   4  10
HETATM   10  O9  UNL     1     -35.297  14.063  -3.821  1.00 20.00    -0.385 OA
HETATM   11  H24 UNL     1     -35.616  13.674  -4.648  1.00 20.00     0.211 HD
ENDBRANCH   4  10
TORSDOF 2
ENDMDL
MODEL 9
REMARK VINA RESULT:      -3.8     23.648     24.253
REMARK  2 active torsions:
REMARK  status: ('A' for Active; 'I' for Inactive)
REMARK    1  A    between atoms: C2_2  and  C6_6 
REMARK    2  A    between atoms: C6_6  and  O9_9 
ROOT
HETATM    1  C3  UNL     1     -42.276   6.481  -1.168  1.00 20.00     0.058 C 
HETATM    2  C4  UNL     1     -43.210   6.699   1.085  1.00 20.00     0.116 C 
HETATM    3  C5  UNL     1     -42.401   4.992  -0.844  1.00 20.00     0.046 C 
HETATM    4  C6  UNL     1     -42.103   7.217   0.164  1.00 20.00     0.089 C 
HETATM    5  C8  UNL     1     -43.041   4.199  -1.972  1.00 20.00     0.021 C 
HETATM    6  S10 UNL     1     -43.417   4.938   0.666  1.00 20.00    -0.161 SA
ENDROOT
BRANCH   4   7
HETATM    7  C2  UNL     1     -42.169   8.701  -0.022  1.00 20.00    -0.058 C 
HETATM    8  C1  UNL     1     -41.168   9.508   0.360  1.00 20.00     0.017 C 
HETATM    9  C7  UNL     1     -43.417   9.233  -0.661  1.00 20.00     0.046 C 
ENDBRANCH   4   7
BRANCH   4  10
HETATM   10  O9  UNL     1     -40.826   6.890   0.715  1.00 20.00    -0.385 OA
HETATM   11  H24 UNL     1     -40.997   6.453   1.562  1.00 20.00     0.211 HD
ENDBRANCH   4  10
TORSDOF 2
ENDMDL
