MODEL 1
REMARK VINA RESULT:      -5.0      0.000      0.000
REMARK  0 active torsions:
REMARK  status: ('A' for Active; 'I' for Inactive)
ROOT
HETATM    1  C1  UNL     1     -36.989  14.072  -4.565  1.00 20.00     0.067 C 
HETATM    2  C2  UNL     1     -34.650  14.243  -3.814  1.00 20.00     0.059 C 
HETATM    3  C3  UNL     1     -35.584  14.138  -5.009  1.00 20.00     0.129 C 
HETATM    4  C4  UNL     1     -34.478  15.751  -3.600  1.00 20.00     0.056 C 
HETATM    5  C5  UNL     1     -35.235  15.405  -5.809  1.00 20.00     0.071 C 
HETATM    6  C6  UNL     1     -35.426  16.300  -2.531  1.00 20.00     0.045 C 
HETATM    7  C7  UNL     1     -33.037  16.110  -3.239  1.00 20.00     0.045 C 
HETATM    8  C8  UNL     1     -34.047  15.147  -6.750  1.00 20.00     0.047 C 
HETATM    9  C9  UNL     1     -36.383  16.003  -6.625  1.00 20.00     0.047 C 
HETATM   10  N10 UNL     1     -38.093  14.020  -4.216  1.00 20.00    -0.197 NA
HETATM   11  O11 UNL     1     -34.809  16.391  -4.847  1.00 20.00    -0.369 OA
ENDROOT
TORSDOF 0
ENDMDL
MODEL 2
REMARK VINA RESULT:      -4.7      1.575      2.959
REMARK  0 active torsions:
REMARK  status: ('A' for Active; 'I' for Inactive)
ROOT
HETATM    1  C1  UNL     1     -35.611  13.821  -4.099  1.00 20.00     0.067 C 
HETATM    2  C2  UNL     1     -36.194  16.191  -3.767  1.00 20.00     0.059 C 
HETATM    3  C3  UNL     1     -35.222  15.073  -3.424  1.00 20.00     0.129 C 
HETATM    4  C4  UNL     1     -35.579  16.860  -5.002  1.00 20.00     0.056 C 
HETATM    5  C5  UNL     1     -33.877  15.652  -3.898  1.00 20.00     0.071 C 
HETATM    6  C6  UNL     1     -36.179  16.338  -6.309  1.00 20.00     0.045 C 
HETATM    7  C7  UNL     1     -35.717  18.382  -4.947  1.00 20.00     0.045 C 
HETATM    8  C8  UNL     1     -33.235  16.512  -2.797  1.00 20.00     0.047 C 
HETATM    9  C9  UNL     1     -32.851  14.622  -4.374  1.00 20.00     0.047 C 
HETATM   10  N10 UNL     1     -35.918  12.837  -4.629  1.00 20.00    -0.197 NA
HETATM   11  O11 UNL     1     -34.177  16.530  -5.002  1.00 20.00    -0.369 OA
ENDROOT
TORSDOF 0
ENDMDL
MODEL 3
REMARK VINA RESULT:      -4.5      1.223      1.663
REMARK  0 active torsions:
REMARK  status: ('A' for Active; 'I' for Inactive)
ROOT
HETATM    1  C1  UNL     1     -36.534  14.247  -4.156  1.00 20.00     0.067 C 
HETATM    2  C2  UNL     1     -35.161  15.528  -2.563  1.00 20.00     0.059 C 
HETATM    3  C3  UNL     1     -35.162  14.491  -3.675  1.00 20.00     0.129 C 
HETATM    4  C4  UNL     1     -34.964  16.862  -3.292  1.00 20.00     0.056 C 
HETATM    5  C5  UNL     1     -34.232  15.132  -4.721  1.00 20.00     0.071 C 
HETATM    6  C6  UNL     1     -36.288  17.582  -3.558  1.00 20.00     0.045 C 
HETATM    7  C7  UNL     1     -34.022  17.790  -2.525  1.00 20.00     0.045 C 
HETATM    8  C8  UNL     1     -32.763  14.782  -4.432  1.00 20.00     0.047 C 
HETATM    9  C9  UNL     1     -34.542  14.779  -6.177  1.00 20.00     0.047 C 
HETATM   10  N10 UNL     1     -37.613  14.055  -4.533  1.00 20.00    -0.197 NA
HETATM   11  O11 UNL     1     -34.368  16.559  -4.567  1.00 20.00    -0.369 OA
ENDROOT
TORSDOF 0
ENDMDL
MODEL 4
REMARK VINA RESULT:      -4.5      1.380      3.183
REMARK  0 active torsions:
REMARK  status: ('A' for Active; 'I' for Inactive)
ROOT
HETATM    1  C1  UNL     1     -36.077  13.821  -4.597  1.00 20.00     0.067 C 
HETATM    2  C2  UNL     1     -36.254  15.703  -6.175  1.00 20.00     0.059 C 
HETATM    3  C3  UNL     1     -36.370  15.260  -4.725  1.00 20.00     0.129 C 
HETATM    4  C4  UNL     1     -34.797  16.157  -6.315  1.00 20.00     0.056 C 
HETATM    5  C5  UNL     1     -35.353  16.176  -4.021  1.00 20.00     0.071 C 
HETATM    6  C6  UNL     1     -33.896  15.061  -6.888  1.00 20.00     0.045 C 
HETATM    7  C7  UNL     1     -34.679  17.417  -7.174  1.00 20.00     0.045 C 
HETATM    8  C8  UNL     1     -36.000  17.516  -3.636  1.00 20.00     0.047 C 
HETATM    9  C9  UNL     1     -34.684  15.581  -2.780  1.00 20.00     0.047 C 
HETATM   10  N10 UNL     1     -35.846  12.689  -4.496  1.00 20.00    -0.197 NA
HETATM   11  O11 UNL     1     -34.324  16.463  -4.990  1.00 20.00    -0.369 OA
ENDROOT
TORSDOF 0
ENDMDL
MODEL 5
REMARK VINA RESULT:      -4.2      1.323      2.880
REMARK  0 active torsions:
REMARK  status: ('A' for Active; 'I' for Inactive)
ROOT
HETATM    1  C1  UNL     1     -37.280  14.745  -4.098  1.00 20.00     0.067 C 
HETATM    2  C2  UNL     1     -36.299  16.954  -4.570  1.00 20.00     0.059 C 
HETATM    3  C3  UNL     1     -36.226  15.701  -3.712  1.00 20.00     0.129 C 
HETATM    4  C4  UNL     1     -35.366  16.659  -5.749  1.00 20.00     0.056 C 
HETATM    5  C5  UNL     1     -34.795  15.204  -3.980  1.00 20.00     0.071 C 
HETATM    6  C6  UNL     1     -36.120  16.134  -6.973  1.00 20.00     0.045 C 
HETATM    7  C7  UNL     1     -34.545  17.887  -6.142  1.00 20.00     0.045 C 
HETATM    8  C8  UNL     1     -33.794  15.882  -3.029  1.00 20.00     0.047 C 
HETATM    9  C9  UNL     1     -34.600  13.689  -3.895  1.00 20.00     0.047 C 
HETATM   10  N10 UNL     1     -38.108  13.994  -4.402  1.00 20.00    -0.197 NA
HETATM   11  O11 UNL     1     -34.461  15.625  -5.318  1.00 20.00    -0.369 OA
ENDROOT
TORSDOF 0
ENDMDL
MODEL 6
REMARK VINA RESULT:      -4.2      2.083      3.775
REMARK  0 active torsions:
REMARK  status: ('A' for Active; 'I' for Inactive)
ROOT
HETATM    1  C1  UNL     1     -34.033  14.512  -4.113  1.00 20.00     0.067 C 
HETATM    2  C2  UNL     1     -36.345  15.256  -3.702  1.00 20.00     0.059 C 
HETATM    3  C3  UNL     1     -34.962  15.053  -3.104  1.00 20.00     0.129 C 
HETATM    4  C4  UNL     1     -36.325  16.701  -4.215  1.00 20.00     0.056 C 
HETATM    5  C5  UNL     1     -34.606  16.468  -2.614  1.00 20.00     0.071 C 
HETATM    6  C6  UNL     1     -35.991  16.786  -5.706  1.00 20.00     0.045 C 
HETATM    7  C7  UNL     1     -37.650  17.413  -3.946  1.00 20.00     0.045 C 
HETATM    8  C8  UNL     1     -35.155  16.709  -1.198  1.00 20.00     0.047 C 
HETATM    9  C9  UNL     1     -33.115  16.810  -2.625  1.00 20.00     0.047 C 
HETATM   10  N10 UNL     1     -33.303  14.087  -4.907  1.00 20.00    -0.197 NA
HETATM   11  O11 UNL     1     -35.284  17.387  -3.495  1.00 20.00    -0.369 OA
ENDROOT
TORSDOF 0
ENDMDL
MODEL 7
REMARK VINA RESULT:      -4.2      1.543      2.707
REMARK  0 active torsions:
REMARK  status: ('A' for Active; 'I' for Inactive)
ROOT
HETATM    1  C1  UNL     1     -36.457  14.462  -4.007  1.00 20.00     0.067 C 
HETATM    2  C2  UNL     1     -36.307  16.740  -3.083  1.00 20.00     0.059 C 
HETATM    3  C3  UNL     1     -35.595  15.411  -3.279  1.00 20.00     0.129 C 
HETATM    4  C4  UNL     1     -35.901  17.569  -4.306  1.00 20.00     0.056 C 
HETATM    5  C5  UNL     1     -34.328  15.828  -4.045  1.00 20.00     0.071 C 
HETATM    6  C6  UNL     1     -36.945  17.512  -5.423  1.00 20.00     0.045 C 
HETATM    7  C7  UNL     1     -35.628  19.027  -3.935  1.00 20.00     0.045 C 
HETATM    8  C8  UNL     1     -33.215  16.251  -3.072  1.00 20.00     0.047 C 
HETATM    9  C9  UNL     1     -33.765  14.777  -5.005  1.00 20.00     0.047 C 
HETATM   10  N10 UNL     1     -37.135  13.717  -4.580  1.00 20.00    -0.197 NA
HETATM   11  O11 UNL     1     -34.684  16.994  -4.817  1.00 20.00    -0.369 OA
ENDROOT
TORSDOF 0
ENDMDL
MODEL 8
REMARK VINA RESULT:      -4.0      1.929      3.459
REMARK  0 active torsions:
REMARK  status: ('A' for Active; 'I' for Inactive)
ROOT
HETATM    1  C1  UNL     1     -36.628  17.168  -3.615  1.00 20.00     0.067 C 
HETATM    2  C2  UNL     1     -34.563  16.400  -4.714  1.00 20.00     0.059 C 
HETATM    3  C3  UNL     1     -35.158  17.281  -3.628  1.00 20.00     0.129 C 
HETATM    4  C4  UNL     1     -34.287  15.067  -4.008  1.00 20.00     0.056 C 
HETATM    5  C5  UNL     1     -34.473  16.745  -2.358  1.00 20.00     0.071 C 
HETATM    6  C6  UNL     1     -35.414  14.053  -4.216  1.00 20.00     0.045 C 
HETATM    7  C7  UNL     1     -32.959  14.455  -4.456  1.00 20.00     0.045 C 
HETATM    8  C8  UNL     1     -33.117  17.434  -2.137  1.00 20.00     0.047 C 
HETATM    9  C9  UNL     1     -35.295  16.858  -1.072  1.00 20.00     0.047 C 
HETATM   10  N10 UNL     1     -37.784  17.079  -3.605  1.00 20.00    -0.197 NA
HETATM   11  O11 UNL     1     -34.207  15.348  -2.598  1.00 20.00    -0.369 OA
ENDROOT
TORSDOF 0
ENDMDL
MODEL 9
REMARK VINA RESULT:      -4.0      1.569      2.205
REMARK  0 active torsions:
REMARK  status: ('A' for Active; 'I' for Inactive)
ROOT
HETATM    1  C1  UNL     1     -35.945  13.868  -4.999  1.00 20.00     0.067 C 
HETATM    2  C2  UNL     1     -34.525  15.834  -5.423  1.00 20.00     0.059 C 
HETATM    3  C3  UNL     1     -35.904  15.217  -5.591  1.00 20.00     0.129 C 
HETATM    4  C4  UNL     1     -34.613  16.600  -4.098  1.00 20.00     0.056 C 
HETATM    5  C5  UNL     1     -36.810  16.242  -4.886  1.00 20.00     0.071 C 
HETATM    6  C6  UNL     1     -34.069  15.790  -2.919  1.00 20.00     0.045 C 
HETATM    7  C7  UNL     1     -33.889  17.944  -4.174  1.00 20.00     0.045 C 
HETATM    8  C8  UNL     1     -37.223  17.364  -5.854  1.00 20.00     0.047 C 
HETATM    9  C9  UNL     1     -38.071  15.667  -4.237  1.00 20.00     0.047 C 
HETATM   10  N10 UNL     1     -35.977  12.806  -4.534  1.00 20.00    -0.197 NA
HETATM   11  O11 UNL     1     -36.010  16.848  -3.850  1.00 20.00    -0.369 OA
ENDROOT
TORSDOF 0
ENDMDL
