MODEL 1
REMARK VINA RESULT:      -4.4      0.000      0.000
REMARK  1 active torsions:
REMARK  status: ('A' for Active; 'I' for Inactive)
REMARK    1  A    between atoms: C5_5  and  O9_9 
ROOT
HETATM    1  C1  UNL     1     -23.640  18.355   8.165  1.00 20.00     0.098 C 
HETATM    2  C2  UNL     1     -24.938  18.605  10.263  1.00 20.00     0.069 C 
HETATM    3  C3  UNL     1     -23.766  16.507   9.800  1.00 20.00     0.128 C 
HETATM    4  C4  UNL     1     -25.016  18.004  11.666  1.00 20.00     0.047 C 
HETATM    5  C5  UNL     1     -23.691  18.019   9.594  1.00 20.00     0.157 C 
HETATM    6  C6  UNL     1     -26.408  18.102  12.270  1.00 20.00     0.021 C 
HETATM    7  N8  UNL     1     -23.599  18.620   7.036  1.00 20.00    -0.194 NA
HETATM    8  S10 UNL     1     -24.507  16.270  11.448  1.00 20.00    -0.161 SA
ENDROOT
BRANCH   5   9
HETATM    9  O9  UNL     1     -22.513  18.514  10.231  1.00 20.00    -0.369 OA
HETATM   10  C7  UNL     1     -21.343  17.930   9.679  1.00 20.00     0.204 C 
ENDBRANCH   5   9
TORSDOF 1
ENDMDL
MODEL 2
REMARK VINA RESULT:      -4.1     17.003     17.809
REMARK  1 active torsions:
REMARK  status: ('A' for Active; 'I' for Inactive)
REMARK    1  A    between atoms: C5_5  and  O9_9 
ROOT
HETATM    1  C1  UNL     1     -35.437  13.850  -4.271  1.00 20.00     0.098 C 
HETATM    2  C2  UNL     1     -35.446  15.695  -2.614  1.00 20.00     0.069 C 
HETATM    3  C3  UNL     1     -33.436  15.260  -3.939  1.00 20.00     0.128 C 
HETATM    4  C4  UNL     1     -34.709  17.000  -2.315  1.00 20.00     0.047 C 
HETATM    5  C5  UNL     1     -34.962  15.210  -3.983  1.00 20.00     0.157 C 
HETATM    6  C6  UNL     1     -34.711  17.349  -0.836  1.00 20.00     0.021 C 
HETATM    7  N8  UNL     1     -35.812  12.776  -4.499  1.00 20.00    -0.194 NA
HETATM    8  S10 UNL     1     -33.019  16.718  -2.930  1.00 20.00    -0.161 SA
ENDROOT
BRANCH   5   9
HETATM    9  O9  UNL     1     -35.423  16.091  -5.007  1.00 20.00    -0.369 OA
HETATM   10  C7  UNL     1     -34.758  15.847  -6.237  1.00 20.00     0.204 C 
ENDBRANCH   5   9
TORSDOF 1
ENDMDL
MODEL 3
REMARK VINA RESULT:      -4.0     17.489     18.389
REMARK  1 active torsions:
REMARK  status: ('A' for Active; 'I' for Inactive)
REMARK    1  A    between atoms: C5_5  and  O9_9 
ROOT
HETATM    1  C1  UNL     1     -35.722  13.878  -4.296  1.00 20.00     0.098 C 
HETATM    2  C2  UNL     1     -34.594  15.540  -2.841  1.00 20.00     0.069 C 
HETATM    3  C3  UNL     1     -34.980  16.054  -5.202  1.00 20.00     0.128 C 
HETATM    4  C4  UNL     1     -34.320  17.042  -2.778  1.00 20.00     0.047 C 
HETATM    5  C5  UNL     1     -35.564  15.309  -4.003  1.00 20.00     0.157 C 
HETATM    6  C6  UNL     1     -33.048  17.375  -2.017  1.00 20.00     0.021 C 
HETATM    7  N8  UNL     1     -35.846  12.748  -4.528  1.00 20.00    -0.194 NA
HETATM    8  S10 UNL     1     -34.208  17.557  -4.521  1.00 20.00    -0.161 SA
ENDROOT
BRANCH   5   9
HETATM    9  O9  UNL     1     -36.843  15.864  -3.693  1.00 20.00    -0.369 OA
HETATM   10  C7  UNL     1     -37.684  15.894  -4.836  1.00 20.00     0.204 C 
ENDBRANCH   5   9
TORSDOF 1
ENDMDL
MODEL 4
REMARK VINA RESULT:      -3.9     18.128     19.053
REMARK  1 active torsions:
REMARK  status: ('A' for Active; 'I' for Inactive)
REMARK    1  A    between atoms: C5_5  and  O9_9 
ROOT
HETATM    1  C1  UNL     1     -36.883  14.362  -4.518  1.00 20.00     0.098 C 
HETATM    2  C2  UNL     1     -35.647  16.492  -4.815  1.00 20.00     0.069 C 
HETATM    3  C3  UNL     1     -34.658  14.687  -3.493  1.00 20.00     0.128 C 
HETATM    4  C4  UNL     1     -34.219  17.032  -4.755  1.00 20.00     0.047 C 
HETATM    5  C5  UNL     1     -35.556  14.968  -4.696  1.00 20.00     0.157 C 
HETATM    6  C6  UNL     1     -34.163  18.505  -4.385  1.00 20.00     0.021 C 
HETATM    7  N8  UNL     1     -37.930  13.883  -4.377  1.00 20.00    -0.194 NA
HETATM    8  S10 UNL     1     -33.395  15.999  -3.501  1.00 20.00    -0.161 SA
ENDROOT
BRANCH   5   9
HETATM    9  O9  UNL     1     -34.947  14.420  -5.865  1.00 20.00    -0.369 OA
HETATM   10  C7  UNL     1     -35.664  14.776  -7.037  1.00 20.00     0.204 C 
ENDBRANCH   5   9
TORSDOF 1
ENDMDL
MODEL 5
REMARK VINA RESULT:      -3.9     17.099     17.985
REMARK  1 active torsions:
REMARK  status: ('A' for Active; 'I' for Inactive)
REMARK    1  A    between atoms: C5_5  and  O9_9 
ROOT
HETATM    1  C1  UNL     1     -34.045  15.000  -5.809  1.00 20.00     0.098 C 
HETATM    2  C2  UNL     1     -33.463  15.900  -3.572  1.00 20.00     0.069 C 
HETATM    3  C3  UNL     1     -35.680  16.327  -4.517  1.00 20.00     0.128 C 
HETATM    4  C4  UNL     1     -34.147  16.387  -2.295  1.00 20.00     0.047 C 
HETATM    5  C5  UNL     1     -34.553  15.297  -4.463  1.00 20.00     0.157 C 
HETATM    6  C6  UNL     1     -33.318  17.411  -1.539  1.00 20.00     0.021 C 
HETATM    7  N8  UNL     1     -33.644  14.765  -6.872  1.00 20.00    -0.194 NA
HETATM    8  S10 UNL     1     -35.724  17.098  -2.867  1.00 20.00    -0.161 SA
ENDROOT
BRANCH   5   9
HETATM    9  O9  UNL     1     -35.055  14.094  -3.879  1.00 20.00    -0.369 OA
HETATM   10  C7  UNL     1     -36.232  13.652  -4.537  1.00 20.00     0.204 C 
ENDBRANCH   5   9
TORSDOF 1
ENDMDL
MODEL 6
REMARK VINA RESULT:      -3.8     17.799     18.631
REMARK  1 active torsions:
REMARK  status: ('A' for Active; 'I' for Inactive)
REMARK    1  A    between atoms: C5_5  and  O9_9 
ROOT
HETATM    1  C1  UNL     1     -37.164  14.595  -4.323  1.00 20.00     0.098 C 
HETATM    2  C2  UNL     1     -35.805  16.221  -3.034  1.00 20.00     0.069 C 
HETATM    3  C3  UNL     1     -34.696  14.528  -4.409  1.00 20.00     0.128 C 
HETATM    4  C4  UNL     1     -34.404  16.834  -3.037  1.00 20.00     0.047 C 
HETATM    5  C5  UNL     1     -35.941  15.409  -4.325  1.00 20.00     0.157 C 
HETATM    6  C6  UNL     1     -33.946  17.258  -1.651  1.00 20.00     0.021 C 
HETATM    7  N8  UNL     1     -38.131  13.953  -4.321  1.00 20.00    -0.194 NA
HETATM    8  S10 UNL     1     -33.337  15.526  -3.720  1.00 20.00    -0.161 SA
ENDROOT
BRANCH   5   9
HETATM    9  O9  UNL     1     -35.966  16.282  -5.455  1.00 20.00    -0.369 OA
HETATM   10  C7  UNL     1     -35.815  15.562  -6.668  1.00 20.00     0.204 C 
ENDBRANCH   5   9
TORSDOF 1
ENDMDL
MODEL 7
REMARK VINA RESULT:      -3.7     18.647     19.656
REMARK  1 active torsions:
REMARK  status: ('A' for Active; 'I' for Inactive)
REMARK    1  A    between atoms: C5_5  and  O9_9 
ROOT
HETATM    1  C1  UNL     1     -37.335  14.503  -4.471  1.00 20.00     0.098 C 
HETATM    2  C2  UNL     1     -35.494  14.586  -6.131  1.00 20.00     0.069 C 
HETATM    3  C3  UNL     1     -36.043  16.580  -4.824  1.00 20.00     0.128 C 
HETATM    4  C4  UNL     1     -34.234  15.395  -6.438  1.00 20.00     0.047 C 
HETATM    5  C5  UNL     1     -36.005  15.054  -4.765  1.00 20.00     0.157 C 
HETATM    6  C6  UNL     1     -33.885  15.400  -7.918  1.00 20.00     0.021 C 
HETATM    7  N8  UNL     1     -38.385  14.069  -4.239  1.00 20.00    -0.194 NA
HETATM    8  S10 UNL     1     -34.612  17.072  -5.838  1.00 20.00    -0.161 SA
ENDROOT
BRANCH   5   9
HETATM    9  O9  UNL     1     -35.098  14.654  -3.738  1.00 20.00    -0.369 OA
HETATM   10  C7  UNL     1     -35.118  15.563  -2.648  1.00 20.00     0.204 C 
ENDBRANCH   5   9
TORSDOF 1
ENDMDL
MODEL 8
REMARK VINA RESULT:      -3.7     14.682     15.634
REMARK  1 active torsions:
REMARK  status: ('A' for Active; 'I' for Inactive)
REMARK    1  A    between atoms: C5_5  and  O9_9 
ROOT
HETATM    1  C1  UNL     1     -31.800  18.270  -1.132  1.00 20.00     0.098 C 
HETATM    2  C2  UNL     1     -33.105  16.714  -2.556  1.00 20.00     0.069 C 
HETATM    3  C3  UNL     1     -34.199  17.872  -0.698  1.00 20.00     0.128 C 
HETATM    4  C4  UNL     1     -34.553  16.432  -2.954  1.00 20.00     0.047 C 
HETATM    5  C5  UNL     1     -33.106  18.020  -1.755  1.00 20.00     0.157 C 
HETATM    6  C6  UNL     1     -34.788  14.976  -3.324  1.00 20.00     0.021 C 
HETATM    7  N8  UNL     1     -30.768  18.468  -0.640  1.00 20.00    -0.194 NA
HETATM    8  S10 UNL     1     -35.529  16.913  -1.493  1.00 20.00    -0.161 SA
ENDROOT
BRANCH   5   9
HETATM    9  O9  UNL     1     -33.433  19.117  -2.607  1.00 20.00    -0.369 OA
HETATM   10  C7  UNL     1     -32.485  19.261  -3.653  1.00 20.00     0.204 C 
ENDBRANCH   5   9
TORSDOF 1
ENDMDL
MODEL 9
REMARK VINA RESULT:      -3.6     18.671     19.626
REMARK  1 active torsions:
REMARK  status: ('A' for Active; 'I' for Inactive)
REMARK    1  A    between atoms: C5_5  and  O9_9 
ROOT
HETATM    1  C1  UNL     1     -37.485  14.574  -4.565  1.00 20.00     0.098 C 
HETATM    2  C2  UNL     1     -35.046  14.638  -4.117  1.00 20.00     0.069 C 
HETATM    3  C3  UNL     1     -35.873  14.952  -6.399  1.00 20.00     0.128 C 
HETATM    4  C4  UNL     1     -33.759  15.183  -4.736  1.00 20.00     0.047 C 
HETATM    5  C5  UNL     1     -36.212  15.208  -4.931  1.00 20.00     0.157 C 
HETATM    6  C6  UNL     1     -32.536  14.361  -4.365  1.00 20.00     0.021 C 
HETATM    7  N8  UNL     1     -38.491  14.073  -4.276  1.00 20.00    -0.194 NA
HETATM    8  S10 UNL     1     -34.066  15.147  -6.530  1.00 20.00    -0.161 SA
ENDROOT
BRANCH   5   9
HETATM    9  O9  UNL     1     -36.315  16.616  -4.720  1.00 20.00    -0.369 OA
HETATM   10  C7  UNL     1     -37.116  17.230  -5.718  1.00 20.00     0.204 C 
ENDBRANCH   5   9
TORSDOF 1
ENDMDL
