MODEL 1
REMARK VINA RESULT:      -3.6      0.000      0.000
REMARK  1 active torsions:
REMARK  status: ('A' for Active; 'I' for Inactive)
REMARK    1  A    between atoms: C4_4  and  S9_9 
ROOT
HETATM    1  C1  UNL     1     -35.189  15.718  -2.851  1.00 20.00     0.025 C 
HETATM    2  C2  UNL     1     -36.693  16.430  -4.812  1.00 20.00     0.088 C 
HETATM    3  C3  UNL     1     -34.137  17.379  -4.497  1.00 20.00     0.082 C 
HETATM    4  C4  UNL     1     -36.362  15.354  -3.779  1.00 20.00     0.054 C 
HETATM    5  C5  UNL     1     -33.872  16.254  -3.476  1.00 20.00    -0.038 C 
HETATM    6  C6  UNL     1     -33.026  15.128  -4.104  1.00 20.00     0.015 C 
HETATM    7  C7  UNL     1     -33.024  16.852  -2.327  1.00 20.00     0.015 C 
HETATM    8  S8  UNL     1     -35.274  16.915  -5.834  1.00 20.00    -0.167 SA
ENDROOT
BRANCH   4   9
HETATM    9  S9  UNL     1     -36.187  13.702  -4.550  1.00 20.00    -0.177 SA
HETATM   10  H23 UNL     1     -37.498  13.508  -4.726  1.00 20.00     0.102 HD
ENDBRANCH   4   9
TORSDOF 1
ENDMDL
MODEL 2
REMARK VINA RESULT:      -3.4      1.424      2.485
REMARK  1 active torsions:
REMARK  status: ('A' for Active; 'I' for Inactive)
REMARK    1  A    between atoms: C4_4  and  S9_9 
ROOT
HETATM    1  C1  UNL     1     -34.980  16.887  -4.496  1.00 20.00     0.025 C 
HETATM    2  C2  UNL     1     -36.471  15.188  -5.720  1.00 20.00     0.088 C 
HETATM    3  C3  UNL     1     -34.483  14.424  -3.991  1.00 20.00     0.082 C 
HETATM    4  C4  UNL     1     -36.338  16.604  -5.161  1.00 20.00     0.054 C 
HETATM    5  C5  UNL     1     -34.419  15.871  -3.464  1.00 20.00    -0.038 C 
HETATM    6  C6  UNL     1     -35.115  15.990  -2.093  1.00 20.00     0.015 C 
HETATM    7  C7  UNL     1     -32.928  16.222  -3.232  1.00 20.00     0.015 C 
HETATM    8  S8  UNL     1     -36.144  13.890  -4.496  1.00 20.00    -0.167 SA
ENDROOT
BRANCH   4   9
HETATM    9  S9  UNL     1     -37.767  17.055  -4.107  1.00 20.00    -0.177 SA
HETATM   10  H23 UNL     1     -38.674  16.971  -5.086  1.00 20.00     0.102 HD
ENDBRANCH   4   9
TORSDOF 1
ENDMDL
MODEL 3
REMARK VINA RESULT:      -3.4      1.538      2.490
REMARK  1 active torsions:
REMARK  status: ('A' for Active; 'I' for Inactive)
REMARK    1  A    between atoms: C4_4  and  S9_9 
ROOT
HETATM    1  C1  UNL     1     -33.088  15.530  -3.759  1.00 20.00     0.025 C 
HETATM    2  C2  UNL     1     -35.154  14.033  -4.079  1.00 20.00     0.088 C 
HETATM    3  C3  UNL     1     -35.188  16.269  -2.489  1.00 20.00     0.082 C 
HETATM    4  C4  UNL     1     -33.837  14.539  -4.667  1.00 20.00     0.054 C 
HETATM    5  C5  UNL     1     -33.867  16.723  -3.141  1.00 20.00    -0.038 C 
HETATM    6  C6  UNL     1     -34.116  17.848  -4.165  1.00 20.00     0.015 C 
HETATM    7  C7  UNL     1     -32.978  17.331  -2.028  1.00 20.00     0.015 C 
HETATM    8  S8  UNL     1     -36.295  15.362  -3.607  1.00 20.00    -0.167 SA
ENDROOT
BRANCH   4   9
HETATM    9  S9  UNL     1     -34.046  15.146  -6.382  1.00 20.00    -0.177 SA
HETATM   10  H23 UNL     1     -34.378  16.393  -6.032  1.00 20.00     0.102 HD
ENDBRANCH   4   9
TORSDOF 1
ENDMDL
MODEL 4
REMARK VINA RESULT:      -3.3     16.882     18.380
REMARK  1 active torsions:
REMARK  status: ('A' for Active; 'I' for Inactive)
REMARK    1  A    between atoms: C4_4  and  S9_9 
ROOT
HETATM    1  C1  UNL     1     -23.558  16.376  10.182  1.00 20.00     0.025 C 
HETATM    2  C2  UNL     1     -24.170  18.182   8.458  1.00 20.00     0.088 C 
HETATM    3  C3  UNL     1     -25.434  17.976  10.885  1.00 20.00     0.082 C 
HETATM    4  C4  UNL     1     -23.092  17.245   9.002  1.00 20.00     0.054 C 
HETATM    5  C5  UNL     1     -24.300  17.050  11.368  1.00 20.00    -0.038 C 
HETATM    6  C6  UNL     1     -23.335  17.804  12.305  1.00 20.00     0.015 C 
HETATM    7  C7  UNL     1     -24.942  15.923  12.214  1.00 20.00     0.015 C 
HETATM    8  S8  UNL     1     -24.897  19.263   9.721  1.00 20.00    -0.167 SA
ENDROOT
BRANCH   4   9
HETATM    9  S9  UNL     1     -21.524  18.132   9.332  1.00 20.00    -0.177 SA
HETATM   10  H23 UNL     1     -22.086  19.116  10.042  1.00 20.00     0.102 HD
ENDBRANCH   4   9
TORSDOF 1
ENDMDL
MODEL 5
REMARK VINA RESULT:      -3.3      1.746      2.007
REMARK  1 active torsions:
REMARK  status: ('A' for Active; 'I' for Inactive)
REMARK    1  A    between atoms: C4_4  and  S9_9 
ROOT
HETATM    1  C1  UNL     1     -34.985  15.570  -2.470  1.00 20.00     0.025 C 
HETATM    2  C2  UNL     1     -35.656  16.093  -4.896  1.00 20.00     0.088 C 
HETATM    3  C3  UNL     1     -35.255  18.058  -3.023  1.00 20.00     0.082 C 
HETATM    4  C4  UNL     1     -34.968  15.119  -3.941  1.00 20.00     0.054 C 
HETATM    5  C5  UNL     1     -34.556  17.021  -2.121  1.00 20.00    -0.038 C 
HETATM    6  C6  UNL     1     -33.026  17.201  -2.159  1.00 20.00     0.015 C 
HETATM    7  C7  UNL     1     -34.996  17.296  -0.662  1.00 20.00     0.015 C 
HETATM    8  S8  UNL     1     -35.005  17.784  -4.801  1.00 20.00    -0.167 SA
ENDROOT
BRANCH   4   9
HETATM    9  S9  UNL     1     -33.299  14.650  -4.533  1.00 20.00    -0.177 SA
HETATM   10  H23 UNL     1     -32.705  15.780  -4.135  1.00 20.00     0.102 HD
ENDBRANCH   4   9
TORSDOF 1
ENDMDL
MODEL 6
REMARK VINA RESULT:      -3.2      1.580      2.388
REMARK  1 active torsions:
REMARK  status: ('A' for Active; 'I' for Inactive)
REMARK    1  A    between atoms: C4_4  and  S9_9 
ROOT
HETATM    1  C1  UNL     1     -34.489  17.841  -3.810  1.00 20.00     0.025 C 
HETATM    2  C2  UNL     1     -34.539  16.343  -5.899  1.00 20.00     0.088 C 
HETATM    3  C3  UNL     1     -33.112  15.684  -3.650  1.00 20.00     0.082 C 
HETATM    4  C4  UNL     1     -35.263  17.399  -5.064  1.00 20.00     0.054 C 
HETATM    5  C5  UNL     1     -33.896  16.757  -2.868  1.00 20.00    -0.038 C 
HETATM    6  C6  UNL     1     -34.974  16.110  -1.976  1.00 20.00     0.015 C 
HETATM    7  C7  UNL     1     -32.902  17.464  -1.915  1.00 20.00     0.015 C 
HETATM    8  S8  UNL     1     -34.072  14.865  -4.956  1.00 20.00    -0.167 SA
ENDROOT
BRANCH   4   9
HETATM    9  S9  UNL     1     -36.994  16.917  -4.712  1.00 20.00    -0.177 SA
HETATM   10  H23 UNL     1     -37.434  17.115  -5.960  1.00 20.00     0.102 HD
ENDBRANCH   4   9
TORSDOF 1
ENDMDL
MODEL 7
REMARK VINA RESULT:      -3.2      2.577      3.429
REMARK  1 active torsions:
REMARK  status: ('A' for Active; 'I' for Inactive)
REMARK    1  A    between atoms: C4_4  and  S9_9 
ROOT
HETATM    1  C1  UNL     1     -35.244  15.900  -2.081  1.00 20.00     0.025 C 
HETATM    2  C2  UNL     1     -33.788  17.745  -1.037  1.00 20.00     0.088 C 
HETATM    3  C3  UNL     1     -33.020  16.352  -3.273  1.00 20.00     0.082 C 
HETATM    4  C4  UNL     1     -35.197  17.190  -1.243  1.00 20.00     0.054 C 
HETATM    5  C5  UNL     1     -34.469  15.846  -3.425  1.00 20.00    -0.038 C 
HETATM    6  C6  UNL     1     -35.202  16.604  -4.550  1.00 20.00     0.015 C 
HETATM    7  C7  UNL     1     -34.405  14.362  -3.864  1.00 20.00     0.015 C 
HETATM    8  S8  UNL     1     -32.886  18.028  -2.586  1.00 20.00    -0.167 SA
ENDROOT
BRANCH   4   9
HETATM    9  S9  UNL     1     -36.356  18.478  -1.834  1.00 20.00    -0.177 SA
HETATM   10  H23 UNL     1     -36.009  19.387  -0.916  1.00 20.00     0.102 HD
ENDBRANCH   4   9
TORSDOF 1
ENDMDL
MODEL 8
REMARK VINA RESULT:      -3.2      2.169      3.407
REMARK  1 active torsions:
REMARK  status: ('A' for Active; 'I' for Inactive)
REMARK    1  A    between atoms: C4_4  and  S9_9 
ROOT
HETATM    1  C1  UNL     1     -32.897  16.743  -2.686  1.00 20.00     0.025 C 
HETATM    2  C2  UNL     1     -33.707  19.125  -3.215  1.00 20.00     0.088 C 
HETATM    3  C3  UNL     1     -34.484  16.944  -4.688  1.00 20.00     0.082 C 
HETATM    4  C4  UNL     1     -33.195  18.155  -2.151  1.00 20.00     0.054 C 
HETATM    5  C5  UNL     1     -33.960  16.029  -3.564  1.00 20.00    -0.038 C 
HETATM    6  C6  UNL     1     -35.124  15.466  -2.724  1.00 20.00     0.015 C 
HETATM    7  C7  UNL     1     -33.270  14.813  -4.230  1.00 20.00     0.015 C 
HETATM    8  S8  UNL     1     -35.169  18.521  -4.104  1.00 20.00    -0.167 SA
ENDROOT
BRANCH   4   9
HETATM    9  S9  UNL     1     -34.261  18.153  -0.662  1.00 20.00    -0.177 SA
HETATM   10  H23 UNL     1     -33.394  17.488   0.110  1.00 20.00     0.102 HD
ENDBRANCH   4   9
TORSDOF 1
ENDMDL
MODEL 9
REMARK VINA RESULT:      -3.2      1.664      1.860
REMARK  1 active torsions:
REMARK  status: ('A' for Active; 'I' for Inactive)
REMARK    1  A    between atoms: C4_4  and  S9_9 
ROOT
HETATM    1  C1  UNL     1     -35.703  16.280  -3.919  1.00 20.00     0.025 C 
HETATM    2  C2  UNL     1     -36.738  16.323  -6.273  1.00 20.00     0.088 C 
HETATM    3  C3  UNL     1     -34.207  15.376  -5.795  1.00 20.00     0.082 C 
HETATM    4  C4  UNL     1     -36.987  16.257  -4.766  1.00 20.00     0.054 C 
HETATM    5  C5  UNL     1     -34.539  15.321  -4.290  1.00 20.00    -0.038 C 
HETATM    6  C6  UNL     1     -34.812  13.873  -3.838  1.00 20.00     0.015 C 
HETATM    7  C7  UNL     1     -33.284  15.794  -3.514  1.00 20.00     0.015 C 
HETATM    8  S8  UNL     1     -35.621  15.028  -6.880  1.00 20.00    -0.167 SA
ENDROOT
BRANCH   4   9
HETATM    9  S9  UNL     1     -38.121  14.889  -4.324  1.00 20.00    -0.177 SA
HETATM   10  H23 UNL     1     -37.911  14.976  -3.005  1.00 20.00     0.102 HD
ENDBRANCH   4   9
TORSDOF 1
ENDMDL
