MODEL 1
REMARK VINA RESULT:      -4.0      0.000      0.000
REMARK  2 active torsions:
REMARK  status: ('A' for Active; 'I' for Inactive)
REMARK    1  A    between atoms: C2_2  and  C3_3 
REMARK    2  A    between atoms: C3_3  and  C7_7 
ROOT
HETATM    1  C4  UNL     1     -39.218  16.934  -5.068  1.00 20.00     0.084 C 
HETATM    2  C5  UNL     1     -38.380  16.608  -6.292  1.00 20.00     0.085 C 
HETATM    3  C6  UNL     1     -38.277  14.390  -4.349  1.00 20.00     0.097 C 
HETATM    4  C7  UNL     1     -36.963  15.159  -4.351  1.00 20.00     0.131 C 
HETATM    5  S10 UNL     1     -39.734  15.462  -4.127  1.00 20.00    -0.167 SA
HETATM    6  S11 UNL     1     -36.680  16.098  -5.890  1.00 20.00    -0.155 SA
ENDROOT
BRANCH   4   7
HETATM    7  C3  UNL     1     -35.821  14.200  -4.233  1.00 20.00     0.169 C 
HETATM    8  O9  UNL     1     -35.982  13.005  -4.485  1.00 20.00    -0.291 OA
BRANCH   7   9
HETATM    9  C2  UNL     1     -34.472  14.699  -3.805  1.00 20.00    -0.024 C 
HETATM   10  C1  UNL     1     -33.350  14.296  -4.418  1.00 20.00     0.022 C 
HETATM   11  C8  UNL     1     -34.448  15.670  -2.660  1.00 20.00     0.051 C 
ENDBRANCH   7   9
ENDBRANCH   4   7
TORSDOF 2
ENDMDL
MODEL 2
REMARK VINA RESULT:      -3.8      0.986      2.177
REMARK  2 active torsions:
REMARK  status: ('A' for Active; 'I' for Inactive)
REMARK    1  A    between atoms: C2_2  and  C3_3 
REMARK    2  A    between atoms: C3_3  and  C7_7 
ROOT
HETATM    1  C4  UNL     1     -38.685  16.663  -6.484  1.00 20.00     0.084 C 
HETATM    2  C5  UNL     1     -38.841  16.577  -4.975  1.00 20.00     0.085 C 
HETATM    3  C6  UNL     1     -36.031  16.123  -5.751  1.00 20.00     0.097 C 
HETATM    4  C7  UNL     1     -36.685  14.816  -5.328  1.00 20.00     0.131 C 
HETATM    5  S10 UNL     1     -36.981  17.023  -7.018  1.00 20.00    -0.167 SA
HETATM    6  S11 UNL     1     -38.148  15.053  -4.263  1.00 20.00    -0.155 SA
ENDROOT
BRANCH   4   7
HETATM    7  C3  UNL     1     -35.715  14.005  -4.528  1.00 20.00     0.169 C 
HETATM    8  O9  UNL     1     -35.838  12.781  -4.455  1.00 20.00    -0.291 OA
BRANCH   7   9
HETATM    9  C2  UNL     1     -34.587  14.688  -3.812  1.00 20.00    -0.024 C 
HETATM   10  C1  UNL     1     -34.802  15.440  -2.724  1.00 20.00     0.022 C 
HETATM   11  C8  UNL     1     -33.211  14.482  -4.377  1.00 20.00     0.051 C 
ENDBRANCH   7   9
ENDBRANCH   4   7
TORSDOF 2
ENDMDL
MODEL 3
REMARK VINA RESULT:      -3.7      1.841      2.587
REMARK  2 active torsions:
REMARK  status: ('A' for Active; 'I' for Inactive)
REMARK    1  A    between atoms: C2_2  and  C3_3 
REMARK    2  A    between atoms: C3_3  and  C7_7 
ROOT
HETATM    1  C4  UNL     1     -36.582  16.648  -7.734  1.00 20.00     0.084 C 
HETATM    2  C5  UNL     1     -35.795  15.362  -7.918  1.00 20.00     0.085 C 
HETATM    3  C6  UNL     1     -36.853  15.540  -5.170  1.00 20.00     0.097 C 
HETATM    4  C7  UNL     1     -35.353  15.797  -5.181  1.00 20.00     0.131 C 
HETATM    5  S10 UNL     1     -37.767  16.582  -6.352  1.00 20.00    -0.167 SA
HETATM    6  S11 UNL     1     -34.515  15.109  -6.648  1.00 20.00    -0.155 SA
ENDROOT
BRANCH   4   7
HETATM    7  C3  UNL     1     -34.722  15.138  -3.995  1.00 20.00     0.169 C 
HETATM    8  O9  UNL     1     -34.559  13.917  -3.974  1.00 20.00    -0.291 OA
BRANCH   7   9
HETATM    9  C2  UNL     1     -34.286  15.971  -2.826  1.00 20.00    -0.024 C 
HETATM   10  C1  UNL     1     -35.077  16.148  -1.759  1.00 20.00     0.022 C 
HETATM   11  C8  UNL     1     -32.922  16.591  -2.915  1.00 20.00     0.051 C 
ENDBRANCH   7   9
ENDBRANCH   4   7
TORSDOF 2
ENDMDL
MODEL 4
REMARK VINA RESULT:      -3.6      3.076      3.489
REMARK  2 active torsions:
REMARK  status: ('A' for Active; 'I' for Inactive)
REMARK    1  A    between atoms: C2_2  and  C3_3 
REMARK    2  A    between atoms: C3_3  and  C7_7 
ROOT
HETATM    1  C4  UNL     1     -36.132  16.845  -7.491  1.00 20.00     0.084 C 
HETATM    2  C5  UNL     1     -35.012  17.824  -7.185  1.00 20.00     0.085 C 
HETATM    3  C6  UNL     1     -34.276  15.105  -6.308  1.00 20.00     0.097 C 
HETATM    4  C7  UNL     1     -34.607  15.981  -5.108  1.00 20.00     0.131 C 
HETATM    5  S10 UNL     1     -35.578  15.112  -7.582  1.00 20.00    -0.167 SA
HETATM    6  S11 UNL     1     -34.452  17.766  -5.454  1.00 20.00    -0.155 SA
ENDROOT
BRANCH   4   7
HETATM    7  C3  UNL     1     -33.651  15.689  -3.994  1.00 20.00     0.169 C 
HETATM    8  O9  UNL     1     -32.740  14.875  -4.153  1.00 20.00    -0.291 OA
BRANCH   7   9
HETATM    9  C2  UNL     1     -33.806  16.393  -2.678  1.00 20.00    -0.024 C 
HETATM   10  C1  UNL     1     -32.860  17.219  -2.211  1.00 20.00     0.022 C 
HETATM   11  C8  UNL     1     -35.072  16.124  -1.918  1.00 20.00     0.051 C 
ENDBRANCH   7   9
ENDBRANCH   4   7
TORSDOF 2
ENDMDL
MODEL 5
REMARK VINA RESULT:      -3.6      1.900      4.488
REMARK  2 active torsions:
REMARK  status: ('A' for Active; 'I' for Inactive)
REMARK    1  A    between atoms: C2_2  and  C3_3 
REMARK    2  A    between atoms: C3_3  and  C7_7 
ROOT
HETATM    1  C4  UNL     1     -33.270  16.227  -3.494  1.00 20.00     0.084 C 
HETATM    2  C5  UNL     1     -34.230  16.278  -2.319  1.00 20.00     0.085 C 
HETATM    3  C6  UNL     1     -35.013  14.144  -4.200  1.00 20.00     0.097 C 
HETATM    4  C7  UNL     1     -35.968  15.324  -4.305  1.00 20.00     0.131 C 
HETATM    5  S10 UNL     1     -33.262  14.622  -4.357  1.00 20.00    -0.167 SA
HETATM    6  S11 UNL     1     -35.978  16.379  -2.816  1.00 20.00    -0.155 SA
ENDROOT
BRANCH   4   7
HETATM    7  C3  UNL     1     -37.368  14.824  -4.470  1.00 20.00     0.169 C 
HETATM    8  O9  UNL     1     -37.611  13.619  -4.397  1.00 20.00    -0.291 OA
BRANCH   7   9
HETATM    9  C2  UNL     1     -38.481  15.799  -4.725  1.00 20.00    -0.024 C 
HETATM   10  C1  UNL     1     -38.413  16.692  -5.722  1.00 20.00     0.022 C 
HETATM   11  C8  UNL     1     -39.667  15.717  -3.809  1.00 20.00     0.051 C 
ENDBRANCH   7   9
ENDBRANCH   4   7
TORSDOF 2
ENDMDL
MODEL 6
REMARK VINA RESULT:      -3.5      4.995      6.709
REMARK  2 active torsions:
REMARK  status: ('A' for Active; 'I' for Inactive)
REMARK    1  A    between atoms: C2_2  and  C3_3 
REMARK    2  A    between atoms: C3_3  and  C7_7 
ROOT
HETATM    1  C4  UNL     1     -32.740  18.734   1.951  1.00 20.00     0.084 C 
HETATM    2  C5  UNL     1     -31.615  19.262   1.078  1.00 20.00     0.085 C 
HETATM    3  C6  UNL     1     -34.090  18.958  -0.499  1.00 20.00     0.097 C 
HETATM    4  C7  UNL     1     -33.093  17.864  -0.855  1.00 20.00     0.131 C 
HETATM    5  S10 UNL     1     -34.400  19.092   1.290  1.00 20.00    -0.167 SA
HETATM    6  S11 UNL     1     -31.369  18.300  -0.447  1.00 20.00    -0.155 SA
ENDROOT
BRANCH   4   7
HETATM    7  C3  UNL     1     -33.122  17.618  -2.330  1.00 20.00     0.169 C 
HETATM    8  O9  UNL     1     -32.684  18.465  -3.111  1.00 20.00    -0.291 OA
BRANCH   7   9
HETATM    9  C2  UNL     1     -33.688  16.333  -2.859  1.00 20.00    -0.024 C 
HETATM   10  C1  UNL     1     -33.058  15.632  -3.813  1.00 20.00     0.022 C 
HETATM   11  C8  UNL     1     -34.988  15.876  -2.264  1.00 20.00     0.051 C 
ENDBRANCH   7   9
ENDBRANCH   4   7
TORSDOF 2
ENDMDL
MODEL 7
REMARK VINA RESULT:      -3.5      2.253      2.974
REMARK  2 active torsions:
REMARK  status: ('A' for Active; 'I' for Inactive)
REMARK    1  A    between atoms: C2_2  and  C3_3 
REMARK    2  A    between atoms: C3_3  and  C7_7 
ROOT
HETATM    1  C4  UNL     1     -37.458  15.916  -5.580  1.00 20.00     0.084 C 
HETATM    2  C5  UNL     1     -36.195  16.143  -6.393  1.00 20.00     0.085 C 
HETATM    3  C6  UNL     1     -35.562  14.754  -3.868  1.00 20.00     0.097 C 
HETATM    4  C7  UNL     1     -35.108  16.206  -3.806  1.00 20.00     0.131 C 
HETATM    5  S10 UNL     1     -37.305  14.569  -4.363  1.00 20.00    -0.167 SA
HETATM    6  S11 UNL     1     -34.866  16.955  -5.452  1.00 20.00    -0.155 SA
ENDROOT
BRANCH   4   7
HETATM    7  C3  UNL     1     -33.785  16.289  -3.112  1.00 20.00     0.169 C 
HETATM    8  O9  UNL     1     -32.816  15.662  -3.543  1.00 20.00    -0.291 OA
BRANCH   7   9
HETATM    9  C2  UNL     1     -33.641  17.142  -1.886  1.00 20.00    -0.024 C 
HETATM   10  C1  UNL     1     -32.529  17.853  -1.655  1.00 20.00     0.022 C 
HETATM   11  C8  UNL     1     -34.804  17.156  -0.938  1.00 20.00     0.051 C 
ENDBRANCH   7   9
ENDBRANCH   4   7
TORSDOF 2
ENDMDL
MODEL 8
REMARK VINA RESULT:      -3.5      1.380      2.207
REMARK  2 active torsions:
REMARK  status: ('A' for Active; 'I' for Inactive)
REMARK    1  A    between atoms: C2_2  and  C3_3 
REMARK    2  A    between atoms: C3_3  and  C7_7 
ROOT
HETATM    1  C4  UNL     1     -38.221  16.537  -6.523  1.00 20.00     0.084 C 
HETATM    2  C5  UNL     1     -38.697  16.070  -5.158  1.00 20.00     0.085 C 
HETATM    3  C6  UNL     1     -35.858  16.867  -5.046  1.00 20.00     0.097 C 
HETATM    4  C7  UNL     1     -35.989  15.352  -4.986  1.00 20.00     0.131 C 
HETATM    5  S10 UNL     1     -36.749  17.608  -6.452  1.00 20.00    -0.167 SA
HETATM    6  S11 UNL     1     -37.631  14.793  -4.419  1.00 20.00    -0.155 SA
ENDROOT
BRANCH   4   7
HETATM    7  C3  UNL     1     -35.002  14.802  -4.006  1.00 20.00     0.169 C 
HETATM    8  O9  UNL     1     -34.749  13.596  -3.987  1.00 20.00    -0.291 OA
BRANCH   7   9
HETATM    9  C2  UNL     1     -34.316  15.725  -3.042  1.00 20.00    -0.024 C 
HETATM   10  C1  UNL     1     -33.067  16.161  -3.258  1.00 20.00     0.022 C 
HETATM   11  C8  UNL     1     -35.101  16.134  -1.830  1.00 20.00     0.051 C 
ENDBRANCH   7   9
ENDBRANCH   4   7
TORSDOF 2
ENDMDL
MODEL 9
REMARK VINA RESULT:      -3.5      2.780      4.483
REMARK  2 active torsions:
REMARK  status: ('A' for Active; 'I' for Inactive)
REMARK    1  A    between atoms: C2_2  and  C3_3 
REMARK    2  A    between atoms: C3_3  and  C7_7 
ROOT
HETATM    1  C4  UNL     1     -34.608  17.968  -1.812  1.00 20.00     0.084 C 
HETATM    2  C5  UNL     1     -35.214  16.612  -1.494  1.00 20.00     0.085 C 
HETATM    3  C6  UNL     1     -32.904  16.312  -3.305  1.00 20.00     0.097 C 
HETATM    4  C7  UNL     1     -34.207  16.089  -4.061  1.00 20.00     0.131 C 
HETATM    5  S10 UNL     1     -32.876  17.876  -2.372  1.00 20.00    -0.167 SA
HETATM    6  S11 UNL     1     -35.599  15.628  -2.976  1.00 20.00    -0.155 SA
ENDROOT
BRANCH   4   7
HETATM    7  C3  UNL     1     -34.040  14.959  -5.027  1.00 20.00     0.169 C 
HETATM    8  O9  UNL     1     -33.491  13.914  -4.673  1.00 20.00    -0.291 OA
BRANCH   7   9
HETATM    9  C2  UNL     1     -34.544  15.101  -6.433  1.00 20.00    -0.024 C 
HETATM   10  C1  UNL     1     -33.704  15.166  -7.474  1.00 20.00     0.022 C 
HETATM   11  C8  UNL     1     -36.034  15.164  -6.608  1.00 20.00     0.051 C 
ENDBRANCH   7   9
ENDBRANCH   4   7
TORSDOF 2
ENDMDL
