MODEL 1
REMARK VINA RESULT:      -4.3      0.000      0.000
REMARK  1 active torsions:
REMARK  status: ('A' for Active; 'I' for Inactive)
REMARK    1  A    between atoms: C5_5  and  O9_9 
ROOT
HETATM    1  C1  UNL     1     -24.594  18.514  11.658  1.00 20.00     0.022 C 
HETATM    2  C2  UNL     1     -25.782  18.865  10.767  1.00 20.00     0.075 C 
HETATM    3  C3  UNL     1     -24.302  17.783   8.709  1.00 20.00     0.112 C 
HETATM    4  C4  UNL     1     -23.754  17.294  11.196  1.00 20.00    -0.015 C 
HETATM    5  C5  UNL     1     -23.192  17.496   9.740  1.00 20.00     0.069 C 
HETATM    6  C6  UNL     1     -22.605  17.099  12.215  1.00 20.00     0.018 C 
HETATM    7  C7  UNL     1     -24.623  16.011  11.283  1.00 20.00     0.018 C 
HETATM    8  C8  UNL     1     -22.096  18.577   9.653  1.00 20.00     0.047 C 
HETATM    9  S10 UNL     1     -25.285  19.263   9.072  1.00 20.00    -0.166 SA
ENDROOT
BRANCH   5  10
HETATM   10  O9  UNL     1     -22.563  16.266   9.334  1.00 20.00    -0.389 OA
HETATM   11  H26 UNL     1     -22.172  16.444   8.468  1.00 20.00     0.210 HD
ENDBRANCH   5  10
TORSDOF 1
ENDMDL
MODEL 2
REMARK VINA RESULT:      -3.9      1.354      2.842
REMARK  1 active torsions:
REMARK  status: ('A' for Active; 'I' for Inactive)
REMARK    1  A    between atoms: C5_5  and  O9_9 
ROOT
HETATM    1  C1  UNL     1     -24.739  18.111   9.176  1.00 20.00     0.022 C 
HETATM    2  C2  UNL     1     -25.449  19.263   9.881  1.00 20.00     0.075 C 
HETATM    3  C3  UNL     1     -24.357  18.250  12.200  1.00 20.00     0.112 C 
HETATM    4  C4  UNL     1     -23.440  17.612   9.861  1.00 20.00    -0.015 C 
HETATM    5  C5  UNL     1     -23.707  17.147  11.341  1.00 20.00     0.069 C 
HETATM    6  C6  UNL     1     -22.872  16.451   9.006  1.00 20.00     0.018 C 
HETATM    7  C7  UNL     1     -22.372  18.736   9.816  1.00 20.00     0.018 C 
HETATM    8  C8  UNL     1     -24.531  15.847  11.433  1.00 20.00     0.047 C 
HETATM    9  S10 UNL     1     -25.951  18.838  11.569  1.00 20.00    -0.166 SA
ENDROOT
BRANCH   5  10
HETATM   10  O9  UNL     1     -22.436  16.849  11.948  1.00 20.00    -0.389 OA
HETATM   11  H26 UNL     1     -22.640  16.456  12.806  1.00 20.00     0.210 HD
ENDBRANCH   5  10
TORSDOF 1
ENDMDL
MODEL 3
REMARK VINA RESULT:      -3.9     23.124     24.127
REMARK  1 active torsions:
REMARK  status: ('A' for Active; 'I' for Inactive)
REMARK    1  A    between atoms: C5_5  and  O9_9 
ROOT
HETATM    1  C1  UNL     1     -42.819   6.839  -1.565  1.00 20.00     0.022 C 
HETATM    2  C2  UNL     1     -41.893   8.051  -1.532  1.00 20.00     0.075 C 
HETATM    3  C3  UNL     1     -41.121   7.141   0.953  1.00 20.00     0.112 C 
HETATM    4  C4  UNL     1     -42.335   5.610  -0.751  1.00 20.00    -0.015 C 
HETATM    5  C5  UNL     1     -42.108   5.971   0.764  1.00 20.00     0.069 C 
HETATM    6  C6  UNL     1     -43.399   4.494  -0.905  1.00 20.00     0.018 C 
HETATM    7  C7  UNL     1     -41.037   5.051  -1.390  1.00 20.00     0.018 C 
HETATM    8  C8  UNL     1     -43.417   6.252   1.527  1.00 20.00     0.047 C 
HETATM    9  S10 UNL     1     -41.636   8.681   0.146  1.00 20.00    -0.166 SA
ENDROOT
BRANCH   5  10
HETATM   10  O9  UNL     1     -41.517   4.827   1.408  1.00 20.00    -0.389 OA
HETATM   11  H26 UNL     1     -42.010   4.060   1.087  1.00 20.00     0.210 HD
ENDBRANCH   5  10
TORSDOF 1
ENDMDL
MODEL 4
REMARK VINA RESULT:      -3.8     17.111     18.579
REMARK  1 active torsions:
REMARK  status: ('A' for Active; 'I' for Inactive)
REMARK    1  A    between atoms: C5_5  and  O9_9 
ROOT
HETATM    1  C1  UNL     1     -35.285  14.050  -4.247  1.00 20.00     0.022 C 
HETATM    2  C2  UNL     1     -36.706  14.523  -4.540  1.00 20.00     0.075 C 
HETATM    3  C3  UNL     1     -35.674  17.074  -4.373  1.00 20.00     0.112 C 
HETATM    4  C4  UNL     1     -34.156  15.001  -4.722  1.00 20.00    -0.015 C 
HETATM    5  C5  UNL     1     -34.301  16.434  -4.087  1.00 20.00     0.069 C 
HETATM    6  C6  UNL     1     -32.801  14.356  -4.336  1.00 20.00     0.018 C 
HETATM    7  C7  UNL     1     -34.166  15.077  -6.271  1.00 20.00     0.018 C 
HETATM    8  C8  UNL     1     -34.007  16.464  -2.573  1.00 20.00     0.047 C 
HETATM    9  S10 UNL     1     -37.082  16.112  -3.757  1.00 20.00    -0.166 SA
ENDROOT
BRANCH   5  10
HETATM   10  O9  UNL     1     -33.315  17.290  -4.694  1.00 20.00    -0.389 OA
HETATM   11  H26 UNL     1     -32.457  16.927  -4.436  1.00 20.00     0.210 HD
ENDBRANCH   5  10
TORSDOF 1
ENDMDL
MODEL 5
REMARK VINA RESULT:      -3.8     17.343     18.778
REMARK  1 active torsions:
REMARK  status: ('A' for Active; 'I' for Inactive)
REMARK    1  A    between atoms: C5_5  and  O9_9 
ROOT
HETATM    1  C1  UNL     1     -35.686  14.696  -4.109  1.00 20.00     0.022 C 
HETATM    2  C2  UNL     1     -35.926  14.250  -5.548  1.00 20.00     0.075 C 
HETATM    3  C3  UNL     1     -34.655  16.586  -6.271  1.00 20.00     0.112 C 
HETATM    4  C4  UNL     1     -34.435  15.587  -3.889  1.00 20.00    -0.015 C 
HETATM    5  C5  UNL     1     -34.491  16.891  -4.769  1.00 20.00     0.069 C 
HETATM    6  C6  UNL     1     -34.362  15.935  -2.381  1.00 20.00     0.018 C 
HETATM    7  C7  UNL     1     -33.157  14.763  -4.198  1.00 20.00     0.018 C 
HETATM    8  C8  UNL     1     -35.571  17.891  -4.310  1.00 20.00     0.047 C 
HETATM    9  S10 UNL     1     -36.152  15.647  -6.678  1.00 20.00    -0.166 SA
ENDROOT
BRANCH   5  10
HETATM   10  O9  UNL     1     -33.234  17.578  -4.624  1.00 20.00    -0.389 OA
HETATM   11  H26 UNL     1     -32.649  16.961  -4.164  1.00 20.00     0.210 HD
ENDBRANCH   5  10
TORSDOF 1
ENDMDL
MODEL 6
REMARK VINA RESULT:      -3.8     17.208     18.765
REMARK  1 active torsions:
REMARK  status: ('A' for Active; 'I' for Inactive)
REMARK    1  A    between atoms: C5_5  and  O9_9 
ROOT
HETATM    1  C1  UNL     1     -36.124  16.444  -4.442  1.00 20.00     0.022 C 
HETATM    2  C2  UNL     1     -35.520  17.367  -3.388  1.00 20.00     0.075 C 
HETATM    3  C3  UNL     1     -33.273  15.782  -3.578  1.00 20.00     0.112 C 
HETATM    4  C4  UNL     1     -35.107  15.786  -5.411  1.00 20.00    -0.015 C 
HETATM    5  C5  UNL     1     -34.026  14.947  -4.633  1.00 20.00     0.069 C 
HETATM    6  C6  UNL     1     -35.903  14.894  -6.396  1.00 20.00     0.018 C 
HETATM    7  C7  UNL     1     -34.438  16.886  -6.278  1.00 20.00     0.018 C 
HETATM    8  C8  UNL     1     -34.594  13.666  -3.990  1.00 20.00     0.047 C 
HETATM    9  S10 UNL     1     -34.344  16.511  -2.309  1.00 20.00    -0.166 SA
ENDROOT
BRANCH   5  10
HETATM   10  O9  UNL     1     -33.041  14.504  -5.585  1.00 20.00    -0.389 OA
HETATM   11  H26 UNL     1     -32.954  13.551  -5.449  1.00 20.00     0.210 HD
ENDBRANCH   5  10
TORSDOF 1
ENDMDL
MODEL 7
REMARK VINA RESULT:      -3.8     17.304     18.686
REMARK  1 active torsions:
REMARK  status: ('A' for Active; 'I' for Inactive)
REMARK    1  A    between atoms: C5_5  and  O9_9 
ROOT
HETATM    1  C1  UNL     1     -34.981  17.388  -4.234  1.00 20.00     0.022 C 
HETATM    2  C2  UNL     1     -36.469  17.488  -4.558  1.00 20.00     0.075 C 
HETATM    3  C3  UNL     1     -36.336  14.781  -5.058  1.00 20.00     0.112 C 
HETATM    4  C4  UNL     1     -34.509  16.014  -3.692  1.00 20.00    -0.015 C 
HETATM    5  C5  UNL     1     -34.838  14.850  -4.699  1.00 20.00     0.069 C 
HETATM    6  C6  UNL     1     -32.986  16.108  -3.427  1.00 20.00     0.018 C 
HETATM    7  C7  UNL     1     -35.166  15.754  -2.311  1.00 20.00     0.018 C 
HETATM    8  C8  UNL     1     -33.987  14.896  -5.984  1.00 20.00     0.047 C 
HETATM    9  S10 UNL     1     -36.986  16.294  -5.817  1.00 20.00    -0.166 SA
ENDROOT
BRANCH   5  10
HETATM   10  O9  UNL     1     -34.511  13.603  -4.057  1.00 20.00    -0.389 OA
HETATM   11  H26 UNL     1     -35.317  13.322  -3.603  1.00 20.00     0.210 HD
ENDBRANCH   5  10
TORSDOF 1
ENDMDL
MODEL 8
REMARK VINA RESULT:      -3.7     17.735     19.089
REMARK  1 active torsions:
REMARK  status: ('A' for Active; 'I' for Inactive)
REMARK    1  A    between atoms: C5_5  and  O9_9 
ROOT
HETATM    1  C1  UNL     1     -35.738  15.974  -3.496  1.00 20.00     0.022 C 
HETATM    2  C2  UNL     1     -37.107  15.587  -4.048  1.00 20.00     0.075 C 
HETATM    3  C3  UNL     1     -35.793  15.117  -6.424  1.00 20.00     0.112 C 
HETATM    4  C4  UNL     1     -34.529  15.270  -4.166  1.00 20.00    -0.015 C 
HETATM    5  C5  UNL     1     -34.489  15.537  -5.717  1.00 20.00     0.069 C 
HETATM    6  C6  UNL     1     -33.241  15.789  -3.478  1.00 20.00     0.018 C 
HETATM    7  C7  UNL     1     -34.589  13.749  -3.866  1.00 20.00     0.018 C 
HETATM    8  C8  UNL     1     -34.138  16.995  -6.076  1.00 20.00     0.047 C 
HETATM    9  S10 UNL     1     -37.275  15.962  -5.811  1.00 20.00    -0.166 SA
ENDROOT
BRANCH   5  10
HETATM   10  O9  UNL     1     -33.438  14.731  -6.278  1.00 20.00    -0.389 OA
HETATM   11  H26 UNL     1     -33.880  14.000  -6.730  1.00 20.00     0.210 HD
ENDBRANCH   5  10
TORSDOF 1
ENDMDL
MODEL 9
REMARK VINA RESULT:      -3.7     16.684     18.152
REMARK  1 active torsions:
REMARK  status: ('A' for Active; 'I' for Inactive)
REMARK    1  A    between atoms: C5_5  and  O9_9 
ROOT
HETATM    1  C1  UNL     1     -34.351  14.841  -3.482  1.00 20.00     0.022 C 
HETATM    2  C2  UNL     1     -33.652  14.627  -4.822  1.00 20.00     0.075 C 
HETATM    3  C3  UNL     1     -34.492  17.179  -5.439  1.00 20.00     0.112 C 
HETATM    4  C4  UNL     1     -34.421  16.313  -2.996  1.00 20.00    -0.015 C 
HETATM    5  C5  UNL     1     -35.148  17.235  -4.045  1.00 20.00     0.069 C 
HETATM    6  C6  UNL     1     -35.161  16.326  -1.635  1.00 20.00     0.018 C 
HETATM    7  C7  UNL     1     -32.986  16.826  -2.706  1.00 20.00     0.018 C 
HETATM    8  C8  UNL     1     -36.660  16.957  -4.158  1.00 20.00     0.047 C 
HETATM    9  S10 UNL     1     -34.457  15.522  -6.175  1.00 20.00    -0.166 SA
ENDROOT
BRANCH   5  10
HETATM   10  O9  UNL     1     -35.032  18.597  -3.591  1.00 20.00    -0.389 OA
HETATM   11  H26 UNL     1     -35.401  18.609  -2.698  1.00 20.00     0.210 HD
ENDBRANCH   5  10
TORSDOF 1
ENDMDL
