MODEL 1
REMARK VINA RESULT:      -4.1      0.000      0.000
REMARK  2 active torsions:
REMARK  status: ('A' for Active; 'I' for Inactive)
REMARK    1  A    between atoms: C1_1  and  C5_5 
REMARK    2  A    between atoms: C1_1  and  C8_8 
ROOT
HETATM    1  C2  UNL     1     -39.355  16.475  -5.824  1.00 20.00     0.084 C 
HETATM    2  C3  UNL     1     -37.974  17.072  -6.042  1.00 20.00     0.085 C 
HETATM    3  C4  UNL     1     -38.255  14.506  -4.218  1.00 20.00     0.096 C 
HETATM    4  C5  UNL     1     -36.871  15.108  -4.430  1.00 20.00     0.126 C 
HETATM    5  S10 UNL     1     -39.564  15.767  -4.163  1.00 20.00    -0.167 SA
HETATM    6  S11 UNL     1     -36.661  15.816  -6.095  1.00 20.00    -0.155 SA
ENDROOT
BRANCH   4   7
HETATM    7  C1  UNL     1     -35.835  14.037  -4.294  1.00 20.00     0.144 C 
HETATM    8  O9  UNL     1     -36.049  12.898  -4.709  1.00 20.00    -0.296 OA
BRANCH   7   9
HETATM    9  C8  UNL     1     -34.535  14.420  -3.593  1.00 20.00     0.048 C 
HETATM   10  C6  UNL     1     -33.435  14.649  -4.623  1.00 20.00     0.017 C 
HETATM   11  C7  UNL     1     -34.728  15.659  -2.722  1.00 20.00     0.017 C 
ENDBRANCH   7   9
ENDBRANCH   4   7
TORSDOF 2
ENDMDL
MODEL 2
REMARK VINA RESULT:      -3.8      1.083      1.183
REMARK  2 active torsions:
REMARK  status: ('A' for Active; 'I' for Inactive)
REMARK    1  A    between atoms: C1_1  and  C5_5 
REMARK    2  A    between atoms: C1_1  and  C8_8 
ROOT
HETATM    1  C2  UNL     1     -38.178  16.995  -7.063  1.00 20.00     0.084 C 
HETATM    2  C3  UNL     1     -36.703  16.914  -7.423  1.00 20.00     0.085 C 
HETATM    3  C4  UNL     1     -37.701  15.537  -4.758  1.00 20.00     0.096 C 
HETATM    4  C5  UNL     1     -36.221  15.461  -5.115  1.00 20.00     0.126 C 
HETATM    5  S10 UNL     1     -38.463  17.106  -5.271  1.00 20.00    -0.167 SA
HETATM    6  S11 UNL     1     -35.935  15.348  -6.910  1.00 20.00    -0.155 SA
ENDROOT
BRANCH   4   7
HETATM    7  C1  UNL     1     -35.626  14.225  -4.516  1.00 20.00     0.144 C 
HETATM    8  O9  UNL     1     -36.121  13.119  -4.733  1.00 20.00    -0.296 OA
BRANCH   7   9
HETATM    9  C8  UNL     1     -34.413  14.414  -3.608  1.00 20.00     0.048 C 
HETATM   10  C6  UNL     1     -33.149  14.543  -4.449  1.00 20.00     0.017 C 
HETATM   11  C7  UNL     1     -34.591  15.632  -2.705  1.00 20.00     0.017 C 
ENDBRANCH   7   9
ENDBRANCH   4   7
TORSDOF 2
ENDMDL
MODEL 3
REMARK VINA RESULT:      -3.7      1.767      2.214
REMARK  2 active torsions:
REMARK  status: ('A' for Active; 'I' for Inactive)
REMARK    1  A    between atoms: C1_1  and  C5_5 
REMARK    2  A    between atoms: C1_1  and  C8_8 
ROOT
HETATM    1  C2  UNL     1     -36.881  16.195  -7.862  1.00 20.00     0.084 C 
HETATM    2  C3  UNL     1     -35.370  16.357  -7.825  1.00 20.00     0.085 C 
HETATM    3  C4  UNL     1     -36.878  15.518  -5.177  1.00 20.00     0.096 C 
HETATM    4  C5  UNL     1     -35.364  15.686  -5.139  1.00 20.00     0.126 C 
HETATM    5  S10 UNL     1     -37.682  16.694  -6.308  1.00 20.00    -0.167 SA
HETATM    6  S11 UNL     1     -34.561  15.186  -6.695  1.00 20.00    -0.155 SA
ENDROOT
BRANCH   4   7
HETATM    7  C1  UNL     1     -34.791  14.809  -4.069  1.00 20.00     0.144 C 
HETATM    8  O9  UNL     1     -34.877  13.584  -4.148  1.00 20.00    -0.296 OA
BRANCH   7   9
HETATM    9  C8  UNL     1     -34.139  15.508  -2.880  1.00 20.00     0.048 C 
HETATM   10  C6  UNL     1     -33.132  16.541  -3.371  1.00 20.00     0.017 C 
HETATM   11  C7  UNL     1     -35.190  16.159  -1.984  1.00 20.00     0.017 C 
ENDBRANCH   7   9
ENDBRANCH   4   7
TORSDOF 2
ENDMDL
MODEL 4
REMARK VINA RESULT:      -3.7      2.044      4.267
REMARK  2 active torsions:
REMARK  status: ('A' for Active; 'I' for Inactive)
REMARK    1  A    between atoms: C1_1  and  C5_5 
REMARK    2  A    between atoms: C1_1  and  C8_8 
ROOT
HETATM    1  C2  UNL     1     -33.172  16.439  -3.453  1.00 20.00     0.084 C 
HETATM    2  C3  UNL     1     -33.258  15.072  -4.113  1.00 20.00     0.085 C 
HETATM    3  C4  UNL     1     -35.895  16.374  -2.955  1.00 20.00     0.096 C 
HETATM    4  C5  UNL     1     -35.980  15.001  -3.610  1.00 20.00     0.126 C 
HETATM    5  S10 UNL     1     -34.329  16.626  -2.064  1.00 20.00    -0.167 SA
HETATM    6  S11 UNL     1     -34.822  14.814  -5.003  1.00 20.00    -0.155 SA
ENDROOT
BRANCH   4   7
HETATM    7  C1  UNL     1     -37.352  14.802  -4.174  1.00 20.00     0.144 C 
HETATM    8  O9  UNL     1     -37.744  13.680  -4.495  1.00 20.00    -0.296 OA
BRANCH   7   9
HETATM    9  C8  UNL     1     -38.210  16.051  -4.359  1.00 20.00     0.048 C 
HETATM   10  C6  UNL     1     -38.257  16.437  -5.832  1.00 20.00     0.017 C 
HETATM   11  C7  UNL     1     -39.617  15.834  -3.809  1.00 20.00     0.017 C 
ENDBRANCH   7   9
ENDBRANCH   4   7
TORSDOF 2
ENDMDL
MODEL 5
REMARK VINA RESULT:      -3.6      0.648      1.243
REMARK  2 active torsions:
REMARK  status: ('A' for Active; 'I' for Inactive)
REMARK    1  A    between atoms: C1_1  and  C5_5 
REMARK    2  A    between atoms: C1_1  and  C8_8 
ROOT
HETATM    1  C2  UNL     1     -39.393  16.422  -5.631  1.00 20.00     0.084 C 
HETATM    2  C3  UNL     1     -38.191  17.352  -5.585  1.00 20.00     0.085 C 
HETATM    3  C4  UNL     1     -37.942  14.476  -4.299  1.00 20.00     0.096 C 
HETATM    4  C5  UNL     1     -36.739  15.410  -4.248  1.00 20.00     0.126 C 
HETATM    5  S10 UNL     1     -39.523  15.364  -4.158  1.00 20.00    -0.167 SA
HETATM    6  S11 UNL     1     -36.608  16.469  -5.723  1.00 20.00    -0.155 SA
ENDROOT
BRANCH   4   7
HETATM    7  C1  UNL     1     -35.481  14.602  -4.197  1.00 20.00     0.144 C 
HETATM    8  O9  UNL     1     -35.521  13.372  -4.239  1.00 20.00    -0.296 OA
BRANCH   7   9
HETATM    9  C8  UNL     1     -34.171  15.372  -4.057  1.00 20.00     0.048 C 
HETATM   10  C6  UNL     1     -34.040  15.923  -2.642  1.00 20.00     0.017 C 
HETATM   11  C7  UNL     1     -32.976  14.490  -4.409  1.00 20.00     0.017 C 
ENDBRANCH   7   9
ENDBRANCH   4   7
TORSDOF 2
ENDMDL
MODEL 6
REMARK VINA RESULT:      -3.6     19.247     20.416
REMARK  2 active torsions:
REMARK  status: ('A' for Active; 'I' for Inactive)
REMARK    1  A    between atoms: C1_1  and  C5_5 
REMARK    2  A    between atoms: C1_1  and  C8_8 
ROOT
HETATM    1  C2  UNL     1     -21.522  17.377   9.396  1.00 20.00     0.084 C 
HETATM    2  C3  UNL     1     -21.464  18.066  10.750  1.00 20.00     0.085 C 
HETATM    3  C4  UNL     1     -24.259  17.058   9.672  1.00 20.00     0.096 C 
HETATM    4  C5  UNL     1     -24.202  17.754  11.026  1.00 20.00     0.126 C 
HETATM    5  S10 UNL     1     -23.056  17.734   8.487  1.00 20.00    -0.167 SA
HETATM    6  S11 UNL     1     -22.666  17.396  11.937  1.00 20.00    -0.155 SA
ENDROOT
BRANCH   4   7
HETATM    7  C1  UNL     1     -25.325  17.266  11.886  1.00 20.00     0.144 C 
HETATM    8  O9  UNL     1     -25.326  16.117  12.327  1.00 20.00    -0.296 OA
BRANCH   7   9
HETATM    9  C8  UNL     1     -26.465  18.245  12.152  1.00 20.00     0.048 C 
HETATM   10  C6  UNL     1     -26.554  19.261  11.020  1.00 20.00     0.017 C 
HETATM   11  C7  UNL     1     -27.791  17.507  12.324  1.00 20.00     0.017 C 
ENDBRANCH   7   9
ENDBRANCH   4   7
TORSDOF 2
ENDMDL
MODEL 7
REMARK VINA RESULT:      -3.6      3.557      4.986
REMARK  2 active torsions:
REMARK  status: ('A' for Active; 'I' for Inactive)
REMARK    1  A    between atoms: C1_1  and  C5_5 
REMARK    2  A    between atoms: C1_1  and  C8_8 
ROOT
HETATM    1  C2  UNL     1     -33.779  18.827   0.052  1.00 20.00     0.084 C 
HETATM    2  C3  UNL     1     -32.647  18.226  -0.765  1.00 20.00     0.085 C 
HETATM    3  C4  UNL     1     -35.577  17.115  -1.172  1.00 20.00     0.096 C 
HETATM    4  C5  UNL     1     -34.441  16.508  -1.987  1.00 20.00     0.126 C 
HETATM    5  S10 UNL     1     -35.053  17.609   0.498  1.00 20.00    -0.167 SA
HETATM    6  S11 UNL     1     -33.166  17.728  -2.434  1.00 20.00    -0.155 SA
ENDROOT
BRANCH   4   7
HETATM    7  C1  UNL     1     -34.982  15.973  -3.276  1.00 20.00     0.144 C 
HETATM    8  O9  UNL     1     -35.717  16.661  -3.984  1.00 20.00    -0.296 OA
BRANCH   7   9
HETATM    9  C8  UNL     1     -34.606  14.539  -3.640  1.00 20.00     0.048 C 
HETATM   10  C6  UNL     1     -35.771  13.860  -4.350  1.00 20.00     0.017 C 
HETATM   11  C7  UNL     1     -33.349  14.506  -4.504  1.00 20.00     0.017 C 
ENDBRANCH   7   9
ENDBRANCH   4   7
TORSDOF 2
ENDMDL
MODEL 8
REMARK VINA RESULT:      -3.5      2.486      4.139
REMARK  2 active torsions:
REMARK  status: ('A' for Active; 'I' for Inactive)
REMARK    1  A    between atoms: C1_1  and  C5_5 
REMARK    2  A    between atoms: C1_1  and  C8_8 
ROOT
HETATM    1  C2  UNL     1     -34.779  16.401  -2.013  1.00 20.00     0.084 C 
HETATM    2  C3  UNL     1     -36.003  16.945  -2.733  1.00 20.00     0.085 C 
HETATM    3  C4  UNL     1     -34.017  15.062  -4.313  1.00 20.00     0.096 C 
HETATM    4  C5  UNL     1     -35.240  15.612  -5.037  1.00 20.00     0.126 C 
HETATM    5  S10 UNL     1     -33.334  16.236  -3.103  1.00 20.00    -0.167 SA
HETATM    6  S11 UNL     1     -36.687  15.777  -3.945  1.00 20.00    -0.155 SA
ENDROOT
BRANCH   4   7
HETATM    7  C1  UNL     1     -35.640  14.669  -6.128  1.00 20.00     0.144 C 
HETATM    8  O9  UNL     1     -36.023  13.530  -5.865  1.00 20.00    -0.296 OA
BRANCH   7   9
HETATM    9  C8  UNL     1     -35.516  15.180  -7.561  1.00 20.00     0.048 C 
HETATM   10  C6  UNL     1     -36.367  16.431  -7.744  1.00 20.00     0.017 C 
HETATM   11  C7  UNL     1     -34.058  15.459  -7.918  1.00 20.00     0.017 C 
ENDBRANCH   7   9
ENDBRANCH   4   7
TORSDOF 2
ENDMDL
MODEL 9
REMARK VINA RESULT:      -3.5      3.047      4.220
REMARK  2 active torsions:
REMARK  status: ('A' for Active; 'I' for Inactive)
REMARK    1  A    between atoms: C1_1  and  C5_5 
REMARK    2  A    between atoms: C1_1  and  C8_8 
ROOT
HETATM    1  C2  UNL     1     -34.460  18.580  -1.561  1.00 20.00     0.084 C 
HETATM    2  C3  UNL     1     -33.113  18.326  -2.221  1.00 20.00     0.085 C 
HETATM    3  C4  UNL     1     -35.305  16.051  -2.305  1.00 20.00     0.096 C 
HETATM    4  C5  UNL     1     -33.954  15.793  -2.960  1.00 20.00     0.126 C 
HETATM    5  S10 UNL     1     -35.173  17.084  -0.814  1.00 20.00    -0.167 SA
HETATM    6  S11 UNL     1     -33.239  17.291  -3.710  1.00 20.00    -0.155 SA
ENDROOT
BRANCH   4   7
HETATM    7  C1  UNL     1     -34.118  14.804  -4.071  1.00 20.00     0.144 C 
HETATM    8  O9  UNL     1     -33.212  14.021  -4.356  1.00 20.00    -0.296 OA
BRANCH   7   9
HETATM    9  C8  UNL     1     -35.436  14.844  -4.841  1.00 20.00     0.048 C 
HETATM   10  C6  UNL     1     -35.166  15.054  -6.325  1.00 20.00     0.017 C 
HETATM   11  C7  UNL     1     -36.243  13.569  -4.611  1.00 20.00     0.017 C 
ENDBRANCH   7   9
ENDBRANCH   4   7
TORSDOF 2
ENDMDL
