MODEL 1
REMARK VINA RESULT:      -4.0      0.000      0.000
REMARK  0 active torsions:
REMARK  status: ('A' for Active; 'I' for Inactive)
ROOT
HETATM    1  C1  UNL     1     -22.731  17.550  11.680  1.00 20.00     0.086 C 
HETATM    2  C2  UNL     1     -23.519  16.506   9.548  1.00 20.00     0.056 C 
HETATM    3  C3  UNL     1     -24.701  18.450  10.454  1.00 20.00     0.115 C 
HETATM    4  C4  UNL     1     -23.019  17.547   8.538  1.00 20.00     0.046 C 
HETATM    5  C5  UNL     1     -23.900  17.214  10.852  1.00 20.00     0.135 C 
HETATM    6  C6  UNL     1     -21.512  17.770   8.572  1.00 20.00     0.021 C 
HETATM    7  N7  UNL     1     -21.809  17.815  12.332  1.00 20.00    -0.195 NA
HETATM    8  S8  UNL     1     -23.903  19.087   8.949  1.00 20.00    -0.162 SA
HETATM    9 CL9  UNL     1     -24.910  16.132  11.861  1.00 20.00    -0.102 Cl
ENDROOT
TORSDOF 0
ENDMDL
MODEL 2
REMARK VINA RESULT:      -3.9      2.785      3.631
REMARK  0 active torsions:
REMARK  status: ('A' for Active; 'I' for Inactive)
ROOT
HETATM    1  C1  UNL     1     -24.340  18.511   9.340  1.00 20.00     0.086 C 
HETATM    2  C2  UNL     1     -23.804  16.249  10.263  1.00 20.00     0.056 C 
HETATM    3  C3  UNL     1     -22.286  18.122  10.689  1.00 20.00     0.115 C 
HETATM    4  C4  UNL     1     -24.153  16.471  11.740  1.00 20.00     0.046 C 
HETATM    5  C5  UNL     1     -23.270  17.557   9.671  1.00 20.00     0.135 C 
HETATM    6  C6  UNL     1     -25.599  16.886  11.980  1.00 20.00     0.021 C 
HETATM    7  N7  UNL     1     -25.185  19.263   9.081  1.00 20.00    -0.195 NA
HETATM    8  S8  UNL     1     -23.011  17.769  12.319  1.00 20.00    -0.162 SA
HETATM    9 CL9  UNL     1     -22.426  17.227   8.125  1.00 20.00    -0.102 Cl
ENDROOT
TORSDOF 0
ENDMDL
MODEL 3
REMARK VINA RESULT:      -3.8     18.578     19.174
REMARK  0 active torsions:
REMARK  status: ('A' for Active; 'I' for Inactive)
ROOT
HETATM    1  C1  UNL     1     -36.006  13.951  -4.582  1.00 20.00     0.086 C 
HETATM    2  C2  UNL     1     -34.755  16.030  -5.190  1.00 20.00     0.056 C 
HETATM    3  C3  UNL     1     -36.130  15.992  -3.163  1.00 20.00     0.115 C 
HETATM    4  C4  UNL     1     -33.617  15.968  -4.163  1.00 20.00     0.046 C 
HETATM    5  C5  UNL     1     -36.020  15.422  -4.574  1.00 20.00     0.135 C 
HETATM    6  C6  UNL     1     -32.764  14.710  -4.258  1.00 20.00     0.021 C 
HETATM    7  N7  UNL     1     -35.994  12.791  -4.587  1.00 20.00    -0.195 NA
HETATM    8  S8  UNL     1     -34.426  16.072  -2.533  1.00 20.00    -0.162 SA
HETATM    9 CL9  UNL     1     -37.455  15.895  -5.536  1.00 20.00    -0.102 Cl
ENDROOT
TORSDOF 0
ENDMDL
MODEL 4
REMARK VINA RESULT:      -3.8     19.368     20.016
REMARK  0 active torsions:
REMARK  status: ('A' for Active; 'I' for Inactive)
ROOT
HETATM    1  C1  UNL     1     -36.495  14.476  -4.390  1.00 20.00     0.086 C 
HETATM    2  C2  UNL     1     -35.566  16.729  -4.950  1.00 20.00     0.056 C 
HETATM    3  C3  UNL     1     -34.112  14.761  -5.049  1.00 20.00     0.115 C 
HETATM    4  C4  UNL     1     -35.475  16.611  -6.477  1.00 20.00     0.046 C 
HETATM    5  C5  UNL     1     -35.316  15.353  -4.324  1.00 20.00     0.135 C 
HETATM    6  C6  UNL     1     -36.808  16.329  -7.157  1.00 20.00     0.021 C 
HETATM    7  N7  UNL     1     -37.424  13.784  -4.443  1.00 20.00    -0.195 NA
HETATM    8  S8  UNL     1     -34.298  15.254  -6.790  1.00 20.00    -0.162 SA
HETATM    9 CL9  UNL     1     -34.948  15.535  -2.580  1.00 20.00    -0.102 Cl
ENDROOT
TORSDOF 0
ENDMDL
MODEL 5
REMARK VINA RESULT:      -3.8     19.332     19.953
REMARK  0 active torsions:
REMARK  status: ('A' for Active; 'I' for Inactive)
ROOT
HETATM    1  C1  UNL     1     -35.962  13.874  -5.004  1.00 20.00     0.086 C 
HETATM    2  C2  UNL     1     -34.826  16.101  -5.078  1.00 20.00     0.056 C 
HETATM    3  C3  UNL     1     -37.255  15.970  -5.359  1.00 20.00     0.115 C 
HETATM    4  C4  UNL     1     -35.228  16.654  -3.704  1.00 20.00     0.046 C 
HETATM    5  C5  UNL     1     -35.956  15.213  -5.612  1.00 20.00     0.135 C 
HETATM    6  C6  UNL     1     -34.775  15.791  -2.533  1.00 20.00     0.021 C 
HETATM    7  N7  UNL     1     -35.968  12.818  -4.523  1.00 20.00    -0.195 NA
HETATM    8  S8  UNL     1     -37.046  16.777  -3.742  1.00 20.00    -0.162 SA
HETATM    9 CL9  UNL     1     -35.739  14.943  -7.370  1.00 20.00    -0.102 Cl
ENDROOT
TORSDOF 0
ENDMDL
MODEL 6
REMARK VINA RESULT:      -3.7     17.932     18.579
REMARK  0 active torsions:
REMARK  status: ('A' for Active; 'I' for Inactive)
ROOT
HETATM    1  C1  UNL     1     -33.310  14.930  -4.155  1.00 20.00     0.086 C 
HETATM    2  C2  UNL     1     -35.371  15.630  -2.922  1.00 20.00     0.056 C 
HETATM    3  C3  UNL     1     -34.478  17.059  -4.699  1.00 20.00     0.115 C 
HETATM    4  C4  UNL     1     -36.435  15.333  -3.986  1.00 20.00     0.046 C 
HETATM    5  C5  UNL     1     -34.075  16.065  -3.615  1.00 20.00     0.135 C 
HETATM    6  C6  UNL     1     -36.474  13.878  -4.435  1.00 20.00     0.021 C 
HETATM    7  N7  UNL     1     -32.708  14.035  -4.581  1.00 20.00    -0.195 NA
HETATM    8  S8  UNL     1     -36.036  16.425  -5.391  1.00 20.00    -0.162 SA
HETATM    9 CL9  UNL     1     -32.989  16.860  -2.433  1.00 20.00    -0.102 Cl
ENDROOT
TORSDOF 0
ENDMDL
MODEL 7
REMARK VINA RESULT:      -3.6     19.306     19.941
REMARK  0 active torsions:
REMARK  status: ('A' for Active; 'I' for Inactive)
ROOT
HETATM    1  C1  UNL     1     -35.614  13.852  -4.346  1.00 20.00     0.086 C 
HETATM    2  C2  UNL     1     -36.495  15.996  -3.407  1.00 20.00     0.056 C 
HETATM    3  C3  UNL     1     -35.308  16.009  -5.549  1.00 20.00     0.115 C 
HETATM    4  C4  UNL     1     -37.709  16.211  -4.319  1.00 20.00     0.046 C 
HETATM    5  C5  UNL     1     -35.386  15.298  -4.202  1.00 20.00     0.135 C 
HETATM    6  C6  UNL     1     -38.726  15.077  -4.275  1.00 20.00     0.021 C 
HETATM    7  N7  UNL     1     -35.795  12.711  -4.460  1.00 20.00    -0.195 NA
HETATM    8  S8  UNL     1     -37.028  16.393  -6.000  1.00 20.00    -0.162 SA
HETATM    9 CL9  UNL     1     -33.825  15.456  -3.337  1.00 20.00    -0.102 Cl
ENDROOT
TORSDOF 0
ENDMDL
MODEL 8
REMARK VINA RESULT:      -3.6     18.834     19.468
REMARK  0 active torsions:
REMARK  status: ('A' for Active; 'I' for Inactive)
ROOT
HETATM    1  C1  UNL     1     -36.844  14.433  -4.257  1.00 20.00     0.086 C 
HETATM    2  C2  UNL     1     -35.411  15.927  -2.853  1.00 20.00     0.056 C 
HETATM    3  C3  UNL     1     -35.064  15.841  -5.276  1.00 20.00     0.115 C 
HETATM    4  C4  UNL     1     -36.021  17.290  -3.202  1.00 20.00     0.046 C 
HETATM    5  C5  UNL     1     -35.502  15.008  -4.076  1.00 20.00     0.135 C 
HETATM    6  C6  UNL     1     -37.504  17.407  -2.876  1.00 20.00     0.021 C 
HETATM    7  N7  UNL     1     -37.903  13.980  -4.399  1.00 20.00    -0.195 NA
HETATM    8  S8  UNL     1     -35.741  17.504  -4.991  1.00 20.00    -0.162 SA
HETATM    9 CL9  UNL     1     -34.402  13.608  -3.871  1.00 20.00    -0.102 Cl
ENDROOT
TORSDOF 0
ENDMDL
MODEL 9
REMARK VINA RESULT:      -3.5     23.991     24.555
REMARK  0 active torsions:
REMARK  status: ('A' for Active; 'I' for Inactive)
ROOT
HETATM    1  C1  UNL     1     -42.423   5.363   0.362  1.00 20.00     0.086 C 
HETATM    2  C2  UNL     1     -41.071   6.828  -1.149  1.00 20.00     0.056 C 
HETATM    3  C3  UNL     1     -43.417   6.373  -1.684  1.00 20.00     0.115 C 
HETATM    4  C4  UNL     1     -41.643   8.201  -0.774  1.00 20.00     0.046 C 
HETATM    5  C5  UNL     1     -42.177   5.774  -1.030  1.00 20.00     0.135 C 
HETATM    6  C6  UNL     1     -41.487   8.557   0.699  1.00 20.00     0.021 C 
HETATM    7  N7  UNL     1     -42.618   5.040   1.459  1.00 20.00    -0.195 NA
HETATM    8  S8  UNL     1     -43.406   8.135  -1.232  1.00 20.00    -0.162 SA
HETATM    9 CL9  UNL     1     -41.692   4.281  -1.894  1.00 20.00    -0.102 Cl
ENDROOT
TORSDOF 0
ENDMDL
