MODEL 1
REMARK VINA RESULT:      -4.2      0.000      0.000
REMARK  3 active torsions:
REMARK  status: ('A' for Active; 'I' for Inactive)
REMARK    1  A    between atoms: C4_4  and  C7_7 
REMARK    2  A    between atoms: C4_4  and  O9_9 
REMARK    3  A    between atoms: C7_7  and  C8_8 
ROOT
HETATM    1  C1  UNL     1     -34.861  16.141  -5.210  1.00 20.00     0.053 C 
HETATM    2  C2  UNL     1     -34.811  14.096  -3.857  1.00 20.00     0.112 C 
HETATM    3  C3  UNL     1     -35.981  15.387  -5.929  1.00 20.00     0.046 C 
HETATM    4  C4  UNL     1     -33.923  15.124  -4.552  1.00 20.00     0.067 C 
HETATM    5  C5  UNL     1     -35.649  15.011  -7.368  1.00 20.00     0.021 C 
HETATM    6  S10 UNL     1     -36.265  13.890  -4.931  1.00 20.00    -0.162 SA
ENDROOT
BRANCH   4   7
HETATM    7  C7  UNL     1     -32.967  15.791  -3.566  1.00 20.00     0.038 C 
BRANCH   7   8
HETATM    8  C8  UNL     1     -33.729  16.476  -2.437  1.00 20.00    -0.002 C 
HETATM    9  C6  UNL     1     -32.926  17.623  -1.845  1.00 20.00     0.005 C 
ENDBRANCH   7   8
ENDBRANCH   4   7
BRANCH   4  10
HETATM   10  O9  UNL     1     -33.130  14.461  -5.537  1.00 20.00    -0.389 OA
HETATM   11  H26 UNL     1     -32.274  14.274  -5.121  1.00 20.00     0.210 HD
ENDBRANCH   4  10
TORSDOF 3
ENDMDL
MODEL 2
REMARK VINA RESULT:      -4.0     17.994     18.939
REMARK  3 active torsions:
REMARK  status: ('A' for Active; 'I' for Inactive)
REMARK    1  A    between atoms: C4_4  and  C7_7 
REMARK    2  A    between atoms: C4_4  and  O9_9 
REMARK    3  A    between atoms: C7_7  and  C8_8 
ROOT
HETATM    1  C1  UNL     1     -24.058  16.655  10.253  1.00 20.00     0.053 C 
HETATM    2  C2  UNL     1     -22.997  17.914  12.070  1.00 20.00     0.112 C 
HETATM    3  C3  UNL     1     -22.766  17.029   9.522  1.00 20.00     0.046 C 
HETATM    4  C4  UNL     1     -24.323  17.692  11.350  1.00 20.00     0.067 C 
HETATM    5  C5  UNL     1     -22.972  17.978   8.347  1.00 20.00     0.021 C 
HETATM    6  S10 UNL     1     -21.711  17.806  10.788  1.00 20.00    -0.162 SA
ENDROOT
BRANCH   4   7
HETATM    7  C7  UNL     1     -25.410  17.227  12.316  1.00 20.00     0.038 C 
BRANCH   7   8
HETATM    8  C8  UNL     1     -26.606  18.173  12.299  1.00 20.00    -0.002 C 
HETATM    9  C6  UNL     1     -27.918  17.406  12.332  1.00 20.00     0.005 C 
ENDBRANCH   7   8
ENDBRANCH   4   7
BRANCH   4  10
HETATM   10  O9  UNL     1     -24.754  18.927  10.781  1.00 20.00    -0.389 OA
HETATM   11  H26 UNL     1     -25.593  19.151  11.213  1.00 20.00     0.210 HD
ENDBRANCH   4  10
TORSDOF 3
ENDMDL
MODEL 3
REMARK VINA RESULT:      -4.0      1.650      2.007
REMARK  3 active torsions:
REMARK  status: ('A' for Active; 'I' for Inactive)
REMARK    1  A    between atoms: C4_4  and  C7_7 
REMARK    2  A    between atoms: C4_4  and  O9_9 
REMARK    3  A    between atoms: C7_7  and  C8_8 
ROOT
HETATM    1  C1  UNL     1     -34.539  16.583  -5.528  1.00 20.00     0.053 C 
HETATM    2  C2  UNL     1     -35.647  14.465  -6.073  1.00 20.00     0.112 C 
HETATM    3  C3  UNL     1     -34.954  16.926  -6.960  1.00 20.00     0.046 C 
HETATM    4  C4  UNL     1     -34.414  15.061  -5.401  1.00 20.00     0.067 C 
HETATM    5  C5  UNL     1     -33.783  17.107  -7.918  1.00 20.00     0.021 C 
HETATM    6  S10 UNL     1     -36.004  15.538  -7.497  1.00 20.00    -0.162 SA
ENDROOT
BRANCH   4   7
HETATM    7  C7  UNL     1     -34.309  14.624  -3.942  1.00 20.00     0.038 C 
BRANCH   7   8
HETATM    8  C8  UNL     1     -33.907  15.788  -3.043  1.00 20.00    -0.002 C 
HETATM    9  C6  UNL     1     -34.965  16.059  -1.985  1.00 20.00     0.005 C 
ENDBRANCH   7   8
ENDBRANCH   4   7
BRANCH   4  10
HETATM   10  O9  UNL     1     -33.246  14.594  -6.075  1.00 20.00    -0.389 OA
HETATM   11  H26 UNL     1     -32.987  13.769  -5.636  1.00 20.00     0.210 HD
ENDBRANCH   4  10
TORSDOF 3
ENDMDL
MODEL 4
REMARK VINA RESULT:      -4.0      1.142      1.188
REMARK  3 active torsions:
REMARK  status: ('A' for Active; 'I' for Inactive)
REMARK    1  A    between atoms: C4_4  and  C7_7 
REMARK    2  A    between atoms: C4_4  and  O9_9 
REMARK    3  A    between atoms: C7_7  and  C8_8 
ROOT
HETATM    1  C1  UNL     1     -34.335  16.507  -5.444  1.00 20.00     0.053 C 
HETATM    2  C2  UNL     1     -35.096  14.418  -4.407  1.00 20.00     0.112 C 
HETATM    3  C3  UNL     1     -34.978  15.880  -6.683  1.00 20.00     0.046 C 
HETATM    4  C4  UNL     1     -33.920  15.387  -4.483  1.00 20.00     0.067 C 
HETATM    5  C5  UNL     1     -33.985  15.527  -7.784  1.00 20.00     0.021 C 
HETATM    6  S10 UNL     1     -35.815  14.379  -6.078  1.00 20.00    -0.162 SA
ENDROOT
BRANCH   4   7
HETATM    7  C7  UNL     1     -33.558  15.933  -3.103  1.00 20.00     0.038 C 
BRANCH   7   8
HETATM    8  C8  UNL     1     -34.775  15.959  -2.184  1.00 20.00    -0.002 C 
HETATM    9  C6  UNL     1     -34.701  17.119  -1.204  1.00 20.00     0.005 C 
ENDBRANCH   7   8
ENDBRANCH   4   7
BRANCH   4  10
HETATM   10  O9  UNL     1     -32.778  14.693  -4.983  1.00 20.00    -0.389 OA
HETATM   11  H26 UNL     1     -33.106  13.867  -5.371  1.00 20.00     0.210 HD
ENDBRANCH   4  10
TORSDOF 3
ENDMDL
MODEL 5
REMARK VINA RESULT:      -3.9     17.932     18.600
REMARK  3 active torsions:
REMARK  status: ('A' for Active; 'I' for Inactive)
REMARK    1  A    between atoms: C4_4  and  C7_7 
REMARK    2  A    between atoms: C4_4  and  O9_9 
REMARK    3  A    between atoms: C7_7  and  C8_8 
ROOT
HETATM    1  C1  UNL     1     -24.156  18.511  11.503  1.00 20.00     0.053 C 
HETATM    2  C2  UNL     1     -23.742  16.483  10.188  1.00 20.00     0.112 C 
HETATM    3  C3  UNL     1     -25.007  17.546  12.332  1.00 20.00     0.046 C 
HETATM    4  C4  UNL     1     -24.051  17.973  10.072  1.00 20.00     0.067 C 
HETATM    5  C5  UNL     1     -26.502  17.843  12.285  1.00 20.00     0.021 C 
HETATM    6  S10 UNL     1     -24.667  15.896  11.640  1.00 20.00    -0.162 SA
ENDROOT
BRANCH   4   7
HETATM    7  C7  UNL     1     -22.975  18.703   9.272  1.00 20.00     0.038 C 
BRANCH   7   8
HETATM    8  C8  UNL     1     -21.748  17.823   9.064  1.00 20.00    -0.002 C 
HETATM    9  C6  UNL     1     -21.620  17.388   7.613  1.00 20.00     0.005 C 
ENDBRANCH   7   8
ENDBRANCH   4   7
BRANCH   4  10
HETATM   10  O9  UNL     1     -25.288  18.138   9.380  1.00 20.00    -0.389 OA
HETATM   11  H26 UNL     1     -25.091  18.035   8.436  1.00 20.00     0.210 HD
ENDBRANCH   4  10
TORSDOF 3
ENDMDL
MODEL 6
REMARK VINA RESULT:      -3.9     10.914     12.554
REMARK  3 active torsions:
REMARK  status: ('A' for Active; 'I' for Inactive)
REMARK    1  A    between atoms: C4_4  and  C7_7 
REMARK    2  A    between atoms: C4_4  and  O9_9 
REMARK    3  A    between atoms: C7_7  and  C8_8 
ROOT
HETATM    1  C1  UNL     1     -41.273   7.174   0.472  1.00 20.00     0.053 C 
HETATM    2  C2  UNL     1     -43.045   7.013  -1.215  1.00 20.00     0.112 C 
HETATM    3  C3  UNL     1     -41.912   8.544   0.709  1.00 20.00     0.046 C 
HETATM    4  C4  UNL     1     -41.567   6.733  -0.966  1.00 20.00     0.067 C 
HETATM    5  C5  UNL     1     -41.013   9.718   0.340  1.00 20.00     0.021 C 
HETATM    6  S10 UNL     1     -43.417   8.551  -0.317  1.00 20.00    -0.162 SA
ENDROOT
BRANCH   4   7
HETATM    7  C7  UNL     1     -41.235   5.259  -1.183  1.00 20.00     0.038 C 
BRANCH   7   8
HETATM    8  C8  UNL     1     -42.476   4.466  -1.580  1.00 20.00    -0.002 C 
HETATM    9  C6  UNL     1     -42.181   3.517  -2.730  1.00 20.00     0.005 C 
ENDBRANCH   7   8
ENDBRANCH   4   7
BRANCH   4  10
HETATM   10  O9  UNL     1     -40.788   7.490  -1.892  1.00 20.00    -0.389 OA
HETATM   11  H26 UNL     1     -41.157   7.311  -2.771  1.00 20.00     0.210 HD
ENDBRANCH   4  10
TORSDOF 3
ENDMDL
MODEL 7
REMARK VINA RESULT:      -3.8      2.364      3.218
REMARK  3 active torsions:
REMARK  status: ('A' for Active; 'I' for Inactive)
REMARK    1  A    between atoms: C4_4  and  C7_7 
REMARK    2  A    between atoms: C4_4  and  O9_9 
REMARK    3  A    between atoms: C7_7  and  C8_8 
ROOT
HETATM    1  C1  UNL     1     -33.377  16.093  -3.003  1.00 20.00     0.053 C 
HETATM    2  C2  UNL     1     -35.142  17.783  -3.214  1.00 20.00     0.112 C 
HETATM    3  C3  UNL     1     -34.090  15.501  -4.222  1.00 20.00     0.046 C 
HETATM    4  C4  UNL     1     -34.380  16.931  -2.203  1.00 20.00     0.067 C 
HETATM    5  C5  UNL     1     -34.754  14.155  -3.957  1.00 20.00     0.021 C 
HETATM    6  S10 UNL     1     -35.337  16.742  -4.693  1.00 20.00    -0.162 SA
ENDROOT
BRANCH   4   7
HETATM    7  C7  UNL     1     -33.684  17.798  -1.157  1.00 20.00     0.038 C 
BRANCH   7   8
HETATM    8  C8  UNL     1     -32.274  18.175  -1.602  1.00 20.00    -0.002 C 
HETATM    9  C6  UNL     1     -31.346  18.344  -0.410  1.00 20.00     0.005 C 
ENDBRANCH   7   8
ENDBRANCH   4   7
BRANCH   4  10
HETATM   10  O9  UNL     1     -35.305  16.089  -1.516  1.00 20.00    -0.389 OA
HETATM   11  H26 UNL     1     -35.017  15.177  -1.676  1.00 20.00     0.210 HD
ENDBRANCH   4  10
TORSDOF 3
ENDMDL
MODEL 8
REMARK VINA RESULT:      -3.7      1.673      2.158
REMARK  3 active torsions:
REMARK  status: ('A' for Active; 'I' for Inactive)
REMARK    1  A    between atoms: C4_4  and  C7_7 
REMARK    2  A    between atoms: C4_4  and  O9_9 
REMARK    3  A    between atoms: C7_7  and  C8_8 
ROOT
HETATM    1  C1  UNL     1     -35.105  14.363  -3.714  1.00 20.00     0.053 C 
HETATM    2  C2  UNL     1     -34.303  15.700  -5.607  1.00 20.00     0.112 C 
HETATM    3  C3  UNL     1     -36.178  13.957  -4.727  1.00 20.00     0.046 C 
HETATM    4  C4  UNL     1     -34.554  15.739  -4.103  1.00 20.00     0.067 C 
HETATM    5  C5  UNL     1     -37.580  14.437  -4.369  1.00 20.00     0.021 C 
HETATM    6  S10 UNL     1     -35.642  14.687  -6.308  1.00 20.00    -0.162 SA
ENDROOT
BRANCH   4   7
HETATM    7  C7  UNL     1     -33.278  16.074  -3.334  1.00 20.00     0.038 C 
BRANCH   7   8
HETATM    8  C8  UNL     1     -33.585  16.892  -2.084  1.00 20.00    -0.002 C 
HETATM    9  C6  UNL     1     -32.478  17.892  -1.793  1.00 20.00     0.005 C 
ENDBRANCH   7   8
ENDBRANCH   4   7
BRANCH   4  10
HETATM   10  O9  UNL     1     -35.508  16.762  -3.818  1.00 20.00    -0.389 OA
HETATM   11  H26 UNL     1     -35.225  17.179  -2.990  1.00 20.00     0.210 HD
ENDBRANCH   4  10
TORSDOF 3
ENDMDL
MODEL 9
REMARK VINA RESULT:      -3.7      1.983      4.148
REMARK  3 active torsions:
REMARK  status: ('A' for Active; 'I' for Inactive)
REMARK    1  A    between atoms: C4_4  and  C7_7 
REMARK    2  A    between atoms: C4_4  and  O9_9 
REMARK    3  A    between atoms: C7_7  and  C8_8 
ROOT
HETATM    1  C1  UNL     1     -34.368  16.100  -2.356  1.00 20.00     0.053 C 
HETATM    2  C2  UNL     1     -34.491  16.636  -4.746  1.00 20.00     0.112 C 
HETATM    3  C3  UNL     1     -33.971  17.575  -2.261  1.00 20.00     0.046 C 
HETATM    4  C4  UNL     1     -34.011  15.582  -3.753  1.00 20.00     0.067 C 
HETATM    5  C5  UNL     1     -32.536  17.801  -1.798  1.00 20.00     0.021 C 
HETATM    6  S10 UNL     1     -34.209  18.242  -3.939  1.00 20.00    -0.162 SA
ENDROOT
BRANCH   4   7
HETATM    7  C7  UNL     1     -34.650  14.223  -4.031  1.00 20.00     0.038 C 
BRANCH   7   8
HETATM    8  C8  UNL     1     -35.786  14.344  -5.041  1.00 20.00    -0.002 C 
HETATM    9  C6  UNL     1     -37.142  14.241  -4.360  1.00 20.00     0.005 C 
ENDBRANCH   7   8
ENDBRANCH   4   7
BRANCH   4  10
HETATM   10  O9  UNL     1     -32.598  15.427  -3.886  1.00 20.00    -0.389 OA
HETATM   11  H26 UNL     1     -32.293  14.983  -3.080  1.00 20.00     0.210 HD
ENDBRANCH   4  10
TORSDOF 3
ENDMDL
