MODEL 1
REMARK VINA RESULT:      -3.9      0.000      0.000
REMARK  1 active torsions:
REMARK  status: ('A' for Active; 'I' for Inactive)
REMARK    1  A    between atoms: C4_4  and  S9_9 
ROOT
HETATM    1  C1  UNL     1     -23.267  16.641   9.594  1.00 20.00     0.020 C 
HETATM    2  C2  UNL     1     -22.776  17.716   8.634  1.00 20.00     0.075 C 
HETATM    3  C3  UNL     1     -24.826  19.263   9.629  1.00 20.00     0.089 C 
HETATM    4  C4  UNL     1     -25.165  18.066  10.528  1.00 20.00     0.061 C 
HETATM    5  C5  UNL     1     -23.941  17.163  10.894  1.00 20.00    -0.034 C 
HETATM    6  C6  UNL     1     -22.890  17.896  11.757  1.00 20.00     0.016 C 
HETATM    7  C7  UNL     1     -24.409  15.917  11.685  1.00 20.00     0.016 C 
HETATM    8  S8  UNL     1     -24.135  18.747   8.032  1.00 20.00    -0.168 SA
ENDROOT
BRANCH   4   9
HETATM    9  S9  UNL     1     -26.062  18.727  11.993  1.00 20.00    -0.176 SA
HETATM   10  H23 UNL     1     -25.233  18.181  12.888  1.00 20.00     0.102 HD
ENDBRANCH   4   9
TORSDOF 1
ENDMDL
MODEL 2
REMARK VINA RESULT:      -3.5     17.274     18.318
REMARK  1 active torsions:
REMARK  status: ('A' for Active; 'I' for Inactive)
REMARK    1  A    between atoms: C4_4  and  S9_9 
ROOT
HETATM    1  C1  UNL     1     -34.148  15.822  -2.693  1.00 20.00     0.020 C 
HETATM    2  C2  UNL     1     -35.421  16.530  -2.248  1.00 20.00     0.075 C 
HETATM    3  C3  UNL     1     -35.917  16.901  -4.932  1.00 20.00     0.089 C 
HETATM    4  C4  UNL     1     -34.600  16.154  -5.181  1.00 20.00     0.061 C 
HETATM    5  C5  UNL     1     -34.226  15.114  -4.074  1.00 20.00    -0.034 C 
HETATM    6  C6  UNL     1     -35.224  13.938  -3.992  1.00 20.00     0.016 C 
HETATM    7  C7  UNL     1     -32.824  14.518  -4.349  1.00 20.00     0.016 C 
HETATM    8  S8  UNL     1     -35.883  17.857  -3.389  1.00 20.00    -0.168 SA
ENDROOT
BRANCH   4   9
HETATM    9  S9  UNL     1     -34.699  15.434  -6.872  1.00 20.00    -0.176 SA
HETATM   10  H23 UNL     1     -35.437  16.428  -7.375  1.00 20.00     0.102 HD
ENDBRANCH   4   9
TORSDOF 1
ENDMDL
MODEL 3
REMARK VINA RESULT:      -3.5     16.723     17.633
REMARK  1 active torsions:
REMARK  status: ('A' for Active; 'I' for Inactive)
REMARK    1  A    between atoms: C4_4  and  S9_9 
ROOT
HETATM    1  C1  UNL     1     -34.338  14.861  -3.454  1.00 20.00     0.020 C 
HETATM    2  C2  UNL     1     -33.640  14.625  -4.786  1.00 20.00     0.075 C 
HETATM    3  C3  UNL     1     -34.498  17.153  -5.461  1.00 20.00     0.089 C 
HETATM    4  C4  UNL     1     -35.133  17.207  -4.065  1.00 20.00     0.061 C 
HETATM    5  C5  UNL     1     -34.400  16.343  -2.986  1.00 20.00    -0.034 C 
HETATM    6  C6  UNL     1     -32.971  16.844  -2.683  1.00 20.00     0.016 C 
HETATM    7  C7  UNL     1     -35.193  16.358  -1.657  1.00 20.00     0.016 C 
HETATM    8  S8  UNL     1     -34.484  15.471  -6.144  1.00 20.00    -0.168 SA
ENDROOT
BRANCH   4   9
HETATM    9  S9  UNL     1     -35.288  18.983  -3.610  1.00 20.00    -0.176 SA
HETATM   10  H23 UNL     1     -36.361  19.203  -4.378  1.00 20.00     0.102 HD
ENDBRANCH   4   9
TORSDOF 1
ENDMDL
MODEL 4
REMARK VINA RESULT:      -3.5      1.054      3.198
REMARK  1 active torsions:
REMARK  status: ('A' for Active; 'I' for Inactive)
REMARK    1  A    between atoms: C4_4  and  S9_9 
ROOT
HETATM    1  C1  UNL     1     -22.960  18.094  11.506  1.00 20.00     0.020 C 
HETATM    2  C2  UNL     1     -24.188  17.734  12.332  1.00 20.00     0.075 C 
HETATM    3  C3  UNL     1     -25.653  18.760  10.238  1.00 20.00     0.089 C 
HETATM    4  C4  UNL     1     -24.306  19.041   9.558  1.00 20.00     0.061 C 
HETATM    5  C5  UNL     1     -23.158  18.059   9.965  1.00 20.00    -0.034 C 
HETATM    6  C6  UNL     1     -23.422  16.605   9.515  1.00 20.00     0.016 C 
HETATM    7  C7  UNL     1     -21.818  18.508   9.333  1.00 20.00     0.016 C 
HETATM    8  S8  UNL     1     -25.550  18.891  12.045  1.00 20.00    -0.168 SA
ENDROOT
BRANCH   4   9
HETATM    9  S9  UNL     1     -24.619  19.104   7.745  1.00 20.00    -0.176 SA
HETATM   10  H23 UNL     1     -24.393  17.801   7.547  1.00 20.00     0.102 HD
ENDBRANCH   4   9
TORSDOF 1
ENDMDL
MODEL 5
REMARK VINA RESULT:      -3.4     17.622     18.555
REMARK  1 active torsions:
REMARK  status: ('A' for Active; 'I' for Inactive)
REMARK    1  A    between atoms: C4_4  and  S9_9 
ROOT
HETATM    1  C1  UNL     1     -35.781  14.685  -4.172  1.00 20.00     0.020 C 
HETATM    2  C2  UNL     1     -35.859  14.351  -5.656  1.00 20.00     0.075 C 
HETATM    3  C3  UNL     1     -34.865  16.885  -6.077  1.00 20.00     0.089 C 
HETATM    4  C4  UNL     1     -34.855  17.031  -4.549  1.00 20.00     0.061 C 
HETATM    5  C5  UNL     1     -34.663  15.688  -3.771  1.00 20.00    -0.034 C 
HETATM    6  C6  UNL     1     -33.282  15.042  -4.018  1.00 20.00     0.016 C 
HETATM    7  C7  UNL     1     -34.803  15.925  -2.247  1.00 20.00     0.016 C 
HETATM    8  S8  UNL     1     -36.215  15.817  -6.654  1.00 20.00    -0.168 SA
ENDROOT
BRANCH   4   9
HETATM    9  S9  UNL     1     -33.598  18.311  -4.138  1.00 20.00    -0.176 SA
HETATM   10  H23 UNL     1     -33.147  18.433  -5.390  1.00 20.00     0.102 HD
ENDBRANCH   4   9
TORSDOF 1
ENDMDL
MODEL 6
REMARK VINA RESULT:      -3.3     16.749     17.696
REMARK  1 active torsions:
REMARK  status: ('A' for Active; 'I' for Inactive)
REMARK    1  A    between atoms: C4_4  and  S9_9 
ROOT
HETATM    1  C1  UNL     1     -33.064  16.280  -3.419  1.00 20.00     0.020 C 
HETATM    2  C2  UNL     1     -32.882  17.772  -3.171  1.00 20.00     0.075 C 
HETATM    3  C3  UNL     1     -35.298  18.080  -4.457  1.00 20.00     0.089 C 
HETATM    4  C4  UNL     1     -35.305  16.552  -4.606  1.00 20.00     0.061 C 
HETATM    5  C5  UNL     1     -34.537  15.788  -3.477  1.00 20.00    -0.034 C 
HETATM    6  C6  UNL     1     -35.189  15.955  -2.087  1.00 20.00     0.016 C 
HETATM    7  C7  UNL     1     -34.489  14.273  -3.792  1.00 20.00     0.016 C 
HETATM    8  S8  UNL     1     -33.617  18.764  -4.493  1.00 20.00    -0.168 SA
ENDROOT
BRANCH   4   9
HETATM    9  S9  UNL     1     -37.063  16.036  -4.787  1.00 20.00    -0.176 SA
HETATM   10  H23 UNL     1     -37.013  15.930  -6.118  1.00 20.00     0.102 HD
ENDBRANCH   4   9
TORSDOF 1
ENDMDL
MODEL 7
REMARK VINA RESULT:      -3.3     17.958     18.904
REMARK  1 active torsions:
REMARK  status: ('A' for Active; 'I' for Inactive)
REMARK    1  A    between atoms: C4_4  and  S9_9 
ROOT
HETATM    1  C1  UNL     1     -34.984  14.049  -3.908  1.00 20.00     0.020 C 
HETATM    2  C2  UNL     1     -36.289  13.599  -4.551  1.00 20.00     0.075 C 
HETATM    3  C3  UNL     1     -36.713  16.266  -5.092  1.00 20.00     0.089 C 
HETATM    4  C4  UNL     1     -35.362  16.521  -4.409  1.00 20.00     0.061 C 
HETATM    5  C5  UNL     1     -34.350  15.333  -4.511  1.00 20.00    -0.034 C 
HETATM    6  C6  UNL     1     -33.901  15.050  -5.962  1.00 20.00     0.016 C 
HETATM    7  C7  UNL     1     -33.080  15.636  -3.680  1.00 20.00     0.016 C 
HETATM    8  S8  UNL     1     -37.588  14.847  -4.375  1.00 20.00    -0.168 SA
ENDROOT
BRANCH   4   9
HETATM    9  S9  UNL     1     -34.711  18.109  -5.074  1.00 20.00    -0.176 SA
HETATM   10  H23 UNL     1     -35.387  18.877  -4.215  1.00 20.00     0.102 HD
ENDBRANCH   4   9
TORSDOF 1
ENDMDL
MODEL 8
REMARK VINA RESULT:      -3.3     16.338     17.259
REMARK  1 active torsions:
REMARK  status: ('A' for Active; 'I' for Inactive)
REMARK    1  A    between atoms: C4_4  and  S9_9 
ROOT
HETATM    1  C1  UNL     1     -33.027  15.556  -3.734  1.00 20.00     0.020 C 
HETATM    2  C2  UNL     1     -33.796  14.792  -4.804  1.00 20.00     0.075 C 
HETATM    3  C3  UNL     1     -36.063  15.551  -3.437  1.00 20.00     0.089 C 
HETATM    4  C4  UNL     1     -35.120  16.271  -2.464  1.00 20.00     0.061 C 
HETATM    5  C5  UNL     1     -33.779  16.761  -3.104  1.00 20.00    -0.034 C 
HETATM    6  C6  UNL     1     -33.989  17.852  -4.177  1.00 20.00     0.016 C 
HETATM    7  C7  UNL     1     -32.848  17.349  -2.016  1.00 20.00     0.016 C 
HETATM    8  S8  UNL     1     -35.312  14.057  -4.143  1.00 20.00    -0.168 SA
ENDROOT
BRANCH   4   9
HETATM    9  S9  UNL     1     -36.092  17.612  -1.662  1.00 20.00    -0.176 SA
HETATM   10  H23 UNL     1     -37.278  17.032  -1.870  1.00 20.00     0.102 HD
ENDBRANCH   4   9
TORSDOF 1
ENDMDL
MODEL 9
REMARK VINA RESULT:      -3.2     17.490     18.505
REMARK  1 active torsions:
REMARK  status: ('A' for Active; 'I' for Inactive)
REMARK    1  A    between atoms: C4_4  and  S9_9 
ROOT
HETATM    1  C1  UNL     1     -34.039  15.671  -3.022  1.00 20.00     0.020 C 
HETATM    2  C2  UNL     1     -34.993  16.124  -1.925  1.00 20.00     0.075 C 
HETATM    3  C3  UNL     1     -36.674  16.878  -3.972  1.00 20.00     0.089 C 
HETATM    4  C4  UNL     1     -35.590  16.359  -4.926  1.00 20.00     0.061 C 
HETATM    5  C5  UNL     1     -34.712  15.203  -4.342  1.00 20.00    -0.034 C 
HETATM    6  C6  UNL     1     -35.519  13.912  -4.076  1.00 20.00     0.016 C 
HETATM    7  C7  UNL     1     -33.570  14.847  -5.324  1.00 20.00     0.016 C 
HETATM    8  S8  UNL     1     -35.974  17.554  -2.440  1.00 20.00    -0.168 SA
ENDROOT
BRANCH   4   9
HETATM    9  S9  UNL     1     -36.424  15.929  -6.509  1.00 20.00    -0.176 SA
HETATM   10  H23 UNL     1     -35.349  15.345  -7.047  1.00 20.00     0.102 HD
ENDBRANCH   4   9
TORSDOF 1
ENDMDL
