MODEL 1
REMARK VINA RESULT:      -3.8      0.000      0.000
REMARK  0 active torsions:
REMARK  status: ('A' for Active; 'I' for Inactive)
ROOT
HETATM    1  C1  UNL     1     -34.992  15.521  -2.691  1.00 20.00     0.056 C 
HETATM    2  C2  UNL     1     -36.181  15.639  -3.623  1.00 20.00     0.094 C 
HETATM    3  C3  UNL     1     -33.817  16.090  -3.496  1.00 20.00     0.056 C 
HETATM    4  C4  UNL     1     -35.818  16.830  -4.511  1.00 20.00     0.068 C 
HETATM    5  C5  UNL     1     -32.954  17.028  -2.647  1.00 20.00     0.045 C 
HETATM    6  C6  UNL     1     -32.929  15.001  -4.099  1.00 20.00     0.045 C 
HETATM    7  C7  UNL     1     -36.367  16.824  -5.937  1.00 20.00     0.047 C 
HETATM    8  C8  UNL     1     -36.258  18.143  -3.836  1.00 20.00     0.047 C 
HETATM    9  O9  UNL     1     -34.377  16.849  -4.584  1.00 20.00    -0.369 OA
HETATM   10 BR10 UNL     1     -36.429  13.952  -4.576  1.00 20.00    -0.088 Br
ENDROOT
TORSDOF 0
ENDMDL
MODEL 2
REMARK VINA RESULT:      -3.8      1.680      2.635
REMARK  0 active torsions:
REMARK  status: ('A' for Active; 'I' for Inactive)
ROOT
HETATM    1  C1  UNL     1     -35.145  17.299  -3.850  1.00 20.00     0.056 C 
HETATM    2  C2  UNL     1     -35.952  16.301  -4.655  1.00 20.00     0.094 C 
HETATM    3  C3  UNL     1     -34.500  16.462  -2.738  1.00 20.00     0.056 C 
HETATM    4  C4  UNL     1     -35.199  14.986  -4.444  1.00 20.00     0.068 C 
HETATM    5  C5  UNL     1     -33.025  16.823  -2.545  1.00 20.00     0.045 C 
HETATM    6  C6  UNL     1     -35.227  16.595  -1.399  1.00 20.00     0.045 C 
HETATM    7  C7  UNL     1     -36.026  13.700  -4.483  1.00 20.00     0.047 C 
HETATM    8  C8  UNL     1     -34.067  14.855  -5.480  1.00 20.00     0.047 C 
HETATM    9  O9  UNL     1     -34.581  15.083  -3.145  1.00 20.00    -0.369 OA
HETATM   10 BR10 UNL     1     -37.800  16.298  -4.021  1.00 20.00    -0.088 Br
ENDROOT
TORSDOF 0
ENDMDL
MODEL 3
REMARK VINA RESULT:      -3.7      2.153      3.279
REMARK  0 active torsions:
REMARK  status: ('A' for Active; 'I' for Inactive)
ROOT
HETATM    1  C1  UNL     1     -35.764  16.359  -4.645  1.00 20.00     0.056 C 
HETATM    2  C2  UNL     1     -35.049  17.431  -3.847  1.00 20.00     0.094 C 
HETATM    3  C3  UNL     1     -34.845  15.135  -4.550  1.00 20.00     0.056 C 
HETATM    4  C4  UNL     1     -34.240  16.630  -2.825  1.00 20.00     0.068 C 
HETATM    5  C5  UNL     1     -35.637  13.856  -4.262  1.00 20.00     0.045 C 
HETATM    6  C6  UNL     1     -34.002  14.928  -5.810  1.00 20.00     0.045 C 
HETATM    7  C7  UNL     1     -32.924  17.247  -2.347  1.00 20.00     0.047 C 
HETATM    8  C8  UNL     1     -35.104  16.332  -1.586  1.00 20.00     0.047 C 
HETATM    9  O9  UNL     1     -33.941  15.367  -3.453  1.00 20.00    -0.369 OA
HETATM   10 BR10 UNL     1     -33.982  18.535  -5.054  1.00 20.00    -0.088 Br
ENDROOT
TORSDOF 0
ENDMDL
MODEL 4
REMARK VINA RESULT:      -3.7      1.516      2.169
REMARK  0 active torsions:
REMARK  status: ('A' for Active; 'I' for Inactive)
ROOT
HETATM    1  C1  UNL     1     -35.327  14.206  -4.172  1.00 20.00     0.056 C 
HETATM    2  C2  UNL     1     -36.277  15.259  -3.638  1.00 20.00     0.094 C 
HETATM    3  C3  UNL     1     -34.176  15.008  -4.790  1.00 20.00     0.056 C 
HETATM    4  C4  UNL     1     -35.357  16.443  -3.333  1.00 20.00     0.068 C 
HETATM    5  C5  UNL     1     -32.813  14.422  -4.409  1.00 20.00     0.045 C 
HETATM    6  C6  UNL     1     -34.271  15.103  -6.314  1.00 20.00     0.045 C 
HETATM    7  C7  UNL     1     -35.962  17.841  -3.456  1.00 20.00     0.047 C 
HETATM    8  C8  UNL     1     -34.769  16.302  -1.916  1.00 20.00     0.047 C 
HETATM    9  O9  UNL     1     -34.259  16.345  -4.263  1.00 20.00    -0.369 OA
HETATM   10 BR10 UNL     1     -37.662  15.620  -4.968  1.00 20.00    -0.088 Br
ENDROOT
TORSDOF 0
ENDMDL
MODEL 5
REMARK VINA RESULT:      -3.6      1.610      3.465
REMARK  0 active torsions:
REMARK  status: ('A' for Active; 'I' for Inactive)
ROOT
HETATM    1  C1  UNL     1     -35.619  14.661  -6.442  1.00 20.00     0.056 C 
HETATM    2  C2  UNL     1     -35.649  14.284  -4.974  1.00 20.00     0.094 C 
HETATM    3  C3  UNL     1     -35.126  16.114  -6.453  1.00 20.00     0.056 C 
HETATM    4  C4  UNL     1     -34.570  15.177  -4.358  1.00 20.00     0.068 C 
HETATM    5  C5  UNL     1     -34.068  16.341  -7.536  1.00 20.00     0.045 C 
HETATM    6  C6  UNL     1     -36.261  17.122  -6.642  1.00 20.00     0.045 C 
HETATM    7  C7  UNL     1     -34.770  15.600  -2.902  1.00 20.00     0.047 C 
HETATM    8  C8  UNL     1     -33.194  14.494  -4.470  1.00 20.00     0.047 C 
HETATM    9  O9  UNL     1     -34.525  16.368  -5.169  1.00 20.00    -0.369 OA
HETATM   10 BR10 UNL     1     -37.448  14.566  -4.268  1.00 20.00    -0.088 Br
ENDROOT
TORSDOF 0
ENDMDL
MODEL 6
REMARK VINA RESULT:      -3.6      1.592      3.513
REMARK  0 active torsions:
REMARK  status: ('A' for Active; 'I' for Inactive)
ROOT
HETATM    1  C1  UNL     1     -35.982  15.119  -3.530  1.00 20.00     0.056 C 
HETATM    2  C2  UNL     1     -34.802  15.520  -2.666  1.00 20.00     0.094 C 
HETATM    3  C3  UNL     1     -35.889  16.038  -4.754  1.00 20.00     0.056 C 
HETATM    4  C4  UNL     1     -33.785  16.047  -3.680  1.00 20.00     0.068 C 
HETATM    5  C5  UNL     1     -36.121  15.266  -6.056  1.00 20.00     0.045 C 
HETATM    6  C6  UNL     1     -36.865  17.213  -4.688  1.00 20.00     0.045 C 
HETATM    7  C7  UNL     1     -32.828  17.138  -3.198  1.00 20.00     0.047 C 
HETATM    8  C8  UNL     1     -32.941  14.884  -4.234  1.00 20.00     0.047 C 
HETATM    9  O9  UNL     1     -34.554  16.579  -4.778  1.00 20.00    -0.369 OA
HETATM   10 BR10 UNL     1     -35.386  16.826  -1.336  1.00 20.00    -0.088 Br
ENDROOT
TORSDOF 0
ENDMDL
MODEL 7
REMARK VINA RESULT:      -3.6      1.840      2.321
REMARK  0 active torsions:
REMARK  status: ('A' for Active; 'I' for Inactive)
ROOT
HETATM    1  C1  UNL     1     -34.259  14.768  -4.248  1.00 20.00     0.056 C 
HETATM    2  C2  UNL     1     -35.120  14.655  -5.491  1.00 20.00     0.094 C 
HETATM    3  C3  UNL     1     -34.659  16.112  -3.627  1.00 20.00     0.056 C 
HETATM    4  C4  UNL     1     -36.361  15.477  -5.136  1.00 20.00     0.068 C 
HETATM    5  C5  UNL     1     -34.848  15.998  -2.112  1.00 20.00     0.045 C 
HETATM    6  C6  UNL     1     -33.653  17.225  -3.923  1.00 20.00     0.045 C 
HETATM    7  C7  UNL     1     -37.088  16.166  -6.291  1.00 20.00     0.047 C 
HETATM    8  C8  UNL     1     -37.380  14.595  -4.391  1.00 20.00     0.047 C 
HETATM    9  O9  UNL     1     -35.918  16.493  -4.214  1.00 20.00    -0.369 OA
HETATM   10 BR10 UNL     1     -34.119  15.308  -7.036  1.00 20.00    -0.088 Br
ENDROOT
TORSDOF 0
ENDMDL
MODEL 8
REMARK VINA RESULT:      -3.5      1.912      2.729
REMARK  0 active torsions:
REMARK  status: ('A' for Active; 'I' for Inactive)
ROOT
HETATM    1  C1  UNL     1     -34.560  16.838  -4.721  1.00 20.00     0.056 C 
HETATM    2  C2  UNL     1     -36.030  16.629  -5.026  1.00 20.00     0.094 C 
HETATM    3  C3  UNL     1     -34.214  15.725  -3.725  1.00 20.00     0.056 C 
HETATM    4  C4  UNL     1     -36.225  15.127  -4.809  1.00 20.00     0.068 C 
HETATM    5  C5  UNL     1     -32.884  15.051  -4.073  1.00 20.00     0.045 C 
HETATM    6  C6  UNL     1     -34.161  16.220  -2.278  1.00 20.00     0.045 C 
HETATM    7  C7  UNL     1     -37.606  14.669  -4.339  1.00 20.00     0.047 C 
HETATM    8  C8  UNL     1     -35.882  14.359  -6.100  1.00 20.00     0.047 C 
HETATM    9  O9  UNL     1     -35.260  14.739  -3.811  1.00 20.00    -0.369 OA
HETATM   10 BR10 UNL     1     -37.105  17.771  -3.862  1.00 20.00    -0.088 Br
ENDROOT
TORSDOF 0
ENDMDL
MODEL 9
REMARK VINA RESULT:      -3.5      1.933      3.559
REMARK  0 active torsions:
REMARK  status: ('A' for Active; 'I' for Inactive)
ROOT
HETATM    1  C1  UNL     1     -36.136  16.482  -3.207  1.00 20.00     0.056 C 
HETATM    2  C2  UNL     1     -34.886  15.706  -2.840  1.00 20.00     0.094 C 
HETATM    3  C3  UNL     1     -36.042  16.660  -4.727  1.00 20.00     0.056 C 
HETATM    4  C4  UNL     1     -34.577  14.914  -4.111  1.00 20.00     0.068 C 
HETATM    5  C5  UNL     1     -37.383  16.379  -5.410  1.00 20.00     0.045 C 
HETATM    6  C6  UNL     1     -35.557  18.054  -5.131  1.00 20.00     0.045 C 
HETATM    7  C7  UNL     1     -33.107  14.594  -4.388  1.00 20.00     0.047 C 
HETATM    8  C8  UNL     1     -35.360  13.588  -4.109  1.00 20.00     0.047 C 
HETATM    9  O9  UNL     1     -35.078  15.705  -5.208  1.00 20.00    -0.369 OA
HETATM   10 BR10 UNL     1     -33.486  16.952  -2.290  1.00 20.00    -0.088 Br
ENDROOT
TORSDOF 0
ENDMDL
