MODEL 1
REMARK VINA RESULT:      -5.4      0.000      0.000
REMARK  1 active torsions:
REMARK  status: ('A' for Active; 'I' for Inactive)
REMARK    1  A    between atoms: C2_2  and  C3_3 
ROOT
HETATM    1  C1  UNL     1     -34.776  15.569  -3.961  1.00 20.00    -0.063 C 
HETATM    2  C2  UNL     1     -35.247  14.312  -3.915  1.00 20.00     0.088 C 
HETATM    3  C4  UNL     1     -33.678  16.046  -3.043  1.00 20.00     0.044 C 
HETATM    4  C5  UNL     1     -35.295  16.577  -4.946  1.00 20.00     0.108 C 
HETATM    5  C6  UNL     1     -34.635  18.415  -2.991  1.00 20.00     0.083 C 
HETATM    6  C7  UNL     1     -34.096  17.238  -2.144  1.00 20.00    -0.036 C 
HETATM    7  C8  UNL     1     -32.848  17.729  -1.380  1.00 20.00     0.016 C 
HETATM    8  C9  UNL     1     -35.138  16.789  -1.097  1.00 20.00     0.016 C 
HETATM    9  S12 UNL     1     -36.039  17.984  -4.076  1.00 20.00    -0.164 SA
ENDROOT
BRANCH   2  10
HETATM   10  C3  UNL     1     -36.362  13.834  -4.849  1.00 20.00     0.198 C 
HETATM   11  O10 UNL     1     -35.969  13.583  -6.027  1.00 20.00    -0.644 OA
HETATM   12  O11 UNL     1     -37.523  13.744  -4.362  1.00 20.00    -0.644 OA
ENDBRANCH   2  10
TORSDOF 1
ENDMDL
MODEL 2
REMARK VINA RESULT:      -4.9      1.137      1.212
REMARK  1 active torsions:
REMARK  status: ('A' for Active; 'I' for Inactive)
REMARK    1  A    between atoms: C2_2  and  C3_3 
ROOT
HETATM    1  C1  UNL     1     -34.412  15.438  -3.843  1.00 20.00    -0.063 C 
HETATM    2  C2  UNL     1     -35.309  14.526  -3.439  1.00 20.00     0.088 C 
HETATM    3  C4  UNL     1     -33.475  16.122  -2.877  1.00 20.00     0.044 C 
HETATM    4  C5  UNL     1     -34.263  15.823  -5.287  1.00 20.00     0.108 C 
HETATM    5  C6  UNL     1     -33.470  18.266  -4.268  1.00 20.00     0.083 C 
HETATM    6  C7  UNL     1     -33.629  17.665  -2.852  1.00 20.00    -0.036 C 
HETATM    7  C8  UNL     1     -32.516  18.247  -1.955  1.00 20.00     0.016 C 
HETATM    8  C9  UNL     1     -34.985  18.064  -2.231  1.00 20.00     0.016 C 
HETATM    9  S12 UNL     1     -34.622  17.587  -5.511  1.00 20.00    -0.164 SA
ENDROOT
BRANCH   2  10
HETATM   10  C3  UNL     1     -36.257  13.836  -4.424  1.00 20.00     0.198 C 
HETATM   11  O10 UNL     1     -35.908  12.656  -4.729  1.00 20.00    -0.644 OA
HETATM   12  O11 UNL     1     -37.258  14.496  -4.820  1.00 20.00    -0.644 OA
ENDBRANCH   2  10
TORSDOF 1
ENDMDL
MODEL 3
REMARK VINA RESULT:      -4.7      1.756      2.306
REMARK  1 active torsions:
REMARK  status: ('A' for Active; 'I' for Inactive)
REMARK    1  A    between atoms: C2_2  and  C3_3 
ROOT
HETATM    1  C1  UNL     1     -35.787  15.480  -3.313  1.00 20.00    -0.063 C 
HETATM    2  C2  UNL     1     -37.044  15.778  -3.675  1.00 20.00     0.088 C 
HETATM    3  C4  UNL     1     -35.040  16.286  -2.278  1.00 20.00     0.044 C 
HETATM    4  C5  UNL     1     -35.047  14.310  -3.895  1.00 20.00     0.108 C 
HETATM    5  C6  UNL     1     -32.802  15.854  -3.435  1.00 20.00     0.083 C 
HETATM    6  C7  UNL     1     -33.732  16.923  -2.815  1.00 20.00    -0.036 C 
HETATM    7  C8  UNL     1     -32.990  17.575  -1.629  1.00 20.00     0.016 C 
HETATM    8  C9  UNL     1     -34.051  18.037  -3.836  1.00 20.00     0.016 C 
HETATM    9  S12 UNL     1     -33.564  14.875  -4.774  1.00 20.00    -0.164 SA
ENDROOT
BRANCH   2  10
HETATM   10  C3  UNL     1     -37.797  14.957  -4.726  1.00 20.00     0.198 C 
HETATM   11  O10 UNL     1     -37.737  15.443  -5.894  1.00 20.00    -0.644 OA
HETATM   12  O11 UNL     1     -38.383  13.911  -4.328  1.00 20.00    -0.644 OA
ENDBRANCH   2  10
TORSDOF 1
ENDMDL
MODEL 4
REMARK VINA RESULT:      -4.6      1.508      1.822
REMARK  1 active torsions:
REMARK  status: ('A' for Active; 'I' for Inactive)
REMARK    1  A    between atoms: C2_2  and  C3_3 
ROOT
HETATM    1  C1  UNL     1     -35.103  15.361  -3.031  1.00 20.00    -0.063 C 
HETATM    2  C2  UNL     1     -36.188  14.725  -3.498  1.00 20.00     0.088 C 
HETATM    3  C4  UNL     1     -35.131  16.153  -1.746  1.00 20.00     0.044 C 
HETATM    4  C5  UNL     1     -33.781  15.308  -3.743  1.00 20.00     0.108 C 
HETATM    5  C6  UNL     1     -33.397  17.809  -2.631  1.00 20.00     0.083 C 
HETATM    6  C7  UNL     1     -34.768  17.649  -1.933  1.00 20.00    -0.036 C 
HETATM    7  C8  UNL     1     -34.675  18.301  -0.537  1.00 20.00     0.016 C 
HETATM    8  C9  UNL     1     -35.877  18.383  -2.719  1.00 20.00     0.016 C 
HETATM    9  S12 UNL     1     -33.271  16.974  -4.249  1.00 20.00    -0.164 SA
ENDROOT
BRANCH   2  10
HETATM   10  C3  UNL     1     -36.153  13.923  -4.802  1.00 20.00     0.198 C 
HETATM   11  O10 UNL     1     -35.864  12.699  -4.643  1.00 20.00    -0.644 OA
HETATM   12  O11 UNL     1     -36.407  14.547  -5.870  1.00 20.00    -0.644 OA
ENDBRANCH   2  10
TORSDOF 1
ENDMDL
MODEL 5
REMARK VINA RESULT:      -4.6      2.009      2.575
REMARK  1 active torsions:
REMARK  status: ('A' for Active; 'I' for Inactive)
REMARK    1  A    between atoms: C2_2  and  C3_3 
ROOT
HETATM    1  C1  UNL     1     -34.291  15.792  -2.771  1.00 20.00    -0.063 C 
HETATM    2  C2  UNL     1     -34.678  14.737  -3.504  1.00 20.00     0.088 C 
HETATM    3  C4  UNL     1     -35.115  16.311  -1.617  1.00 20.00     0.044 C 
HETATM    4  C5  UNL     1     -33.000  16.514  -3.034  1.00 20.00     0.108 C 
HETATM    5  C6  UNL     1     -34.346  18.712  -2.038  1.00 20.00     0.083 C 
HETATM    6  C7  UNL     1     -35.561  17.787  -1.788  1.00 20.00    -0.036 C 
HETATM    7  C8  UNL     1     -36.248  18.238  -0.482  1.00 20.00     0.016 C 
HETATM    8  C9  UNL     1     -36.595  17.912  -2.928  1.00 20.00     0.016 C 
HETATM    9  S12 UNL     1     -33.323  18.244  -3.475  1.00 20.00    -0.164 SA
ENDROOT
BRANCH   2  10
HETATM   10  C3  UNL     1     -33.838  14.216  -4.673  1.00 20.00     0.198 C 
HETATM   11  O10 UNL     1     -32.987  13.338  -4.340  1.00 20.00    -0.644 OA
HETATM   12  O11 UNL     1     -34.073  14.703  -5.814  1.00 20.00    -0.644 OA
ENDBRANCH   2  10
TORSDOF 1
ENDMDL
MODEL 6
REMARK VINA RESULT:      -4.4      1.322      1.774
REMARK  1 active torsions:
REMARK  status: ('A' for Active; 'I' for Inactive)
REMARK    1  A    between atoms: C2_2  and  C3_3 
ROOT
HETATM    1  C1  UNL     1     -33.703  16.436  -3.660  1.00 20.00    -0.063 C 
HETATM    2  C2  UNL     1     -33.820  15.137  -3.977  1.00 20.00     0.088 C 
HETATM    3  C4  UNL     1     -33.084  16.889  -2.360  1.00 20.00     0.044 C 
HETATM    4  C5  UNL     1     -34.157  17.526  -4.587  1.00 20.00     0.108 C 
HETATM    5  C6  UNL     1     -34.600  18.944  -2.258  1.00 20.00     0.083 C 
HETATM    6  C7  UNL     1     -34.043  17.730  -1.477  1.00 20.00    -0.036 C 
HETATM    7  C8  UNL     1     -33.245  18.262  -0.268  1.00 20.00     0.016 C 
HETATM    8  C9  UNL     1     -35.189  16.851  -0.931  1.00 20.00     0.016 C 
HETATM    9  S12 UNL     1     -35.463  18.514  -3.808  1.00 20.00    -0.164 SA
ENDROOT
BRANCH   2  10
HETATM   10  C3  UNL     1     -34.449  14.684  -5.298  1.00 20.00     0.198 C 
HETATM   11  O10 UNL     1     -35.693  14.459  -5.221  1.00 20.00    -0.644 OA
HETATM   12  O11 UNL     1     -33.682  14.584  -6.296  1.00 20.00    -0.644 OA
ENDBRANCH   2  10
TORSDOF 1
ENDMDL
MODEL 7
REMARK VINA RESULT:      -4.3      3.186      4.670
REMARK  1 active torsions:
REMARK  status: ('A' for Active; 'I' for Inactive)
REMARK    1  A    between atoms: C2_2  and  C3_3 
ROOT
HETATM    1  C1  UNL     1     -34.294  16.322  -2.622  1.00 20.00    -0.063 C 
HETATM    2  C2  UNL     1     -33.010  16.711  -2.649  1.00 20.00     0.088 C 
HETATM    3  C4  UNL     1     -34.743  15.004  -3.206  1.00 20.00     0.044 C 
HETATM    4  C5  UNL     1     -35.367  17.159  -1.987  1.00 20.00     0.108 C 
HETATM    5  C6  UNL     1     -37.015  15.973  -3.861  1.00 20.00     0.083 C 
HETATM    6  C7  UNL     1     -35.793  15.154  -4.338  1.00 20.00    -0.036 C 
HETATM    7  C8  UNL     1     -36.283  13.744  -4.731  1.00 20.00     0.016 C 
HETATM    8  C9  UNL     1     -35.154  15.793  -5.589  1.00 20.00     0.016 C 
HETATM    9  S12 UNL     1     -36.610  17.633  -3.221  1.00 20.00    -0.164 SA
ENDROOT
BRANCH   2  10
HETATM   10  C3  UNL     1     -32.561  18.049  -2.054  1.00 20.00     0.198 C 
HETATM   11  O10 UNL     1     -32.528  18.997  -2.894  1.00 20.00    -0.644 OA
HETATM   12  O11 UNL     1     -32.279  18.067  -0.823  1.00 20.00    -0.644 OA
ENDBRANCH   2  10
TORSDOF 1
ENDMDL
MODEL 8
REMARK VINA RESULT:      -4.1      2.210      3.054
REMARK  1 active torsions:
REMARK  status: ('A' for Active; 'I' for Inactive)
REMARK    1  A    between atoms: C2_2  and  C3_3 
ROOT
HETATM    1  C1  UNL     1     -36.928  14.975  -4.861  1.00 20.00    -0.063 C 
HETATM    2  C2  UNL     1     -37.987  14.484  -4.199  1.00 20.00     0.088 C 
HETATM    3  C4  UNL     1     -35.562  14.340  -4.769  1.00 20.00     0.044 C 
HETATM    4  C5  UNL     1     -37.036  16.176  -5.757  1.00 20.00     0.108 C 
HETATM    5  C6  UNL     1     -34.400  16.600  -5.044  1.00 20.00     0.083 C 
HETATM    6  C7  UNL     1     -34.470  15.294  -4.217  1.00 20.00    -0.036 C 
HETATM    7  C8  UNL     1     -33.106  14.582  -4.327  1.00 20.00     0.016 C 
HETATM    8  C9  UNL     1     -34.721  15.598  -2.724  1.00 20.00     0.016 C 
HETATM    9  S12 UNL     1     -35.976  17.516  -5.146  1.00 20.00    -0.164 SA
ENDROOT
BRANCH   2  10
HETATM   10  C3  UNL     1     -39.370  15.133  -4.297  1.00 20.00     0.198 C 
HETATM   11  O10 UNL     1     -39.557  16.066  -3.461  1.00 20.00    -0.644 OA
HETATM   12  O11 UNL     1     -40.158  14.682  -5.175  1.00 20.00    -0.644 OA
ENDBRANCH   2  10
TORSDOF 1
ENDMDL
MODEL 9
REMARK VINA RESULT:      -4.0      3.346      4.364
REMARK  1 active torsions:
REMARK  status: ('A' for Active; 'I' for Inactive)
REMARK    1  A    between atoms: C2_2  and  C3_3 
ROOT
HETATM    1  C1  UNL     1     -35.596  16.734  -1.828  1.00 20.00    -0.063 C 
HETATM    2  C2  UNL     1     -35.461  17.009  -0.521  1.00 20.00     0.088 C 
HETATM    3  C4  UNL     1     -34.880  15.575  -2.479  1.00 20.00     0.044 C 
HETATM    4  C5  UNL     1     -36.486  17.545  -2.725  1.00 20.00     0.108 C 
HETATM    5  C6  UNL     1     -34.685  16.833  -4.695  1.00 20.00     0.083 C 
HETATM    6  C7  UNL     1     -33.932  16.001  -3.631  1.00 20.00    -0.036 C 
HETATM    7  C8  UNL     1     -33.394  14.725  -4.310  1.00 20.00     0.016 C 
HETATM    8  C9  UNL     1     -32.720  16.781  -3.075  1.00 20.00     0.016 C 
HETATM    9  S12 UNL     1     -35.513  18.323  -4.043  1.00 20.00    -0.164 SA
ENDROOT
BRANCH   2  10
HETATM   10  C3  UNL     1     -36.191  18.185   0.134  1.00 20.00     0.198 C 
HETATM   11  O10 UNL     1     -35.524  19.263   0.136  1.00 20.00    -0.644 OA
HETATM   12  O11 UNL     1     -37.348  17.965   0.590  1.00 20.00    -0.644 OA
ENDBRANCH   2  10
TORSDOF 1
ENDMDL
