MODEL 1
REMARK VINA RESULT:      -4.2      0.000      0.000
REMARK  1 active torsions:
REMARK  status: ('A' for Active; 'I' for Inactive)
REMARK    1  A    between atoms: C7_7  and  C11_11 
ROOT
HETATM    1  C1  UNL     1     -35.075  14.068  -4.471  1.00 20.00     0.030 C 
HETATM    2  C2  UNL     1     -36.083  14.986  -3.806  1.00 20.00     0.036 C 
HETATM    3  C3  UNL     1     -35.721  17.017  -2.298  1.00 20.00     0.305 C 
HETATM    4  C4  UNL     1     -33.796  14.875  -4.408  1.00 20.00     0.235 C 
HETATM    5  C5  UNL     1     -33.110  16.811  -2.925  1.00 20.00     0.271 C 
HETATM    6  C6  UNL     1     -35.319  15.581  -2.626  1.00 20.00     0.216 C 
HETATM    7  C7  UNL     1     -33.405  17.410  -1.545  1.00 20.00     0.251 C 
HETATM    8  C10 UNL     1     -35.236  17.381   0.051  1.00 20.00     0.310 C 
HETATM    9  N12 UNL     1     -34.842  17.677  -1.326  1.00 20.00     0.092 N 
HETATM   10  N13 UNL     1     -33.856  15.512  -3.040  1.00 20.00    -0.063 N 
HETATM   11  H36 UNL     1     -33.381  14.849  -2.350  1.00 20.00     0.280 HD
ENDROOT
BRANCH   7  12
HETATM   12  C11 UNL     1     -32.634  18.721  -1.379  1.00 20.00     0.012 C 
HETATM   13  C8  UNL     1     -31.422  18.511  -0.480  1.00 20.00     0.012 C 
HETATM   14  C9  UNL     1     -32.216  19.263  -2.740  1.00 20.00     0.012 C 
ENDBRANCH   7  12
TORSDOF 1
ENDMDL
MODEL 2
REMARK VINA RESULT:      -4.1      1.264      4.947
REMARK  1 active torsions:
REMARK  status: ('A' for Active; 'I' for Inactive)
REMARK    1  A    between atoms: C7_7  and  C11_11 
ROOT
HETATM    1  C1  UNL     1     -34.136  17.997  -0.342  1.00 20.00     0.030 C 
HETATM    2  C2  UNL     1     -33.257  17.991  -1.579  1.00 20.00     0.036 C 
HETATM    3  C3  UNL     1     -33.481  16.670  -3.755  1.00 20.00     0.305 C 
HETATM    4  C4  UNL     1     -35.424  17.377  -0.844  1.00 20.00     0.235 C 
HETATM    5  C5  UNL     1     -35.903  15.910  -2.853  1.00 20.00     0.271 C 
HETATM    6  C6  UNL     1     -33.545  16.640  -2.230  1.00 20.00     0.216 C 
HETATM    7  C7  UNL     1     -35.208  14.908  -3.782  1.00 20.00     0.251 C 
HETATM    8  C10 UNL     1     -32.937  14.424  -4.495  1.00 20.00     0.310 C 
HETATM    9  N12 UNL     1     -33.978  15.447  -4.398  1.00 20.00     0.092 N 
HETATM   10  N13 UNL     1     -34.943  16.272  -1.755  1.00 20.00    -0.063 N 
HETATM   11  H36 UNL     1     -34.836  15.387  -1.166  1.00 20.00     0.280 HD
ENDROOT
BRANCH   7  12
HETATM   12  C11 UNL     1     -36.169  14.489  -4.897  1.00 20.00     0.012 C 
HETATM   13  C8  UNL     1     -37.598  14.439  -4.371  1.00 20.00     0.012 C 
HETATM   14  C9  UNL     1     -36.055  15.446  -6.077  1.00 20.00     0.012 C 
ENDBRANCH   7  12
TORSDOF 1
ENDMDL
MODEL 3
REMARK VINA RESULT:      -4.1      1.367      4.359
REMARK  1 active torsions:
REMARK  status: ('A' for Active; 'I' for Inactive)
REMARK    1  A    between atoms: C7_7  and  C11_11 
ROOT
HETATM    1  C1  UNL     1     -32.647  18.937  -0.257  1.00 20.00     0.030 C 
HETATM    2  C2  UNL     1     -33.958  18.214  -0.011  1.00 20.00     0.036 C 
HETATM    3  C3  UNL     1     -35.217  16.538  -1.473  1.00 20.00     0.305 C 
HETATM    4  C4  UNL     1     -32.018  18.122  -1.366  1.00 20.00     0.235 C 
HETATM    5  C5  UNL     1     -33.032  16.523  -3.050  1.00 20.00     0.271 C 
HETATM    6  C6  UNL     1     -34.452  17.858  -1.412  1.00 20.00     0.216 C 
HETATM    7  C7  UNL     1     -34.358  16.240  -3.767  1.00 20.00     0.251 C 
HETATM    8  C10 UNL     1     -36.717  16.666  -3.376  1.00 20.00     0.310 C 
HETATM    9  N12 UNL     1     -35.494  16.071  -2.837  1.00 20.00     0.092 N 
HETATM   10  N13 UNL     1     -33.190  17.792  -2.260  1.00 20.00    -0.063 N 
HETATM   11  H36 UNL     1     -33.277  18.571  -2.986  1.00 20.00     0.280 HD
ENDROOT
BRANCH   7  12
HETATM   12  C11 UNL     1     -34.224  14.970  -4.610  1.00 20.00     0.012 C 
HETATM   13  C8  UNL     1     -34.479  15.283  -6.079  1.00 20.00     0.012 C 
HETATM   14  C9  UNL     1     -32.846  14.351  -4.415  1.00 20.00     0.012 C 
ENDBRANCH   7  12
TORSDOF 1
ENDMDL
MODEL 4
REMARK VINA RESULT:      -4.0      1.387      1.916
REMARK  1 active torsions:
REMARK  status: ('A' for Active; 'I' for Inactive)
REMARK    1  A    between atoms: C7_7  and  C11_11 
ROOT
HETATM    1  C1  UNL     1     -36.185  13.724  -4.772  1.00 20.00     0.030 C 
HETATM    2  C2  UNL     1     -36.838  15.081  -4.958  1.00 20.00     0.036 C 
HETATM    3  C3  UNL     1     -36.543  17.249  -3.637  1.00 20.00     0.305 C 
HETATM    4  C4  UNL     1     -34.987  14.046  -3.904  1.00 20.00     0.235 C 
HETATM    5  C5  UNL     1     -34.500  16.015  -2.387  1.00 20.00     0.271 C 
HETATM    6  C6  UNL     1     -36.731  15.735  -3.582  1.00 20.00     0.216 C 
HETATM    7  C7  UNL     1     -35.227  17.081  -1.557  1.00 20.00     0.251 C 
HETATM    8  C10 UNL     1     -37.405  18.156  -1.558  1.00 20.00     0.310 C 
HETATM    9  N12 UNL     1     -36.208  17.857  -2.344  1.00 20.00     0.092 N 
HETATM   10  N13 UNL     1     -35.530  15.065  -2.930  1.00 20.00    -0.063 N 
HETATM   11  H36 UNL     1     -35.906  14.537  -2.081  1.00 20.00     0.280 HD
ENDROOT
BRANCH   7  12
HETATM   12  C11 UNL     1     -34.205  18.050  -0.959  1.00 20.00     0.012 C 
HETATM   13  C8  UNL     1     -34.218  17.959   0.562  1.00 20.00     0.012 C 
HETATM   14  C9  UNL     1     -32.815  17.758  -1.510  1.00 20.00     0.012 C 
ENDBRANCH   7  12
TORSDOF 1
ENDMDL
MODEL 5
REMARK VINA RESULT:      -3.9      1.559      4.609
REMARK  1 active torsions:
REMARK  status: ('A' for Active; 'I' for Inactive)
REMARK    1  A    between atoms: C7_7  and  C11_11 
ROOT
HETATM    1  C1  UNL     1     -31.415  19.157   0.464  1.00 20.00     0.030 C 
HETATM    2  C2  UNL     1     -32.620  18.707   1.269  1.00 20.00     0.036 C 
HETATM    3  C3  UNL     1     -34.741  17.493   0.524  1.00 20.00     0.305 C 
HETATM    4  C4  UNL     1     -31.538  18.343  -0.807  1.00 20.00     0.235 C 
HETATM    5  C5  UNL     1     -33.525  17.174  -1.859  1.00 20.00     0.271 C 
HETATM    6  C6  UNL     1     -33.739  18.607   0.234  1.00 20.00     0.216 C 
HETATM    7  C7  UNL     1     -35.055  17.253  -1.912  1.00 20.00     0.251 C 
HETATM    8  C10 UNL     1     -36.840  18.127  -0.515  1.00 20.00     0.310 C 
HETATM    9  N12 UNL     1     -35.682  17.235  -0.573  1.00 20.00     0.092 N 
HETATM   10  N13 UNL     1     -33.023  18.361  -1.085  1.00 20.00    -0.063 N 
HETATM   11  H36 UNL     1     -33.229  19.210  -1.701  1.00 20.00     0.280 HD
ENDROOT
BRANCH   7  12
HETATM   12  C11 UNL     1     -35.602  16.075  -2.722  1.00 20.00     0.012 C 
HETATM   13  C8  UNL     1     -36.439  16.581  -3.890  1.00 20.00     0.012 C 
HETATM   14  C9  UNL     1     -34.458  15.196  -3.211  1.00 20.00     0.012 C 
ENDBRANCH   7  12
TORSDOF 1
ENDMDL
MODEL 6
REMARK VINA RESULT:      -3.9      2.803      4.431
REMARK  1 active torsions:
REMARK  status: ('A' for Active; 'I' for Inactive)
REMARK    1  A    between atoms: C7_7  and  C11_11 
ROOT
HETATM    1  C1  UNL     1     -39.071  18.098  -6.132  1.00 20.00     0.030 C 
HETATM    2  C2  UNL     1     -39.371  16.721  -5.572  1.00 20.00     0.036 C 
HETATM    3  C3  UNL     1     -37.906  15.147  -4.192  1.00 20.00     0.305 C 
HETATM    4  C4  UNL     1     -37.864  18.532  -5.328  1.00 20.00     0.235 C 
HETATM    5  C5  UNL     1     -36.164  17.194  -4.009  1.00 20.00     0.271 C 
HETATM    6  C6  UNL     1     -37.994  16.087  -5.391  1.00 20.00     0.216 C 
HETATM    7  C7  UNL     1     -35.537  15.796  -3.958  1.00 20.00     0.251 C 
HETATM    8  C10 UNL     1     -36.140  13.550  -4.660  1.00 20.00     0.310 C 
HETATM    9  N12 UNL     1     -36.540  14.714  -3.870  1.00 20.00     0.092 N 
HETATM   10  N13 UNL     1     -37.046  17.266  -5.223  1.00 20.00    -0.063 N 
HETATM   11  H36 UNL     1     -36.382  17.237  -6.060  1.00 20.00     0.280 HD
ENDROOT
BRANCH   7  12
HETATM   12  C11 UNL     1     -34.604  15.695  -2.749  1.00 20.00     0.012 C 
HETATM   13  C8  UNL     1     -33.202  16.156  -3.125  1.00 20.00     0.012 C 
HETATM   14  C9  UNL     1     -35.155  16.515  -1.589  1.00 20.00     0.012 C 
ENDBRANCH   7  12
TORSDOF 1
ENDMDL
MODEL 7
REMARK VINA RESULT:      -3.8      2.424      3.782
REMARK  1 active torsions:
REMARK  status: ('A' for Active; 'I' for Inactive)
REMARK    1  A    between atoms: C7_7  and  C11_11 
ROOT
HETATM    1  C1  UNL     1     -36.478  17.083  -7.700  1.00 20.00     0.030 C 
HETATM    2  C2  UNL     1     -36.232  15.649  -7.268  1.00 20.00     0.036 C 
HETATM    3  C3  UNL     1     -35.068  14.730  -5.187  1.00 20.00     0.305 C 
HETATM    4  C4  UNL     1     -36.271  17.859  -6.416  1.00 20.00     0.235 C 
HETATM    5  C5  UNL     1     -35.040  17.267  -4.282  1.00 20.00     0.271 C 
HETATM    6  C6  UNL     1     -35.035  15.747  -6.325  1.00 20.00     0.216 C 
HETATM    7  C7  UNL     1     -33.892  16.382  -3.782  1.00 20.00     0.251 C 
HETATM    8  C10 UNL     1     -32.773  14.348  -4.498  1.00 20.00     0.310 C 
HETATM    9  N12 UNL     1     -34.056  14.960  -4.149  1.00 20.00     0.092 N 
HETATM   10  N13 UNL     1     -35.088  17.167  -5.781  1.00 20.00    -0.063 N 
HETATM   11  H36 UNL     1     -34.201  17.653  -6.127  1.00 20.00     0.280 HD
ENDROOT
BRANCH   7  12
HETATM   12  C11 UNL     1     -33.792  16.484  -2.259  1.00 20.00     0.012 C 
HETATM   13  C8  UNL     1     -32.955  17.695  -1.865  1.00 20.00     0.012 C 
HETATM   14  C9  UNL     1     -35.183  16.559  -1.642  1.00 20.00     0.012 C 
ENDBRANCH   7  12
TORSDOF 1
ENDMDL
MODEL 8
REMARK VINA RESULT:      -3.7      1.639      3.242
REMARK  1 active torsions:
REMARK  status: ('A' for Active; 'I' for Inactive)
REMARK    1  A    between atoms: C7_7  and  C11_11 
ROOT
HETATM    1  C1  UNL     1     -38.534  15.814  -4.854  1.00 20.00     0.030 C 
HETATM    2  C2  UNL     1     -37.691  14.670  -4.323  1.00 20.00     0.036 C 
HETATM    3  C3  UNL     1     -35.288  14.656  -3.454  1.00 20.00     0.305 C 
HETATM    4  C4  UNL     1     -37.795  17.036  -4.351  1.00 20.00     0.235 C 
HETATM    5  C5  UNL     1     -35.400  17.345  -3.584  1.00 20.00     0.271 C 
HETATM    6  C6  UNL     1     -36.254  15.142  -4.532  1.00 20.00     0.216 C 
HETATM    7  C7  UNL     1     -34.005  16.738  -3.779  1.00 20.00     0.251 C 
HETATM    8  C10 UNL     1     -33.075  14.596  -4.446  1.00 20.00     0.310 C 
HETATM    9  N12 UNL     1     -33.963  15.286  -3.511  1.00 20.00     0.092 N 
HETATM   10  N13 UNL     1     -36.343  16.660  -4.533  1.00 20.00    -0.063 N 
HETATM   11  H36 UNL     1     -36.044  16.977  -5.509  1.00 20.00     0.280 HD
ENDROOT
BRANCH   7  12
HETATM   12  C11 UNL     1     -33.008  17.435  -2.850  1.00 20.00     0.012 C 
HETATM   13  C8  UNL     1     -32.671  18.822  -3.382  1.00 20.00     0.012 C 
HETATM   14  C9  UNL     1     -33.573  17.516  -1.437  1.00 20.00     0.012 C 
ENDBRANCH   7  12
TORSDOF 1
ENDMDL
MODEL 9
REMARK VINA RESULT:      -3.7      1.632      5.125
REMARK  1 active torsions:
REMARK  status: ('A' for Active; 'I' for Inactive)
REMARK    1  A    between atoms: C7_7  and  C11_11 
ROOT
HETATM    1  C1  UNL     1     -34.027  17.988  -0.790  1.00 20.00     0.030 C 
HETATM    2  C2  UNL     1     -33.289  17.268  -1.904  1.00 20.00     0.036 C 
HETATM    3  C3  UNL     1     -34.186  15.824  -3.811  1.00 20.00     0.305 C 
HETATM    4  C4  UNL     1     -35.451  18.029  -1.303  1.00 20.00     0.235 C 
HETATM    5  C5  UNL     1     -36.641  16.630  -3.048  1.00 20.00     0.271 C 
HETATM    6  C6  UNL     1     -34.247  16.155  -2.322  1.00 20.00     0.216 C 
HETATM    7  C7  UNL     1     -36.581  15.242  -3.698  1.00 20.00     0.251 C 
HETATM    8  C10 UNL     1     -34.907  13.521  -4.064  1.00 20.00     0.310 C 
HETATM    9  N12 UNL     1     -35.255  14.927  -4.268  1.00 20.00     0.092 N 
HETATM   10  N13 UNL     1     -35.627  16.670  -1.940  1.00 20.00    -0.063 N 
HETATM   11  H36 UNL     1     -35.998  16.005  -1.191  1.00 20.00     0.280 HD
ENDROOT
BRANCH   7  12
HETATM   12  C11 UNL     1     -37.625  15.153  -4.814  1.00 20.00     0.012 C 
HETATM   13  C8  UNL     1     -39.022  15.020  -4.220  1.00 20.00     0.012 C 
HETATM   14  C9  UNL     1     -37.532  16.372  -5.722  1.00 20.00     0.012 C 
ENDBRANCH   7  12
TORSDOF 1
ENDMDL
