MODEL 1
REMARK VINA RESULT:      -4.0      0.000      0.000
REMARK  0 active torsions:
REMARK  status: ('A' for Active; 'I' for Inactive)
ROOT
HETATM    1  C1  UNL     1     -35.171  15.237  -3.533  1.00 20.00    -0.053 C 
HETATM    2  C2  UNL     1     -36.254  14.518  -3.849  1.00 20.00     0.017 C 
HETATM    3  C3  UNL     1     -34.963  15.933  -2.231  1.00 20.00     0.073 C 
HETATM    4  C4  UNL     1     -34.006  15.583  -4.422  1.00 20.00     0.077 C 
HETATM    5  C5  UNL     1     -34.172  17.161  -2.676  1.00 20.00     0.059 C 
HETATM    6  C6  UNL     1     -32.962  14.465  -4.430  1.00 20.00     0.051 C 
HETATM    7  C7  UNL     1     -34.389  15.964  -5.855  1.00 20.00     0.051 C 
HETATM    8  C8  UNL     1     -35.082  18.315  -3.115  1.00 20.00     0.046 C 
HETATM    9  C9  UNL     1     -33.217  17.643  -1.585  1.00 20.00     0.046 C 
HETATM   10  O10 UNL     1     -33.384  16.738  -3.808  1.00 20.00    -0.366 OA
ENDROOT
TORSDOF 0
ENDMDL
MODEL 2
REMARK VINA RESULT:      -3.9      1.116      2.187
REMARK  0 active torsions:
REMARK  status: ('A' for Active; 'I' for Inactive)
ROOT
HETATM    1  C1  UNL     1     -34.755  16.459  -4.586  1.00 20.00    -0.053 C 
HETATM    2  C2  UNL     1     -34.571  16.853  -5.851  1.00 20.00     0.017 C 
HETATM    3  C3  UNL     1     -35.229  17.340  -3.481  1.00 20.00     0.073 C 
HETATM    4  C4  UNL     1     -34.437  15.114  -3.988  1.00 20.00     0.077 C 
HETATM    5  C5  UNL     1     -34.474  16.752  -2.291  1.00 20.00     0.059 C 
HETATM    6  C6  UNL     1     -35.583  14.124  -4.206  1.00 20.00     0.051 C 
HETATM    7  C7  UNL     1     -33.112  14.506  -4.455  1.00 20.00     0.051 C 
HETATM    8  C8  UNL     1     -33.072  17.355  -2.133  1.00 20.00     0.046 C 
HETATM    9  C9  UNL     1     -35.256  16.917  -0.990  1.00 20.00     0.046 C 
HETATM   10  O10 UNL     1     -34.342  15.342  -2.561  1.00 20.00    -0.366 OA
ENDROOT
TORSDOF 0
ENDMDL
MODEL 3
REMARK VINA RESULT:      -3.9      1.388      2.127
REMARK  0 active torsions:
REMARK  status: ('A' for Active; 'I' for Inactive)
ROOT
HETATM    1  C1  UNL     1     -35.509  14.741  -4.388  1.00 20.00    -0.053 C 
HETATM    2  C2  UNL     1     -36.242  13.637  -4.571  1.00 20.00     0.017 C 
HETATM    3  C3  UNL     1     -34.251  14.803  -3.590  1.00 20.00     0.073 C 
HETATM    4  C4  UNL     1     -35.829  16.142  -4.838  1.00 20.00     0.077 C 
HETATM    5  C5  UNL     1     -34.339  16.214  -3.011  1.00 20.00     0.059 C 
HETATM    6  C6  UNL     1     -35.380  16.378  -6.282  1.00 20.00     0.051 C 
HETATM    7  C7  UNL     1     -37.295  16.548  -4.664  1.00 20.00     0.051 C 
HETATM    8  C8  UNL     1     -35.137  16.259  -1.702  1.00 20.00     0.046 C 
HETATM    9  C9  UNL     1     -32.954  16.821  -2.792  1.00 20.00     0.046 C 
HETATM   10  O10 UNL     1     -35.027  17.008  -3.999  1.00 20.00    -0.366 OA
ENDROOT
TORSDOF 0
ENDMDL
MODEL 4
REMARK VINA RESULT:      -3.9     10.954     12.736
REMARK  0 active torsions:
REMARK  status: ('A' for Active; 'I' for Inactive)
ROOT
HETATM    1  C1  UNL     1     -42.507   5.864   0.490  1.00 20.00    -0.053 C 
HETATM    2  C2  UNL     1     -43.251   4.960   1.138  1.00 20.00     0.017 C 
HETATM    3  C3  UNL     1     -42.017   7.142   1.082  1.00 20.00     0.073 C 
HETATM    4  C4  UNL     1     -42.099   5.850  -0.959  1.00 20.00     0.077 C 
HETATM    5  C5  UNL     1     -42.046   8.061  -0.138  1.00 20.00     0.059 C 
HETATM    6  C6  UNL     1     -40.833   5.016  -1.171  1.00 20.00     0.051 C 
HETATM    7  C7  UNL     1     -43.198   5.404  -1.927  1.00 20.00     0.051 C 
HETATM    8  C8  UNL     1     -43.417   8.715  -0.345  1.00 20.00     0.046 C 
HETATM    9  C9  UNL     1     -40.967   9.139  -0.058  1.00 20.00     0.046 C 
HETATM   10  O10 UNL     1     -41.758   7.221  -1.276  1.00 20.00    -0.366 OA
ENDROOT
TORSDOF 0
ENDMDL
MODEL 5
REMARK VINA RESULT:      -3.9      1.594      3.476
REMARK  0 active torsions:
REMARK  status: ('A' for Active; 'I' for Inactive)
ROOT
HETATM    1  C1  UNL     1     -34.433  14.861  -4.029  1.00 20.00    -0.053 C 
HETATM    2  C2  UNL     1     -33.173  14.504  -4.306  1.00 20.00     0.017 C 
HETATM    3  C3  UNL     1     -35.637  14.040  -4.343  1.00 20.00     0.073 C 
HETATM    4  C4  UNL     1     -34.912  16.168  -3.455  1.00 20.00     0.077 C 
HETATM    5  C5  UNL     1     -36.664  15.130  -4.644  1.00 20.00     0.059 C 
HETATM    6  C6  UNL     1     -34.834  16.165  -1.926  1.00 20.00     0.051 C 
HETATM    7  C7  UNL     1     -34.213  17.407  -4.020  1.00 20.00     0.051 C 
HETATM    8  C8  UNL     1     -36.625  15.581  -6.109  1.00 20.00     0.046 C 
HETATM    9  C9  UNL     1     -38.080  14.686  -4.278  1.00 20.00     0.046 C 
HETATM   10  O10 UNL     1     -36.314  16.250  -3.806  1.00 20.00    -0.366 OA
ENDROOT
TORSDOF 0
ENDMDL
MODEL 6
REMARK VINA RESULT:      -3.7      1.329      3.652
REMARK  0 active torsions:
REMARK  status: ('A' for Active; 'I' for Inactive)
ROOT
HETATM    1  C1  UNL     1     -33.496  17.236  -2.447  1.00 20.00    -0.053 C 
HETATM    2  C2  UNL     1     -32.589  18.197  -2.239  1.00 20.00     0.017 C 
HETATM    3  C3  UNL     1     -33.216  15.935  -3.118  1.00 20.00     0.073 C 
HETATM    4  C4  UNL     1     -34.973  17.289  -2.158  1.00 20.00     0.077 C 
HETATM    5  C5  UNL     1     -34.544  15.678  -3.828  1.00 20.00     0.059 C 
HETATM    6  C6  UNL     1     -35.268  16.914  -0.704  1.00 20.00     0.051 C 
HETATM    7  C7  UNL     1     -35.645  18.618  -2.512  1.00 20.00     0.051 C 
HETATM    8  C8  UNL     1     -34.608  16.344  -5.208  1.00 20.00     0.046 C 
HETATM    9  C9  UNL     1     -34.833  14.184  -3.962  1.00 20.00     0.046 C 
HETATM   10  O10 UNL     1     -35.563  16.259  -2.988  1.00 20.00    -0.366 OA
ENDROOT
TORSDOF 0
ENDMDL
MODEL 7
REMARK VINA RESULT:      -3.7      1.510      3.618
REMARK  0 active torsions:
REMARK  status: ('A' for Active; 'I' for Inactive)
ROOT
HETATM    1  C1  UNL     1     -34.177  16.242  -3.180  1.00 20.00    -0.053 C 
HETATM    2  C2  UNL     1     -33.043  16.726  -2.662  1.00 20.00     0.017 C 
HETATM    3  C3  UNL     1     -34.430  14.803  -3.475  1.00 20.00     0.073 C 
HETATM    4  C4  UNL     1     -35.372  17.021  -3.663  1.00 20.00     0.077 C 
HETATM    5  C5  UNL     1     -35.320  14.908  -4.711  1.00 20.00     0.059 C 
HETATM    6  C6  UNL     1     -36.324  17.348  -2.511  1.00 20.00     0.051 C 
HETATM    7  C7  UNL     1     -35.031  18.289  -4.449  1.00 20.00     0.051 C 
HETATM    8  C8  UNL     1     -34.508  15.002  -6.009  1.00 20.00     0.046 C 
HETATM    9  C9  UNL     1     -36.302  13.741  -4.801  1.00 20.00     0.046 C 
HETATM   10  O10 UNL     1     -36.080  16.124  -4.553  1.00 20.00    -0.366 OA
ENDROOT
TORSDOF 0
ENDMDL
MODEL 8
REMARK VINA RESULT:      -3.7      1.022      3.399
REMARK  0 active torsions:
REMARK  status: ('A' for Active; 'I' for Inactive)
ROOT
HETATM    1  C1  UNL     1     -34.974  16.376  -2.722  1.00 20.00    -0.053 C 
HETATM    2  C2  UNL     1     -35.021  16.436  -1.386  1.00 20.00     0.017 C 
HETATM    3  C3  UNL     1     -35.438  15.217  -3.538  1.00 20.00     0.073 C 
HETATM    4  C4  UNL     1     -34.370  17.382  -3.666  1.00 20.00     0.077 C 
HETATM    5  C5  UNL     1     -34.451  15.264  -4.702  1.00 20.00     0.059 C 
HETATM    6  C6  UNL     1     -35.361  18.501  -3.994  1.00 20.00     0.051 C 
HETATM    7  C7  UNL     1     -33.036  17.971  -3.201  1.00 20.00     0.051 C 
HETATM    8  C8  UNL     1     -33.156  14.499  -4.402  1.00 20.00     0.046 C 
HETATM    9  C9  UNL     1     -35.076  14.736  -5.992  1.00 20.00     0.046 C 
HETATM   10  O10 UNL     1     -34.130  16.657  -4.897  1.00 20.00    -0.366 OA
ENDROOT
TORSDOF 0
ENDMDL
MODEL 9
REMARK VINA RESULT:      -3.7      1.526      2.826
REMARK  0 active torsions:
REMARK  status: ('A' for Active; 'I' for Inactive)
ROOT
HETATM    1  C1  UNL     1     -34.435  16.145  -3.460  1.00 20.00    -0.053 C 
HETATM    2  C2  UNL     1     -34.642  16.123  -2.138  1.00 20.00     0.017 C 
HETATM    3  C3  UNL     1     -34.386  17.381  -4.292  1.00 20.00     0.073 C 
HETATM    4  C4  UNL     1     -34.316  14.967  -4.391  1.00 20.00     0.077 C 
HETATM    5  C5  UNL     1     -34.984  16.876  -5.604  1.00 20.00     0.059 C 
HETATM    6  C6  UNL     1     -32.884  14.427  -4.422  1.00 20.00     0.051 C 
HETATM    7  C7  UNL     1     -35.306  13.833  -4.114  1.00 20.00     0.051 C 
HETATM    8  C8  UNL     1     -36.516  16.962  -5.618  1.00 20.00     0.046 C 
HETATM    9  C9  UNL     1     -34.414  17.624  -6.808  1.00 20.00     0.046 C 
HETATM   10  O10 UNL     1     -34.598  15.491  -5.711  1.00 20.00    -0.366 OA
ENDROOT
TORSDOF 0
ENDMDL
