MODEL 1
REMARK VINA RESULT:      -4.1      0.000      0.000
REMARK  0 active torsions:
REMARK  status: ('A' for Active; 'I' for Inactive)
ROOT
HETATM    1  C1  UNL     1     -35.584  13.829  -4.525  1.00 20.00     0.086 C 
HETATM    2  C2  UNL     1     -34.165  15.557  -3.425  1.00 20.00     0.056 C 
HETATM    3  C3  UNL     1     -35.900  16.252  -5.000  1.00 20.00     0.115 C 
HETATM    4  C4  UNL     1     -35.217  15.990  -2.401  1.00 20.00     0.046 C 
HETATM    5  C5  UNL     1     -34.913  15.129  -4.691  1.00 20.00     0.135 C 
HETATM    6  C6  UNL     1     -34.647  16.902  -1.326  1.00 20.00     0.021 C 
HETATM    7  N7  UNL     1     -36.113  12.803  -4.395  1.00 20.00    -0.195 NA
HETATM    8  S8  UNL     1     -36.498  16.838  -3.381  1.00 20.00    -0.162 SA
HETATM    9 CL9  UNL     1     -33.765  14.928  -6.046  1.00 20.00    -0.102 Cl
ENDROOT
TORSDOF 0
ENDMDL
MODEL 2
REMARK VINA RESULT:      -4.0      1.102      1.102
REMARK  0 active torsions:
REMARK  status: ('A' for Active; 'I' for Inactive)
ROOT
HETATM    1  C1  UNL     1     -35.247  13.845  -4.329  1.00 20.00     0.086 C 
HETATM    2  C2  UNL     1     -34.502  15.620  -2.746  1.00 20.00     0.056 C 
HETATM    3  C3  UNL     1     -34.666  16.131  -5.130  1.00 20.00     0.115 C 
HETATM    4  C4  UNL     1     -35.839  16.364  -2.709  1.00 20.00     0.046 C 
HETATM    5  C5  UNL     1     -34.361  15.007  -4.142  1.00 20.00     0.135 C 
HETATM    6  C6  UNL     1     -35.890  17.424  -1.620  1.00 20.00     0.021 C 
HETATM    7  N7  UNL     1     -35.945  12.930  -4.477  1.00 20.00    -0.195 NA
HETATM    8  S8  UNL     1     -36.003  17.106  -4.365  1.00 20.00    -0.162 SA
HETATM    9 CL9  UNL     1     -32.695  14.408  -4.387  1.00 20.00    -0.102 Cl
ENDROOT
TORSDOF 0
ENDMDL
MODEL 3
REMARK VINA RESULT:      -3.7      2.486      3.361
REMARK  0 active torsions:
REMARK  status: ('A' for Active; 'I' for Inactive)
ROOT
HETATM    1  C1  UNL     1     -36.529  14.475  -4.373  1.00 20.00     0.086 C 
HETATM    2  C2  UNL     1     -35.596  16.713  -4.952  1.00 20.00     0.056 C 
HETATM    3  C3  UNL     1     -34.132  14.756  -4.988  1.00 20.00     0.115 C 
HETATM    4  C4  UNL     1     -35.585  16.488  -6.465  1.00 20.00     0.046 C 
HETATM    5  C5  UNL     1     -35.350  15.354  -4.288  1.00 20.00     0.135 C 
HETATM    6  C6  UNL     1     -35.300  17.762  -7.244  1.00 20.00     0.021 C 
HETATM    7  N7  UNL     1     -37.458  13.782  -4.439  1.00 20.00    -0.195 NA
HETATM    8  S8  UNL     1     -34.288  15.237  -6.739  1.00 20.00    -0.162 SA
HETATM    9 CL9  UNL     1     -35.014  15.571  -2.546  1.00 20.00    -0.102 Cl
ENDROOT
TORSDOF 0
ENDMDL
MODEL 4
REMARK VINA RESULT:      -3.7      2.119      2.657
REMARK  0 active torsions:
REMARK  status: ('A' for Active; 'I' for Inactive)
ROOT
HETATM    1  C1  UNL     1     -37.427  14.844  -4.496  1.00 20.00     0.086 C 
HETATM    2  C2  UNL     1     -35.125  15.411  -5.264  1.00 20.00     0.056 C 
HETATM    3  C3  UNL     1     -36.133  16.693  -3.444  1.00 20.00     0.115 C 
HETATM    4  C4  UNL     1     -34.402  14.727  -4.102  1.00 20.00     0.046 C 
HETATM    5  C5  UNL     1     -36.461  15.931  -4.726  1.00 20.00     0.135 C 
HETATM    6  C6  UNL     1     -32.901  14.626  -4.324  1.00 20.00     0.021 C 
HETATM    7  N7  UNL     1     -38.189  13.986  -4.315  1.00 20.00    -0.195 NA
HETATM    8  S8  UNL     1     -34.790  15.753  -2.646  1.00 20.00    -0.162 SA
HETATM    9 CL9  UNL     1     -37.220  17.028  -5.916  1.00 20.00    -0.102 Cl
ENDROOT
TORSDOF 0
ENDMDL
MODEL 5
REMARK VINA RESULT:      -3.6      1.580      1.802
REMARK  0 active torsions:
REMARK  status: ('A' for Active; 'I' for Inactive)
ROOT
HETATM    1  C1  UNL     1     -35.440  13.832  -4.415  1.00 20.00     0.086 C 
HETATM    2  C2  UNL     1     -35.590  15.983  -3.166  1.00 20.00     0.056 C 
HETATM    3  C3  UNL     1     -35.089  16.016  -5.558  1.00 20.00     0.115 C 
HETATM    4  C4  UNL     1     -36.988  16.355  -3.668  1.00 20.00     0.046 C 
HETATM    5  C5  UNL     1     -34.900  15.196  -4.284  1.00 20.00     0.135 C 
HETATM    6  C6  UNL     1     -37.583  17.538  -2.921  1.00 20.00     0.021 C 
HETATM    7  N7  UNL     1     -35.865  12.756  -4.518  1.00 20.00    -0.195 NA
HETATM    8  S8  UNL     1     -36.761  16.732  -5.436  1.00 20.00    -0.162 SA
HETATM    9 CL9  UNL     1     -33.159  15.011  -3.923  1.00 20.00    -0.102 Cl
ENDROOT
TORSDOF 0
ENDMDL
MODEL 6
REMARK VINA RESULT:      -3.5      4.360      5.359
REMARK  0 active torsions:
REMARK  status: ('A' for Active; 'I' for Inactive)
ROOT
HETATM    1  C1  UNL     1     -31.799  18.375  -0.816  1.00 20.00     0.086 C 
HETATM    2  C2  UNL     1     -33.845  17.082  -1.411  1.00 20.00     0.056 C 
HETATM    3  C3  UNL     1     -33.460  19.262  -2.446  1.00 20.00     0.115 C 
HETATM    4  C4  UNL     1     -33.325  16.583  -2.761  1.00 20.00     0.046 C 
HETATM    5  C5  UNL     1     -33.227  18.462  -1.166  1.00 20.00     0.135 C 
HETATM    6  C6  UNL     1     -34.214  15.512  -3.371  1.00 20.00     0.021 C 
HETATM    7  N7  UNL     1     -30.673  18.307  -0.540  1.00 20.00    -0.195 NA
HETATM    8  S8  UNL     1     -33.261  18.071  -3.812  1.00 20.00    -0.162 SA
HETATM    9 CL9  UNL     1     -34.031  19.262   0.215  1.00 20.00    -0.102 Cl
ENDROOT
TORSDOF 0
ENDMDL
MODEL 7
REMARK VINA RESULT:      -3.5      2.307      2.910
REMARK  0 active torsions:
REMARK  status: ('A' for Active; 'I' for Inactive)
ROOT
HETATM    1  C1  UNL     1     -33.535  14.470  -4.221  1.00 20.00     0.086 C 
HETATM    2  C2  UNL     1     -35.744  15.208  -3.334  1.00 20.00     0.056 C 
HETATM    3  C3  UNL     1     -34.626  16.551  -5.043  1.00 20.00     0.115 C 
HETATM    4  C4  UNL     1     -36.560  14.734  -4.539  1.00 20.00     0.046 C 
HETATM    5  C5  UNL     1     -34.366  15.629  -3.855  1.00 20.00     0.135 C 
HETATM    6  C6  UNL     1     -38.058  14.779  -4.286  1.00 20.00     0.021 C 
HETATM    7  N7  UNL     1     -32.879  13.556  -4.510  1.00 20.00    -0.195 NA
HETATM    8  S8  UNL     1     -36.081  15.856  -5.894  1.00 20.00    -0.162 SA
HETATM    9 CL9  UNL     1     -33.467  16.504  -2.582  1.00 20.00    -0.102 Cl
ENDROOT
TORSDOF 0
ENDMDL
MODEL 8
REMARK VINA RESULT:      -3.5      2.265      2.657
REMARK  0 active torsions:
REMARK  status: ('A' for Active; 'I' for Inactive)
ROOT
HETATM    1  C1  UNL     1     -35.187  16.295  -4.641  1.00 20.00     0.086 C 
HETATM    2  C2  UNL     1     -35.168  15.887  -2.183  1.00 20.00     0.056 C 
HETATM    3  C3  UNL     1     -33.058  15.890  -3.416  1.00 20.00     0.115 C 
HETATM    4  C4  UNL     1     -34.703  17.293  -1.797  1.00 20.00     0.046 C 
HETATM    5  C5  UNL     1     -34.543  15.557  -3.541  1.00 20.00     0.135 C 
HETATM    6  C6  UNL     1     -34.800  17.553  -0.303  1.00 20.00     0.021 C 
HETATM    7  N7  UNL     1     -35.695  16.876  -5.509  1.00 20.00    -0.195 NA
HETATM    8  S8  UNL     1     -32.977  17.386  -2.377  1.00 20.00    -0.162 SA
HETATM    9 CL9  UNL     1     -34.756  13.822  -3.913  1.00 20.00    -0.102 Cl
ENDROOT
TORSDOF 0
ENDMDL
MODEL 9
REMARK VINA RESULT:      -3.4      2.385      3.268
REMARK  0 active torsions:
REMARK  status: ('A' for Active; 'I' for Inactive)
ROOT
HETATM    1  C1  UNL     1     -36.279  13.756  -4.507  1.00 20.00     0.086 C 
HETATM    2  C2  UNL     1     -36.686  15.765  -5.925  1.00 20.00     0.056 C 
HETATM    3  C3  UNL     1     -36.282  16.046  -3.531  1.00 20.00     0.115 C 
HETATM    4  C4  UNL     1     -35.219  16.193  -6.010  1.00 20.00     0.046 C 
HETATM    5  C5  UNL     1     -36.887  15.096  -4.562  1.00 20.00     0.135 C 
HETATM    6  C6  UNL     1     -34.988  17.293  -7.033  1.00 20.00     0.021 C 
HETATM    7  N7  UNL     1     -35.800  12.699  -4.464  1.00 20.00    -0.195 NA
HETATM    8  S8  UNL     1     -34.802  16.754  -4.326  1.00 20.00    -0.162 SA
HETATM    9 CL9  UNL     1     -38.629  14.866  -4.239  1.00 20.00    -0.102 Cl
ENDROOT
TORSDOF 0
ENDMDL
