MODEL 1
REMARK VINA RESULT:      -4.2      0.000      0.000
REMARK  2 active torsions:
REMARK  status: ('A' for Active; 'I' for Inactive)
REMARK    1  A    between atoms: C5_5  and  N9_9 
REMARK    2  A    between atoms: C8_8  and  N9_9 
ROOT
HETATM    1  C1  UNL     1     -33.505   9.532   0.290  1.00 20.00     0.013 C 
HETATM    2  C2  UNL     1     -32.832   8.630   0.708  1.00 20.00    -0.087 C 
HETATM    3  C8  UNL     1     -32.009   7.528   1.213  1.00 20.00     0.362 C 
ENDROOT
BRANCH   3   4
HETATM    4  N9  UNL     1     -32.142   7.408   2.659  1.00 20.00     0.099 N 
HETATM    5  H23 UNL     1     -31.302   6.971   3.038  1.00 20.00     0.317 HD
BRANCH   4   6
HETATM    6  C5  UNL     1     -33.288   6.610   3.006  1.00 20.00     0.232 C 
HETATM    7  C3  UNL     1     -33.614   6.698   4.494  1.00 20.00     0.051 C 
HETATM    8  C6  UNL     1     -34.728   5.687   4.749  1.00 20.00     0.045 C 
HETATM    9  C7  UNL     1     -34.844   5.296   6.212  1.00 20.00     0.021 C 
HETATM   10  S10 UNL     1     -34.296   4.256   3.706  1.00 20.00    -0.162 SA
HETATM   11  C4  UNL     1     -33.058   5.134   2.710  1.00 20.00     0.109 C 
ENDBRANCH   4   6
ENDBRANCH   3   4
TORSDOF 2
ENDMDL
MODEL 2
REMARK VINA RESULT:      -4.1     15.594     16.123
REMARK  2 active torsions:
REMARK  status: ('A' for Active; 'I' for Inactive)
REMARK    1  A    between atoms: C5_5  and  N9_9 
REMARK    2  A    between atoms: C8_8  and  N9_9 
ROOT
HETATM    1  C1  UNL     1     -25.934  19.168   4.598  1.00 20.00     0.013 C 
HETATM    2  C2  UNL     1     -25.671  19.205   5.769  1.00 20.00    -0.087 C 
HETATM    3  C8  UNL     1     -25.355  19.251   7.199  1.00 20.00     0.362 C 
ENDROOT
BRANCH   3   4
HETATM    4  N9  UNL     1     -23.932  19.029   7.419  1.00 20.00     0.099 N 
HETATM    5  H23 UNL     1     -23.532  18.578   6.597  1.00 20.00     0.317 HD
BRANCH   4   6
HETATM    6  C5  UNL     1     -23.714  18.194   8.571  1.00 20.00     0.232 C 
HETATM    7  C3  UNL     1     -24.728  18.472   9.677  1.00 20.00     0.051 C 
HETATM    8  C6  UNL     1     -24.282  17.651  10.883  1.00 20.00     0.045 C 
HETATM    9  C7  UNL     1     -24.870  18.157  12.189  1.00 20.00     0.021 C 
HETATM   10  S10 UNL     1     -22.464  17.775  10.875  1.00 20.00    -0.162 SA
HETATM   11  C4  UNL     1     -22.341  18.431   9.187  1.00 20.00     0.109 C 
ENDBRANCH   4   6
ENDBRANCH   3   4
TORSDOF 2
ENDMDL
MODEL 3
REMARK VINA RESULT:      -3.9     15.426     15.956
REMARK  2 active torsions:
REMARK  status: ('A' for Active; 'I' for Inactive)
REMARK    1  A    between atoms: C5_5  and  N9_9 
REMARK    2  A    between atoms: C8_8  and  N9_9 
ROOT
HETATM    1  C1  UNL     1     -26.511  18.898   5.063  1.00 20.00     0.013 C 
HETATM    2  C2  UNL     1     -25.925  19.044   6.100  1.00 20.00    -0.087 C 
HETATM    3  C8  UNL     1     -25.204  19.224   7.363  1.00 20.00     0.362 C 
ENDROOT
BRANCH   3   4
HETATM    4  N9  UNL     1     -26.123  19.163   8.492  1.00 20.00     0.099 N 
HETATM    5  H23 UNL     1     -26.746  19.969   8.461  1.00 20.00     0.317 HD
BRANCH   4   6
HETATM    6  C5  UNL     1     -25.407  19.167   9.740  1.00 20.00     0.232 C 
HETATM    7  C3  UNL     1     -24.519  17.935   9.891  1.00 20.00     0.051 C 
HETATM    8  C6  UNL     1     -23.957  17.984  11.309  1.00 20.00     0.045 C 
HETATM    9  C7  UNL     1     -23.458  16.632  11.790  1.00 20.00     0.021 C 
HETATM   10  S10 UNL     1     -25.341  18.588  12.330  1.00 20.00    -0.162 SA
HETATM   11  C4  UNL     1     -26.353  19.156  10.934  1.00 20.00     0.109 C 
ENDBRANCH   4   6
ENDBRANCH   3   4
TORSDOF 2
ENDMDL
MODEL 4
REMARK VINA RESULT:      -3.9     15.440     16.162
REMARK  2 active torsions:
REMARK  status: ('A' for Active; 'I' for Inactive)
REMARK    1  A    between atoms: C5_5  and  N9_9 
REMARK    2  A    between atoms: C8_8  and  N9_9 
ROOT
HETATM    1  C1  UNL     1     -28.405  19.263   6.343  1.00 20.00     0.013 C 
HETATM    2  C2  UNL     1     -27.301  19.248   6.814  1.00 20.00    -0.087 C 
HETATM    3  C8  UNL     1     -25.951  19.231   7.385  1.00 20.00     0.362 C 
ENDROOT
BRANCH   3   4
HETATM    4  N9  UNL     1     -25.998  18.909   8.805  1.00 20.00     0.099 N 
HETATM    5  H23 UNL     1     -26.588  19.588   9.284  1.00 20.00     0.317 HD
BRANCH   4   6
HETATM    6  C5  UNL     1     -24.680  18.936   9.383  1.00 20.00     0.232 C 
HETATM    7  C3  UNL     1     -23.626  18.396   8.420  1.00 20.00     0.051 C 
HETATM    8  C6  UNL     1     -22.322  18.326   9.210  1.00 20.00     0.045 C 
HETATM    9  C7  UNL     1     -21.305  17.387   8.583  1.00 20.00     0.021 C 
HETATM   10  S10 UNL     1     -22.821  17.761  10.870  1.00 20.00    -0.162 SA
HETATM   11  C4  UNL     1     -24.594  18.070  10.633  1.00 20.00     0.109 C 
ENDBRANCH   4   6
ENDBRANCH   3   4
TORSDOF 2
ENDMDL
MODEL 5
REMARK VINA RESULT:      -3.8     15.818     16.672
REMARK  2 active torsions:
REMARK  status: ('A' for Active; 'I' for Inactive)
REMARK    1  A    between atoms: C5_5  and  N9_9 
REMARK    2  A    between atoms: C8_8  and  N9_9 
ROOT
HETATM    1  C1  UNL     1     -29.236  17.071  12.332  1.00 20.00     0.013 C 
HETATM    2  C2  UNL     1     -28.132  17.540  12.288  1.00 20.00    -0.087 C 
HETATM    3  C8  UNL     1     -26.787  18.118  12.236  1.00 20.00     0.362 C 
ENDROOT
BRANCH   3   4
HETATM    4  N9  UNL     1     -25.842  17.170  11.661  1.00 20.00     0.099 N 
HETATM    5  H23 UNL     1     -25.607  16.465  12.358  1.00 20.00     0.317 HD
BRANCH   4   6
HETATM    6  C5  UNL     1     -24.638  17.836  11.237  1.00 20.00     0.232 C 
HETATM    7  C3  UNL     1     -24.360  17.618   9.752  1.00 20.00     0.051 C 
HETATM    8  C6  UNL     1     -22.987  18.228   9.481  1.00 20.00     0.045 C 
HETATM    9  C7  UNL     1     -22.349  17.695   8.209  1.00 20.00     0.021 C 
HETATM   10  S10 UNL     1     -21.999  17.806  10.954  1.00 20.00    -0.162 SA
HETATM   11  C4  UNL     1     -23.415  17.314  11.978  1.00 20.00     0.109 C 
ENDBRANCH   4   6
ENDBRANCH   3   4
TORSDOF 2
ENDMDL
MODEL 6
REMARK VINA RESULT:      -3.8     11.109     11.840
REMARK  2 active torsions:
REMARK  status: ('A' for Active; 'I' for Inactive)
REMARK    1  A    between atoms: C5_5  and  N9_9 
REMARK    2  A    between atoms: C8_8  and  N9_9 
ROOT
HETATM    1  C1  UNL     1     -34.018  15.177  -7.201  1.00 20.00     0.013 C 
HETATM    2  C2  UNL     1     -33.860  14.957  -6.032  1.00 20.00    -0.087 C 
HETATM    3  C8  UNL     1     -33.670  14.684  -4.604  1.00 20.00     0.362 C 
ENDROOT
BRANCH   3   4
HETATM    4  N9  UNL     1     -32.855  15.721  -3.987  1.00 20.00     0.099 N 
HETATM    5  H23 UNL     1     -32.144  15.285  -3.400  1.00 20.00     0.317 HD
BRANCH   4   6
HETATM    6  C5  UNL     1     -33.662  16.598  -3.179  1.00 20.00     0.232 C 
HETATM    7  C3  UNL     1     -32.835  17.312  -2.114  1.00 20.00     0.051 C 
HETATM    8  C6  UNL     1     -33.829  18.067  -1.236  1.00 20.00     0.045 C 
HETATM    9  C7  UNL     1     -33.256  18.429   0.124  1.00 20.00     0.021 C 
HETATM   10  S10 UNL     1     -35.253  16.939  -1.083  1.00 20.00    -0.162 SA
HETATM   11  C4  UNL     1     -34.747  15.835  -2.432  1.00 20.00     0.109 C 
ENDBRANCH   4   6
ENDBRANCH   3   4
TORSDOF 2
ENDMDL
MODEL 7
REMARK VINA RESULT:      -3.7     11.160     11.957
REMARK  2 active torsions:
REMARK  status: ('A' for Active; 'I' for Inactive)
REMARK    1  A    between atoms: C5_5  and  N9_9 
REMARK    2  A    between atoms: C8_8  and  N9_9 
ROOT
HETATM    1  C1  UNL     1     -30.848  18.525   0.137  1.00 20.00     0.013 C 
HETATM    2  C2  UNL     1     -31.616  18.298  -0.757  1.00 20.00    -0.087 C 
HETATM    3  C8  UNL     1     -32.550  18.022  -1.852  1.00 20.00     0.362 C 
ENDROOT
BRANCH   3   4
HETATM    4  N9  UNL     1     -33.857  17.643  -1.331  1.00 20.00     0.099 N 
HETATM    5  H23 UNL     1     -33.779  17.465  -0.330  1.00 20.00     0.317 HD
BRANCH   4   6
HETATM    6  C5  UNL     1     -34.350  16.461  -1.986  1.00 20.00     0.232 C 
HETATM    7  C3  UNL     1     -33.472  16.057  -3.167  1.00 20.00     0.051 C 
HETATM    8  C6  UNL     1     -34.194  14.906  -3.863  1.00 20.00     0.045 C 
HETATM    9  C7  UNL     1     -33.730  14.701  -5.295  1.00 20.00     0.021 C 
HETATM   10  S10 UNL     1     -35.958  15.361  -3.789  1.00 20.00    -0.162 SA
HETATM   11  C4  UNL     1     -35.748  16.672  -2.551  1.00 20.00     0.109 C 
ENDBRANCH   4   6
ENDBRANCH   3   4
TORSDOF 2
ENDMDL
MODEL 8
REMARK VINA RESULT:      -3.7     11.066     11.810
REMARK  2 active torsions:
REMARK  status: ('A' for Active; 'I' for Inactive)
REMARK    1  A    between atoms: C5_5  and  N9_9 
REMARK    2  A    between atoms: C8_8  and  N9_9 
ROOT
HETATM    1  C1  UNL     1     -35.997  13.767  -4.422  1.00 20.00     0.013 C 
HETATM    2  C2  UNL     1     -35.412  14.547  -3.721  1.00 20.00    -0.087 C 
HETATM    3  C8  UNL     1     -34.694  15.497  -2.867  1.00 20.00     0.362 C 
ENDROOT
BRANCH   3   4
HETATM    4  N9  UNL     1     -35.607  16.136  -1.928  1.00 20.00     0.099 N 
HETATM    5  H23 UNL     1     -36.461  16.400  -2.418  1.00 20.00     0.317 HD
BRANCH   4   6
HETATM    6  C5  UNL     1     -35.010  17.312  -1.351  1.00 20.00     0.232 C 
HETATM    7  C3  UNL     1     -33.507  17.370  -1.603  1.00 20.00     0.051 C 
HETATM    8  C6  UNL     1     -32.985  18.560  -0.803  1.00 20.00     0.045 C 
HETATM    9  C7  UNL     1     -31.489  18.487  -0.549  1.00 20.00     0.021 C 
HETATM   10  S10 UNL     1     -33.931  18.517   0.754  1.00 20.00    -0.162 SA
HETATM   11  C4  UNL     1     -35.188  17.348   0.161  1.00 20.00     0.109 C 
ENDBRANCH   4   6
ENDBRANCH   3   4
TORSDOF 2
ENDMDL
MODEL 9
REMARK VINA RESULT:      -3.7     10.842     12.231
REMARK  2 active torsions:
REMARK  status: ('A' for Active; 'I' for Inactive)
REMARK    1  A    between atoms: C5_5  and  N9_9 
REMARK    2  A    between atoms: C8_8  and  N9_9 
ROOT
HETATM    1  C1  UNL     1     -32.141  18.300  -1.510  1.00 20.00     0.013 C 
HETATM    2  C2  UNL     1     -32.793  17.435  -2.028  1.00 20.00    -0.087 C 
HETATM    3  C8  UNL     1     -33.593  16.380  -2.657  1.00 20.00     0.362 C 
ENDROOT
BRANCH   3   4
HETATM    4  N9  UNL     1     -32.861  15.768  -3.758  1.00 20.00     0.099 N 
HETATM    5  H23 UNL     1     -32.445  16.500  -4.332  1.00 20.00     0.317 HD
BRANCH   4   6
HETATM    6  C5  UNL     1     -33.735  14.967  -4.574  1.00 20.00     0.232 C 
HETATM    7  C3  UNL     1     -34.312  15.763  -5.741  1.00 20.00     0.051 C 
HETATM    8  C6  UNL     1     -35.337  14.853  -6.414  1.00 20.00     0.045 C 
HETATM    9  C7  UNL     1     -36.332  15.619  -7.268  1.00 20.00     0.021 C 
HETATM   10  S10 UNL     1     -36.161  13.993  -5.034  1.00 20.00    -0.162 SA
HETATM   11  C4  UNL     1     -34.930  14.452  -3.782  1.00 20.00     0.109 C 
ENDBRANCH   4   6
ENDBRANCH   3   4
TORSDOF 2
ENDMDL
