MODEL 1
REMARK VINA RESULT:      -4.1      0.000      0.000
REMARK  1 active torsions:
REMARK  status: ('A' for Active; 'I' for Inactive)
REMARK    1  A    between atoms: C6_6  and  O10_10 
ROOT
HETATM    1  C1  UNL     1     -35.129  15.222  -7.454  1.00 20.00     0.015 C 
HETATM    2  C2  UNL     1     -34.951  15.710  -6.372  1.00 20.00    -0.077 C 
HETATM    3  C3  UNL     1     -34.106  15.864  -2.584  1.00 20.00     0.023 C 
HETATM    4  C4  UNL     1     -35.336  16.560  -2.012  1.00 20.00     0.075 C 
HETATM    5  C5  UNL     1     -36.008  17.080  -4.641  1.00 20.00     0.126 C 
HETATM    6  C6  UNL     1     -34.731  16.313  -5.037  1.00 20.00     0.135 C 
HETATM    7  C7  UNL     1     -34.300  15.226  -3.989  1.00 20.00    -0.004 C 
HETATM    8  C8  UNL     1     -32.938  14.593  -4.380  1.00 20.00     0.019 C 
HETATM    9  C9  UNL     1     -35.329  14.073  -3.889  1.00 20.00     0.019 C 
HETATM   10  S11 UNL     1     -35.877  17.943  -3.045  1.00 20.00    -0.165 SA
ENDROOT
BRANCH   6  11
HETATM   11  O10 UNL     1     -33.667  17.267  -5.169  1.00 20.00    -0.376 OA
HETATM   12  H25 UNL     1     -34.049  18.127  -4.942  1.00 20.00     0.211 HD
ENDBRANCH   6  11
TORSDOF 1
ENDMDL
MODEL 2
REMARK VINA RESULT:      -4.0      1.586      2.010
REMARK  1 active torsions:
REMARK  status: ('A' for Active; 'I' for Inactive)
REMARK    1  A    between atoms: C6_6  and  O10_10 
ROOT
HETATM    1  C1  UNL     1     -37.329  15.938  -5.507  1.00 20.00     0.015 C 
HETATM    2  C2  UNL     1     -36.221  16.272  -5.185  1.00 20.00    -0.077 C 
HETATM    3  C3  UNL     1     -32.926  16.317  -3.129  1.00 20.00     0.023 C 
HETATM    4  C4  UNL     1     -32.813  17.788  -2.742  1.00 20.00     0.075 C 
HETATM    5  C5  UNL     1     -34.865  18.205  -4.546  1.00 20.00     0.126 C 
HETATM    6  C6  UNL     1     -34.855  16.683  -4.790  1.00 20.00     0.135 C 
HETATM    7  C7  UNL     1     -34.347  15.853  -3.557  1.00 20.00    -0.004 C 
HETATM    8  C8  UNL     1     -34.232  14.348  -3.917  1.00 20.00     0.019 C 
HETATM    9  C9  UNL     1     -35.307  15.961  -2.347  1.00 20.00     0.019 C 
HETATM   10  S11 UNL     1     -33.233  18.887  -4.117  1.00 20.00    -0.165 SA
ENDROOT
BRANCH   6  11
HETATM   11  O10 UNL     1     -33.990  16.421  -5.905  1.00 20.00    -0.376 OA
HETATM   12  H25 UNL     1     -34.218  17.075  -6.580  1.00 20.00     0.211 HD
ENDBRANCH   6  11
TORSDOF 1
ENDMDL
MODEL 3
REMARK VINA RESULT:      -3.9      1.733      3.516
REMARK  1 active torsions:
REMARK  status: ('A' for Active; 'I' for Inactive)
REMARK    1  A    between atoms: C6_6  and  O10_10 
ROOT
HETATM    1  C1  UNL     1     -34.934  16.396  -1.648  1.00 20.00     0.015 C 
HETATM    2  C2  UNL     1     -35.084  16.338  -2.838  1.00 20.00    -0.077 C 
HETATM    3  C3  UNL     1     -35.022  14.807  -6.407  1.00 20.00     0.023 C 
HETATM    4  C4  UNL     1     -34.210  15.841  -7.182  1.00 20.00     0.075 C 
HETATM    5  C5  UNL     1     -34.495  17.436  -4.943  1.00 20.00     0.126 C 
HETATM    6  C6  UNL     1     -35.271  16.267  -4.305  1.00 20.00     0.135 C 
HETATM    7  C7  UNL     1     -34.855  14.859  -4.861  1.00 20.00    -0.004 C 
HETATM    8  C8  UNL     1     -35.767  13.746  -4.280  1.00 20.00     0.019 C 
HETATM    9  C9  UNL     1     -33.396  14.494  -4.492  1.00 20.00     0.019 C 
HETATM   10  S11 UNL     1     -34.678  17.535  -6.751  1.00 20.00    -0.165 SA
ENDROOT
BRANCH   6  11
HETATM   11  O10 UNL     1     -36.667  16.469  -4.569  1.00 20.00    -0.376 OA
HETATM   12  H25 UNL     1     -36.744  16.586  -5.526  1.00 20.00     0.211 HD
ENDBRANCH   6  11
TORSDOF 1
ENDMDL
MODEL 4
REMARK VINA RESULT:      -3.8      2.097      3.650
REMARK  1 active torsions:
REMARK  status: ('A' for Active; 'I' for Inactive)
REMARK    1  A    between atoms: C6_6  and  O10_10 
ROOT
HETATM    1  C1  UNL     1     -35.050  16.508  -1.433  1.00 20.00     0.015 C 
HETATM    2  C2  UNL     1     -35.551  16.155  -2.465  1.00 20.00    -0.077 C 
HETATM    3  C3  UNL     1     -35.784  14.535  -5.988  1.00 20.00     0.023 C 
HETATM    4  C4  UNL     1     -36.337  15.681  -6.828  1.00 20.00     0.075 C 
HETATM    5  C5  UNL     1     -36.788  16.956  -4.419  1.00 20.00     0.126 C 
HETATM    6  C6  UNL     1     -36.170  15.719  -3.738  1.00 20.00     0.135 C 
HETATM    7  C7  UNL     1     -35.134  14.958  -4.640  1.00 20.00    -0.004 C 
HETATM    8  C8  UNL     1     -34.657  13.652  -3.949  1.00 20.00     0.019 C 
HETATM    9  C9  UNL     1     -33.873  15.810  -4.926  1.00 20.00     0.019 C 
HETATM   10  S11 UNL     1     -37.655  16.578  -5.973  1.00 20.00    -0.165 SA
ENDROOT
BRANCH   6  11
HETATM   11  O10 UNL     1     -37.237  14.818  -3.408  1.00 20.00    -0.376 OA
HETATM   12  H25 UNL     1     -36.982  14.392  -2.578  1.00 20.00     0.211 HD
ENDBRANCH   6  11
TORSDOF 1
ENDMDL
MODEL 5
REMARK VINA RESULT:      -3.8      1.416      1.707
REMARK  1 active torsions:
REMARK  status: ('A' for Active; 'I' for Inactive)
REMARK    1  A    between atoms: C6_6  and  O10_10 
ROOT
HETATM    1  C1  UNL     1     -35.273  15.198  -7.653  1.00 20.00     0.015 C 
HETATM    2  C2  UNL     1     -34.854  15.425  -6.551  1.00 20.00    -0.077 C 
HETATM    3  C3  UNL     1     -34.793  15.510  -2.668  1.00 20.00     0.023 C 
HETATM    4  C4  UNL     1     -34.566  16.992  -2.386  1.00 20.00     0.075 C 
HETATM    5  C5  UNL     1     -34.043  17.213  -5.091  1.00 20.00     0.126 C 
HETATM    6  C6  UNL     1     -34.338  15.703  -5.191  1.00 20.00     0.135 C 
HETATM    7  C7  UNL     1     -35.329  15.182  -4.090  1.00 20.00    -0.004 C 
HETATM    8  C8  UNL     1     -35.471  13.638  -4.164  1.00 20.00     0.019 C 
HETATM    9  C9  UNL     1     -36.747  15.780  -4.253  1.00 20.00     0.019 C 
HETATM   10  S11 UNL     1     -33.330  17.713  -3.493  1.00 20.00    -0.165 SA
ENDROOT
BRANCH   6  11
HETATM   11  O10 UNL     1     -33.093  15.001  -5.055  1.00 20.00    -0.376 OA
HETATM   12  H25 UNL     1     -32.574  15.220  -5.841  1.00 20.00     0.211 HD
ENDBRANCH   6  11
TORSDOF 1
ENDMDL
MODEL 6
REMARK VINA RESULT:      -3.8      2.418      3.667
REMARK  1 active torsions:
REMARK  status: ('A' for Active; 'I' for Inactive)
REMARK    1  A    between atoms: C6_6  and  O10_10 
ROOT
HETATM    1  C1  UNL     1     -38.120  18.067  -3.074  1.00 20.00     0.015 C 
HETATM    2  C2  UNL     1     -37.412  17.169  -3.439  1.00 20.00    -0.077 C 
HETATM    3  C3  UNL     1     -34.164  15.079  -3.845  1.00 20.00     0.023 C 
HETATM    4  C4  UNL     1     -34.050  14.960  -5.361  1.00 20.00     0.075 C 
HETATM    5  C5  UNL     1     -36.616  15.983  -5.426  1.00 20.00     0.126 C 
HETATM    6  C6  UNL     1     -36.540  16.060  -3.888  1.00 20.00     0.135 C 
HETATM    7  C7  UNL     1     -35.079  16.230  -3.339  1.00 20.00    -0.004 C 
HETATM    8  C8  UNL     1     -35.062  16.160  -1.789  1.00 20.00     0.019 C 
HETATM    9  C9  UNL     1     -34.460  17.590  -3.742  1.00 20.00     0.019 C 
HETATM   10  S11 UNL     1     -35.647  14.618  -6.139  1.00 20.00    -0.165 SA
ENDROOT
BRANCH   6  11
HETATM   11  O10 UNL     1     -37.088  14.843  -3.359  1.00 20.00    -0.376 OA
HETATM   12  H25 UNL     1     -37.905  14.681  -3.852  1.00 20.00     0.211 HD
ENDBRANCH   6  11
TORSDOF 1
ENDMDL
MODEL 7
REMARK VINA RESULT:      -3.8      2.076      3.161
REMARK  1 active torsions:
REMARK  status: ('A' for Active; 'I' for Inactive)
REMARK    1  A    between atoms: C6_6  and  O10_10 
ROOT
HETATM    1  C1  UNL     1     -32.925  18.812  -3.945  1.00 20.00     0.015 C 
HETATM    2  C2  UNL     1     -33.800  18.027  -4.188  1.00 20.00    -0.077 C 
HETATM    3  C3  UNL     1     -35.803  14.703  -4.036  1.00 20.00     0.023 C 
HETATM    4  C4  UNL     1     -35.898  14.321  -5.510  1.00 20.00     0.075 C 
HETATM    5  C5  UNL     1     -34.938  16.863  -6.015  1.00 20.00     0.126 C 
HETATM    6  C6  UNL     1     -34.881  17.060  -4.487  1.00 20.00     0.135 C 
HETATM    7  C7  UNL     1     -34.682  15.723  -3.688  1.00 20.00    -0.004 C 
HETATM    8  C8  UNL     1     -34.773  15.977  -2.159  1.00 20.00     0.019 C 
HETATM    9  C9  UNL     1     -33.301  15.080  -3.963  1.00 20.00     0.019 C 
HETATM   10  S11 UNL     1     -36.269  15.748  -6.559  1.00 20.00    -0.165 SA
ENDROOT
BRANCH   6  11
HETATM   11  O10 UNL     1     -36.118  17.660  -4.074  1.00 20.00    -0.376 OA
HETATM   12  H25 UNL     1     -36.795  16.976  -4.177  1.00 20.00     0.211 HD
ENDBRANCH   6  11
TORSDOF 1
ENDMDL
MODEL 8
REMARK VINA RESULT:      -3.7      1.582      2.559
REMARK  1 active torsions:
REMARK  status: ('A' for Active; 'I' for Inactive)
REMARK    1  A    between atoms: C6_6  and  O10_10 
ROOT
HETATM    1  C1  UNL     1     -33.127  14.439  -4.375  1.00 20.00     0.015 C 
HETATM    2  C2  UNL     1     -33.601  15.536  -4.258  1.00 20.00    -0.077 C 
HETATM    3  C3  UNL     1     -34.912  18.720  -2.462  1.00 20.00     0.023 C 
HETATM    4  C4  UNL     1     -36.323  18.846  -3.027  1.00 20.00     0.075 C 
HETATM    5  C5  UNL     1     -35.550  16.901  -4.831  1.00 20.00     0.126 C 
HETATM    6  C6  UNL     1     -34.185  16.889  -4.113  1.00 20.00     0.135 C 
HETATM    7  C7  UNL     1     -34.266  17.313  -2.603  1.00 20.00    -0.004 C 
HETATM    8  C8  UNL     1     -32.846  17.414  -1.983  1.00 20.00     0.019 C 
HETATM    9  C9  UNL     1     -35.065  16.295  -1.754  1.00 20.00     0.019 C 
HETATM   10  S11 UNL     1     -36.374  18.522  -4.806  1.00 20.00    -0.165 SA
ENDROOT
BRANCH   6  11
HETATM   11  O10 UNL     1     -33.319  17.804  -4.800  1.00 20.00    -0.376 OA
HETATM   12  H25 UNL     1     -33.244  18.582  -4.229  1.00 20.00     0.211 HD
ENDBRANCH   6  11
TORSDOF 1
ENDMDL
MODEL 9
REMARK VINA RESULT:      -3.7      2.053      3.144
REMARK  1 active torsions:
REMARK  status: ('A' for Active; 'I' for Inactive)
REMARK    1  A    between atoms: C6_6  and  O10_10 
ROOT
HETATM    1  C1  UNL     1     -35.147  19.177  -3.977  1.00 20.00     0.015 C 
HETATM    2  C2  UNL     1     -35.449  18.023  -3.842  1.00 20.00    -0.077 C 
HETATM    3  C3  UNL     1     -35.065  14.159  -3.966  1.00 20.00     0.023 C 
HETATM    4  C4  UNL     1     -36.291  13.744  -4.772  1.00 20.00     0.075 C 
HETATM    5  C5  UNL     1     -37.136  16.354  -4.440  1.00 20.00     0.126 C 
HETATM    6  C6  UNL     1     -35.821  16.599  -3.673  1.00 20.00     0.135 C 
HETATM    7  C7  UNL     1     -34.650  15.651  -4.115  1.00 20.00    -0.004 C 
HETATM    8  C8  UNL     1     -33.405  15.856  -3.211  1.00 20.00     0.019 C 
HETATM    9  C9  UNL     1     -34.205  15.915  -5.574  1.00 20.00     0.019 C 
HETATM   10  S11 UNL     1     -37.772  14.657  -4.275  1.00 20.00    -0.165 SA
ENDROOT
BRANCH   6  11
HETATM   11  O10 UNL     1     -36.079  16.387  -2.277  1.00 20.00    -0.376 OA
HETATM   12  H25 UNL     1     -37.004  16.632  -2.135  1.00 20.00     0.211 HD
ENDBRANCH   6  11
TORSDOF 1
ENDMDL
