MODEL 1
REMARK VINA RESULT:      -4.9      0.000      0.000
REMARK  0 active torsions:
REMARK  status: ('A' for Active; 'I' for Inactive)
ROOT
HETATM    1  C1  UNL     1     -24.739  19.149   7.332  1.00 20.00     0.088 C 
HETATM    2  C2  UNL     1     -24.741  18.781   9.712  1.00 20.00    -0.057 C 
HETATM    3  C3  UNL     1     -25.390  19.129   8.588  1.00 20.00     0.097 C 
HETATM    4  C4  UNL     1     -23.278  18.399   9.658  1.00 20.00     0.037 C 
HETATM    5  C5  UNL     1     -23.043  16.965  10.136  1.00 20.00     0.014 C 
HETATM    6  C6  UNL     1     -23.529  16.718  11.560  1.00 20.00     0.075 C 
HETATM    7  C7  UNL     1     -25.355  18.754  11.098  1.00 20.00     0.072 C 
HETATM    8  C8  UNL     1     -26.794  19.263  11.218  1.00 20.00     0.026 C 
HETATM    9  N9  UNL     1     -24.213  19.170   6.297  1.00 20.00    -0.192 NA
HETATM   10  S10 UNL     1     -25.312  17.034  11.733  1.00 20.00    -0.160 SA
ENDROOT
TORSDOF 0
ENDMDL
MODEL 2
REMARK VINA RESULT:      -4.2     14.369     16.012
REMARK  0 active torsions:
REMARK  status: ('A' for Active; 'I' for Inactive)
ROOT
HETATM    1  C1  UNL     1     -33.312  14.976  -4.160  1.00 20.00     0.088 C 
HETATM    2  C2  UNL     1     -33.847  16.536  -2.405  1.00 20.00    -0.057 C 
HETATM    3  C3  UNL     1     -32.966  16.033  -3.287  1.00 20.00     0.097 C 
HETATM    4  C4  UNL     1     -35.249  15.972  -2.327  1.00 20.00     0.037 C 
HETATM    5  C5  UNL     1     -36.309  17.029  -2.640  1.00 20.00     0.014 C 
HETATM    6  C6  UNL     1     -36.248  18.237  -1.712  1.00 20.00     0.075 C 
HETATM    7  C7  UNL     1     -33.553  17.651  -1.420  1.00 20.00     0.072 C 
HETATM    8  C8  UNL     1     -32.109  18.156  -1.373  1.00 20.00     0.026 C 
HETATM    9  N9  UNL     1     -33.587  14.108  -4.881  1.00 20.00    -0.192 NA
HETATM   10  S10 UNL     1     -34.638  19.079  -1.799  1.00 20.00    -0.160 SA
ENDROOT
TORSDOF 0
ENDMDL
MODEL 3
REMARK VINA RESULT:      -4.1     15.985     17.582
REMARK  0 active torsions:
REMARK  status: ('A' for Active; 'I' for Inactive)
ROOT
HETATM    1  C1  UNL     1     -35.841  13.943  -4.769  1.00 20.00     0.088 C 
HETATM    2  C2  UNL     1     -34.761  16.039  -4.278  1.00 20.00    -0.057 C 
HETATM    3  C3  UNL     1     -35.466  15.262  -5.118  1.00 20.00     0.097 C 
HETATM    4  C4  UNL     1     -34.347  15.512  -2.922  1.00 20.00     0.037 C 
HETATM    5  C5  UNL     1     -34.936  16.343  -1.780  1.00 20.00     0.014 C 
HETATM    6  C6  UNL     1     -34.541  17.815  -1.840  1.00 20.00     0.075 C 
HETATM    7  C7  UNL     1     -34.301  17.452  -4.580  1.00 20.00     0.072 C 
HETATM    8  C8  UNL     1     -34.582  17.975  -5.991  1.00 20.00     0.026 C 
HETATM    9  N9  UNL     1     -36.152  12.859  -4.491  1.00 20.00    -0.192 NA
HETATM   10  S10 UNL     1     -35.088  18.600  -3.387  1.00 20.00    -0.160 SA
ENDROOT
TORSDOF 0
ENDMDL
MODEL 4
REMARK VINA RESULT:      -4.1     16.314     17.486
REMARK  0 active torsions:
REMARK  status: ('A' for Active; 'I' for Inactive)
ROOT
HETATM    1  C1  UNL     1     -36.952  14.225  -4.324  1.00 20.00     0.088 C 
HETATM    2  C2  UNL     1     -34.998  15.329  -3.450  1.00 20.00    -0.057 C 
HETATM    3  C3  UNL     1     -35.559  14.472  -4.320  1.00 20.00     0.097 C 
HETATM    4  C4  UNL     1     -35.858  16.058  -2.440  1.00 20.00     0.037 C 
HETATM    5  C5  UNL     1     -35.784  17.575  -2.615  1.00 20.00     0.014 C 
HETATM    6  C6  UNL     1     -34.368  18.128  -2.494  1.00 20.00     0.075 C 
HETATM    7  C7  UNL     1     -33.516  15.634  -3.362  1.00 20.00     0.072 C 
HETATM    8  C8  UNL     1     -32.596  14.819  -4.274  1.00 20.00     0.026 C 
HETATM    9  N9  UNL     1     -38.094  14.016  -4.335  1.00 20.00    -0.192 NA
HETATM   10  S10 UNL     1     -33.253  17.409  -3.739  1.00 20.00    -0.160 SA
ENDROOT
TORSDOF 0
ENDMDL
MODEL 5
REMARK VINA RESULT:      -4.1     16.405     17.999
REMARK  0 active torsions:
REMARK  status: ('A' for Active; 'I' for Inactive)
ROOT
HETATM    1  C1  UNL     1     -37.393  14.737  -4.673  1.00 20.00     0.088 C 
HETATM    2  C2  UNL     1     -35.278  15.886  -4.610  1.00 20.00    -0.057 C 
HETATM    3  C3  UNL     1     -36.475  15.683  -5.185  1.00 20.00     0.097 C 
HETATM    4  C4  UNL     1     -34.880  15.094  -3.384  1.00 20.00     0.037 C 
HETATM    5  C5  UNL     1     -34.620  15.998  -2.178  1.00 20.00     0.014 C 
HETATM    6  C6  UNL     1     -33.529  17.035  -2.426  1.00 20.00     0.075 C 
HETATM    7  C7  UNL     1     -34.228  16.862  -5.106  1.00 20.00     0.072 C 
HETATM    8  C8  UNL     1     -34.535  17.585  -6.419  1.00 20.00     0.026 C 
HETATM    9  N9  UNL     1     -38.153  13.962  -4.260  1.00 20.00    -0.192 NA
HETATM   10  S10 UNL     1     -33.944  18.134  -3.816  1.00 20.00    -0.160 SA
ENDROOT
TORSDOF 0
ENDMDL
MODEL 6
REMARK VINA RESULT:      -4.0      2.838      4.201
REMARK  0 active torsions:
REMARK  status: ('A' for Active; 'I' for Inactive)
ROOT
HETATM    1  C1  UNL     1     -27.228  17.513  12.281  1.00 20.00     0.088 C 
HETATM    2  C2  UNL     1     -25.093  18.232  11.430  1.00 20.00    -0.057 C 
HETATM    3  C3  UNL     1     -25.817  17.430  12.229  1.00 20.00     0.097 C 
HETATM    4  C4  UNL     1     -25.782  19.258  10.558  1.00 20.00     0.037 C 
HETATM    5  C5  UNL     1     -25.514  19.019   9.071  1.00 20.00     0.014 C 
HETATM    6  C6  UNL     1     -24.031  19.038   8.716  1.00 20.00     0.075 C 
HETATM    7  C7  UNL     1     -23.580  18.224  11.329  1.00 20.00     0.072 C 
HETATM    8  C8  UNL     1     -22.836  17.296  12.293  1.00 20.00     0.026 C 
HETATM    9  N9  UNL     1     -28.386  17.575  12.332  1.00 20.00    -0.192 NA
HETATM   10  S10 UNL     1     -23.102  17.762   9.621  1.00 20.00    -0.160 SA
ENDROOT
TORSDOF 0
ENDMDL
MODEL 7
REMARK VINA RESULT:      -3.9     15.900     17.413
REMARK  0 active torsions:
REMARK  status: ('A' for Active; 'I' for Inactive)
ROOT
HETATM    1  C1  UNL     1     -36.139  13.864  -4.341  1.00 20.00     0.088 C 
HETATM    2  C2  UNL     1     -35.526  16.166  -3.986  1.00 20.00    -0.057 C 
HETATM    3  C3  UNL     1     -36.463  15.204  -4.020  1.00 20.00     0.097 C 
HETATM    4  C4  UNL     1     -34.083  15.833  -4.296  1.00 20.00     0.037 C 
HETATM    5  C5  UNL     1     -33.160  16.128  -3.112  1.00 20.00     0.014 C 
HETATM    6  C6  UNL     1     -33.208  17.584  -2.660  1.00 20.00     0.075 C 
HETATM    7  C7  UNL     1     -35.789  17.627  -3.674  1.00 20.00     0.072 C 
HETATM    8  C8  UNL     1     -37.253  18.032  -3.489  1.00 20.00     0.026 C 
HETATM    9  N9  UNL     1     -35.883  12.763  -4.603  1.00 20.00    -0.192 NA
HETATM   10  S10 UNL     1     -34.881  18.081  -2.148  1.00 20.00    -0.160 SA
ENDROOT
TORSDOF 0
ENDMDL
MODEL 8
REMARK VINA RESULT:      -3.9     16.047     17.720
REMARK  0 active torsions:
REMARK  status: ('A' for Active; 'I' for Inactive)
ROOT
HETATM    1  C1  UNL     1     -35.309  13.761  -4.105  1.00 20.00     0.088 C 
HETATM    2  C2  UNL     1     -35.190  16.051  -3.367  1.00 20.00    -0.057 C 
HETATM    3  C3  UNL     1     -34.599  14.860  -3.566  1.00 20.00     0.097 C 
HETATM    4  C4  UNL     1     -36.649  16.243  -3.718  1.00 20.00     0.037 C 
HETATM    5  C5  UNL     1     -36.843  17.324  -4.783  1.00 20.00     0.014 C 
HETATM    6  C6  UNL     1     -36.288  18.683  -4.370  1.00 20.00     0.075 C 
HETATM    7  C7  UNL     1     -34.511  17.270  -2.776  1.00 20.00     0.072 C 
HETATM    8  C8  UNL     1     -33.075  17.080  -2.282  1.00 20.00     0.026 C 
HETATM    9  N9  UNL     1     -35.884  12.854  -4.546  1.00 20.00    -0.192 NA
HETATM   10  S10 UNL     1     -34.503  18.610  -4.027  1.00 20.00    -0.160 SA
ENDROOT
TORSDOF 0
ENDMDL
MODEL 9
REMARK VINA RESULT:      -3.9     12.795     14.281
REMARK  0 active torsions:
REMARK  status: ('A' for Active; 'I' for Inactive)
ROOT
HETATM    1  C1  UNL     1     -33.681  15.806  -3.070  1.00 20.00     0.088 C 
HETATM    2  C2  UNL     1     -33.951  17.558  -1.439  1.00 20.00    -0.057 C 
HETATM    3  C3  UNL     1     -34.394  16.429  -2.018  1.00 20.00     0.097 C 
HETATM    4  C4  UNL     1     -32.662  18.196  -1.906  1.00 20.00     0.037 C 
HETATM    5  C5  UNL     1     -31.620  18.267  -0.789  1.00 20.00     0.014 C 
HETATM    6  C6  UNL     1     -32.099  19.044   0.433  1.00 20.00     0.075 C 
HETATM    7  C7  UNL     1     -34.662  18.301  -0.324  1.00 20.00     0.072 C 
HETATM    8  C8  UNL     1     -36.036  17.765   0.086  1.00 20.00     0.026 C 
HETATM    9  N9  UNL     1     -33.104  15.288  -3.933  1.00 20.00    -0.192 NA
HETATM   10  S10 UNL     1     -33.592  18.303   1.164  1.00 20.00    -0.160 SA
ENDROOT
TORSDOF 0
ENDMDL
