MODEL 1
REMARK VINA RESULT:      -4.6      0.000      0.000
REMARK  0 active torsions:
REMARK  status: ('A' for Active; 'I' for Inactive)
ROOT
HETATM    1  C1  UNL     1     -35.339  13.860  -4.314  1.00 20.00     0.086 C 
HETATM    2  C2  UNL     1     -34.126  16.820  -2.174  1.00 20.00     0.013 C 
HETATM    3  C3  UNL     1     -34.807  15.517  -2.594  1.00 20.00     0.043 C 
HETATM    4  C4  UNL     1     -34.579  18.016  -2.997  1.00 20.00     0.074 C 
HETATM    5  C5  UNL     1     -35.009  16.210  -5.059  1.00 20.00     0.081 C 
HETATM    6  C6  UNL     1     -34.575  15.102  -4.063  1.00 20.00     0.137 C 
HETATM    7  C7  UNL     1     -34.797  15.864  -6.539  1.00 20.00     0.024 C 
HETATM    8  N8  UNL     1     -35.938  12.887  -4.512  1.00 20.00    -0.195 NA
HETATM    9  S9  UNL     1     -34.170  17.813  -4.749  1.00 20.00    -0.162 SA
HETATM   10 CL10 UNL     1     -32.845  14.645  -4.286  1.00 20.00    -0.102 Cl
ENDROOT
TORSDOF 0
ENDMDL
MODEL 2
REMARK VINA RESULT:      -4.2      1.586      1.660
REMARK  0 active torsions:
REMARK  status: ('A' for Active; 'I' for Inactive)
ROOT
HETATM    1  C1  UNL     1     -36.684  14.524  -4.514  1.00 20.00     0.086 C 
HETATM    2  C2  UNL     1     -33.262  15.869  -3.379  1.00 20.00     0.013 C 
HETATM    3  C3  UNL     1     -34.550  15.047  -3.439  1.00 20.00     0.043 C 
HETATM    4  C4  UNL     1     -33.519  17.365  -3.296  1.00 20.00     0.074 C 
HETATM    5  C5  UNL     1     -35.860  16.863  -4.698  1.00 20.00     0.081 C 
HETATM    6  C6  UNL     1     -35.472  15.362  -4.637  1.00 20.00     0.137 C 
HETATM    7  C7  UNL     1     -36.770  17.245  -5.873  1.00 20.00     0.024 C 
HETATM    8  N8  UNL     1     -37.637  13.867  -4.418  1.00 20.00    -0.195 NA
HETATM    9  S9  UNL     1     -34.400  17.973  -4.757  1.00 20.00    -0.162 SA
HETATM   10 CL10 UNL     1     -34.673  14.816  -6.160  1.00 20.00    -0.102 Cl
ENDROOT
TORSDOF 0
ENDMDL
MODEL 3
REMARK VINA RESULT:      -4.2      2.012      2.373
REMARK  0 active torsions:
REMARK  status: ('A' for Active; 'I' for Inactive)
ROOT
HETATM    1  C1  UNL     1     -36.754  14.593  -4.229  1.00 20.00     0.086 C 
HETATM    2  C2  UNL     1     -33.269  15.920  -3.277  1.00 20.00     0.013 C 
HETATM    3  C3  UNL     1     -34.429  14.966  -3.567  1.00 20.00     0.043 C 
HETATM    4  C4  UNL     1     -33.600  16.941  -2.200  1.00 20.00     0.074 C 
HETATM    5  C5  UNL     1     -36.234  16.716  -3.042  1.00 20.00     0.081 C 
HETATM    6  C6  UNL     1     -35.730  15.645  -4.046  1.00 20.00     0.137 C 
HETATM    7  C7  UNL     1     -37.522  17.436  -3.463  1.00 20.00     0.024 C 
HETATM    8  N8  UNL     1     -37.558  13.769  -4.373  1.00 20.00    -0.195 NA
HETATM    9  S9  UNL     1     -34.978  18.008  -2.692  1.00 20.00    -0.162 SA
HETATM   10 CL10 UNL     1     -35.468  16.340  -5.689  1.00 20.00    -0.102 Cl
ENDROOT
TORSDOF 0
ENDMDL
MODEL 4
REMARK VINA RESULT:      -4.1      1.790      1.880
REMARK  0 active torsions:
REMARK  status: ('A' for Active; 'I' for Inactive)
ROOT
HETATM    1  C1  UNL     1     -35.735  13.934  -4.332  1.00 20.00     0.086 C 
HETATM    2  C2  UNL     1     -34.443  16.861  -2.194  1.00 20.00     0.013 C 
HETATM    3  C3  UNL     1     -34.696  15.445  -2.713  1.00 20.00     0.043 C 
HETATM    4  C4  UNL     1     -35.725  17.610  -1.869  1.00 20.00     0.074 C 
HETATM    5  C5  UNL     1     -36.918  16.065  -3.842  1.00 20.00     0.081 C 
HETATM    6  C6  UNL     1     -35.544  15.362  -4.000  1.00 20.00     0.137 C 
HETATM    7  C7  UNL     1     -37.808  16.027  -5.091  1.00 20.00     0.024 C 
HETATM    8  N8  UNL     1     -35.886  12.813  -4.592  1.00 20.00    -0.195 NA
HETATM    9  S9  UNL     1     -36.763  17.823  -3.338  1.00 20.00    -0.162 SA
HETATM   10 CL10 UNL     1     -34.600  16.044  -5.378  1.00 20.00    -0.102 Cl
ENDROOT
TORSDOF 0
ENDMDL
MODEL 5
REMARK VINA RESULT:      -3.9      2.172      2.366
REMARK  0 active torsions:
REMARK  status: ('A' for Active; 'I' for Inactive)
ROOT
HETATM    1  C1  UNL     1     -36.889  15.733  -5.658  1.00 20.00     0.086 C 
HETATM    2  C2  UNL     1     -35.100  15.871  -2.253  1.00 20.00     0.013 C 
HETATM    3  C3  UNL     1     -36.124  16.105  -3.364  1.00 20.00     0.043 C 
HETATM    4  C4  UNL     1     -33.693  16.291  -2.648  1.00 20.00     0.074 C 
HETATM    5  C5  UNL     1     -34.435  15.690  -5.253  1.00 20.00     0.081 C 
HETATM    6  C6  UNL     1     -35.840  15.358  -4.684  1.00 20.00     0.137 C 
HETATM    7  C7  UNL     1     -34.086  14.972  -6.564  1.00 20.00     0.024 C 
HETATM    8  N8  UNL     1     -37.710  16.028  -6.422  1.00 20.00    -0.195 NA
HETATM    9  S9  UNL     1     -33.084  15.337  -4.062  1.00 20.00    -0.162 SA
HETATM   10 CL10 UNL     1     -36.052  13.586  -4.422  1.00 20.00    -0.102 Cl
ENDROOT
TORSDOF 0
ENDMDL
MODEL 6
REMARK VINA RESULT:      -3.8     17.344     18.554
REMARK  0 active torsions:
REMARK  status: ('A' for Active; 'I' for Inactive)
ROOT
HETATM    1  C1  UNL     1     -22.360  18.600   9.437  1.00 20.00     0.086 C 
HETATM    2  C2  UNL     1     -26.178  18.909   9.808  1.00 20.00     0.013 C 
HETATM    3  C3  UNL     1     -24.751  19.100   9.294  1.00 20.00     0.043 C 
HETATM    4  C4  UNL     1     -26.329  19.263  11.279  1.00 20.00     0.074 C 
HETATM    5  C5  UNL     1     -23.671  18.514  11.549  1.00 20.00     0.081 C 
HETATM    6  C6  UNL     1     -23.677  18.260  10.019  1.00 20.00     0.137 C 
HETATM    7  C7  UNL     1     -22.630  17.702  12.332  1.00 20.00     0.024 C 
HETATM    8  N8  UNL     1     -21.327  18.868   8.982  1.00 20.00    -0.195 NA
HETATM    9  S9  UNL     1     -25.303  18.202  12.329  1.00 20.00    -0.162 SA
HETATM   10 CL10 UNL     1     -23.927  16.516   9.632  1.00 20.00    -0.102 Cl
ENDROOT
TORSDOF 0
ENDMDL
MODEL 7
REMARK VINA RESULT:      -3.8      1.833      3.022
REMARK  0 active torsions:
REMARK  status: ('A' for Active; 'I' for Inactive)
ROOT
HETATM    1  C1  UNL     1     -35.887  13.899  -4.647  1.00 20.00     0.086 C 
HETATM    2  C2  UNL     1     -35.927  17.139  -6.724  1.00 20.00     0.013 C 
HETATM    3  C3  UNL     1     -35.979  15.659  -6.345  1.00 20.00     0.043 C 
HETATM    4  C4  UNL     1     -34.640  17.817  -6.282  1.00 20.00     0.074 C 
HETATM    5  C5  UNL     1     -34.588  15.974  -4.209  1.00 20.00     0.081 C 
HETATM    6  C6  UNL     1     -35.872  15.367  -4.832  1.00 20.00     0.137 C 
HETATM    7  C7  UNL     1     -34.425  15.726  -2.703  1.00 20.00     0.024 C 
HETATM    8  N8  UNL     1     -35.898  12.748  -4.501  1.00 20.00    -0.195 NA
HETATM    9  S9  UNL     1     -34.453  17.784  -4.481  1.00 20.00    -0.162 SA
HETATM   10 CL10 UNL     1     -37.361  15.961  -4.006  1.00 20.00    -0.102 Cl
ENDROOT
TORSDOF 0
ENDMDL
MODEL 8
REMARK VINA RESULT:      -3.7      2.811      3.806
REMARK  0 active torsions:
REMARK  status: ('A' for Active; 'I' for Inactive)
ROOT
HETATM    1  C1  UNL     1     -32.922  17.544  -2.235  1.00 20.00     0.086 C 
HETATM    2  C2  UNL     1     -33.774  14.589  -4.548  1.00 20.00     0.013 C 
HETATM    3  C3  UNL     1     -33.000  15.537  -3.632  1.00 20.00     0.043 C 
HETATM    4  C4  UNL     1     -34.371  15.291  -5.757  1.00 20.00     0.074 C 
HETATM    5  C5  UNL     1     -34.499  17.554  -4.157  1.00 20.00     0.081 C 
HETATM    6  C6  UNL     1     -33.827  16.703  -3.048  1.00 20.00     0.137 C 
HETATM    7  C7  UNL     1     -35.345  18.727  -3.644  1.00 20.00     0.024 C 
HETATM    8  N8  UNL     1     -32.213  18.205  -1.597  1.00 20.00    -0.195 NA
HETATM    9  S9  UNL     1     -35.568  16.559  -5.269  1.00 20.00    -0.162 SA
HETATM   10 CL10 UNL     1     -35.038  16.048  -1.882  1.00 20.00    -0.102 Cl
ENDROOT
TORSDOF 0
ENDMDL
MODEL 9
REMARK VINA RESULT:      -3.7     17.582     18.239
REMARK  0 active torsions:
REMARK  status: ('A' for Active; 'I' for Inactive)
ROOT
HETATM    1  C1  UNL     1     -22.733  16.680   9.120  1.00 20.00     0.086 C 
HETATM    2  C2  UNL     1     -24.811  16.256  12.331  1.00 20.00     0.013 C 
HETATM    3  C3  UNL     1     -23.951  15.938  11.107  1.00 20.00     0.043 C 
HETATM    4  C4  UNL     1     -26.100  16.980  11.975  1.00 20.00     0.074 C 
HETATM    5  C5  UNL     1     -24.710  18.020   9.810  1.00 20.00     0.081 C 
HETATM    6  C6  UNL     1     -23.505  17.166  10.284  1.00 20.00     0.137 C 
HETATM    7  C7  UNL     1     -24.335  19.263   8.992  1.00 20.00     0.024 C 
HETATM    8  N8  UNL     1     -22.128  16.299   8.205  1.00 20.00    -0.195 NA
HETATM    9  S9  UNL     1     -25.772  18.583  11.198  1.00 20.00    -0.162 SA
HETATM   10 CL10 UNL     1     -22.336  18.139  11.253  1.00 20.00    -0.102 Cl
ENDROOT
TORSDOF 0
ENDMDL
