MODEL 1
REMARK VINA RESULT:      -4.6      0.000      0.000
REMARK  3 active torsions:
REMARK  status: ('A' for Active; 'I' for Inactive)
REMARK    1  A    between atoms: C6_6  and  C9_9 
REMARK    2  A    between atoms: C6_6  and  O10_10 
REMARK    3  A    between atoms: C8_8  and  C9_9 
ROOT
HETATM    1  C1  UNL     1     -32.188  18.439  -1.484  1.00 20.00     0.012 C 
HETATM    2  C2  UNL     1     -32.861  17.555  -1.937  1.00 20.00    -0.117 C 
HETATM    3  C8  UNL     1     -33.690  16.475  -2.489  1.00 20.00     0.096 C 
ENDROOT
BRANCH   3   4
HETATM    4  C9  UNL     1     -32.943  15.756  -3.597  1.00 20.00     0.050 C 
BRANCH   4   5
HETATM    5  C6  UNL     1     -33.919  15.107  -4.576  1.00 20.00     0.068 C 
HETATM    6  C3  UNL     1     -34.859  16.141  -5.207  1.00 20.00     0.053 C 
HETATM    7  C5  UNL     1     -35.997  15.405  -5.918  1.00 20.00     0.046 C 
HETATM    8  C7  UNL     1     -35.689  15.043  -7.366  1.00 20.00     0.021 C 
HETATM    9  S11 UNL     1     -36.279  13.899  -4.933  1.00 20.00    -0.162 SA
HETATM   10  C4  UNL     1     -34.806  14.080  -3.879  1.00 20.00     0.112 C 
BRANCH   5  11
HETATM   11  O10 UNL     1     -33.148  14.449  -5.581  1.00 20.00    -0.389 OA
HETATM   12  H25 UNL     1     -32.961  13.560  -5.243  1.00 20.00     0.210 HD
ENDBRANCH   5  11
ENDBRANCH   4   5
ENDBRANCH   3   4
TORSDOF 3
ENDMDL
MODEL 2
REMARK VINA RESULT:      -4.3     11.242     13.302
REMARK  3 active torsions:
REMARK  status: ('A' for Active; 'I' for Inactive)
REMARK    1  A    between atoms: C6_6  and  C9_9 
REMARK    2  A    between atoms: C6_6  and  O10_10 
REMARK    3  A    between atoms: C8_8  and  C9_9 
ROOT
HETATM    1  C1  UNL     1     -41.781   2.705  -3.797  1.00 20.00     0.012 C 
HETATM    2  C2  UNL     1     -42.056   3.408  -2.865  1.00 20.00    -0.117 C 
HETATM    3  C8  UNL     1     -42.398   4.267  -1.724  1.00 20.00     0.096 C 
ENDROOT
BRANCH   3   4
HETATM    4  C9  UNL     1     -41.178   5.048  -1.272  1.00 20.00     0.050 C 
BRANCH   4   5
HETATM    5  C6  UNL     1     -41.532   6.514  -1.029  1.00 20.00     0.068 C 
HETATM    6  C3  UNL     1     -41.247   6.932   0.418  1.00 20.00     0.053 C 
HETATM    7  C5  UNL     1     -41.907   8.288   0.680  1.00 20.00     0.046 C 
HETATM    8  C7  UNL     1     -41.024   9.482   0.334  1.00 20.00     0.021 C 
HETATM    9  S11 UNL     1     -43.411   8.292  -0.348  1.00 20.00    -0.162 SA
HETATM   10  C4  UNL     1     -43.014   6.776  -1.274  1.00 20.00     0.112 C 
BRANCH   5  11
HETATM   11  O10 UNL     1     -40.764   7.300  -1.940  1.00 20.00    -0.389 OA
HETATM   12  H25 UNL     1     -40.001   6.758  -2.192  1.00 20.00     0.210 HD
ENDBRANCH   5  11
ENDBRANCH   4   5
ENDBRANCH   3   4
TORSDOF 3
ENDMDL
MODEL 3
REMARK VINA RESULT:      -4.3      2.248      3.142
REMARK  3 active torsions:
REMARK  status: ('A' for Active; 'I' for Inactive)
REMARK    1  A    between atoms: C6_6  and  C9_9 
REMARK    2  A    between atoms: C6_6  and  O10_10 
REMARK    3  A    between atoms: C8_8  and  C9_9 
ROOT
HETATM    1  C1  UNL     1     -30.772  18.487   0.556  1.00 20.00     0.012 C 
HETATM    2  C2  UNL     1     -31.452  18.305  -0.416  1.00 20.00    -0.117 C 
HETATM    3  C8  UNL     1     -32.279  18.082  -1.609  1.00 20.00     0.096 C 
ENDROOT
BRANCH   3   4
HETATM    4  C9  UNL     1     -33.711  17.784  -1.206  1.00 20.00     0.050 C 
BRANCH   4   5
HETATM    5  C6  UNL     1     -34.397  16.904  -2.249  1.00 20.00     0.068 C 
HETATM    6  C3  UNL     1     -33.386  16.050  -3.021  1.00 20.00     0.053 C 
HETATM    7  C5  UNL     1     -34.083  15.443  -4.241  1.00 20.00     0.046 C 
HETATM    8  C7  UNL     1     -34.757  14.104  -3.965  1.00 20.00     0.021 C 
HETATM    9  S11 UNL     1     -35.317  16.682  -4.750  1.00 20.00    -0.162 SA
HETATM   10  C4  UNL     1     -35.138  17.745  -3.284  1.00 20.00     0.112 C 
BRANCH   5  11
HETATM   11  O10 UNL     1     -35.336  16.077  -1.563  1.00 20.00    -0.389 OA
HETATM   12  H25 UNL     1     -35.505  16.503  -0.709  1.00 20.00     0.210 HD
ENDBRANCH   5  11
ENDBRANCH   4   5
ENDBRANCH   3   4
TORSDOF 3
ENDMDL
MODEL 4
REMARK VINA RESULT:      -4.3      1.361      1.450
REMARK  3 active torsions:
REMARK  status: ('A' for Active; 'I' for Inactive)
REMARK    1  A    between atoms: C6_6  and  C9_9 
REMARK    2  A    between atoms: C6_6  and  O10_10 
REMARK    3  A    between atoms: C8_8  and  C9_9 
ROOT
HETATM    1  C1  UNL     1     -34.593  17.861  -0.313  1.00 20.00     0.012 C 
HETATM    2  C2  UNL     1     -34.713  17.015  -1.156  1.00 20.00    -0.117 C 
HETATM    3  C8  UNL     1     -34.866  15.979  -2.185  1.00 20.00     0.096 C 
ENDROOT
BRANCH   3   4
HETATM    4  C9  UNL     1     -33.619  15.909  -3.048  1.00 20.00     0.050 C 
BRANCH   4   5
HETATM    5  C6  UNL     1     -33.952  15.380  -4.441  1.00 20.00     0.068 C 
HETATM    6  C3  UNL     1     -34.335  16.512  -5.400  1.00 20.00     0.053 C 
HETATM    7  C5  UNL     1     -34.954  15.904  -6.661  1.00 20.00     0.046 C 
HETATM    8  C7  UNL     1     -33.938  15.553  -7.741  1.00 20.00     0.021 C 
HETATM    9  S11 UNL     1     -35.818  14.405  -6.091  1.00 20.00    -0.162 SA
HETATM   10  C4  UNL     1     -35.138  14.421  -4.403  1.00 20.00     0.112 C 
BRANCH   5  11
HETATM   11  O10 UNL     1     -32.805  14.680  -4.921  1.00 20.00    -0.389 OA
HETATM   12  H25 UNL     1     -32.998  14.434  -5.839  1.00 20.00     0.210 HD
ENDBRANCH   5  11
ENDBRANCH   4   5
ENDBRANCH   3   4
TORSDOF 3
ENDMDL
MODEL 5
REMARK VINA RESULT:      -4.2      2.072      2.557
REMARK  3 active torsions:
REMARK  status: ('A' for Active; 'I' for Inactive)
REMARK    1  A    between atoms: C6_6  and  C9_9 
REMARK    2  A    between atoms: C6_6  and  O10_10 
REMARK    3  A    between atoms: C8_8  and  C9_9 
ROOT
HETATM    1  C1  UNL     1     -31.372  18.495  -0.306  1.00 20.00     0.012 C 
HETATM    2  C2  UNL     1     -32.048  18.098  -1.215  1.00 20.00    -0.117 C 
HETATM    3  C8  UNL     1     -32.872  17.615  -2.330  1.00 20.00     0.096 C 
ENDROOT
BRANCH   3   4
HETATM    4  C9  UNL     1     -34.096  16.892  -1.802  1.00 20.00     0.050 C 
BRANCH   4   5
HETATM    5  C6  UNL     1     -34.913  16.298  -2.948  1.00 20.00     0.068 C 
HETATM    6  C3  UNL     1     -34.288  15.002  -3.476  1.00 20.00     0.053 C 
HETATM    7  C5  UNL     1     -34.957  14.636  -4.803  1.00 20.00     0.046 C 
HETATM    8  C7  UNL     1     -36.207  13.778  -4.648  1.00 20.00     0.021 C 
HETATM    9  S11 UNL     1     -35.372  16.229  -5.583  1.00 20.00    -0.162 SA
HETATM   10  C4  UNL     1     -34.989  17.258  -4.132  1.00 20.00     0.112 C 
BRANCH   5  11
HETATM   11  O10 UNL     1     -36.232  16.059  -2.459  1.00 20.00    -0.389 OA
HETATM   12  H25 UNL     1     -36.534  16.892  -2.067  1.00 20.00     0.210 HD
ENDBRANCH   5  11
ENDBRANCH   4   5
ENDBRANCH   3   4
TORSDOF 3
ENDMDL
MODEL 6
REMARK VINA RESULT:      -3.9      1.526      1.691
REMARK  3 active torsions:
REMARK  status: ('A' for Active; 'I' for Inactive)
REMARK    1  A    between atoms: C6_6  and  C9_9 
REMARK    2  A    between atoms: C6_6  and  O10_10 
REMARK    3  A    between atoms: C8_8  and  C9_9 
ROOT
HETATM    1  C1  UNL     1     -32.281  18.210  -1.585  1.00 20.00     0.012 C 
HETATM    2  C2  UNL     1     -33.026  17.350  -1.967  1.00 20.00    -0.117 C 
HETATM    3  C8  UNL     1     -33.941  16.298  -2.430  1.00 20.00     0.096 C 
ENDROOT
BRANCH   3   4
HETATM    4  C9  UNL     1     -33.388  15.635  -3.677  1.00 20.00     0.050 C 
BRANCH   4   5
HETATM    5  C6  UNL     1     -34.247  15.969  -4.895  1.00 20.00     0.068 C 
HETATM    6  C3  UNL     1     -35.738  16.006  -4.543  1.00 20.00     0.053 C 
HETATM    7  C5  UNL     1     -36.551  16.027  -5.839  1.00 20.00     0.046 C 
HETATM    8  C7  UNL     1     -36.812  17.428  -6.382  1.00 20.00     0.021 C 
HETATM    9  S11 UNL     1     -35.574  15.056  -7.031  1.00 20.00    -0.162 SA
HETATM   10  C4  UNL     1     -34.084  14.923  -5.994  1.00 20.00     0.112 C 
BRANCH   5  11
HETATM   11  O10 UNL     1     -33.816  17.236  -5.393  1.00 20.00    -0.389 OA
HETATM   12  H25 UNL     1     -34.407  17.456  -6.129  1.00 20.00     0.210 HD
ENDBRANCH   5  11
ENDBRANCH   4   5
ENDBRANCH   3   4
TORSDOF 3
ENDMDL
MODEL 7
REMARK VINA RESULT:      -3.8      2.515      4.712
REMARK  3 active torsions:
REMARK  status: ('A' for Active; 'I' for Inactive)
REMARK    1  A    between atoms: C6_6  and  C9_9 
REMARK    2  A    between atoms: C6_6  and  O10_10 
REMARK    3  A    between atoms: C8_8  and  C9_9 
ROOT
HETATM    1  C1  UNL     1     -34.251  15.135  -6.853  1.00 20.00     0.012 C 
HETATM    2  C2  UNL     1     -33.997  14.900  -5.704  1.00 20.00    -0.117 C 
HETATM    3  C8  UNL     1     -33.682  14.610  -4.299  1.00 20.00     0.096 C 
ENDROOT
BRANCH   3   4
HETATM    4  C9  UNL     1     -34.805  15.093  -3.400  1.00 20.00     0.050 C 
BRANCH   4   5
HETATM    5  C6  UNL     1     -34.483  16.469  -2.821  1.00 20.00     0.068 C 
HETATM    6  C3  UNL     1     -32.972  16.687  -2.688  1.00 20.00     0.053 C 
HETATM    7  C5  UNL     1     -32.726  17.926  -1.824  1.00 20.00     0.046 C 
HETATM    8  C7  UNL     1     -32.680  19.230  -2.612  1.00 20.00     0.021 C 
HETATM    9  S11 UNL     1     -34.101  17.954  -0.629  1.00 20.00    -0.162 SA
HETATM   10  C4  UNL     1     -35.072  16.635  -1.424  1.00 20.00     0.112 C 
BRANCH   5  11
HETATM   11  O10 UNL     1     -35.058  17.446  -3.687  1.00 20.00    -0.389 OA
HETATM   12  H25 UNL     1     -34.534  18.254  -3.576  1.00 20.00     0.210 HD
ENDBRANCH   5  11
ENDBRANCH   4   5
ENDBRANCH   3   4
TORSDOF 3
ENDMDL
MODEL 8
REMARK VINA RESULT:      -3.8      2.035      4.556
REMARK  3 active torsions:
REMARK  status: ('A' for Active; 'I' for Inactive)
REMARK    1  A    between atoms: C6_6  and  C9_9 
REMARK    2  A    between atoms: C6_6  and  O10_10 
REMARK    3  A    between atoms: C8_8  and  C9_9 
ROOT
HETATM    1  C1  UNL     1     -38.202  14.611  -4.194  1.00 20.00     0.012 C 
HETATM    2  C2  UNL     1     -37.089  14.476  -4.623  1.00 20.00    -0.117 C 
HETATM    3  C8  UNL     1     -35.730  14.311  -5.153  1.00 20.00     0.096 C 
ENDROOT
BRANCH   3   4
HETATM    4  C9  UNL     1     -34.733  14.204  -4.013  1.00 20.00     0.050 C 
BRANCH   4   5
HETATM    5  C6  UNL     1     -34.052  15.547  -3.761  1.00 20.00     0.068 C 
HETATM    6  C3  UNL     1     -34.418  16.117  -2.386  1.00 20.00     0.053 C 
HETATM    7  C5  UNL     1     -33.971  17.580  -2.323  1.00 20.00     0.046 C 
HETATM    8  C7  UNL     1     -32.539  17.769  -1.839  1.00 20.00     0.021 C 
HETATM    9  S11 UNL     1     -34.155  18.207  -4.024  1.00 20.00    -0.162 SA
HETATM   10  C4  UNL     1     -34.476  16.588  -4.792  1.00 20.00     0.112 C 
BRANCH   5  11
HETATM   11  O10 UNL     1     -32.643  15.341  -3.861  1.00 20.00    -0.389 OA
HETATM   12  H25 UNL     1     -32.450  14.524  -3.376  1.00 20.00     0.210 HD
ENDBRANCH   5  11
ENDBRANCH   4   5
ENDBRANCH   3   4
TORSDOF 3
ENDMDL
MODEL 9
REMARK VINA RESULT:      -3.8      2.453      2.926
REMARK  3 active torsions:
REMARK  status: ('A' for Active; 'I' for Inactive)
REMARK    1  A    between atoms: C6_6  and  C9_9 
REMARK    2  A    between atoms: C6_6  and  O10_10 
REMARK    3  A    between atoms: C8_8  and  C9_9 
ROOT
HETATM    1  C1  UNL     1     -33.858  18.181   1.460  1.00 20.00     0.012 C 
HETATM    2  C2  UNL     1     -34.467  17.711   0.538  1.00 20.00    -0.117 C 
HETATM    3  C8  UNL     1     -35.216  17.138  -0.587  1.00 20.00     0.096 C 
ENDROOT
BRANCH   3   4
HETATM    4  C9  UNL     1     -34.278  16.835  -1.741  1.00 20.00     0.050 C 
BRANCH   4   5
HETATM    5  C6  UNL     1     -35.045  16.249  -2.924  1.00 20.00     0.068 C 
HETATM    6  C3  UNL     1     -34.409  14.946  -3.420  1.00 20.00     0.053 C 
HETATM    7  C5  UNL     1     -35.018  14.584  -4.777  1.00 20.00     0.046 C 
HETATM    8  C7  UNL     1     -36.284  13.740  -4.682  1.00 20.00     0.021 C 
HETATM    9  S11 UNL     1     -35.379  16.181  -5.577  1.00 20.00    -0.162 SA
HETATM   10  C4  UNL     1     -35.054  17.208  -4.110  1.00 20.00     0.112 C 
BRANCH   5  11
HETATM   11  O10 UNL     1     -36.388  16.023  -2.498  1.00 20.00    -0.389 OA
HETATM   12  H25 UNL     1     -36.492  15.063  -2.416  1.00 20.00     0.210 HD
ENDBRANCH   5  11
ENDBRANCH   4   5
ENDBRANCH   3   4
TORSDOF 3
ENDMDL
