MODEL 1
REMARK VINA RESULT:      -5.3      0.000      0.000
REMARK  0 active torsions:
REMARK  status: ('A' for Active; 'I' for Inactive)
ROOT
HETATM    1  C1  UNL     1     -36.850  14.276  -4.121  1.00 20.00     0.064 C 
HETATM    2  C2  UNL     1     -32.499  19.156  -2.333  1.00 20.00     0.000 C 
HETATM    3  C3  UNL     1     -32.721  18.661  -3.758  1.00 20.00     0.003 C 
HETATM    4  C4  UNL     1     -32.605  18.021  -1.321  1.00 20.00     0.003 C 
HETATM    5  C5  UNL     1     -34.044  17.904  -3.887  1.00 20.00     0.038 C 
HETATM    6  C6  UNL     1     -33.922  17.256  -1.466  1.00 20.00     0.038 C 
HETATM    7  C7  UNL     1     -34.534  14.709  -4.855  1.00 20.00     0.045 C 
HETATM    8  C8  UNL     1     -35.533  16.029  -2.975  1.00 20.00     0.057 C 
HETATM    9  C9  UNL     1     -33.133  15.100  -4.397  1.00 20.00     0.170 C 
HETATM   10  C10 UNL     1     -35.501  14.667  -3.681  1.00 20.00     0.097 C 
HETATM   11  C11 UNL     1     -34.145  16.717  -2.899  1.00 20.00     0.062 C 
HETATM   12  N12 UNL     1     -37.912  13.967  -4.468  1.00 20.00    -0.197 NA
HETATM   13  O13 UNL     1     -33.107  15.754  -3.130  1.00 20.00    -0.380 OA
ENDROOT
TORSDOF 0
ENDMDL
MODEL 2
REMARK VINA RESULT:      -5.3      1.635      2.505
REMARK  0 active torsions:
REMARK  status: ('A' for Active; 'I' for Inactive)
ROOT
HETATM    1  C1  UNL     1     -35.711  13.917  -4.360  1.00 20.00     0.064 C 
HETATM    2  C2  UNL     1     -33.586  18.640   0.012  1.00 20.00     0.000 C 
HETATM    3  C3  UNL     1     -35.030  18.176  -0.141  1.00 20.00     0.003 C 
HETATM    4  C4  UNL     1     -32.858  18.666  -1.327  1.00 20.00     0.003 C 
HETATM    5  C5  UNL     1     -35.111  16.828  -0.860  1.00 20.00     0.038 C 
HETATM    6  C6  UNL     1     -32.958  17.321  -2.051  1.00 20.00     0.038 C 
HETATM    7  C7  UNL     1     -36.695  16.095  -3.747  1.00 20.00     0.045 C 
HETATM    8  C8  UNL     1     -34.424  15.453  -2.909  1.00 20.00     0.057 C 
HETATM    9  C9  UNL     1     -36.396  17.563  -3.460  1.00 20.00     0.170 C 
HETATM   10  C10 UNL     1     -35.420  15.330  -4.069  1.00 20.00     0.097 C 
HETATM   11  C11 UNL     1     -34.420  16.854  -2.244  1.00 20.00     0.062 C 
HETATM   12  N12 UNL     1     -35.940  12.804  -4.590  1.00 20.00    -0.197 NA
HETATM   13  O13 UNL     1     -35.034  17.812  -3.117  1.00 20.00    -0.380 OA
ENDROOT
TORSDOF 0
ENDMDL
MODEL 3
REMARK VINA RESULT:      -5.0      2.827      4.883
REMARK  0 active torsions:
REMARK  status: ('A' for Active; 'I' for Inactive)
ROOT
HETATM    1  C1  UNL     1     -32.330  18.123  -1.464  1.00 20.00     0.064 C 
HETATM    2  C2  UNL     1     -36.026  14.439  -5.790  1.00 20.00     0.000 C 
HETATM    3  C3  UNL     1     -36.102  15.955  -5.645  1.00 20.00     0.003 C 
HETATM    4  C4  UNL     1     -35.783  13.757  -4.448  1.00 20.00     0.003 C 
HETATM    5  C5  UNL     1     -34.864  16.511  -4.938  1.00 20.00     0.038 C 
HETATM    6  C6  UNL     1     -34.556  14.331  -3.737  1.00 20.00     0.038 C 
HETATM    7  C7  UNL     1     -34.719  18.269  -2.062  1.00 20.00     0.045 C 
HETATM    8  C8  UNL     1     -33.321  16.367  -2.899  1.00 20.00     0.057 C 
HETATM    9  C9  UNL     1     -35.988  17.468  -2.336  1.00 20.00     0.170 C 
HETATM   10  C10 UNL     1     -33.550  17.349  -1.742  1.00 20.00     0.097 C 
HETATM   11  C11 UNL     1     -34.635  15.864  -3.552  1.00 20.00     0.062 C 
HETATM   12  N12 UNL     1     -31.368  18.733  -1.244  1.00 20.00    -0.197 NA
HETATM   13  O13 UNL     1     -35.742  16.104  -2.672  1.00 20.00    -0.380 OA
ENDROOT
TORSDOF 0
ENDMDL
MODEL 4
REMARK VINA RESULT:      -4.9      2.750      4.857
REMARK  0 active torsions:
REMARK  status: ('A' for Active; 'I' for Inactive)
ROOT
HETATM    1  C1  UNL     1     -31.834  18.355  -1.394  1.00 20.00     0.064 C 
HETATM    2  C2  UNL     1     -35.692  14.155  -5.059  1.00 20.00     0.000 C 
HETATM    3  C3  UNL     1     -34.506  14.948  -5.597  1.00 20.00     0.003 C 
HETATM    4  C4  UNL     1     -36.463  14.943  -4.006  1.00 20.00     0.003 C 
HETATM    5  C5  UNL     1     -33.596  15.430  -4.465  1.00 20.00     0.038 C 
HETATM    6  C6  UNL     1     -35.545  15.440  -2.886  1.00 20.00     0.038 C 
HETATM    7  C7  UNL     1     -32.763  18.601  -3.666  1.00 20.00     0.045 C 
HETATM    8  C8  UNL     1     -33.440  16.666  -2.227  1.00 20.00     0.057 C 
HETATM    9  C9  UNL     1     -33.997  18.394  -4.539  1.00 20.00     0.170 C 
HETATM   10  C10 UNL     1     -33.020  18.142  -2.238  1.00 20.00     0.097 C 
HETATM   11  C11 UNL     1     -34.356  16.275  -3.415  1.00 20.00     0.062 C 
HETATM   12  N12 UNL     1     -30.900  18.523  -0.728  1.00 20.00    -0.197 NA
HETATM   13  O13 UNL     1     -34.925  17.453  -4.003  1.00 20.00    -0.380 OA
ENDROOT
TORSDOF 0
ENDMDL
MODEL 5
REMARK VINA RESULT:      -4.7      1.691      2.649
REMARK  0 active torsions:
REMARK  status: ('A' for Active; 'I' for Inactive)
ROOT
HETATM    1  C1  UNL     1     -37.704  15.108  -4.246  1.00 20.00     0.064 C 
HETATM    2  C2  UNL     1     -32.908  18.094  -0.501  1.00 20.00     0.000 C 
HETATM    3  C3  UNL     1     -34.407  18.334  -0.357  1.00 20.00     0.003 C 
HETATM    4  C4  UNL     1     -32.511  17.879  -1.957  1.00 20.00     0.003 C 
HETATM    5  C5  UNL     1     -35.218  17.213  -1.009  1.00 20.00     0.038 C 
HETATM    6  C6  UNL     1     -33.338  16.770  -2.610  1.00 20.00     0.038 C 
HETATM    7  C7  UNL     1     -37.470  17.452  -3.511  1.00 20.00     0.045 C 
HETATM    8  C8  UNL     1     -35.618  15.811  -3.116  1.00 20.00     0.057 C 
HETATM    9  C9  UNL     1     -36.494  18.610  -3.327  1.00 20.00     0.170 C 
HETATM   10  C10 UNL     1     -36.760  16.221  -4.055  1.00 20.00     0.097 C 
HETATM   11  C11 UNL     1     -34.861  17.018  -2.502  1.00 20.00     0.062 C 
HETATM   12  N12 UNL     1     -38.448  14.232  -4.397  1.00 20.00    -0.197 NA
HETATM   13  O13 UNL     1     -35.129  18.203  -3.264  1.00 20.00    -0.380 OA
ENDROOT
TORSDOF 0
ENDMDL
MODEL 6
REMARK VINA RESULT:      -4.5      2.859      4.836
REMARK  0 active torsions:
REMARK  status: ('A' for Active; 'I' for Inactive)
ROOT
HETATM    1  C1  UNL     1     -32.169  18.138  -1.801  1.00 20.00     0.064 C 
HETATM    2  C2  UNL     1     -36.391  15.685  -6.503  1.00 20.00     0.000 C 
HETATM    3  C3  UNL     1     -36.815  16.499  -5.285  1.00 20.00     0.003 C 
HETATM    4  C4  UNL     1     -35.219  14.763  -6.183  1.00 20.00     0.003 C 
HETATM    5  C5  UNL     1     -35.634  17.265  -4.686  1.00 20.00     0.038 C 
HETATM    6  C6  UNL     1     -34.048  15.532  -5.566  1.00 20.00     0.038 C 
HETATM    7  C7  UNL     1     -34.364  17.036  -1.568  1.00 20.00     0.045 C 
HETATM    8  C8  UNL     1     -33.233  17.142  -3.801  1.00 20.00     0.057 C 
HETATM    9  C9  UNL     1     -35.243  15.889  -2.058  1.00 20.00     0.170 C 
HETATM   10  C10 UNL     1     -33.021  17.040  -2.284  1.00 20.00     0.097 C 
HETATM   11  C11 UNL     1     -34.456  16.335  -4.309  1.00 20.00     0.062 C 
HETATM   12  N12 UNL     1     -31.497  19.003  -1.420  1.00 20.00    -0.197 NA
HETATM   13  O13 UNL     1     -34.848  15.367  -3.325  1.00 20.00    -0.380 OA
ENDROOT
TORSDOF 0
ENDMDL
MODEL 7
REMARK VINA RESULT:      -4.5      1.580      1.912
REMARK  0 active torsions:
REMARK  status: ('A' for Active; 'I' for Inactive)
ROOT
HETATM    1  C1  UNL     1     -35.821  14.838  -6.867  1.00 20.00     0.064 C 
HETATM    2  C2  UNL     1     -33.712  18.250  -1.403  1.00 20.00     0.000 C 
HETATM    3  C3  UNL     1     -32.872  17.984  -2.647  1.00 20.00     0.003 C 
HETATM    4  C4  UNL     1     -34.629  17.075  -1.083  1.00 20.00     0.003 C 
HETATM    5  C5  UNL     1     -33.747  17.601  -3.842  1.00 20.00     0.038 C 
HETATM    6  C6  UNL     1     -35.489  16.684  -2.287  1.00 20.00     0.038 C 
HETATM    7  C7  UNL     1     -33.675  14.756  -5.654  1.00 20.00     0.045 C 
HETATM    8  C8  UNL     1     -35.598  16.071  -4.733  1.00 20.00     0.057 C 
HETATM    9  C9  UNL     1     -33.021  14.731  -4.276  1.00 20.00     0.170 C 
HETATM   10  C10 UNL     1     -35.191  14.829  -5.538  1.00 20.00     0.097 C 
HETATM   11  C11 UNL     1     -34.647  16.377  -3.547  1.00 20.00     0.062 C 
HETATM   12  N12 UNL     1     -36.319  14.845  -7.915  1.00 20.00    -0.197 NA
HETATM   13  O13 UNL     1     -33.865  15.216  -3.234  1.00 20.00    -0.380 OA
ENDROOT
TORSDOF 0
ENDMDL
MODEL 8
REMARK VINA RESULT:      -4.4      2.437      3.924
REMARK  0 active torsions:
REMARK  status: ('A' for Active; 'I' for Inactive)
ROOT
HETATM    1  C1  UNL     1     -39.809  15.783  -3.635  1.00 20.00     0.064 C 
HETATM    2  C2  UNL     1     -33.137  14.796  -4.315  1.00 20.00     0.000 C 
HETATM    3  C3  UNL     1     -33.790  15.650  -3.234  1.00 20.00     0.003 C 
HETATM    4  C4  UNL     1     -33.885  14.897  -5.639  1.00 20.00     0.003 C 
HETATM    5  C5  UNL     1     -35.274  15.316  -3.077  1.00 20.00     0.038 C 
HETATM    6  C6  UNL     1     -35.373  14.580  -5.474  1.00 20.00     0.038 C 
HETATM    7  C7  UNL     1     -37.926  17.368  -3.458  1.00 20.00     0.045 C 
HETATM    8  C8  UNL     1     -37.535  15.022  -4.246  1.00 20.00     0.057 C 
HETATM    9  C9  UNL     1     -36.601  17.805  -4.075  1.00 20.00     0.170 C 
HETATM   10  C10 UNL     1     -38.524  16.195  -4.222  1.00 20.00     0.097 C 
HETATM   11  C11 UNL     1     -36.057  15.464  -4.404  1.00 20.00     0.062 C 
HETATM   12  N12 UNL     1     -40.821  15.458  -3.173  1.00 20.00    -0.197 NA
HETATM   13  O13 UNL     1     -35.998  16.809  -4.899  1.00 20.00    -0.380 OA
ENDROOT
TORSDOF 0
ENDMDL
MODEL 9
REMARK VINA RESULT:      -4.4      2.554      4.536
REMARK  0 active torsions:
REMARK  status: ('A' for Active; 'I' for Inactive)
ROOT
HETATM    1  C1  UNL     1     -34.395  17.813   0.307  1.00 20.00     0.064 C 
HETATM    2  C2  UNL     1     -35.226  14.676  -5.643  1.00 20.00     0.000 C 
HETATM    3  C3  UNL     1     -33.914  14.754  -4.870  1.00 20.00     0.003 C 
HETATM    4  C4  UNL     1     -36.038  15.958  -5.502  1.00 20.00     0.003 C 
HETATM    5  C5  UNL     1     -34.149  15.120  -3.404  1.00 20.00     0.038 C 
HETATM    6  C6  UNL     1     -36.255  16.331  -4.034  1.00 20.00     0.038 C 
HETATM    7  C7  UNL     1     -32.967  17.785  -1.704  1.00 20.00     0.045 C 
HETATM    8  C8  UNL     1     -35.247  16.746  -1.757  1.00 20.00     0.057 C 
HETATM    9  C9  UNL     1     -32.957  17.859  -3.228  1.00 20.00     0.170 C 
HETATM   10  C10 UNL     1     -34.387  17.870  -1.163  1.00 20.00     0.097 C 
HETATM   11  C11 UNL     1     -34.929  16.447  -3.245  1.00 20.00     0.062 C 
HETATM   12  N12 UNL     1     -34.402  17.769   1.466  1.00 20.00    -0.197 NA
HETATM   13  O13 UNL     1     -34.214  17.548  -3.824  1.00 20.00    -0.380 OA
ENDROOT
TORSDOF 0
ENDMDL
