MODEL 1
REMARK VINA RESULT:      -4.7      0.000      0.000
REMARK  3 active torsions:
REMARK  status: ('A' for Active; 'I' for Inactive)
REMARK    1  A    between atoms: C6_6  and  C9_9 
REMARK    2  A    between atoms: C6_6  and  O10_10 
REMARK    3  A    between atoms: C8_8  and  C9_9 
ROOT
HETATM    1  C1  UNL     1     -32.126  18.376  -1.453  1.00 20.00     0.012 C 
HETATM    2  C2  UNL     1     -32.822  17.516  -1.917  1.00 20.00    -0.117 C 
HETATM    3  C8  UNL     1     -33.678  16.464  -2.484  1.00 20.00     0.096 C 
ENDROOT
BRANCH   3   4
HETATM    4  C9  UNL     1     -32.927  15.697  -3.556  1.00 20.00     0.050 C 
BRANCH   4   5
HETATM    5  C6  UNL     1     -33.880  14.826  -4.368  1.00 20.00     0.068 C 
HETATM    6  C3  UNL     1     -35.249  14.711  -3.693  1.00 20.00     0.053 C 
HETATM    7  C5  UNL     1     -36.193  14.031  -4.685  1.00 20.00     0.046 C 
HETATM    8  C7  UNL     1     -37.656  14.308  -4.387  1.00 20.00     0.021 C 
HETATM    9  S11 UNL     1     -35.709  14.696  -6.311  1.00 20.00    -0.162 SA
HETATM   10  C4  UNL     1     -34.127  15.406  -5.759  1.00 20.00     0.112 C 
BRANCH   5  11
HETATM   11  O10 UNL     1     -33.273  13.536  -4.474  1.00 20.00    -0.389 OA
HETATM   12  H25 UNL     1     -33.995  12.892  -4.428  1.00 20.00     0.210 HD
ENDBRANCH   5  11
ENDBRANCH   4   5
ENDBRANCH   3   4
TORSDOF 3
ENDMDL
MODEL 2
REMARK VINA RESULT:      -4.3     14.436     17.006
REMARK  3 active torsions:
REMARK  status: ('A' for Active; 'I' for Inactive)
REMARK    1  A    between atoms: C6_6  and  C9_9 
REMARK    2  A    between atoms: C6_6  and  O10_10 
REMARK    3  A    between atoms: C8_8  and  C9_9 
ROOT
HETATM    1  C1  UNL     1     -25.706  19.263   5.001  1.00 20.00     0.012 C 
HETATM    2  C2  UNL     1     -25.567  19.219   6.192  1.00 20.00    -0.117 C 
HETATM    3  C8  UNL     1     -25.402  19.167   7.651  1.00 20.00     0.096 C 
ENDROOT
BRANCH   3   4
HETATM    4  C9  UNL     1     -24.041  18.595   8.005  1.00 20.00     0.050 C 
BRANCH   4   5
HETATM    5  C6  UNL     1     -23.964  18.256   9.490  1.00 20.00     0.068 C 
HETATM    6  C3  UNL     1     -25.197  18.758  10.245  1.00 20.00     0.053 C 
HETATM    7  C5  UNL     1     -25.142  18.168  11.655  1.00 20.00     0.046 C 
HETATM    8  C7  UNL     1     -26.502  18.138  12.332  1.00 20.00     0.021 C 
HETATM    9  S11 UNL     1     -24.479  16.487  11.425  1.00 20.00    -0.162 SA
HETATM   10  C4  UNL     1     -23.895  16.748   9.721  1.00 20.00     0.112 C 
BRANCH   5  11
HETATM   11  O10 UNL     1     -22.785  18.885   9.998  1.00 20.00    -0.389 OA
HETATM   12  H25 UNL     1     -22.381  19.349   9.249  1.00 20.00     0.210 HD
ENDBRANCH   5  11
ENDBRANCH   4   5
ENDBRANCH   3   4
TORSDOF 3
ENDMDL
MODEL 3
REMARK VINA RESULT:      -4.3      1.341      1.736
REMARK  3 active torsions:
REMARK  status: ('A' for Active; 'I' for Inactive)
REMARK    1  A    between atoms: C6_6  and  C9_9 
REMARK    2  A    between atoms: C6_6  and  O10_10 
REMARK    3  A    between atoms: C8_8  and  C9_9 
ROOT
HETATM    1  C1  UNL     1     -31.086  18.432  -0.083  1.00 20.00     0.012 C 
HETATM    2  C2  UNL     1     -31.758  18.285  -1.066  1.00 20.00    -0.117 C 
HETATM    3  C8  UNL     1     -32.578  18.107  -2.273  1.00 20.00     0.096 C 
ENDROOT
BRANCH   3   4
HETATM    4  C9  UNL     1     -33.564  16.970  -2.074  1.00 20.00     0.050 C 
BRANCH   4   5
HETATM    5  C6  UNL     1     -33.812  16.232  -3.385  1.00 20.00     0.068 C 
HETATM    6  C3  UNL     1     -34.817  15.091  -3.206  1.00 20.00     0.053 C 
HETATM    7  C5  UNL     1     -35.177  14.575  -4.600  1.00 20.00     0.046 C 
HETATM    8  C7  UNL     1     -36.502  13.833  -4.626  1.00 20.00     0.021 C 
HETATM    9  S11 UNL     1     -35.232  16.068  -5.643  1.00 20.00    -0.162 SA
HETATM   10  C4  UNL     1     -34.391  17.158  -4.453  1.00 20.00     0.112 C 
BRANCH   5  11
HETATM   11  O10 UNL     1     -32.551  15.715  -3.814  1.00 20.00    -0.389 OA
HETATM   12  H25 UNL     1     -32.736  15.140  -4.572  1.00 20.00     0.210 HD
ENDBRANCH   5  11
ENDBRANCH   4   5
ENDBRANCH   3   4
TORSDOF 3
ENDMDL
MODEL 4
REMARK VINA RESULT:      -4.3      2.149      2.927
REMARK  3 active torsions:
REMARK  status: ('A' for Active; 'I' for Inactive)
REMARK    1  A    between atoms: C6_6  and  C9_9 
REMARK    2  A    between atoms: C6_6  and  O10_10 
REMARK    3  A    between atoms: C8_8  and  C9_9 
ROOT
HETATM    1  C1  UNL     1     -35.151  16.534  -1.482  1.00 20.00     0.012 C 
HETATM    2  C2  UNL     1     -34.690  15.901  -2.392  1.00 20.00    -0.117 C 
HETATM    3  C8  UNL     1     -34.122  15.126  -3.503  1.00 20.00     0.096 C 
ENDROOT
BRANCH   3   4
HETATM    4  C9  UNL     1     -35.211  14.327  -4.196  1.00 20.00     0.050 C 
BRANCH   4   5
HETATM    5  C6  UNL     1     -35.338  14.739  -5.659  1.00 20.00     0.068 C 
HETATM    6  C3  UNL     1     -36.176  16.011  -5.815  1.00 20.00     0.053 C 
HETATM    7  C5  UNL     1     -36.045  16.472  -7.266  1.00 20.00     0.046 C 
HETATM    8  C7  UNL     1     -36.370  17.945  -7.446  1.00 20.00     0.021 C 
HETATM    9  S11 UNL     1     -34.313  16.116  -7.708  1.00 20.00    -0.162 SA
HETATM   10  C4  UNL     1     -33.975  15.038  -6.281  1.00 20.00     0.112 C 
BRANCH   5  11
HETATM   11  O10 UNL     1     -35.962  13.651  -6.344  1.00 20.00    -0.389 OA
HETATM   12  H25 UNL     1     -36.824  13.977  -6.643  1.00 20.00     0.210 HD
ENDBRANCH   5  11
ENDBRANCH   4   5
ENDBRANCH   3   4
TORSDOF 3
ENDMDL
MODEL 5
REMARK VINA RESULT:      -4.3     17.351     18.109
REMARK  3 active torsions:
REMARK  status: ('A' for Active; 'I' for Inactive)
REMARK    1  A    between atoms: C6_6  and  C9_9 
REMARK    2  A    between atoms: C6_6  and  O10_10 
REMARK    3  A    between atoms: C8_8  and  C9_9 
ROOT
HETATM    1  C1  UNL     1     -29.088  16.703  12.331  1.00 20.00     0.012 C 
HETATM    2  C2  UNL     1     -28.070  17.339  12.331  1.00 20.00    -0.117 C 
HETATM    3  C8  UNL     1     -26.826  18.120  12.332  1.00 20.00     0.096 C 
ENDROOT
BRANCH   3   4
HETATM    4  C9  UNL     1     -25.645  17.228  11.996  1.00 20.00     0.050 C 
BRANCH   4   5
HETATM    5  C6  UNL     1     -24.593  17.996  11.202  1.00 20.00     0.068 C 
HETATM    6  C3  UNL     1     -23.636  17.048  10.475  1.00 20.00     0.053 C 
HETATM    7  C5  UNL     1     -22.783  17.896   9.530  1.00 20.00     0.046 C 
HETATM    8  C7  UNL     1     -22.177  17.082   8.399  1.00 20.00     0.021 C 
HETATM    9  S11 UNL     1     -23.924  19.167   8.895  1.00 20.00    -0.162 SA
HETATM   10  C4  UNL     1     -25.229  18.879  10.131  1.00 20.00     0.112 C 
BRANCH   5  11
HETATM   11  O10 UNL     1     -23.873  18.801  12.139  1.00 20.00    -0.389 OA
HETATM   12  H25 UNL     1     -24.496  19.010  12.851  1.00 20.00     0.210 HD
ENDBRANCH   5  11
ENDBRANCH   4   5
ENDBRANCH   3   4
TORSDOF 3
ENDMDL
MODEL 6
REMARK VINA RESULT:      -4.1      1.359      1.472
REMARK  3 active torsions:
REMARK  status: ('A' for Active; 'I' for Inactive)
REMARK    1  A    between atoms: C6_6  and  C9_9 
REMARK    2  A    between atoms: C6_6  and  O10_10 
REMARK    3  A    between atoms: C8_8  and  C9_9 
ROOT
HETATM    1  C1  UNL     1     -33.436  18.607   0.387  1.00 20.00     0.012 C 
HETATM    2  C2  UNL     1     -33.810  17.906  -0.512  1.00 20.00    -0.117 C 
HETATM    3  C8  UNL     1     -34.271  17.049  -1.613  1.00 20.00     0.096 C 
ENDROOT
BRANCH   3   4
HETATM    4  C9  UNL     1     -33.132  16.778  -2.579  1.00 20.00     0.050 C 
BRANCH   4   5
HETATM    5  C6  UNL     1     -33.616  15.961  -3.773  1.00 20.00     0.068 C 
HETATM    6  C3  UNL     1     -34.760  15.020  -3.383  1.00 20.00     0.053 C 
HETATM    7  C5  UNL     1     -35.329  14.432  -4.674  1.00 20.00     0.046 C 
HETATM    8  C7  UNL     1     -36.748  13.915  -4.508  1.00 20.00     0.021 C 
HETATM    9  S11 UNL     1     -35.260  15.802  -5.874  1.00 20.00    -0.162 SA
HETATM   10  C4  UNL     1     -34.151  16.856  -4.889  1.00 20.00     0.112 C 
BRANCH   5  11
HETATM   11  O10 UNL     1     -32.496  15.207  -4.241  1.00 20.00    -0.389 OA
HETATM   12  H25 UNL     1     -31.976  14.978  -3.457  1.00 20.00     0.210 HD
ENDBRANCH   5  11
ENDBRANCH   4   5
ENDBRANCH   3   4
TORSDOF 3
ENDMDL
MODEL 7
REMARK VINA RESULT:      -4.1      1.839      2.266
REMARK  3 active torsions:
REMARK  status: ('A' for Active; 'I' for Inactive)
REMARK    1  A    between atoms: C6_6  and  C9_9 
REMARK    2  A    between atoms: C6_6  and  O10_10 
REMARK    3  A    between atoms: C8_8  and  C9_9 
ROOT
HETATM    1  C1  UNL     1     -33.256  17.057  -2.273  1.00 20.00     0.012 C 
HETATM    2  C2  UNL     1     -33.299  16.163  -3.073  1.00 20.00    -0.117 C 
HETATM    3  C8  UNL     1     -33.349  15.069  -4.052  1.00 20.00     0.096 C 
ENDROOT
BRANCH   3   4
HETATM    4  C9  UNL     1     -34.625  14.266  -3.879  1.00 20.00     0.050 C 
BRANCH   4   5
HETATM    5  C6  UNL     1     -35.597  14.541  -5.021  1.00 20.00     0.068 C 
HETATM    6  C3  UNL     1     -36.551  15.690  -4.684  1.00 20.00     0.053 C 
HETATM    7  C5  UNL     1     -37.312  16.044  -5.962  1.00 20.00     0.046 C 
HETATM    8  C7  UNL     1     -37.887  17.450  -5.932  1.00 20.00     0.021 C 
HETATM    9  S11 UNL     1     -36.085  15.858  -7.296  1.00 20.00    -0.162 SA
HETATM   10  C4  UNL     1     -34.865  14.945  -6.300  1.00 20.00     0.112 C 
BRANCH   5  11
HETATM   11  O10 UNL     1     -36.334  13.336  -5.237  1.00 20.00    -0.389 OA
HETATM   12  H25 UNL     1     -35.681  12.651  -5.443  1.00 20.00     0.210 HD
ENDBRANCH   5  11
ENDBRANCH   4   5
ENDBRANCH   3   4
TORSDOF 3
ENDMDL
MODEL 8
REMARK VINA RESULT:      -3.9      1.821      2.012
REMARK  3 active torsions:
REMARK  status: ('A' for Active; 'I' for Inactive)
REMARK    1  A    between atoms: C6_6  and  C9_9 
REMARK    2  A    between atoms: C6_6  and  O10_10 
REMARK    3  A    between atoms: C8_8  and  C9_9 
ROOT
HETATM    1  C1  UNL     1     -31.703  18.388  -0.807  1.00 20.00     0.012 C 
HETATM    2  C2  UNL     1     -32.412  18.076  -1.724  1.00 20.00    -0.117 C 
HETATM    3  C8  UNL     1     -33.279  17.697  -2.848  1.00 20.00     0.096 C 
ENDROOT
BRANCH   3   4
HETATM    4  C9  UNL     1     -33.291  16.189  -3.017  1.00 20.00     0.050 C 
BRANCH   4   5
HETATM    5  C6  UNL     1     -34.713  15.678  -3.224  1.00 20.00     0.068 C 
HETATM    6  C3  UNL     1     -35.484  16.547  -4.221  1.00 20.00     0.053 C 
HETATM    7  C5  UNL     1     -36.794  15.826  -4.539  1.00 20.00     0.046 C 
HETATM    8  C7  UNL     1     -37.405  16.274  -5.856  1.00 20.00     0.021 C 
HETATM    9  S11 UNL     1     -36.349  14.059  -4.582  1.00 20.00    -0.162 SA
HETATM   10  C4  UNL     1     -34.726  14.257  -3.784  1.00 20.00     0.112 C 
BRANCH   5  11
HETATM   11  O10 UNL     1     -35.354  15.708  -1.946  1.00 20.00    -0.389 OA
HETATM   12  H25 UNL     1     -35.314  14.803  -1.601  1.00 20.00     0.210 HD
ENDBRANCH   5  11
ENDBRANCH   4   5
ENDBRANCH   3   4
TORSDOF 3
ENDMDL
MODEL 9
REMARK VINA RESULT:      -3.9      1.980      2.243
REMARK  3 active torsions:
REMARK  status: ('A' for Active; 'I' for Inactive)
REMARK    1  A    between atoms: C6_6  and  C9_9 
REMARK    2  A    between atoms: C6_6  and  O10_10 
REMARK    3  A    between atoms: C8_8  and  C9_9 
ROOT
HETATM    1  C1  UNL     1     -32.552  18.106  -1.334  1.00 20.00     0.012 C 
HETATM    2  C2  UNL     1     -32.946  17.243  -2.069  1.00 20.00    -0.117 C 
HETATM    3  C8  UNL     1     -33.424  16.186  -2.970  1.00 20.00     0.096 C 
ENDROOT
BRANCH   3   4
HETATM    4  C9  UNL     1     -34.824  15.753  -2.576  1.00 20.00     0.050 C 
BRANCH   4   5
HETATM    5  C6  UNL     1     -35.655  15.418  -3.810  1.00 20.00     0.068 C 
HETATM    6  C3  UNL     1     -36.057  16.680  -4.577  1.00 20.00     0.053 C 
HETATM    7  C5  UNL     1     -36.669  16.234  -5.905  1.00 20.00     0.046 C 
HETATM    8  C7  UNL     1     -36.635  17.324  -6.963  1.00 20.00     0.021 C 
HETATM    9  S11 UNL     1     -35.677  14.790  -6.408  1.00 20.00    -0.162 SA
HETATM   10  C4  UNL     1     -34.879  14.541  -4.791  1.00 20.00     0.112 C 
BRANCH   5  11
HETATM   11  O10 UNL     1     -36.820  14.729  -3.351  1.00 20.00    -0.389 OA
HETATM   12  H25 UNL     1     -37.188  15.266  -2.633  1.00 20.00     0.210 HD
ENDBRANCH   5  11
ENDBRANCH   4   5
ENDBRANCH   3   4
TORSDOF 3
ENDMDL
