MODEL 1
REMARK VINA RESULT:      -3.2      0.000      0.000
REMARK  4 active torsions:
REMARK  status: ('A' for Active; 'I' for Inactive)
REMARK    1  A    between atoms: C3_3  and  C5_5 
REMARK    2  A    between atoms: C3_3  and  C6_6 
REMARK    3  A    between atoms: C5_5  and  S7_7 
REMARK    4  A    between atoms: C6_6  and  S8_8 
ROOT
HETATM    1  C1  UNL     1     -22.030  17.386   7.837  1.00 20.00     0.012 A 
HETATM    2  C2  UNL     1     -21.314  17.919   9.045  1.00 20.00     0.012 A 
HETATM    3  C3  UNL     1     -22.823  17.860   9.032  1.00 20.00    -0.024 A 
ENDROOT
BRANCH   3   4
HETATM    4  C5  UNL     1     -23.578  19.154   8.909  1.00 20.00     0.080 C 
BRANCH   4   5
HETATM    5  S7  UNL     1     -24.849  19.044   7.614  1.00 20.00    -0.181 SA
HETATM    6  H20 UNL     1     -25.750  18.390   8.359  1.00 20.00     0.101 HD
ENDBRANCH   4   5
ENDBRANCH   3   4
BRANCH   3   7
HETATM    7  C6  UNL     1     -23.496  16.822   9.889  1.00 20.00     0.083 C 
BRANCH   7   8
HETATM    8  S8  UNL     1     -24.335  17.594  11.305  1.00 20.00    -0.173 SA
HETATM    9  C4  UNL     1     -22.879  17.902  12.331  1.00 20.00     0.089 C 
ENDBRANCH   7   8
ENDBRANCH   3   7
TORSDOF 4
ENDMDL
MODEL 2
REMARK VINA RESULT:      -3.1      2.019      3.604
REMARK  4 active torsions:
REMARK  status: ('A' for Active; 'I' for Inactive)
REMARK    1  A    between atoms: C3_3  and  C5_5 
REMARK    2  A    between atoms: C3_3  and  C6_6 
REMARK    3  A    between atoms: C5_5  and  S7_7 
REMARK    4  A    between atoms: C6_6  and  S8_8 
ROOT
HETATM    1  C1  UNL     1     -23.358  16.654  11.865  1.00 20.00     0.012 A 
HETATM    2  C2  UNL     1     -24.672  15.978  11.600  1.00 20.00     0.012 A 
HETATM    3  C3  UNL     1     -24.501  17.442  11.271  1.00 20.00    -0.024 A 
ENDROOT
BRANCH   3   4
HETATM    4  C5  UNL     1     -25.195  18.447  12.148  1.00 20.00     0.080 C 
BRANCH   4   5
HETATM    5  S7  UNL     1     -26.551  19.263  11.253  1.00 20.00    -0.181 SA
HETATM    6  H20 UNL     1     -27.041  18.147  10.696  1.00 20.00     0.101 HD
ENDBRANCH   4   5
ENDBRANCH   3   4
BRANCH   3   7
HETATM    7  C6  UNL     1     -24.409  17.834   9.821  1.00 20.00     0.083 C 
BRANCH   7   8
HETATM    8  S8  UNL     1     -22.780  18.547   9.443  1.00 20.00    -0.173 SA
HETATM    9  C4  UNL     1     -22.220  17.300   8.261  1.00 20.00     0.089 C 
ENDBRANCH   7   8
ENDBRANCH   3   7
TORSDOF 4
ENDMDL
MODEL 3
REMARK VINA RESULT:      -2.8     17.009     18.133
REMARK  4 active torsions:
REMARK  status: ('A' for Active; 'I' for Inactive)
REMARK    1  A    between atoms: C3_3  and  C5_5 
REMARK    2  A    between atoms: C3_3  and  C6_6 
REMARK    3  A    between atoms: C5_5  and  S7_7 
REMARK    4  A    between atoms: C6_6  and  S8_8 
ROOT
HETATM    1  C1  UNL     1     -33.225  16.626  -2.708  1.00 20.00     0.012 A 
HETATM    2  C2  UNL     1     -34.513  15.973  -2.293  1.00 20.00     0.012 A 
HETATM    3  C3  UNL     1     -34.251  16.258  -3.753  1.00 20.00    -0.024 A 
ENDROOT
BRANCH   3   4
HETATM    4  C5  UNL     1     -35.025  17.371  -4.404  1.00 20.00     0.080 C 
BRANCH   4   5
HETATM    5  S7  UNL     1     -33.905  18.650  -5.049  1.00 20.00    -0.181 SA
HETATM    6  H20 UNL     1     -34.739  19.679  -4.848  1.00 20.00     0.101 HD
ENDBRANCH   4   5
ENDBRANCH   3   4
BRANCH   3   7
HETATM    7  C6  UNL     1     -33.951  15.093  -4.657  1.00 20.00     0.083 C 
BRANCH   7   8
HETATM    8  S8  UNL     1     -35.316  14.807  -5.823  1.00 20.00    -0.173 SA
HETATM    9  C4  UNL     1     -36.353  13.778  -4.759  1.00 20.00     0.089 C 
ENDBRANCH   7   8
ENDBRANCH   3   7
TORSDOF 4
ENDMDL
MODEL 4
REMARK VINA RESULT:      -2.7     16.986     18.041
REMARK  4 active torsions:
REMARK  status: ('A' for Active; 'I' for Inactive)
REMARK    1  A    between atoms: C3_3  and  C5_5 
REMARK    2  A    between atoms: C3_3  and  C6_6 
REMARK    3  A    between atoms: C5_5  and  S7_7 
REMARK    4  A    between atoms: C6_6  and  S8_8 
ROOT
HETATM    1  C1  UNL     1     -34.013  16.742  -4.207  1.00 20.00     0.012 A 
HETATM    2  C2  UNL     1     -32.963  16.059  -3.378  1.00 20.00     0.012 A 
HETATM    3  C3  UNL     1     -34.416  15.679  -3.212  1.00 20.00    -0.024 A 
ENDROOT
BRANCH   3   4
HETATM    4  C5  UNL     1     -35.120  16.118  -1.958  1.00 20.00     0.080 C 
BRANCH   4   5
HETATM    5  S7  UNL     1     -36.235  17.514  -2.293  1.00 20.00    -0.181 SA
HETATM    6  H20 UNL     1     -35.735  18.321  -1.348  1.00 20.00     0.101 HD
ENDBRANCH   4   5
ENDBRANCH   3   4
BRANCH   3   7
HETATM    7  C6  UNL     1     -34.862  14.346  -3.747  1.00 20.00     0.083 C 
BRANCH   7   8
HETATM    8  S8  UNL     1     -35.942  14.555  -5.194  1.00 20.00    -0.173 SA
HETATM    9  C4  UNL     1     -37.533  14.497  -4.339  1.00 20.00     0.089 C 
ENDBRANCH   7   8
ENDBRANCH   3   7
TORSDOF 4
ENDMDL
MODEL 5
REMARK VINA RESULT:      -2.7     16.899     18.038
REMARK  4 active torsions:
REMARK  status: ('A' for Active; 'I' for Inactive)
REMARK    1  A    between atoms: C3_3  and  C5_5 
REMARK    2  A    between atoms: C3_3  and  C6_6 
REMARK    3  A    between atoms: C5_5  and  S7_7 
REMARK    4  A    between atoms: C6_6  and  S8_8 
ROOT
HETATM    1  C1  UNL     1     -33.896  16.808  -2.312  1.00 20.00     0.012 A 
HETATM    2  C2  UNL     1     -35.041  16.314  -1.475  1.00 20.00     0.012 A 
HETATM    3  C3  UNL     1     -35.079  16.145  -2.976  1.00 20.00    -0.024 A 
ENDROOT
BRANCH   3   4
HETATM    4  C5  UNL     1     -36.026  17.012  -3.759  1.00 20.00     0.080 C 
BRANCH   4   5
HETATM    5  S7  UNL     1     -37.371  16.022  -4.476  1.00 20.00    -0.181 SA
HETATM    6  H20 UNL     1     -36.615  15.402  -5.391  1.00 20.00     0.101 HD
ENDBRANCH   4   5
ENDBRANCH   3   4
BRANCH   3   7
HETATM    7  C6  UNL     1     -34.891  14.761  -3.534  1.00 20.00     0.083 C 
BRANCH   7   8
HETATM    8  S8  UNL     1     -33.348  14.651  -4.490  1.00 20.00    -0.173 SA
HETATM    9  C4  UNL     1     -34.037  14.971  -6.130  1.00 20.00     0.089 C 
ENDBRANCH   7   8
ENDBRANCH   3   7
TORSDOF 4
ENDMDL
MODEL 6
REMARK VINA RESULT:      -2.7     17.561     18.777
REMARK  4 active torsions:
REMARK  status: ('A' for Active; 'I' for Inactive)
REMARK    1  A    between atoms: C3_3  and  C5_5 
REMARK    2  A    between atoms: C3_3  and  C6_6 
REMARK    3  A    between atoms: C5_5  and  S7_7 
REMARK    4  A    between atoms: C6_6  and  S8_8 
ROOT
HETATM    1  C1  UNL     1     -34.794  15.920  -2.268  1.00 20.00     0.012 A 
HETATM    2  C2  UNL     1     -33.465  16.250  -2.884  1.00 20.00     0.012 A 
HETATM    3  C3  UNL     1     -34.622  15.845  -3.766  1.00 20.00    -0.024 A 
ENDROOT
BRANCH   3   4
HETATM    4  C5  UNL     1     -34.580  14.485  -4.405  1.00 20.00     0.080 C 
BRANCH   4   5
HETATM    5  S7  UNL     1     -36.253  13.794  -4.571  1.00 20.00    -0.181 SA
HETATM    6  H20 UNL     1     -36.373  14.035  -5.883  1.00 20.00     0.101 HD
ENDBRANCH   4   5
ENDBRANCH   3   4
BRANCH   3   7
HETATM    7  C6  UNL     1     -35.275  16.910  -4.605  1.00 20.00     0.083 C 
BRANCH   7   8
HETATM    8  S8  UNL     1     -34.680  16.841  -6.322  1.00 20.00    -0.173 SA
HETATM    9  C4  UNL     1     -36.282  16.696  -7.145  1.00 20.00     0.089 C 
ENDBRANCH   7   8
ENDBRANCH   3   7
TORSDOF 4
ENDMDL
MODEL 7
REMARK VINA RESULT:      -2.7     15.993     17.030
REMARK  4 active torsions:
REMARK  status: ('A' for Active; 'I' for Inactive)
REMARK    1  A    between atoms: C3_3  and  C5_5 
REMARK    2  A    between atoms: C3_3  and  C6_6 
REMARK    3  A    between atoms: C5_5  and  S7_7 
REMARK    4  A    between atoms: C6_6  and  S8_8 
ROOT
HETATM    1  C1  UNL     1     -34.552  14.483  -3.801  1.00 20.00     0.012 A 
HETATM    2  C2  UNL     1     -33.149  14.604  -4.323  1.00 20.00     0.012 A 
HETATM    3  C3  UNL     1     -33.888  15.838  -3.864  1.00 20.00    -0.024 A 
ENDROOT
BRANCH   3   4
HETATM    4  C5  UNL     1     -34.362  16.807  -4.912  1.00 20.00     0.080 C 
BRANCH   4   5
HETATM    5  S7  UNL     1     -36.168  17.003  -4.848  1.00 20.00    -0.181 SA
HETATM    6  H20 UNL     1     -36.176  18.312  -5.131  1.00 20.00     0.101 HD
ENDBRANCH   4   5
ENDBRANCH   3   4
BRANCH   3   7
HETATM    7  C6  UNL     1     -33.462  16.476  -2.570  1.00 20.00     0.083 C 
BRANCH   7   8
HETATM    8  S8  UNL     1     -32.861  18.169  -2.847  1.00 20.00    -0.173 SA
HETATM    9  C4  UNL     1     -31.986  18.393  -1.282  1.00 20.00     0.089 C 
ENDBRANCH   7   8
ENDBRANCH   3   7
TORSDOF 4
ENDMDL
MODEL 8
REMARK VINA RESULT:      -2.7     16.281     17.244
REMARK  4 active torsions:
REMARK  status: ('A' for Active; 'I' for Inactive)
REMARK    1  A    between atoms: C3_3  and  C5_5 
REMARK    2  A    between atoms: C3_3  and  C6_6 
REMARK    3  A    between atoms: C5_5  and  S7_7 
REMARK    4  A    between atoms: C6_6  and  S8_8 
ROOT
HETATM    1  C1  UNL     1     -34.568  14.416  -3.885  1.00 20.00     0.012 A 
HETATM    2  C2  UNL     1     -33.144  14.562  -4.340  1.00 20.00     0.012 A 
HETATM    3  C3  UNL     1     -33.925  15.782  -3.915  1.00 20.00    -0.024 A 
ENDROOT
BRANCH   3   4
HETATM    4  C5  UNL     1     -34.365  16.746  -4.982  1.00 20.00     0.080 C 
BRANCH   4   5
HETATM    5  S7  UNL     1     -36.145  16.583  -5.311  1.00 20.00    -0.181 SA
HETATM    6  H20 UNL     1     -36.077  16.909  -6.608  1.00 20.00     0.101 HD
ENDBRANCH   4   5
ENDBRANCH   3   4
BRANCH   3   7
HETATM    7  C6  UNL     1     -33.571  16.424  -2.600  1.00 20.00     0.083 C 
BRANCH   7   8
HETATM    8  S8  UNL     1     -35.048  16.637  -1.562  1.00 20.00    -0.173 SA
HETATM    9  C4  UNL     1     -34.387  17.873  -0.422  1.00 20.00     0.089 C 
ENDBRANCH   7   8
ENDBRANCH   3   7
TORSDOF 4
ENDMDL
MODEL 9
REMARK VINA RESULT:      -2.7     16.975     18.077
REMARK  4 active torsions:
REMARK  status: ('A' for Active; 'I' for Inactive)
REMARK    1  A    between atoms: C3_3  and  C5_5 
REMARK    2  A    between atoms: C3_3  and  C6_6 
REMARK    3  A    between atoms: C5_5  and  S7_7 
REMARK    4  A    between atoms: C6_6  and  S8_8 
ROOT
HETATM    1  C1  UNL     1     -33.335  14.791  -4.230  1.00 20.00     0.012 A 
HETATM    2  C2  UNL     1     -34.576  14.014  -3.895  1.00 20.00     0.012 A 
HETATM    3  C3  UNL     1     -34.554  15.512  -3.706  1.00 20.00    -0.024 A 
ENDROOT
BRANCH   3   4
HETATM    4  C5  UNL     1     -34.510  16.045  -2.301  1.00 20.00     0.080 C 
BRANCH   4   5
HETATM    5  S7  UNL     1     -33.253  17.349  -2.141  1.00 20.00    -0.181 SA
HETATM    6  H20 UNL     1     -34.104  18.318  -1.776  1.00 20.00     0.101 HD
ENDBRANCH   4   5
ENDBRANCH   3   4
BRANCH   3   7
HETATM    7  C6  UNL     1     -35.343  16.356  -4.671  1.00 20.00     0.083 C 
BRANCH   7   8
HETATM    8  S8  UNL     1     -36.834  17.028  -3.877  1.00 20.00    -0.173 SA
HETATM    9  C4  UNL     1     -37.959  15.661  -4.240  1.00 20.00     0.089 C 
ENDBRANCH   7   8
ENDBRANCH   3   7
TORSDOF 4
ENDMDL
