MODEL 1
REMARK VINA RESULT:      -3.2      0.000      0.000
REMARK  4 active torsions:
REMARK  status: ('A' for Active; 'I' for Inactive)
REMARK    1  A    between atoms: C4_4  and  C6_6 
REMARK    2  A    between atoms: C4_4  and  O7_7 
REMARK    3  A    between atoms: C5_5  and  C6_6 
REMARK    4  A    between atoms: C5_5  and  S8_8 
ROOT
HETATM    1  C1  UNL     1     -24.421  16.124  11.327  1.00 20.00     0.018 C 
HETATM    2  C2  UNL     1     -22.742  17.713  12.262  1.00 20.00     0.018 C 
HETATM    3  C6  UNL     1     -24.084  17.621  11.508  1.00 20.00    -0.018 C 
ENDROOT
BRANCH   3   4
HETATM    4  C4  UNL     1     -23.954  18.285  10.117  1.00 20.00     0.176 C 
BRANCH   4   5
HETATM    5  O7  UNL     1     -22.591  18.378   9.720  1.00 20.00    -0.395 OA
HETATM    6  C3  UNL     1     -22.351  17.658   8.519  1.00 20.00     0.201 C 
ENDBRANCH   4   5
ENDBRANCH   3   4
BRANCH   3   7
HETATM    7  C5  UNL     1     -25.234  18.262  12.331  1.00 20.00     0.081 C 
BRANCH   7   8
HETATM    8  S8  UNL     1     -26.438  19.261  11.396  1.00 20.00    -0.181 SA
HETATM    9  H22 UNL     1     -25.550  19.765  10.530  1.00 20.00     0.101 HD
ENDBRANCH   7   8
ENDBRANCH   3   7
TORSDOF 4
ENDMDL
MODEL 2
REMARK VINA RESULT:      -3.1      2.518      3.637
REMARK  4 active torsions:
REMARK  status: ('A' for Active; 'I' for Inactive)
REMARK    1  A    between atoms: C4_4  and  C6_6 
REMARK    2  A    between atoms: C4_4  and  O7_7 
REMARK    3  A    between atoms: C5_5  and  C6_6 
REMARK    4  A    between atoms: C5_5  and  S8_8 
ROOT
HETATM    1  C1  UNL     1     -22.591  17.597  12.187  1.00 20.00     0.018 C 
HETATM    2  C2  UNL     1     -24.420  15.981  11.682  1.00 20.00     0.018 C 
HETATM    3  C6  UNL     1     -23.996  17.458  11.560  1.00 20.00    -0.018 C 
ENDROOT
BRANCH   3   4
HETATM    4  C4  UNL     1     -24.989  18.358  12.331  1.00 20.00     0.176 C 
BRANCH   4   5
HETATM    5  O7  UNL     1     -26.316  17.853  12.236  1.00 20.00    -0.395 OA
HETATM    6  C3  UNL     1     -27.201  18.819  11.685  1.00 20.00     0.201 C 
ENDBRANCH   4   5
ENDBRANCH   3   4
BRANCH   3   7
HETATM    7  C5  UNL     1     -23.888  17.889  10.072  1.00 20.00     0.081 C 
BRANCH   7   8
HETATM    8  S8  UNL     1     -22.567  17.100   9.095  1.00 20.00    -0.181 SA
HETATM    9  H22 UNL     1     -23.025  17.501   7.902  1.00 20.00     0.101 HD
ENDBRANCH   7   8
ENDBRANCH   3   7
TORSDOF 4
ENDMDL
MODEL 3
REMARK VINA RESULT:      -3.1      2.232      2.827
REMARK  4 active torsions:
REMARK  status: ('A' for Active; 'I' for Inactive)
REMARK    1  A    between atoms: C4_4  and  C6_6 
REMARK    2  A    between atoms: C4_4  and  O7_7 
REMARK    3  A    between atoms: C5_5  and  C6_6 
REMARK    4  A    between atoms: C5_5  and  S8_8 
ROOT
HETATM    1  C1  UNL     1     -21.968  17.124   8.481  1.00 20.00     0.018 C 
HETATM    2  C2  UNL     1     -21.987  17.943  10.835  1.00 20.00     0.018 C 
HETATM    3  C6  UNL     1     -22.876  17.669   9.606  1.00 20.00    -0.018 C 
ENDROOT
BRANCH   3   4
HETATM    4  C4  UNL     1     -23.541  18.982   9.131  1.00 20.00     0.176 C 
BRANCH   4   5
HETATM    5  O7  UNL     1     -23.580  19.050   7.710  1.00 20.00    -0.395 OA
HETATM    6  C3  UNL     1     -24.915  19.133   7.231  1.00 20.00     0.201 C 
ENDBRANCH   4   5
ENDBRANCH   3   4
BRANCH   3   7
HETATM    7  C5  UNL     1     -23.939  16.581   9.915  1.00 20.00     0.081 C 
BRANCH   7   8
HETATM    8  S8  UNL     1     -24.331  16.309  11.673  1.00 20.00    -0.181 SA
HETATM    9  H22 UNL     1     -23.935  15.029  11.702  1.00 20.00     0.101 HD
ENDBRANCH   7   8
ENDBRANCH   3   7
TORSDOF 4
ENDMDL
MODEL 4
REMARK VINA RESULT:      -2.9     18.089     18.810
REMARK  4 active torsions:
REMARK  status: ('A' for Active; 'I' for Inactive)
REMARK    1  A    between atoms: C4_4  and  C6_6 
REMARK    2  A    between atoms: C4_4  and  O7_7 
REMARK    3  A    between atoms: C5_5  and  C6_6 
REMARK    4  A    between atoms: C5_5  and  S8_8 
ROOT
HETATM    1  C1  UNL     1     -33.021  16.072  -3.381  1.00 20.00     0.018 C 
HETATM    2  C2  UNL     1     -35.093  16.060  -1.994  1.00 20.00     0.018 C 
HETATM    3  C6  UNL     1     -34.540  15.788  -3.407  1.00 20.00    -0.018 C 
ENDROOT
BRANCH   3   4
HETATM    4  C4  UNL     1     -35.216  16.732  -4.429  1.00 20.00     0.176 C 
BRANCH   4   5
HETATM    5  O7  UNL     1     -34.298  17.132  -5.440  1.00 20.00    -0.395 OA
HETATM    6  C3  UNL     1     -34.770  16.791  -6.736  1.00 20.00     0.201 C 
ENDBRANCH   4   5
ENDBRANCH   3   4
BRANCH   3   7
HETATM    7  C5  UNL     1     -34.730  14.300  -3.807  1.00 20.00     0.081 C 
BRANCH   7   8
HETATM    8  S8  UNL     1     -36.295  13.879  -4.639  1.00 20.00    -0.181 SA
HETATM    9  H22 UNL     1     -35.889  14.217  -5.869  1.00 20.00     0.101 HD
ENDBRANCH   7   8
ENDBRANCH   3   7
TORSDOF 4
ENDMDL
MODEL 5
REMARK VINA RESULT:      -2.9     17.660     18.522
REMARK  4 active torsions:
REMARK  status: ('A' for Active; 'I' for Inactive)
REMARK    1  A    between atoms: C4_4  and  C6_6 
REMARK    2  A    between atoms: C4_4  and  O7_7 
REMARK    3  A    between atoms: C5_5  and  C6_6 
REMARK    4  A    between atoms: C5_5  and  S8_8 
ROOT
HETATM    1  C1  UNL     1     -32.779  14.457  -4.402  1.00 20.00     0.018 C 
HETATM    2  C2  UNL     1     -35.192  14.065  -3.914  1.00 20.00     0.018 C 
HETATM    3  C6  UNL     1     -34.120  15.159  -4.092  1.00 20.00    -0.018 C 
ENDROOT
BRANCH   3   4
HETATM    4  C4  UNL     1     -33.977  15.976  -2.786  1.00 20.00     0.176 C 
BRANCH   4   5
HETATM    5  O7  UNL     1     -35.131  15.833  -1.966  1.00 20.00    -0.395 OA
HETATM    6  C3  UNL     1     -35.232  16.891  -1.023  1.00 20.00     0.201 C 
ENDBRANCH   4   5
ENDBRANCH   3   4
BRANCH   3   7
HETATM    7  C5  UNL     1     -34.454  16.080  -5.296  1.00 20.00     0.081 C 
BRANCH   7   8
HETATM    8  S8  UNL     1     -34.291  15.338  -6.952  1.00 20.00    -0.181 SA
HETATM    9  H22 UNL     1     -34.488  14.075  -6.553  1.00 20.00     0.101 HD
ENDBRANCH   7   8
ENDBRANCH   3   7
TORSDOF 4
ENDMDL
MODEL 6
REMARK VINA RESULT:      -2.9     18.301     19.115
REMARK  4 active torsions:
REMARK  status: ('A' for Active; 'I' for Inactive)
REMARK    1  A    between atoms: C4_4  and  C6_6 
REMARK    2  A    between atoms: C4_4  and  O7_7 
REMARK    3  A    between atoms: C5_5  and  C6_6 
REMARK    4  A    between atoms: C5_5  and  S8_8 
ROOT
HETATM    1  C1  UNL     1     -33.199  16.451  -2.972  1.00 20.00     0.018 C 
HETATM    2  C2  UNL     1     -33.184  14.396  -4.384  1.00 20.00     0.018 C 
HETATM    3  C6  UNL     1     -34.036  15.609  -3.961  1.00 20.00    -0.018 C 
ENDROOT
BRANCH   3   4
HETATM    4  C4  UNL     1     -35.326  15.129  -3.256  1.00 20.00     0.176 C 
BRANCH   4   5
HETATM    5  O7  UNL     1     -35.942  14.072  -3.983  1.00 20.00    -0.395 OA
HETATM    6  C3  UNL     1     -37.286  14.388  -4.318  1.00 20.00     0.201 C 
ENDBRANCH   4   5
ENDBRANCH   3   4
BRANCH   3   7
HETATM    7  C5  UNL     1     -34.367  16.514  -5.179  1.00 20.00     0.081 C 
BRANCH   7   8
HETATM    8  S8  UNL     1     -34.396  15.698  -6.809  1.00 20.00    -0.181 SA
HETATM    9  H22 UNL     1     -33.182  16.118  -7.190  1.00 20.00     0.101 HD
ENDBRANCH   7   8
ENDBRANCH   3   7
TORSDOF 4
ENDMDL
MODEL 7
REMARK VINA RESULT:      -2.9     23.814     24.557
REMARK  4 active torsions:
REMARK  status: ('A' for Active; 'I' for Inactive)
REMARK    1  A    between atoms: C4_4  and  C6_6 
REMARK    2  A    between atoms: C4_4  and  O7_7 
REMARK    3  A    between atoms: C5_5  and  C6_6 
REMARK    4  A    between atoms: C5_5  and  S8_8 
ROOT
HETATM    1  C1  UNL     1     -40.978   5.353  -1.090  1.00 20.00     0.018 C 
HETATM    2  C2  UNL     1     -42.550   5.972   0.743  1.00 20.00     0.018 C 
HETATM    3  C6  UNL     1     -42.271   6.133  -0.764  1.00 20.00    -0.018 C 
ENDROOT
BRANCH   3   4
HETATM    4  C4  UNL     1     -42.064   7.627  -1.107  1.00 20.00     0.176 C 
BRANCH   4   5
HETATM    5  O7  UNL     1     -41.052   8.203  -0.289  1.00 20.00    -0.395 OA
HETATM    6  C3  UNL     1     -41.474   9.442   0.265  1.00 20.00     0.201 C 
ENDBRANCH   4   5
ENDBRANCH   3   4
BRANCH   3   7
HETATM    7  C5  UNL     1     -43.415   5.516  -1.615  1.00 20.00     0.081 C 
BRANCH   7   8
HETATM    8  S8  UNL     1     -43.113   3.850  -2.289  1.00 20.00    -0.181 SA
HETATM    9  H22 UNL     1     -43.579   4.116  -3.516  1.00 20.00     0.101 HD
ENDBRANCH   7   8
ENDBRANCH   3   7
TORSDOF 4
ENDMDL
MODEL 8
REMARK VINA RESULT:      -2.9     17.496     18.345
REMARK  4 active torsions:
REMARK  status: ('A' for Active; 'I' for Inactive)
REMARK    1  A    between atoms: C4_4  and  C6_6 
REMARK    2  A    between atoms: C4_4  and  O7_7 
REMARK    3  A    between atoms: C5_5  and  C6_6 
REMARK    4  A    between atoms: C5_5  and  S8_8 
ROOT
HETATM    1  C1  UNL     1     -32.893  14.403  -4.389  1.00 20.00     0.018 C 
HETATM    2  C2  UNL     1     -35.315  13.943  -4.016  1.00 20.00     0.018 C 
HETATM    3  C6  UNL     1     -34.261  15.065  -4.108  1.00 20.00    -0.018 C 
ENDROOT
BRANCH   3   4
HETATM    4  C4  UNL     1     -34.188  15.832  -2.767  1.00 20.00     0.176 C 
BRANCH   4   5
HETATM    5  O7  UNL     1     -32.964  16.549  -2.654  1.00 20.00    -0.395 OA
HETATM    6  C3  UNL     1     -33.084  17.643  -1.756  1.00 20.00     0.201 C 
ENDBRANCH   4   5
ENDBRANCH   3   4
BRANCH   3   7
HETATM    7  C5  UNL     1     -34.566  16.026  -5.288  1.00 20.00     0.081 C 
BRANCH   7   8
HETATM    8  S8  UNL     1     -34.369  15.337  -6.964  1.00 20.00    -0.181 SA
HETATM    9  H22 UNL     1     -35.383  14.467  -6.871  1.00 20.00     0.101 HD
ENDBRANCH   7   8
ENDBRANCH   3   7
TORSDOF 4
ENDMDL
MODEL 9
REMARK VINA RESULT:      -2.9     18.580     19.254
REMARK  4 active torsions:
REMARK  status: ('A' for Active; 'I' for Inactive)
REMARK    1  A    between atoms: C4_4  and  C6_6 
REMARK    2  A    between atoms: C4_4  and  O7_7 
REMARK    3  A    between atoms: C5_5  and  C6_6 
REMARK    4  A    between atoms: C5_5  and  S8_8 
ROOT
HETATM    1  C1  UNL     1     -34.833  13.830  -3.804  1.00 20.00     0.018 C 
HETATM    2  C2  UNL     1     -34.057  15.893  -2.640  1.00 20.00     0.018 C 
HETATM    3  C6  UNL     1     -34.846  15.374  -3.859  1.00 20.00    -0.018 C 
ENDROOT
BRANCH   3   4
HETATM    4  C4  UNL     1     -34.166  15.842  -5.167  1.00 20.00     0.176 C 
BRANCH   4   5
HETATM    5  O7  UNL     1     -33.940  14.746  -6.046  1.00 20.00    -0.395 OA
HETATM    6  C3  UNL     1     -33.980  15.155  -7.406  1.00 20.00     0.201 C 
ENDBRANCH   4   5
ENDBRANCH   3   4
BRANCH   3   7
HETATM    7  C5  UNL     1     -36.328  15.830  -3.803  1.00 20.00     0.081 C 
BRANCH   7   8
HETATM    8  S8  UNL     1     -37.570  14.619  -4.363  1.00 20.00    -0.181 SA
HETATM    9  H22 UNL     1     -38.131  14.436  -3.161  1.00 20.00     0.101 HD
ENDBRANCH   7   8
ENDBRANCH   3   7
TORSDOF 4
ENDMDL
