MODEL 1
REMARK VINA RESULT:      -3.1      0.000      0.000
REMARK  5 active torsions:
REMARK  status: ('A' for Active; 'I' for Inactive)
REMARK    1  A    between atoms: C5_5  and  C7_7 
REMARK    2  A    between atoms: C5_5  and  S9_9 
REMARK    3  A    between atoms: C6_6  and  C7_7 
REMARK    4  A    between atoms: C6_6  and  S10_10 
REMARK    5  A    between atoms: C7_7  and  C8_8 
ROOT
HETATM    1  C7  UNL     1     -35.082  15.689  -2.785  1.00 20.00     0.011 C 
ENDROOT
BRANCH   1   2
HETATM    2  C5  UNL     1     -36.363  15.650  -3.660  1.00 20.00     0.077 C 
BRANCH   2   3
HETATM    3  S9  UNL     1     -36.637  14.060  -4.511  1.00 20.00    -0.182 SA
HETATM    4  H28 UNL     1     -35.341  13.756  -4.646  1.00 20.00     0.101 HD
ENDBRANCH   2   3
ENDBRANCH   1   2
BRANCH   1   5
HETATM    5  C6  UNL     1     -35.258  16.460  -1.446  1.00 20.00     0.079 C 
BRANCH   5   6
HETATM    6  S10 UNL     1     -36.356  17.908  -1.455  1.00 20.00    -0.173 SA
HETATM    7  C4  UNL     1     -35.379  18.981  -0.378  1.00 20.00     0.089 C 
ENDBRANCH   5   6
ENDBRANCH   1   5
BRANCH   1   8
HETATM    8  C8  UNL     1     -33.787  16.107  -3.604  1.00 20.00    -0.046 C 
HETATM    9  C1  UNL     1     -32.825  16.951  -2.741  1.00 20.00     0.015 C 
HETATM   10  C2  UNL     1     -32.998  14.911  -4.170  1.00 20.00     0.015 C 
HETATM   11  C3  UNL     1     -34.199  16.997  -4.805  1.00 20.00     0.015 C 
ENDBRANCH   1   8
TORSDOF 5
ENDMDL
MODEL 2
REMARK VINA RESULT:      -3.1      0.631      1.500
REMARK  5 active torsions:
REMARK  status: ('A' for Active; 'I' for Inactive)
REMARK    1  A    between atoms: C5_5  and  C7_7 
REMARK    2  A    between atoms: C5_5  and  S9_9 
REMARK    3  A    between atoms: C6_6  and  C7_7 
REMARK    4  A    between atoms: C6_6  and  S10_10 
REMARK    5  A    between atoms: C7_7  and  C8_8 
ROOT
HETATM    1  C7  UNL     1     -35.082  15.853  -2.673  1.00 20.00     0.011 C 
ENDROOT
BRANCH   1   2
HETATM    2  C5  UNL     1     -36.380  15.811  -3.523  1.00 20.00     0.077 C 
BRANCH   2   3
HETATM    3  S9  UNL     1     -36.640  14.239  -4.410  1.00 20.00    -0.182 SA
HETATM    4  H28 UNL     1     -36.137  14.659  -5.577  1.00 20.00     0.101 HD
ENDBRANCH   2   3
ENDBRANCH   1   2
BRANCH   1   5
HETATM    5  C6  UNL     1     -35.247  16.577  -1.307  1.00 20.00     0.079 C 
BRANCH   5   6
HETATM    6  S10 UNL     1     -36.436  17.950  -1.229  1.00 20.00    -0.173 SA
HETATM    7  C4  UNL     1     -36.666  17.994   0.563  1.00 20.00     0.089 C 
ENDBRANCH   5   6
ENDBRANCH   1   5
BRANCH   1   8
HETATM    8  C8  UNL     1     -33.814  16.327  -3.505  1.00 20.00    -0.046 C 
HETATM    9  C1  UNL     1     -32.999  15.121  -4.019  1.00 20.00     0.015 C 
HETATM   10  C2  UNL     1     -34.162  17.220  -4.711  1.00 20.00     0.015 C 
HETATM   11  C3  UNL     1     -32.868  17.141  -2.586  1.00 20.00     0.015 C 
ENDBRANCH   1   8
TORSDOF 5
ENDMDL
MODEL 3
REMARK VINA RESULT:      -3.1      1.996      4.325
REMARK  5 active torsions:
REMARK  status: ('A' for Active; 'I' for Inactive)
REMARK    1  A    between atoms: C5_5  and  C7_7 
REMARK    2  A    between atoms: C5_5  and  S9_9 
REMARK    3  A    between atoms: C6_6  and  C7_7 
REMARK    4  A    between atoms: C6_6  and  S10_10 
REMARK    5  A    between atoms: C7_7  and  C8_8 
ROOT
HETATM    1  C7  UNL     1     -34.367  16.711  -5.025  1.00 20.00     0.011 C 
ENDROOT
BRANCH   1   2
HETATM    2  C5  UNL     1     -34.321  18.242  -4.771  1.00 20.00     0.077 C 
BRANCH   2   3
HETATM    3  S9  UNL     1     -35.895  18.946  -4.173  1.00 20.00    -0.182 SA
HETATM    4  H28 UNL     1     -35.554  20.224  -4.377  1.00 20.00     0.101 HD
ENDBRANCH   2   3
ENDBRANCH   1   2
BRANCH   1   5
HETATM    5  C6  UNL     1     -35.716  16.211  -5.615  1.00 20.00     0.079 C 
BRANCH   5   6
HETATM    6  S10 UNL     1     -35.635  14.992  -6.962  1.00 20.00    -0.173 SA
HETATM    7  C4  UNL     1     -34.067  15.517  -7.693  1.00 20.00     0.089 C 
ENDBRANCH   5   6
ENDBRANCH   1   5
BRANCH   1   8
HETATM    8  C8  UNL     1     -33.853  15.864  -3.783  1.00 20.00    -0.046 C 
HETATM    9  C1  UNL     1     -32.977  14.677  -4.238  1.00 20.00     0.015 C 
HETATM   10  C2  UNL     1     -33.049  16.689  -2.760  1.00 20.00     0.015 C 
HETATM   11  C3  UNL     1     -35.066  15.257  -3.034  1.00 20.00     0.015 C 
ENDBRANCH   1   8
TORSDOF 5
ENDMDL
MODEL 4
REMARK VINA RESULT:      -3.1      2.316      4.322
REMARK  5 active torsions:
REMARK  status: ('A' for Active; 'I' for Inactive)
REMARK    1  A    between atoms: C5_5  and  C7_7 
REMARK    2  A    between atoms: C5_5  and  S9_9 
REMARK    3  A    between atoms: C6_6  and  C7_7 
REMARK    4  A    between atoms: C6_6  and  S10_10 
REMARK    5  A    between atoms: C7_7  and  C8_8 
ROOT
HETATM    1  C7  UNL     1     -35.046  16.385  -4.911  1.00 20.00     0.011 C 
ENDROOT
BRANCH   1   2
HETATM    2  C5  UNL     1     -35.372  17.849  -4.511  1.00 20.00     0.077 C 
BRANCH   2   3
HETATM    3  S9  UNL     1     -34.180  19.078  -5.140  1.00 20.00    -0.182 SA
HETATM    4  H28 UNL     1     -34.698  20.118  -4.476  1.00 20.00     0.101 HD
ENDBRANCH   2   3
ENDBRANCH   1   2
BRANCH   1   5
HETATM    5  C6  UNL     1     -36.164  15.695  -5.742  1.00 20.00     0.079 C 
BRANCH   5   6
HETATM    6  S10 UNL     1     -35.782  15.283  -7.471  1.00 20.00    -0.173 SA
HETATM    7  C4  UNL     1     -33.979  15.300  -7.350  1.00 20.00     0.089 C 
ENDBRANCH   5   6
ENDBRANCH   1   5
BRANCH   1   8
HETATM    8  C8  UNL     1     -34.519  15.515  -3.690  1.00 20.00    -0.046 C 
HETATM    9  C1  UNL     1     -35.178  15.951  -2.364  1.00 20.00     0.015 C 
HETATM   10  C2  UNL     1     -34.749  14.001  -3.864  1.00 20.00     0.015 C 
HETATM   11  C3  UNL     1     -32.994  15.733  -3.520  1.00 20.00     0.015 C 
ENDBRANCH   1   8
TORSDOF 5
ENDMDL
MODEL 5
REMARK VINA RESULT:      -3.1      2.316      4.382
REMARK  5 active torsions:
REMARK  status: ('A' for Active; 'I' for Inactive)
REMARK    1  A    between atoms: C5_5  and  C7_7 
REMARK    2  A    between atoms: C5_5  and  S9_9 
REMARK    3  A    between atoms: C6_6  and  C7_7 
REMARK    4  A    between atoms: C6_6  and  S10_10 
REMARK    5  A    between atoms: C7_7  and  C8_8 
ROOT
HETATM    1  C7  UNL     1     -35.031  16.381  -4.915  1.00 20.00     0.011 C 
ENDROOT
BRANCH   1   2
HETATM    2  C5  UNL     1     -35.371  17.863  -4.606  1.00 20.00     0.077 C 
BRANCH   2   3
HETATM    3  S9  UNL     1     -34.189  19.062  -5.308  1.00 20.00    -0.182 SA
HETATM    4  H28 UNL     1     -35.109  19.805  -5.934  1.00 20.00     0.101 HD
ENDBRANCH   2   3
ENDBRANCH   1   2
BRANCH   1   5
HETATM    5  C6  UNL     1     -36.146  15.629  -5.697  1.00 20.00     0.079 C 
BRANCH   5   6
HETATM    6  S10 UNL     1     -35.777  15.137  -7.408  1.00 20.00    -0.173 SA
HETATM    7  C4  UNL     1     -33.981  15.326  -7.351  1.00 20.00     0.089 C 
ENDBRANCH   5   6
ENDBRANCH   1   5
BRANCH   1   8
HETATM    8  C8  UNL     1     -34.490  15.593  -3.646  1.00 20.00    -0.046 C 
HETATM    9  C1  UNL     1     -32.975  15.816  -3.452  1.00 20.00     0.015 C 
HETATM   10  C2  UNL     1     -35.202  15.970  -2.333  1.00 20.00     0.015 C 
HETATM   11  C3  UNL     1     -34.690  14.071  -3.858  1.00 20.00     0.015 C 
ENDBRANCH   1   8
TORSDOF 5
ENDMDL
MODEL 6
REMARK VINA RESULT:      -3.1      2.238      2.931
REMARK  5 active torsions:
REMARK  status: ('A' for Active; 'I' for Inactive)
REMARK    1  A    between atoms: C5_5  and  C7_7 
REMARK    2  A    between atoms: C5_5  and  S9_9 
REMARK    3  A    between atoms: C6_6  and  C7_7 
REMARK    4  A    between atoms: C6_6  and  S10_10 
REMARK    5  A    between atoms: C7_7  and  C8_8 
ROOT
HETATM    1  C7  UNL     1     -35.136  16.454  -4.780  1.00 20.00     0.011 C 
ENDROOT
BRANCH   1   2
HETATM    2  C5  UNL     1     -35.649  15.689  -6.029  1.00 20.00     0.077 C 
BRANCH   2   3
HETATM    3  S9  UNL     1     -34.394  15.465  -7.334  1.00 20.00    -0.182 SA
HETATM    4  H28 UNL     1     -33.416  15.070  -6.511  1.00 20.00     0.101 HD
ENDBRANCH   2   3
ENDBRANCH   1   2
BRANCH   1   5
HETATM    5  C6  UNL     1     -34.218  17.663  -5.115  1.00 20.00     0.079 C 
BRANCH   5   6
HETATM    6  S10 UNL     1     -34.460  19.186  -4.152  1.00 20.00    -0.173 SA
HETATM    7  C4  UNL     1     -32.842  19.246  -3.350  1.00 20.00     0.089 C 
ENDBRANCH   5   6
ENDBRANCH   1   5
BRANCH   1   8
HETATM    8  C8  UNL     1     -34.550  15.489  -3.663  1.00 20.00    -0.046 C 
HETATM    9  C1  UNL     1     -35.002  15.923  -2.252  1.00 20.00     0.015 C 
HETATM   10  C2  UNL     1     -34.937  14.010  -3.856  1.00 20.00     0.015 C 
HETATM   11  C3  UNL     1     -33.002  15.565  -3.675  1.00 20.00     0.015 C 
ENDBRANCH   1   8
TORSDOF 5
ENDMDL
MODEL 7
REMARK VINA RESULT:      -3.0      2.119      3.313
REMARK  5 active torsions:
REMARK  status: ('A' for Active; 'I' for Inactive)
REMARK    1  A    between atoms: C5_5  and  C7_7 
REMARK    2  A    between atoms: C5_5  and  S9_9 
REMARK    3  A    between atoms: C6_6  and  C7_7 
REMARK    4  A    between atoms: C6_6  and  S10_10 
REMARK    5  A    between atoms: C7_7  and  C8_8 
ROOT
HETATM    1  C7  UNL     1     -35.376  16.421  -4.662  1.00 20.00     0.011 C 
ENDROOT
BRANCH   1   2
HETATM    2  C5  UNL     1     -34.500  16.857  -5.867  1.00 20.00     0.077 C 
BRANCH   2   3
HETATM    3  S9  UNL     1     -34.437  15.638  -7.223  1.00 20.00    -0.182 SA
HETATM    4  H28 UNL     1     -34.568  16.531  -8.211  1.00 20.00     0.101 HD
ENDBRANCH   2   3
ENDBRANCH   1   2
BRANCH   1   5
HETATM    5  C6  UNL     1     -36.218  17.574  -4.046  1.00 20.00     0.079 C 
BRANCH   5   6
HETATM    6  S10 UNL     1     -38.026  17.399  -4.086  1.00 20.00    -0.173 SA
HETATM    7  C4  UNL     1     -38.112  15.767  -4.858  1.00 20.00     0.089 C 
ENDBRANCH   5   6
ENDBRANCH   1   5
BRANCH   1   8
HETATM    8  C8  UNL     1     -34.572  15.565  -3.592  1.00 20.00    -0.046 C 
HETATM    9  C1  UNL     1     -34.814  14.053  -3.786  1.00 20.00     0.015 C 
HETATM   10  C2  UNL     1     -33.052  15.814  -3.615  1.00 20.00     0.015 C 
HETATM   11  C3  UNL     1     -35.075  15.915  -2.168  1.00 20.00     0.015 C 
ENDBRANCH   1   8
TORSDOF 5
ENDMDL
MODEL 8
REMARK VINA RESULT:      -3.0      1.916      2.773
REMARK  5 active torsions:
REMARK  status: ('A' for Active; 'I' for Inactive)
REMARK    1  A    between atoms: C5_5  and  C7_7 
REMARK    2  A    between atoms: C5_5  and  S9_9 
REMARK    3  A    between atoms: C6_6  and  C7_7 
REMARK    4  A    between atoms: C6_6  and  S10_10 
REMARK    5  A    between atoms: C7_7  and  C8_8 
ROOT
HETATM    1  C7  UNL     1     -34.306  16.420  -3.169  1.00 20.00     0.011 C 
ENDROOT
BRANCH   1   2
HETATM    2  C5  UNL     1     -32.916  16.958  -2.734  1.00 20.00     0.077 C 
BRANCH   2   3
HETATM    3  S9  UNL     1     -32.673  18.738  -3.049  1.00 20.00    -0.182 SA
HETATM    4  H28 UNL     1     -31.405  18.777  -2.622  1.00 20.00     0.101 HD
ENDBRANCH   2   3
ENDBRANCH   1   2
BRANCH   1   5
HETATM    5  C6  UNL     1     -35.270  16.134  -1.983  1.00 20.00     0.079 C 
BRANCH   5   6
HETATM    6  S10 UNL     1     -35.997  17.569  -1.136  1.00 20.00    -0.173 SA
HETATM    7  C4  UNL     1     -35.396  17.216   0.532  1.00 20.00     0.089 C 
ENDBRANCH   5   6
ENDBRANCH   1   5
BRANCH   1   8
HETATM    8  C8  UNL     1     -34.207  15.234  -4.221  1.00 20.00    -0.046 C 
HETATM    9  C1  UNL     1     -32.772  14.668  -4.295  1.00 20.00     0.015 C 
HETATM   10  C2  UNL     1     -35.168  14.066  -3.929  1.00 20.00     0.015 C 
HETATM   11  C3  UNL     1     -34.546  15.767  -5.636  1.00 20.00     0.015 C 
ENDBRANCH   1   8
TORSDOF 5
ENDMDL
MODEL 9
REMARK VINA RESULT:      -3.0      2.179      3.720
REMARK  5 active torsions:
REMARK  status: ('A' for Active; 'I' for Inactive)
REMARK    1  A    between atoms: C5_5  and  C7_7 
REMARK    2  A    between atoms: C5_5  and  S9_9 
REMARK    3  A    between atoms: C6_6  and  C7_7 
REMARK    4  A    between atoms: C6_6  and  S10_10 
REMARK    5  A    between atoms: C7_7  and  C8_8 
ROOT
HETATM    1  C7  UNL     1     -35.113  16.515  -4.779  1.00 20.00     0.011 C 
ENDROOT
BRANCH   1   2
HETATM    2  C5  UNL     1     -35.445  17.950  -4.290  1.00 20.00     0.077 C 
BRANCH   2   3
HETATM    3  S9  UNL     1     -34.287  19.228  -4.884  1.00 20.00    -0.182 SA
HETATM    4  H28 UNL     1     -33.812  19.550  -3.675  1.00 20.00     0.101 HD
ENDBRANCH   2   3
ENDBRANCH   1   2
BRANCH   1   5
HETATM    5  C6  UNL     1     -36.249  15.854  -5.609  1.00 20.00     0.079 C 
BRANCH   5   6
HETATM    6  S10 UNL     1     -37.959  16.298  -5.182  1.00 20.00    -0.173 SA
HETATM    7  C4  UNL     1     -38.384  14.818  -4.235  1.00 20.00     0.089 C 
ENDBRANCH   5   6
ENDBRANCH   1   5
BRANCH   1   8
HETATM    8  C8  UNL     1     -34.532  15.589  -3.626  1.00 20.00    -0.046 C 
HETATM    9  C1  UNL     1     -35.167  15.929  -2.261  1.00 20.00     0.015 C 
HETATM   10  C2  UNL     1     -34.728  14.083  -3.884  1.00 20.00     0.015 C 
HETATM   11  C3  UNL     1     -33.009  15.837  -3.481  1.00 20.00     0.015 C 
ENDBRANCH   1   8
TORSDOF 5
ENDMDL
