MODEL 1
REMARK VINA RESULT:      -3.3      0.000      0.000
REMARK  6 active torsions:
REMARK  status: ('A' for Active; 'I' for Inactive)
REMARK    1  A    between atoms: C3_3  and  C5_5 
REMARK    2  A    between atoms: C3_3  and  C7_7 
REMARK    3  A    between atoms: C4_4  and  C6_6 
REMARK    4  A    between atoms: C4_4  and  C7_7 
REMARK    5  A    between atoms: C5_5  and  S8_8 
REMARK    6  A    between atoms: C6_6  and  S9_9 
ROOT
HETATM    1  C1  UNL     1     -22.062  17.294   8.278  1.00 20.00     0.010 C 
HETATM    2  C7  UNL     1     -23.012  17.783   9.375  1.00 20.00    -0.017 C 
ENDROOT
BRANCH   2   3
HETATM    3  C3  UNL     1     -23.642  19.148   9.009  1.00 20.00     0.014 C 
BRANCH   3   4
HETATM    4  C5  UNL     1     -25.158  19.125   8.819  1.00 20.00     0.071 C 
BRANCH   4   5
HETATM    5  S8  UNL     1     -25.579  19.200   7.052  1.00 20.00    -0.182 SA
HETATM    6  H25 UNL     1     -25.818  20.518   7.021  1.00 20.00     0.101 HD
ENDBRANCH   4   5
ENDBRANCH   3   4
ENDBRANCH   2   3
BRANCH   2   7
HETATM    7  C4  UNL     1     -22.330  17.825  10.758  1.00 20.00     0.014 C 
BRANCH   7   8
HETATM    8  C6  UNL     1     -23.296  17.526  11.904  1.00 20.00     0.073 C 
BRANCH   8   9
HETATM    9  S9  UNL     1     -24.483  16.238  11.421  1.00 20.00    -0.173 SA
HETATM   10  C2  UNL     1     -25.930  16.875  12.296  1.00 20.00     0.089 C 
ENDBRANCH   8   9
ENDBRANCH   7   8
ENDBRANCH   2   7
TORSDOF 6
ENDMDL
MODEL 2
REMARK VINA RESULT:      -3.1     15.858     16.574
REMARK  6 active torsions:
REMARK  status: ('A' for Active; 'I' for Inactive)
REMARK    1  A    between atoms: C3_3  and  C5_5 
REMARK    2  A    between atoms: C3_3  and  C7_7 
REMARK    3  A    between atoms: C4_4  and  C6_6 
REMARK    4  A    between atoms: C4_4  and  C7_7 
REMARK    5  A    between atoms: C5_5  and  S8_8 
REMARK    6  A    between atoms: C6_6  and  S9_9 
ROOT
HETATM    1  C1  UNL     1     -32.890   4.552   2.512  1.00 20.00     0.010 C 
HETATM    2  C7  UNL     1     -33.572   5.921   2.428  1.00 20.00    -0.017 C 
ENDROOT
BRANCH   2   3
HETATM    3  C3  UNL     1     -32.536   7.070   2.444  1.00 20.00     0.014 C 
BRANCH   3   4
HETATM    4  C5  UNL     1     -32.144   7.602   1.065  1.00 20.00     0.071 C 
BRANCH   4   5
HETATM    5  S8  UNL     1     -33.068   9.120   0.684  1.00 20.00    -0.182 SA
HETATM    6  H25 UNL     1     -31.992   9.891   0.480  1.00 20.00     0.101 HD
ENDBRANCH   4   5
ENDBRANCH   3   4
ENDBRANCH   2   3
BRANCH   2   7
HETATM    7  C4  UNL     1     -34.642   6.105   3.524  1.00 20.00     0.014 C 
BRANCH   7   8
HETATM    8  C6  UNL     1     -34.856   4.843   4.360  1.00 20.00     0.073 C 
BRANCH   8   9
HETATM    9  S9  UNL     1     -34.721   5.219   6.133  1.00 20.00    -0.173 SA
HETATM   10  C2  UNL     1     -33.879   6.813   5.998  1.00 20.00     0.089 C 
ENDBRANCH   8   9
ENDBRANCH   7   8
ENDBRANCH   2   7
TORSDOF 6
ENDMDL
MODEL 3
REMARK VINA RESULT:      -3.1     15.302     17.248
REMARK  6 active torsions:
REMARK  status: ('A' for Active; 'I' for Inactive)
REMARK    1  A    between atoms: C3_3  and  C5_5 
REMARK    2  A    between atoms: C3_3  and  C7_7 
REMARK    3  A    between atoms: C4_4  and  C6_6 
REMARK    4  A    between atoms: C4_4  and  C7_7 
REMARK    5  A    between atoms: C5_5  and  S8_8 
REMARK    6  A    between atoms: C6_6  and  S9_9 
ROOT
HETATM    1  C1  UNL     1     -35.251  16.231  -2.048  1.00 20.00     0.010 C 
HETATM    2  C7  UNL     1     -33.876  15.896  -2.635  1.00 20.00    -0.017 C 
ENDROOT
BRANCH   2   3
HETATM    3  C3  UNL     1     -33.047  17.176  -2.896  1.00 20.00     0.014 C 
BRANCH   3   4
HETATM    4  C5  UNL     1     -33.231  18.284  -1.859  1.00 20.00     0.071 C 
BRANCH   4   5
HETATM    5  S8  UNL     1     -31.742  18.444  -0.829  1.00 20.00    -0.182 SA
HETATM    6  H25 UNL     1     -31.870  17.261  -0.213  1.00 20.00     0.101 HD
ENDBRANCH   4   5
ENDBRANCH   3   4
ENDBRANCH   2   3
BRANCH   2   7
HETATM    7  C4  UNL     1     -33.983  15.020  -3.901  1.00 20.00     0.014 C 
BRANCH   7   8
HETATM    8  C6  UNL     1     -34.507  15.791  -5.112  1.00 20.00     0.073 C 
BRANCH   8   9
HETATM    9  S9  UNL     1     -35.693  14.781  -6.049  1.00 20.00    -0.173 SA
HETATM   10  C2  UNL     1     -36.257  13.722  -4.698  1.00 20.00     0.089 C 
ENDBRANCH   8   9
ENDBRANCH   7   8
ENDBRANCH   2   7
TORSDOF 6
ENDMDL
MODEL 4
REMARK VINA RESULT:      -3.1     15.937     17.691
REMARK  6 active torsions:
REMARK  status: ('A' for Active; 'I' for Inactive)
REMARK    1  A    between atoms: C3_3  and  C5_5 
REMARK    2  A    between atoms: C3_3  and  C7_7 
REMARK    3  A    between atoms: C4_4  and  C6_6 
REMARK    4  A    between atoms: C4_4  and  C7_7 
REMARK    5  A    between atoms: C5_5  and  S8_8 
REMARK    6  A    between atoms: C6_6  and  S9_9 
ROOT
HETATM    1  C1  UNL     1     -35.149  16.771  -1.191  1.00 20.00     0.010 C 
HETATM    2  C7  UNL     1     -34.638  15.844  -2.298  1.00 20.00    -0.017 C 
ENDROOT
BRANCH   2   3
HETATM    3  C3  UNL     1     -33.331  16.381  -2.925  1.00 20.00     0.014 C 
BRANCH   3   4
HETATM    4  C5  UNL     1     -33.501  17.616  -3.809  1.00 20.00     0.071 C 
BRANCH   4   5
HETATM    5  S8  UNL     1     -32.656  19.046  -3.072  1.00 20.00    -0.182 SA
HETATM    6  H25 UNL     1     -31.433  18.732  -3.519  1.00 20.00     0.101 HD
ENDBRANCH   4   5
ENDBRANCH   3   4
ENDBRANCH   2   3
BRANCH   2   7
HETATM    7  C4  UNL     1     -35.714  15.572  -3.371  1.00 20.00     0.014 C 
BRANCH   7   8
HETATM    8  C6  UNL     1     -35.443  14.299  -4.172  1.00 20.00     0.073 C 
BRANCH   8   9
HETATM    9  S9  UNL     1     -35.762  14.576  -5.940  1.00 20.00    -0.173 SA
HETATM   10  C2  UNL     1     -34.091  15.055  -6.434  1.00 20.00     0.089 C 
ENDBRANCH   8   9
ENDBRANCH   7   8
ENDBRANCH   2   7
TORSDOF 6
ENDMDL
MODEL 5
REMARK VINA RESULT:      -3.1     15.570     17.452
REMARK  6 active torsions:
REMARK  status: ('A' for Active; 'I' for Inactive)
REMARK    1  A    between atoms: C3_3  and  C5_5 
REMARK    2  A    between atoms: C3_3  and  C7_7 
REMARK    3  A    between atoms: C4_4  and  C6_6 
REMARK    4  A    between atoms: C4_4  and  C7_7 
REMARK    5  A    between atoms: C5_5  and  S8_8 
REMARK    6  A    between atoms: C6_6  and  S9_9 
ROOT
HETATM    1  C1  UNL     1     -32.906  16.980  -2.663  1.00 20.00     0.010 C 
HETATM    2  C7  UNL     1     -34.180  16.251  -3.101  1.00 20.00    -0.017 C 
ENDROOT
BRANCH   2   3
HETATM    3  C3  UNL     1     -35.163  16.076  -1.920  1.00 20.00     0.014 C 
BRANCH   3   4
HETATM    4  C5  UNL     1     -35.668  17.381  -1.304  1.00 20.00     0.071 C 
BRANCH   4   5
HETATM    5  S8  UNL     1     -35.447  17.359   0.500  1.00 20.00    -0.182 SA
HETATM    6  H25 UNL     1     -36.602  16.736   0.774  1.00 20.00     0.101 HD
ENDBRANCH   4   5
ENDBRANCH   3   4
ENDBRANCH   2   3
BRANCH   2   7
HETATM    7  C4  UNL     1     -33.871  14.905  -3.789  1.00 20.00     0.014 C 
BRANCH   7   8
HETATM    8  C6  UNL     1     -33.958  14.986  -5.313  1.00 20.00     0.073 C 
BRANCH   8   9
HETATM    9  S9  UNL     1     -35.684  14.837  -5.865  1.00 20.00    -0.173 SA
HETATM   10  C2  UNL     1     -36.247  13.636  -4.636  1.00 20.00     0.089 C 
ENDBRANCH   8   9
ENDBRANCH   7   8
ENDBRANCH   2   7
TORSDOF 6
ENDMDL
MODEL 6
REMARK VINA RESULT:      -3.0     14.710     16.453
REMARK  6 active torsions:
REMARK  status: ('A' for Active; 'I' for Inactive)
REMARK    1  A    between atoms: C3_3  and  C5_5 
REMARK    2  A    between atoms: C3_3  and  C7_7 
REMARK    3  A    between atoms: C4_4  and  C6_6 
REMARK    4  A    between atoms: C4_4  and  C7_7 
REMARK    5  A    between atoms: C5_5  and  S8_8 
REMARK    6  A    between atoms: C6_6  and  S9_9 
ROOT
HETATM    1  C1  UNL     1     -33.041  17.331  -2.919  1.00 20.00     0.010 C 
HETATM    2  C7  UNL     1     -33.748  15.991  -2.696  1.00 20.00    -0.017 C 
ENDROOT
BRANCH   2   3
HETATM    3  C3  UNL     1     -33.970  15.241  -4.030  1.00 20.00     0.014 C 
BRANCH   3   4
HETATM    4  C5  UNL     1     -34.717  13.913  -3.905  1.00 20.00     0.071 C 
BRANCH   4   5
HETATM    5  S8  UNL     1     -36.291  13.982  -4.812  1.00 20.00    -0.182 SA
HETATM    6  H25 UNL     1     -36.388  15.318  -4.824  1.00 20.00     0.101 HD
ENDBRANCH   4   5
ENDBRANCH   3   4
ENDBRANCH   2   3
BRANCH   2   7
HETATM    7  C4  UNL     1     -35.065  16.153  -1.908  1.00 20.00     0.014 C 
BRANCH   7   8
HETATM    8  C6  UNL     1     -35.197  17.527  -1.252  1.00 20.00     0.073 C 
BRANCH   8   9
HETATM    9  S9  UNL     1     -35.427  17.360   0.543  1.00 20.00    -0.173 SA
HETATM   10  C2  UNL     1     -33.920  18.204   1.077  1.00 20.00     0.089 C 
ENDBRANCH   8   9
ENDBRANCH   7   8
ENDBRANCH   2   7
TORSDOF 6
ENDMDL
MODEL 7
REMARK VINA RESULT:      -3.0     14.514     16.353
REMARK  6 active torsions:
REMARK  status: ('A' for Active; 'I' for Inactive)
REMARK    1  A    between atoms: C3_3  and  C5_5 
REMARK    2  A    between atoms: C3_3  and  C7_7 
REMARK    3  A    between atoms: C4_4  and  C6_6 
REMARK    4  A    between atoms: C4_4  and  C7_7 
REMARK    5  A    between atoms: C5_5  and  S8_8 
REMARK    6  A    between atoms: C6_6  and  S9_9 
ROOT
HETATM    1  C1  UNL     1     -33.179  16.341  -3.145  1.00 20.00     0.010 C 
HETATM    2  C7  UNL     1     -34.387  15.922  -2.302  1.00 20.00    -0.017 C 
ENDROOT
BRANCH   2   3
HETATM    3  C3  UNL     1     -35.554  15.434  -3.193  1.00 20.00     0.014 C 
BRANCH   3   4
HETATM    4  C5  UNL     1     -35.216  14.260  -4.111  1.00 20.00     0.071 C 
BRANCH   4   5
HETATM    5  S8  UNL     1     -35.723  14.621  -5.818  1.00 20.00    -0.182 SA
HETATM    6  H25 UNL     1     -36.074  13.366  -6.128  1.00 20.00     0.101 HD
ENDBRANCH   4   5
ENDBRANCH   3   4
ENDBRANCH   2   3
BRANCH   2   7
HETATM    7  C4  UNL     1     -34.836  17.038  -1.336  1.00 20.00     0.014 C 
BRANCH   7   8
HETATM    8  C6  UNL     1     -33.953  18.282  -1.418  1.00 20.00     0.073 C 
BRANCH   8   9
HETATM    9  S9  UNL     1     -33.058  18.535   0.144  1.00 20.00    -0.173 SA
HETATM   10  C2  UNL     1     -31.373  18.386  -0.494  1.00 20.00     0.089 C 
ENDBRANCH   8   9
ENDBRANCH   7   8
ENDBRANCH   2   7
TORSDOF 6
ENDMDL
MODEL 8
REMARK VINA RESULT:      -3.0     16.475     17.663
REMARK  6 active torsions:
REMARK  status: ('A' for Active; 'I' for Inactive)
REMARK    1  A    between atoms: C3_3  and  C5_5 
REMARK    2  A    between atoms: C3_3  and  C7_7 
REMARK    3  A    between atoms: C4_4  and  C6_6 
REMARK    4  A    between atoms: C4_4  and  C7_7 
REMARK    5  A    between atoms: C5_5  and  S8_8 
REMARK    6  A    between atoms: C6_6  and  S9_9 
ROOT
HETATM    1  C1  UNL     1     -35.269  16.590  -1.811  1.00 20.00     0.010 C 
HETATM    2  C7  UNL     1     -34.105  15.880  -2.509  1.00 20.00    -0.017 C 
ENDROOT
BRANCH   2   3
HETATM    3  C3  UNL     1     -33.075  16.894  -3.060  1.00 20.00     0.014 C 
BRANCH   3   4
HETATM    4  C5  UNL     1     -33.567  18.340  -3.124  1.00 20.00     0.071 C 
BRANCH   4   5
HETATM    5  S8  UNL     1     -34.026  18.780  -4.827  1.00 20.00    -0.182 SA
HETATM    6  H25 UNL     1     -34.485  17.568  -5.165  1.00 20.00     0.101 HD
ENDBRANCH   4   5
ENDBRANCH   3   4
ENDBRANCH   2   3
BRANCH   2   7
HETATM    7  C4  UNL     1     -34.590  14.909  -3.605  1.00 20.00     0.014 C 
BRANCH   7   8
HETATM    8  C6  UNL     1     -33.565  14.719  -4.723  1.00 20.00     0.073 C 
BRANCH   8   9
HETATM    9  S9  UNL     1     -34.298  15.119  -6.338  1.00 20.00    -0.173 SA
HETATM   10  C2  UNL     1     -35.968  15.518  -5.774  1.00 20.00     0.089 C 
ENDBRANCH   8   9
ENDBRANCH   7   8
ENDBRANCH   2   7
TORSDOF 6
ENDMDL
MODEL 9
REMARK VINA RESULT:      -3.0     15.946     17.614
REMARK  6 active torsions:
REMARK  status: ('A' for Active; 'I' for Inactive)
REMARK    1  A    between atoms: C3_3  and  C5_5 
REMARK    2  A    between atoms: C3_3  and  C7_7 
REMARK    3  A    between atoms: C4_4  and  C6_6 
REMARK    4  A    between atoms: C4_4  and  C7_7 
REMARK    5  A    between atoms: C5_5  and  S8_8 
REMARK    6  A    between atoms: C6_6  and  S9_9 
ROOT
HETATM    1  C1  UNL     1     -33.317  14.534  -4.503  1.00 20.00     0.010 C 
HETATM    2  C7  UNL     1     -34.575  14.365  -3.645  1.00 20.00    -0.017 C 
ENDROOT
BRANCH   2   3
HETATM    3  C3  UNL     1     -35.818  14.075  -4.518  1.00 20.00     0.014 C 
BRANCH   3   4
HETATM    4  C5  UNL     1     -35.706  14.540  -5.970  1.00 20.00     0.071 C 
BRANCH   4   5
HETATM    5  S8  UNL     1     -36.489  16.167  -6.179  1.00 20.00    -0.182 SA
HETATM    6  H25 UNL     1     -37.029  15.909  -7.378  1.00 20.00     0.101 HD
ENDBRANCH   4   5
ENDBRANCH   3   4
ENDBRANCH   2   3
BRANCH   2   7
HETATM    7  C4  UNL     1     -34.806  15.569  -2.708  1.00 20.00     0.014 C 
BRANCH   7   8
HETATM    8  C6  UNL     1     -33.603  16.511  -2.648  1.00 20.00     0.073 C 
BRANCH   8   9
HETATM    9  S9  UNL     1     -33.808  17.725  -1.311  1.00 20.00    -0.173 SA
HETATM   10  C2  UNL     1     -35.359  17.098  -0.625  1.00 20.00     0.089 C 
ENDBRANCH   8   9
ENDBRANCH   7   8
ENDBRANCH   2   7
TORSDOF 6
ENDMDL
