MODEL 1
REMARK VINA RESULT:      -3.6      0.000      0.000
REMARK  5 active torsions:
REMARK  status: ('A' for Active; 'I' for Inactive)
REMARK    1  A    between atoms: C4_4  and  C6_6 
REMARK    2  A    between atoms: C4_4  and  O8_8 
REMARK    3  A    between atoms: C5_5  and  C6_6 
REMARK    4  A    between atoms: C5_5  and  S9_9 
REMARK    5  A    between atoms: C7_7  and  O8_8 
ROOT
HETATM    1  C4  UNL     1     -33.451   6.194   3.025  1.00 20.00     0.173 C 
ENDROOT
BRANCH   1   2
HETATM    2  C6  UNL     1     -32.669   7.474   2.703  1.00 20.00     0.014 C 
HETATM    3  C1  UNL     1     -31.443   7.622   3.613  1.00 20.00     0.012 C 
BRANCH   2   4
HETATM    4  C5  UNL     1     -32.316   7.576   1.209  1.00 20.00     0.077 C 
BRANCH   4   5
HETATM    5  S9  UNL     1     -33.035   8.998   0.328  1.00 20.00    -0.182 SA
HETATM    6  H25 UNL     1     -31.874   9.637   0.130  1.00 20.00     0.101 HD
ENDBRANCH   4   5
ENDBRANCH   2   4
ENDBRANCH   1   2
BRANCH   1   7
HETATM    7  O8  UNL     1     -34.369   6.446   4.083  1.00 20.00    -0.386 OA
BRANCH   7   8
HETATM    8  C7  UNL     1     -34.916   5.240   4.596  1.00 20.00     0.113 C 
HETATM    9  C2  UNL     1     -34.221   4.057   3.940  1.00 20.00     0.039 C 
HETATM   10  C3  UNL     1     -34.761   5.221   6.108  1.00 20.00     0.039 C 
ENDBRANCH   7   8
ENDBRANCH   1   7
TORSDOF 5
ENDMDL
MODEL 2
REMARK VINA RESULT:      -3.4      2.793      4.802
REMARK  5 active torsions:
REMARK  status: ('A' for Active; 'I' for Inactive)
REMARK    1  A    between atoms: C4_4  and  C6_6 
REMARK    2  A    between atoms: C4_4  and  O8_8 
REMARK    3  A    between atoms: C5_5  and  C6_6 
REMARK    4  A    between atoms: C5_5  and  S9_9 
REMARK    5  A    between atoms: C7_7  and  O8_8 
ROOT
HETATM    1  C4  UNL     1     -32.160   7.228   2.806  1.00 20.00     0.173 C 
ENDROOT
BRANCH   1   2
HETATM    2  C6  UNL     1     -33.428   6.379   2.963  1.00 20.00     0.014 C 
HETATM    3  C1  UNL     1     -33.184   4.928   2.530  1.00 20.00     0.012 C 
BRANCH   2   4
HETATM    4  C5  UNL     1     -34.023   6.484   4.378  1.00 20.00     0.077 C 
BRANCH   4   5
HETATM    5  S9  UNL     1     -34.966   5.033   4.944  1.00 20.00    -0.182 SA
HETATM    6  H25 UNL     1     -34.509   4.198   4.002  1.00 20.00     0.101 HD
ENDBRANCH   4   5
ENDBRANCH   2   4
ENDBRANCH   1   2
BRANCH   1   7
HETATM    7  O8  UNL     1     -32.005   7.610   1.444  1.00 20.00    -0.386 OA
BRANCH   7   8
HETATM    8  C7  UNL     1     -33.115   8.368   0.986  1.00 20.00     0.113 C 
HETATM    9  C2  UNL     1     -32.928   9.823   1.386  1.00 20.00     0.039 C 
HETATM   10  C3  UNL     1     -33.246   8.207  -0.520  1.00 20.00     0.039 C 
ENDBRANCH   7   8
ENDBRANCH   1   7
TORSDOF 5
ENDMDL
MODEL 3
REMARK VINA RESULT:      -3.3     15.822     16.751
REMARK  5 active torsions:
REMARK  status: ('A' for Active; 'I' for Inactive)
REMARK    1  A    between atoms: C4_4  and  C6_6 
REMARK    2  A    between atoms: C4_4  and  O8_8 
REMARK    3  A    between atoms: C5_5  and  C6_6 
REMARK    4  A    between atoms: C5_5  and  S9_9 
REMARK    5  A    between atoms: C7_7  and  O8_8 
ROOT
HETATM    1  C4  UNL     1     -24.283  17.162   9.945  1.00 20.00     0.173 C 
ENDROOT
BRANCH   1   2
HETATM    2  C6  UNL     1     -24.784  17.069  11.392  1.00 20.00     0.014 C 
HETATM    3  C1  UNL     1     -24.787  15.619  11.890  1.00 20.00     0.012 C 
BRANCH   2   4
HETATM    4  C5  UNL     1     -24.018  18.018  12.331  1.00 20.00     0.077 C 
BRANCH   4   5
HETATM    5  S9  UNL     1     -22.205  17.854  12.305  1.00 20.00    -0.182 SA
HETATM    6  H25 UNL     1     -21.948  19.167  12.374  1.00 20.00     0.101 HD
ENDBRANCH   4   5
ENDBRANCH   2   4
ENDBRANCH   1   2
BRANCH   1   7
HETATM    7  O8  UNL     1     -24.763  18.360   9.347  1.00 20.00    -0.386 OA
BRANCH   7   8
HETATM    8  C7  UNL     1     -23.839  18.874   8.398  1.00 20.00     0.113 C 
HETATM    9  C2  UNL     1     -22.722  17.864   8.189  1.00 20.00     0.039 C 
HETATM   10  C3  UNL     1     -24.572  19.187   7.103  1.00 20.00     0.039 C 
ENDBRANCH   7   8
ENDBRANCH   1   7
TORSDOF 5
ENDMDL
MODEL 4
REMARK VINA RESULT:      -3.3     11.420     12.466
REMARK  5 active torsions:
REMARK  status: ('A' for Active; 'I' for Inactive)
REMARK    1  A    between atoms: C4_4  and  C6_6 
REMARK    2  A    between atoms: C4_4  and  O8_8 
REMARK    3  A    between atoms: C5_5  and  C6_6 
REMARK    4  A    between atoms: C5_5  and  S9_9 
REMARK    5  A    between atoms: C7_7  and  O8_8 
ROOT
HETATM    1  C4  UNL     1     -33.029  15.053  -4.118  1.00 20.00     0.173 C 
ENDROOT
BRANCH   1   2
HETATM    2  C6  UNL     1     -33.874  16.229  -3.611  1.00 20.00     0.014 C 
HETATM    3  C1  UNL     1     -34.678  15.842  -2.364  1.00 20.00     0.012 C 
BRANCH   2   4
HETATM    4  C5  UNL     1     -33.031  17.500  -3.405  1.00 20.00     0.077 C 
BRANCH   4   5
HETATM    5  S9  UNL     1     -32.689  17.942  -1.672  1.00 20.00    -0.182 SA
HETATM    6  H25 UNL     1     -31.838  16.934  -1.440  1.00 20.00     0.101 HD
ENDBRANCH   4   5
ENDBRANCH   2   4
ENDBRANCH   1   2
BRANCH   1   7
HETATM    7  O8  UNL     1     -33.809  14.243  -4.991  1.00 20.00    -0.386 OA
BRANCH   7   8
HETATM    8  C7  UNL     1     -34.529  15.033  -5.927  1.00 20.00     0.113 C 
HETATM    9  C2  UNL     1     -33.755  15.089  -7.235  1.00 20.00     0.039 C 
HETATM   10  C3  UNL     1     -35.918  14.444  -6.115  1.00 20.00     0.039 C 
ENDBRANCH   7   8
ENDBRANCH   1   7
TORSDOF 5
ENDMDL
MODEL 5
REMARK VINA RESULT:      -3.3     15.773     16.625
REMARK  5 active torsions:
REMARK  status: ('A' for Active; 'I' for Inactive)
REMARK    1  A    between atoms: C4_4  and  C6_6 
REMARK    2  A    between atoms: C4_4  and  O8_8 
REMARK    3  A    between atoms: C5_5  and  C6_6 
REMARK    4  A    between atoms: C5_5  and  S9_9 
REMARK    5  A    between atoms: C7_7  and  O8_8 
ROOT
HETATM    1  C4  UNL     1     -24.417  18.455  10.459  1.00 20.00     0.173 C 
ENDROOT
BRANCH   1   2
HETATM    2  C6  UNL     1     -25.262  18.469  11.740  1.00 20.00     0.014 C 
HETATM    3  C1  UNL     1     -26.561  19.260  11.543  1.00 20.00     0.012 C 
BRANCH   2   4
HETATM    4  C5  UNL     1     -25.506  17.051  12.288  1.00 20.00     0.077 C 
BRANCH   4   5
HETATM    5  S9  UNL     1     -24.426  15.752  11.610  1.00 20.00    -0.182 SA
HETATM    6  H25 UNL     1     -23.598  16.584  10.966  1.00 20.00     0.101 HD
ENDBRANCH   4   5
ENDBRANCH   2   4
ENDBRANCH   1   2
BRANCH   1   7
HETATM    7  O8  UNL     1     -25.179  18.978   9.377  1.00 20.00    -0.386 OA
BRANCH   7   8
HETATM    8  C7  UNL     1     -24.366  19.218   8.237  1.00 20.00     0.113 C 
HETATM    9  C2  UNL     1     -23.204  18.236   8.235  1.00 20.00     0.039 C 
HETATM   10  C3  UNL     1     -25.214  19.094   6.982  1.00 20.00     0.039 C 
ENDBRANCH   7   8
ENDBRANCH   1   7
TORSDOF 5
ENDMDL
MODEL 6
REMARK VINA RESULT:      -3.2     11.226     11.942
REMARK  5 active torsions:
REMARK  status: ('A' for Active; 'I' for Inactive)
REMARK    1  A    between atoms: C4_4  and  C6_6 
REMARK    2  A    between atoms: C4_4  and  O8_8 
REMARK    3  A    between atoms: C5_5  and  C6_6 
REMARK    4  A    between atoms: C5_5  and  S9_9 
REMARK    5  A    between atoms: C7_7  and  O8_8 
ROOT
HETATM    1  C4  UNL     1     -34.865  14.411  -3.927  1.00 20.00     0.173 C 
ENDROOT
BRANCH   1   2
HETATM    2  C6  UNL     1     -35.993  14.028  -4.893  1.00 20.00     0.014 C 
HETATM    3  C1  UNL     1     -37.370  14.362  -4.305  1.00 20.00     0.012 C 
BRANCH   2   4
HETATM    4  C5  UNL     1     -35.784  14.629  -6.294  1.00 20.00     0.077 C 
BRANCH   4   5
HETATM    5  S9  UNL     1     -34.080  15.137  -6.684  1.00 20.00    -0.182 SA
HETATM    6  H25 UNL     1     -34.287  15.318  -7.995  1.00 20.00     0.101 HD
ENDBRANCH   4   5
ENDBRANCH   2   4
ENDBRANCH   1   2
BRANCH   1   7
HETATM    7  O8  UNL     1     -35.390  15.202  -2.867  1.00 20.00    -0.386 OA
BRANCH   7   8
HETATM    8  C7  UNL     1     -34.668  16.417  -2.718  1.00 20.00     0.113 C 
HETATM    9  C2  UNL     1     -34.821  16.919  -1.291  1.00 20.00     0.039 C 
HETATM   10  C3  UNL     1     -33.211  16.181  -3.084  1.00 20.00     0.039 C 
ENDBRANCH   7   8
ENDBRANCH   1   7
TORSDOF 5
ENDMDL
MODEL 7
REMARK VINA RESULT:      -3.2      2.334      4.382
REMARK  5 active torsions:
REMARK  status: ('A' for Active; 'I' for Inactive)
REMARK    1  A    between atoms: C4_4  and  C6_6 
REMARK    2  A    between atoms: C4_4  and  O8_8 
REMARK    3  A    between atoms: C5_5  and  C6_6 
REMARK    4  A    between atoms: C5_5  and  S9_9 
REMARK    5  A    between atoms: C7_7  and  O8_8 
ROOT
HETATM    1  C4  UNL     1     -34.096   6.377   3.432  1.00 20.00     0.173 C 
ENDROOT
BRANCH   1   2
HETATM    2  C6  UNL     1     -34.720   5.128   4.069  1.00 20.00     0.014 C 
HETATM    3  C1  UNL     1     -34.002   3.852   3.613  1.00 20.00     0.012 C 
BRANCH   2   4
HETATM    4  C5  UNL     1     -34.812   5.245   5.601  1.00 20.00     0.077 C 
BRANCH   4   5
HETATM    5  S9  UNL     1     -34.070   6.744   6.320  1.00 20.00    -0.182 SA
HETATM    6  H25 UNL     1     -34.339   6.431   7.594  1.00 20.00     0.101 HD
ENDBRANCH   4   5
ENDBRANCH   2   4
ENDBRANCH   1   2
BRANCH   1   7
HETATM    7  O8  UNL     1     -33.137   5.988   2.454  1.00 20.00    -0.386 OA
BRANCH   7   8
HETATM    8  C7  UNL     1     -32.176   7.011   2.233  1.00 20.00     0.113 C 
HETATM    9  C2  UNL     1     -32.752   8.040   1.274  1.00 20.00     0.039 C 
HETATM   10  C3  UNL     1     -31.789   7.631   3.566  1.00 20.00     0.039 C 
ENDBRANCH   7   8
ENDBRANCH   1   7
TORSDOF 5
ENDMDL
MODEL 8
REMARK VINA RESULT:      -3.2     10.989     11.902
REMARK  5 active torsions:
REMARK  status: ('A' for Active; 'I' for Inactive)
REMARK    1  A    between atoms: C4_4  and  C6_6 
REMARK    2  A    between atoms: C4_4  and  O8_8 
REMARK    3  A    between atoms: C5_5  and  C6_6 
REMARK    4  A    between atoms: C5_5  and  S9_9 
REMARK    5  A    between atoms: C7_7  and  O8_8 
ROOT
HETATM    1  C4  UNL     1     -33.285  15.771  -3.630  1.00 20.00     0.173 C 
ENDROOT
BRANCH   1   2
HETATM    2  C6  UNL     1     -33.744  14.618  -4.532  1.00 20.00     0.014 C 
HETATM    3  C1  UNL     1     -34.965  13.901  -3.942  1.00 20.00     0.012 C 
BRANCH   2   4
HETATM    4  C5  UNL     1     -33.966  15.073  -5.985  1.00 20.00     0.077 C 
BRANCH   4   5
HETATM    5  S9  UNL     1     -35.659  14.866  -6.623  1.00 20.00    -0.182 SA
HETATM    6  H25 UNL     1     -35.596  13.533  -6.745  1.00 20.00     0.101 HD
ENDBRANCH   4   5
ENDBRANCH   2   4
ENDBRANCH   1   2
BRANCH   1   7
HETATM    7  O8  UNL     1     -34.057  15.782  -2.435  1.00 20.00    -0.386 OA
BRANCH   7   8
HETATM    8  C7  UNL     1     -34.247  17.104  -1.951  1.00 20.00     0.113 C 
HETATM    9  C2  UNL     1     -35.168  17.067  -0.741  1.00 20.00     0.039 C 
HETATM   10  C3  UNL     1     -32.895  17.713  -1.615  1.00 20.00     0.039 C 
ENDBRANCH   7   8
ENDBRANCH   1   7
TORSDOF 5
ENDMDL
MODEL 9
REMARK VINA RESULT:      -3.2     11.304     11.730
REMARK  5 active torsions:
REMARK  status: ('A' for Active; 'I' for Inactive)
REMARK    1  A    between atoms: C4_4  and  C6_6 
REMARK    2  A    between atoms: C4_4  and  O8_8 
REMARK    3  A    between atoms: C5_5  and  C6_6 
REMARK    4  A    between atoms: C5_5  and  S9_9 
REMARK    5  A    between atoms: C7_7  and  O8_8 
ROOT
HETATM    1  C4  UNL     1     -34.304  15.029  -4.024  1.00 20.00     0.173 C 
ENDROOT
BRANCH   1   2
HETATM    2  C6  UNL     1     -34.020  15.809  -2.734  1.00 20.00     0.014 C 
HETATM    3  C1  UNL     1     -33.035  16.958  -2.983  1.00 20.00     0.012 C 
BRANCH   2   4
HETATM    4  C5  UNL     1     -35.314  16.275  -2.043  1.00 20.00     0.077 C 
BRANCH   4   5
HETATM    5  S9  UNL     1     -35.084  17.322  -0.571  1.00 20.00    -0.182 SA
HETATM    6  H25 UNL     1     -35.342  18.483  -1.187  1.00 20.00     0.101 HD
ENDBRANCH   4   5
ENDBRANCH   2   4
ENDBRANCH   1   2
BRANCH   1   7
HETATM    7  O8  UNL     1     -35.234  13.985  -3.758  1.00 20.00    -0.386 OA
BRANCH   7   8
HETATM    8  C7  UNL     1     -36.187  13.859  -4.803  1.00 20.00     0.113 C 
HETATM    9  C2  UNL     1     -37.516  14.435  -4.341  1.00 20.00     0.039 C 
HETATM   10  C3  UNL     1     -35.665  14.564  -6.045  1.00 20.00     0.039 C 
ENDBRANCH   7   8
ENDBRANCH   1   7
TORSDOF 5
ENDMDL
