MODEL 1
REMARK VINA RESULT:      -3.5      0.000      0.000
REMARK  5 active torsions:
REMARK  status: ('A' for Active; 'I' for Inactive)
REMARK    1  A    between atoms: C1_1  and  C7_7 
REMARK    2  A    between atoms: C2_2  and  C8_8 
REMARK    3  A    between atoms: C5_5  and  N9_9 
REMARK    4  A    between atoms: C7_7  and  N9_9 
REMARK    5  A    between atoms: C8_8  and  S10_10 
ROOT
HETATM    1  C7  UNL     1     -25.611  19.260   8.586  1.00 20.00     0.299 C 
ENDROOT
BRANCH   1   2
HETATM    2  C1  UNL     1     -25.215  19.232   7.141  1.00 20.00    -0.000 C 
HETATM    3  C2  UNL     1     -26.093  19.230   6.127  1.00 20.00    -0.019 C 
BRANCH   3   4
HETATM    4  C8  UNL     1     -25.695  19.207   4.685  1.00 20.00     0.097 C 
BRANCH   4   5
HETATM    5  S10 UNL     1     -27.165  19.084   3.633  1.00 20.00    -0.178 SA
HETATM    6  H25 UNL     1     -26.507  18.829   2.494  1.00 20.00     0.101 HD
ENDBRANCH   4   5
ENDBRANCH   3   4
ENDBRANCH   1   2
BRANCH   1   7
HETATM    7  N9  UNL     1     -24.491  18.914   9.456  1.00 20.00     0.092 N 
HETATM    8  C6  UNL     1     -24.972  18.270  10.680  1.00 20.00     0.310 C 
BRANCH   7   9
HETATM    9  C5  UNL     1     -23.547  18.041   8.758  1.00 20.00     0.223 A 
HETATM   10  C3  UNL     1     -22.067  18.192   8.978  1.00 20.00     0.038 A 
HETATM   11  C4  UNL     1     -22.784  16.985   9.508  1.00 20.00     0.038 A 
ENDBRANCH   7   9
ENDBRANCH   1   7
TORSDOF 5
ENDMDL
MODEL 2
REMARK VINA RESULT:      -3.5      3.697      4.752
REMARK  5 active torsions:
REMARK  status: ('A' for Active; 'I' for Inactive)
REMARK    1  A    between atoms: C1_1  and  C7_7 
REMARK    2  A    between atoms: C2_2  and  C8_8 
REMARK    3  A    between atoms: C5_5  and  N9_9 
REMARK    4  A    between atoms: C7_7  and  N9_9 
REMARK    5  A    between atoms: C8_8  and  S10_10 
ROOT
HETATM    1  C7  UNL     1     -24.816  17.709  12.314  1.00 20.00     0.299 C 
ENDROOT
BRANCH   1   2
HETATM    2  C1  UNL     1     -26.012  18.524  11.924  1.00 20.00    -0.000 C 
HETATM    3  C2  UNL     1     -27.272  18.066  11.969  1.00 20.00    -0.019 C 
BRANCH   3   4
HETATM    4  C8  UNL     1     -28.464  18.884  11.583  1.00 20.00     0.097 C 
BRANCH   4   5
HETATM    5  S10 UNL     1     -29.953  17.850  11.574  1.00 20.00    -0.178 SA
HETATM    6  H25 UNL     1     -29.359  16.736  12.024  1.00 20.00     0.101 HD
ENDBRANCH   4   5
ENDBRANCH   3   4
ENDBRANCH   1   2
BRANCH   1   7
HETATM    7  N9  UNL     1     -23.620  18.133  11.593  1.00 20.00     0.092 N 
HETATM    8  C6  UNL     1     -22.414  17.754  12.332  1.00 20.00     0.310 C 
BRANCH   7   9
HETATM    9  C5  UNL     1     -23.596  17.554  10.250  1.00 20.00     0.223 A 
HETATM   10  C3  UNL     1     -23.419  18.437   9.044  1.00 20.00     0.038 A 
HETATM   11  C4  UNL     1     -22.318  17.505   9.460  1.00 20.00     0.038 A 
ENDBRANCH   7   9
ENDBRANCH   1   7
TORSDOF 5
ENDMDL
MODEL 3
REMARK VINA RESULT:      -3.4     10.750     13.512
REMARK  5 active torsions:
REMARK  status: ('A' for Active; 'I' for Inactive)
REMARK    1  A    between atoms: C1_1  and  C7_7 
REMARK    2  A    between atoms: C2_2  and  C8_8 
REMARK    3  A    between atoms: C5_5  and  N9_9 
REMARK    4  A    between atoms: C7_7  and  N9_9 
REMARK    5  A    between atoms: C8_8  and  S10_10 
ROOT
HETATM    1  C7  UNL     1     -32.901  17.659  -2.427  1.00 20.00     0.299 C 
ENDROOT
BRANCH   1   2
HETATM    2  C1  UNL     1     -32.525  18.155  -1.064  1.00 20.00    -0.000 C 
HETATM    3  C2  UNL     1     -31.261  18.236  -0.623  1.00 20.00    -0.019 C 
BRANCH   3   4
HETATM    4  C8  UNL     1     -30.888  18.736   0.737  1.00 20.00     0.097 C 
BRANCH   4   5
HETATM    5  S10 UNL     1     -32.219  18.387   1.917  1.00 20.00    -0.178 SA
HETATM    6  H25 UNL     1     -31.656  17.294   2.451  1.00 20.00     0.101 HD
ENDBRANCH   4   5
ENDBRANCH   3   4
ENDBRANCH   1   2
BRANCH   1   7
HETATM    7  N9  UNL     1     -33.632  16.398  -2.357  1.00 20.00     0.092 N 
HETATM    8  C6  UNL     1     -34.883  16.569  -1.618  1.00 20.00     0.310 C 
BRANCH   7   9
HETATM    9  C5  UNL     1     -33.900  15.883  -3.700  1.00 20.00     0.223 A 
HETATM   10  C3  UNL     1     -33.115  14.719  -4.240  1.00 20.00     0.038 A 
HETATM   11  C4  UNL     1     -34.563  14.548  -3.889  1.00 20.00     0.038 A 
ENDBRANCH   7   9
ENDBRANCH   1   7
TORSDOF 5
ENDMDL
MODEL 4
REMARK VINA RESULT:      -3.4     12.077     14.561
REMARK  5 active torsions:
REMARK  status: ('A' for Active; 'I' for Inactive)
REMARK    1  A    between atoms: C1_1  and  C7_7 
REMARK    2  A    between atoms: C2_2  and  C8_8 
REMARK    3  A    between atoms: C5_5  and  N9_9 
REMARK    4  A    between atoms: C7_7  and  N9_9 
REMARK    5  A    between atoms: C8_8  and  S10_10 
ROOT
HETATM    1  C7  UNL     1     -34.874  16.290  -1.967  1.00 20.00     0.299 C 
ENDROOT
BRANCH   1   2
HETATM    2  C1  UNL     1     -33.626  17.117  -2.028  1.00 20.00    -0.000 C 
HETATM    3  C2  UNL     1     -33.182  17.873  -1.013  1.00 20.00    -0.019 C 
BRANCH   3   4
HETATM    4  C8  UNL     1     -31.933  18.694  -1.075  1.00 20.00     0.097 C 
BRANCH   4   5
HETATM    5  S10 UNL     1     -30.978  18.494   0.453  1.00 20.00    -0.178 SA
HETATM    6  H25 UNL     1     -31.221  17.186   0.606  1.00 20.00     0.101 HD
ENDBRANCH   4   5
ENDBRANCH   3   4
ENDBRANCH   1   2
BRANCH   1   7
HETATM    7  N9  UNL     1     -34.894  15.270  -3.011  1.00 20.00     0.092 N 
HETATM    8  C6  UNL     1     -36.205  15.226  -3.661  1.00 20.00     0.310 C 
BRANCH   7   9
HETATM    9  C5  UNL     1     -33.845  15.524  -3.999  1.00 20.00     0.223 A 
HETATM   10  C3  UNL     1     -32.911  14.422  -4.417  1.00 20.00     0.038 A 
HETATM   11  C4  UNL     1     -33.938  14.940  -5.381  1.00 20.00     0.038 A 
ENDBRANCH   7   9
ENDBRANCH   1   7
TORSDOF 5
ENDMDL
MODEL 5
REMARK VINA RESULT:      -3.4     13.286     16.024
REMARK  5 active torsions:
REMARK  status: ('A' for Active; 'I' for Inactive)
REMARK    1  A    between atoms: C1_1  and  C7_7 
REMARK    2  A    between atoms: C2_2  and  C8_8 
REMARK    3  A    between atoms: C5_5  and  N9_9 
REMARK    4  A    between atoms: C7_7  and  N9_9 
REMARK    5  A    between atoms: C8_8  and  S10_10 
ROOT
HETATM    1  C7  UNL     1     -34.958  15.051  -3.137  1.00 20.00     0.299 C 
ENDROOT
BRANCH   1   2
HETATM    2  C1  UNL     1     -33.769  15.957  -3.027  1.00 20.00    -0.000 C 
HETATM    3  C2  UNL     1     -33.690  16.981  -2.164  1.00 20.00    -0.019 C 
BRANCH   3   4
HETATM    4  C8  UNL     1     -32.500  17.881  -2.053  1.00 20.00     0.097 C 
BRANCH   4   5
HETATM    5  S10 UNL     1     -32.340  18.500  -0.357  1.00 20.00    -0.178 SA
HETATM    6  H25 UNL     1     -32.156  17.303   0.217  1.00 20.00     0.101 HD
ENDBRANCH   4   5
ENDBRANCH   3   4
ENDBRANCH   1   2
BRANCH   1   7
HETATM    7  N9  UNL     1     -34.995  14.368  -4.426  1.00 20.00     0.092 N 
HETATM    8  C6  UNL     1     -36.248  13.627  -4.579  1.00 20.00     0.310 C 
BRANCH   7   9
HETATM    9  C5  UNL     1     -34.834  15.326  -5.520  1.00 20.00     0.223 A 
HETATM   10  C3  UNL     1     -33.897  15.029  -6.660  1.00 20.00     0.038 A 
HETATM   11  C4  UNL     1     -35.380  15.024  -6.888  1.00 20.00     0.038 A 
ENDBRANCH   7   9
ENDBRANCH   1   7
TORSDOF 5
ENDMDL
MODEL 6
REMARK VINA RESULT:      -3.3     12.256     13.984
REMARK  5 active torsions:
REMARK  status: ('A' for Active; 'I' for Inactive)
REMARK    1  A    between atoms: C1_1  and  C7_7 
REMARK    2  A    between atoms: C2_2  and  C8_8 
REMARK    3  A    between atoms: C5_5  and  N9_9 
REMARK    4  A    between atoms: C7_7  and  N9_9 
REMARK    5  A    between atoms: C8_8  and  S10_10 
ROOT
HETATM    1  C7  UNL     1     -33.098  17.530  -2.813  1.00 20.00     0.299 C 
ENDROOT
BRANCH   1   2
HETATM    2  C1  UNL     1     -33.284  16.116  -3.272  1.00 20.00    -0.000 C 
HETATM    3  C2  UNL     1     -34.483  15.544  -3.460  1.00 20.00    -0.019 C 
BRANCH   3   4
HETATM    4  C8  UNL     1     -34.666  14.134  -3.923  1.00 20.00     0.097 C 
BRANCH   4   5
HETATM    5  S10 UNL     1     -36.345  13.899  -4.563  1.00 20.00    -0.178 SA
HETATM    6  H25 UNL     1     -36.063  12.831  -5.322  1.00 20.00     0.101 HD
ENDBRANCH   4   5
ENDBRANCH   3   4
ENDBRANCH   1   2
BRANCH   1   7
HETATM    7  N9  UNL     1     -32.965  17.610  -1.362  1.00 20.00     0.092 N 
HETATM    8  C6  UNL     1     -31.833  18.462  -0.996  1.00 20.00     0.310 C 
BRANCH   7   9
HETATM    9  C5  UNL     1     -34.199  18.117  -0.759  1.00 20.00     0.223 A 
HETATM   10  C3  UNL     1     -35.208  17.165  -0.178  1.00 20.00     0.038 A 
HETATM   11  C4  UNL     1     -34.406  18.053   0.728  1.00 20.00     0.038 A 
ENDBRANCH   7   9
ENDBRANCH   1   7
TORSDOF 5
ENDMDL
MODEL 7
REMARK VINA RESULT:      -3.3     13.933     15.995
REMARK  5 active torsions:
REMARK  status: ('A' for Active; 'I' for Inactive)
REMARK    1  A    between atoms: C1_1  and  C7_7 
REMARK    2  A    between atoms: C2_2  and  C8_8 
REMARK    3  A    between atoms: C5_5  and  N9_9 
REMARK    4  A    between atoms: C7_7  and  N9_9 
REMARK    5  A    between atoms: C8_8  and  S10_10 
ROOT
HETATM    1  C7  UNL     1     -33.393  15.559  -3.667  1.00 20.00     0.299 C 
ENDROOT
BRANCH   1   2
HETATM    2  C1  UNL     1     -34.322  15.842  -2.526  1.00 20.00    -0.000 C 
HETATM    3  C2  UNL     1     -34.239  16.933  -1.750  1.00 20.00    -0.019 C 
BRANCH   3   4
HETATM    4  C8  UNL     1     -35.170  17.215  -0.614  1.00 20.00     0.097 C 
BRANCH   4   5
HETATM    5  S10 UNL     1     -34.337  18.223   0.642  1.00 20.00    -0.178 SA
HETATM    6  H25 UNL     1     -33.112  18.138   0.106  1.00 20.00     0.101 HD
ENDBRANCH   4   5
ENDBRANCH   3   4
ENDBRANCH   1   2
BRANCH   1   7
HETATM    7  N9  UNL     1     -34.024  14.714  -4.676  1.00 20.00     0.092 N 
HETATM    8  C6  UNL     1     -35.149  13.976  -4.098  1.00 20.00     0.310 C 
BRANCH   7   9
HETATM    9  C5  UNL     1     -34.473  15.518  -5.813  1.00 20.00     0.223 A 
HETATM   10  C3  UNL     1     -33.966  15.225  -7.199  1.00 20.00     0.038 A 
HETATM   11  C4  UNL     1     -35.395  14.933  -6.847  1.00 20.00     0.038 A 
ENDBRANCH   7   9
ENDBRANCH   1   7
TORSDOF 5
ENDMDL
MODEL 8
REMARK VINA RESULT:      -3.3     12.023     13.742
REMARK  5 active torsions:
REMARK  status: ('A' for Active; 'I' for Inactive)
REMARK    1  A    between atoms: C1_1  and  C7_7 
REMARK    2  A    between atoms: C2_2  and  C8_8 
REMARK    3  A    between atoms: C5_5  and  N9_9 
REMARK    4  A    between atoms: C7_7  and  N9_9 
REMARK    5  A    between atoms: C8_8  and  S10_10 
ROOT
HETATM    1  C7  UNL     1     -35.098  16.860  -1.315  1.00 20.00     0.299 C 
ENDROOT
BRANCH   1   2
HETATM    2  C1  UNL     1     -34.402  15.998  -2.324  1.00 20.00    -0.000 C 
HETATM    3  C2  UNL     1     -35.040  15.162  -3.156  1.00 20.00    -0.019 C 
BRANCH   3   4
HETATM    4  C8  UNL     1     -34.343  14.306  -4.166  1.00 20.00     0.097 C 
BRANCH   4   5
HETATM    5  S10 UNL     1     -34.305  15.142  -5.774  1.00 20.00    -0.178 SA
HETATM    6  H25 UNL     1     -32.971  15.212  -5.869  1.00 20.00     0.101 HD
ENDBRANCH   4   5
ENDBRANCH   3   4
ENDBRANCH   1   2
BRANCH   1   7
HETATM    7  N9  UNL     1     -34.251  17.966  -0.878  1.00 20.00     0.092 N 
HETATM    8  C6  UNL     1     -34.193  18.021   0.584  1.00 20.00     0.310 C 
BRANCH   7   9
HETATM    9  C5  UNL     1     -32.905  17.835  -1.436  1.00 20.00     0.223 A 
HETATM   10  C3  UNL     1     -32.227  19.017  -2.072  1.00 20.00     0.038 A 
HETATM   11  C4  UNL     1     -31.730  18.484  -0.761  1.00 20.00     0.038 A 
ENDBRANCH   7   9
ENDBRANCH   1   7
TORSDOF 5
ENDMDL
MODEL 9
REMARK VINA RESULT:      -3.3     22.773     24.156
REMARK  5 active torsions:
REMARK  status: ('A' for Active; 'I' for Inactive)
REMARK    1  A    between atoms: C1_1  and  C7_7 
REMARK    2  A    between atoms: C2_2  and  C8_8 
REMARK    3  A    between atoms: C5_5  and  N9_9 
REMARK    4  A    between atoms: C7_7  and  N9_9 
REMARK    5  A    between atoms: C8_8  and  S10_10 
ROOT
HETATM    1  C7  UNL     1     -43.249   5.537  -1.466  1.00 20.00     0.299 C 
ENDROOT
BRANCH   1   2
HETATM    2  C1  UNL     1     -42.706   4.234  -1.967  1.00 20.00    -0.000 C 
HETATM    3  C2  UNL     1     -43.417   3.361  -2.697  1.00 20.00    -0.019 C 
BRANCH   3   4
HETATM    4  C8  UNL     1     -42.871   2.063  -3.200  1.00 20.00     0.097 C 
BRANCH   4   5
HETATM    5  S10 UNL     1     -41.723   2.358  -4.572  1.00 20.00    -0.178 SA
HETATM    6  H25 UNL     1     -41.616   3.681  -4.389  1.00 20.00     0.101 HD
ENDBRANCH   4   5
ENDBRANCH   3   4
ENDBRANCH   1   2
BRANCH   1   7
HETATM    7  N9  UNL     1     -42.275   6.242  -0.639  1.00 20.00     0.092 N 
HETATM    8  C6  UNL     1     -40.932   5.701  -0.852  1.00 20.00     0.310 C 
BRANCH   7   9
HETATM    9  C5  UNL     1     -42.298   7.676  -0.927  1.00 20.00     0.223 A 
HETATM   10  C3  UNL     1     -42.703   8.660   0.137  1.00 20.00     0.038 A 
HETATM   11  C4  UNL     1     -41.275   8.595  -0.319  1.00 20.00     0.038 A 
ENDBRANCH   7   9
ENDBRANCH   1   7
TORSDOF 5
ENDMDL
