MODEL 1
REMARK VINA RESULT:      -3.3      0.000      0.000
REMARK  5 active torsions:
REMARK  status: ('A' for Active; 'I' for Inactive)
REMARK    1  A    between atoms: C3_3  and  C6_6 
REMARK    2  A    between atoms: C4_4  and  C6_6 
REMARK    3  A    between atoms: C4_4  and  O7_7 
REMARK    4  A    between atoms: C5_5  and  C6_6 
REMARK    5  A    between atoms: C5_5  and  S8_8 
ROOT
HETATM    1  C6  UNL     1     -34.651  14.355  -3.833  1.00 20.00     0.018 C 
ENDROOT
BRANCH   1   2
HETATM    2  C3  UNL     1     -34.878  15.482  -2.805  1.00 20.00     0.003 C 
HETATM    3  C1  UNL     1     -33.663  16.375  -2.593  1.00 20.00     0.005 C 
ENDBRANCH   1   2
BRANCH   1   4
HETATM    4  C4  UNL     1     -33.698  14.850  -4.934  1.00 20.00     0.172 C 
BRANCH   4   5
HETATM    5  O7  UNL     1     -34.185  14.473  -6.215  1.00 20.00    -0.396 OA
HETATM    6  C2  UNL     1     -34.183  15.571  -7.117  1.00 20.00     0.201 C 
ENDBRANCH   4   5
ENDBRANCH   1   4
BRANCH   1   7
HETATM    7  C5  UNL     1     -35.946  13.728  -4.393  1.00 20.00     0.077 C 
BRANCH   7   8
HETATM    8  S8  UNL     1     -37.414  14.805  -4.355  1.00 20.00    -0.182 SA
HETATM    9  H22 UNL     1     -37.561  14.883  -5.683  1.00 20.00     0.101 HD
ENDBRANCH   7   8
ENDBRANCH   1   7
TORSDOF 5
ENDMDL
MODEL 2
REMARK VINA RESULT:      -3.2      2.245      2.940
REMARK  5 active torsions:
REMARK  status: ('A' for Active; 'I' for Inactive)
REMARK    1  A    between atoms: C3_3  and  C6_6 
REMARK    2  A    between atoms: C4_4  and  C6_6 
REMARK    3  A    between atoms: C4_4  and  O7_7 
REMARK    4  A    between atoms: C5_5  and  C6_6 
REMARK    5  A    between atoms: C5_5  and  S8_8 
ROOT
HETATM    1  C6  UNL     1     -35.769  15.380  -4.068  1.00 20.00     0.018 C 
ENDROOT
BRANCH   1   2
HETATM    2  C3  UNL     1     -35.013  15.507  -2.730  1.00 20.00     0.003 C 
HETATM    3  C1  UNL     1     -33.630  16.131  -2.861  1.00 20.00     0.005 C 
ENDBRANCH   1   2
BRANCH   1   4
HETATM    4  C4  UNL     1     -36.013  13.894  -4.379  1.00 20.00     0.172 C 
BRANCH   4   5
HETATM    5  O7  UNL     1     -37.403  13.648  -4.551  1.00 20.00    -0.396 OA
HETATM    6  C2  UNL     1     -38.180  14.789  -4.213  1.00 20.00     0.201 C 
ENDBRANCH   4   5
ENDBRANCH   1   4
BRANCH   1   7
HETATM    7  C5  UNL     1     -35.125  16.144  -5.244  1.00 20.00     0.077 C 
BRANCH   7   8
HETATM    8  S8  UNL     1     -34.392  15.101  -6.545  1.00 20.00    -0.182 SA
HETATM    9  H22 UNL     1     -35.097  15.626  -7.555  1.00 20.00     0.101 HD
ENDBRANCH   7   8
ENDBRANCH   1   7
TORSDOF 5
ENDMDL
MODEL 3
REMARK VINA RESULT:      -3.2     18.448     19.147
REMARK  5 active torsions:
REMARK  status: ('A' for Active; 'I' for Inactive)
REMARK    1  A    between atoms: C3_3  and  C6_6 
REMARK    2  A    between atoms: C4_4  and  C6_6 
REMARK    3  A    between atoms: C4_4  and  O7_7 
REMARK    4  A    between atoms: C5_5  and  C6_6 
REMARK    5  A    between atoms: C5_5  and  S8_8 
ROOT
HETATM    1  C6  UNL     1     -23.892  18.289  10.196  1.00 20.00     0.018 C 
ENDROOT
BRANCH   1   2
HETATM    2  C3  UNL     1     -23.136  18.595   8.887  1.00 20.00     0.003 C 
HETATM    3  C1  UNL     1     -22.305  17.429   8.370  1.00 20.00     0.005 C 
ENDBRANCH   1   2
BRANCH   1   4
HETATM    4  C4  UNL     1     -23.759  16.793  10.527  1.00 20.00     0.172 C 
BRANCH   4   5
HETATM    5  O7  UNL     1     -23.341  16.621  11.875  1.00 20.00    -0.396 OA
HETATM    6  C2  UNL     1     -22.458  17.657  12.283  1.00 20.00     0.201 C 
ENDBRANCH   4   5
ENDBRANCH   1   4
BRANCH   1   7
HETATM    7  C5  UNL     1     -25.353  18.787  10.225  1.00 20.00     0.077 C 
BRANCH   7   8
HETATM    8  S8  UNL     1     -26.082  18.968  11.884  1.00 20.00    -0.182 SA
HETATM    9  H22 UNL     1     -24.917  19.015  12.541  1.00 20.00     0.101 HD
ENDBRANCH   7   8
ENDBRANCH   1   7
TORSDOF 5
ENDMDL
MODEL 4
REMARK VINA RESULT:      -3.1      2.519      3.429
REMARK  5 active torsions:
REMARK  status: ('A' for Active; 'I' for Inactive)
REMARK    1  A    between atoms: C3_3  and  C6_6 
REMARK    2  A    between atoms: C4_4  and  C6_6 
REMARK    3  A    between atoms: C4_4  and  O7_7 
REMARK    4  A    between atoms: C5_5  and  C6_6 
REMARK    5  A    between atoms: C5_5  and  S8_8 
ROOT
HETATM    1  C6  UNL     1     -35.770  14.793  -3.665  1.00 20.00     0.018 C 
ENDROOT
BRANCH   1   2
HETATM    2  C3  UNL     1     -34.496  13.959  -3.911  1.00 20.00     0.003 C 
HETATM    3  C1  UNL     1     -33.284  14.789  -4.310  1.00 20.00     0.005 C 
ENDBRANCH   1   2
BRANCH   1   4
HETATM    4  C4  UNL     1     -36.756  14.575  -4.825  1.00 20.00     0.172 C 
BRANCH   4   5
HETATM    5  O7  UNL     1     -37.932  13.926  -4.357  1.00 20.00    -0.396 OA
HETATM    6  C2  UNL     1     -39.004  14.845  -4.194  1.00 20.00     0.201 C 
ENDBRANCH   4   5
ENDBRANCH   1   4
BRANCH   1   7
HETATM    7  C5  UNL     1     -35.512  16.285  -3.365  1.00 20.00     0.077 C 
BRANCH   7   8
HETATM    8  S8  UNL     1     -35.192  16.684  -1.617  1.00 20.00    -0.182 SA
HETATM    9  H22 UNL     1     -34.756  15.465  -1.276  1.00 20.00     0.101 HD
ENDBRANCH   7   8
ENDBRANCH   1   7
TORSDOF 5
ENDMDL
MODEL 5
REMARK VINA RESULT:      -3.0      2.430      2.836
REMARK  5 active torsions:
REMARK  status: ('A' for Active; 'I' for Inactive)
REMARK    1  A    between atoms: C3_3  and  C6_6 
REMARK    2  A    between atoms: C4_4  and  C6_6 
REMARK    3  A    between atoms: C4_4  and  O7_7 
REMARK    4  A    between atoms: C5_5  and  C6_6 
REMARK    5  A    between atoms: C5_5  and  S8_8 
ROOT
HETATM    1  C6  UNL     1     -33.901  16.003  -3.725  1.00 20.00     0.018 C 
ENDROOT
BRANCH   1   2
HETATM    2  C3  UNL     1     -34.949  15.537  -2.693  1.00 20.00     0.003 C 
HETATM    3  C1  UNL     1     -35.109  16.480  -1.509  1.00 20.00     0.005 C 
ENDBRANCH   1   2
BRANCH   1   4
HETATM    4  C4  UNL     1     -33.146  14.781  -4.276  1.00 20.00     0.172 C 
BRANCH   4   5
HETATM    5  O7  UNL     1     -33.866  14.203  -5.357  1.00 20.00    -0.396 OA
HETATM    6  C2  UNL     1     -34.147  15.162  -6.367  1.00 20.00     0.201 C 
ENDBRANCH   4   5
ENDBRANCH   1   4
BRANCH   1   7
HETATM    7  C5  UNL     1     -32.959  17.119  -3.223  1.00 20.00     0.077 C 
BRANCH   7   8
HETATM    8  S8  UNL     1     -33.163  18.734  -4.038  1.00 20.00    -0.182 SA
HETATM    9  H22 UNL     1     -33.710  18.254  -5.161  1.00 20.00     0.101 HD
ENDBRANCH   7   8
ENDBRANCH   1   7
TORSDOF 5
ENDMDL
MODEL 6
REMARK VINA RESULT:      -3.0     11.275     11.919
REMARK  5 active torsions:
REMARK  status: ('A' for Active; 'I' for Inactive)
REMARK    1  A    between atoms: C3_3  and  C6_6 
REMARK    2  A    between atoms: C4_4  and  C6_6 
REMARK    3  A    between atoms: C4_4  and  O7_7 
REMARK    4  A    between atoms: C5_5  and  C6_6 
REMARK    5  A    between atoms: C5_5  and  S8_8 
ROOT
HETATM    1  C6  UNL     1     -33.734   6.520   3.594  1.00 20.00     0.018 C 
ENDROOT
BRANCH   1   2
HETATM    2  C3  UNL     1     -34.057   5.079   3.149  1.00 20.00     0.003 C 
HETATM    3  C1  UNL     1     -33.029   4.484   2.196  1.00 20.00     0.005 C 
ENDBRANCH   1   2
BRANCH   1   4
HETATM    4  C4  UNL     1     -32.410   6.969   2.954  1.00 20.00     0.172 C 
BRANCH   4   5
HETATM    5  O7  UNL     1     -32.593   8.188   2.244  1.00 20.00    -0.396 OA
HETATM    6  C2  UNL     1     -32.520   7.988   0.839  1.00 20.00     0.201 C 
ENDBRANCH   4   5
ENDBRANCH   1   4
BRANCH   1   7
HETATM    7  C5  UNL     1     -33.774   6.745   5.120  1.00 20.00     0.077 C 
BRANCH   7   8
HETATM    8  S8  UNL     1     -34.683   5.485   6.070  1.00 20.00    -0.182 SA
HETATM    9  H22 UNL     1     -33.918   5.560   7.166  1.00 20.00     0.101 HD
ENDBRANCH   7   8
ENDBRANCH   1   7
TORSDOF 5
ENDMDL
MODEL 7
REMARK VINA RESULT:      -3.0      1.031      1.595
REMARK  5 active torsions:
REMARK  status: ('A' for Active; 'I' for Inactive)
REMARK    1  A    between atoms: C3_3  and  C6_6 
REMARK    2  A    between atoms: C4_4  and  C6_6 
REMARK    3  A    between atoms: C4_4  and  O7_7 
REMARK    4  A    between atoms: C5_5  and  C6_6 
REMARK    5  A    between atoms: C5_5  and  S8_8 
ROOT
HETATM    1  C6  UNL     1     -34.579  15.379  -3.036  1.00 20.00     0.018 C 
ENDROOT
BRANCH   1   2
HETATM    2  C3  UNL     1     -33.223  16.107  -3.135  1.00 20.00     0.003 C 
HETATM    3  C1  UNL     1     -33.071  17.261  -2.153  1.00 20.00     0.005 C 
ENDBRANCH   1   2
BRANCH   1   4
HETATM    4  C4  UNL     1     -34.642  14.268  -4.097  1.00 20.00     0.172 C 
BRANCH   4   5
HETATM    5  O7  UNL     1     -33.632  14.465  -5.078  1.00 20.00    -0.396 OA
HETATM    6  C2  UNL     1     -34.180  14.931  -6.304  1.00 20.00     0.201 C 
ENDBRANCH   4   5
ENDBRANCH   1   4
BRANCH   1   7
HETATM    7  C5  UNL     1     -35.810  16.310  -3.062  1.00 20.00     0.077 C 
BRANCH   7   8
HETATM    8  S8  UNL     1     -37.174  15.769  -4.140  1.00 20.00    -0.182 SA
HETATM    9  H22 UNL     1     -37.950  15.300  -3.155  1.00 20.00     0.101 HD
ENDBRANCH   7   8
ENDBRANCH   1   7
TORSDOF 5
ENDMDL
MODEL 8
REMARK VINA RESULT:      -3.0      2.014      2.558
REMARK  5 active torsions:
REMARK  status: ('A' for Active; 'I' for Inactive)
REMARK    1  A    between atoms: C3_3  and  C6_6 
REMARK    2  A    between atoms: C4_4  and  C6_6 
REMARK    3  A    between atoms: C4_4  and  O7_7 
REMARK    4  A    between atoms: C5_5  and  C6_6 
REMARK    5  A    between atoms: C5_5  and  S8_8 
ROOT
HETATM    1  C6  UNL     1     -34.872  15.654  -3.786  1.00 20.00     0.018 C 
ENDROOT
BRANCH   1   2
HETATM    2  C3  UNL     1     -34.791  15.927  -2.270  1.00 20.00     0.003 C 
HETATM    3  C1  UNL     1     -33.817  17.035  -1.895  1.00 20.00     0.005 C 
ENDBRANCH   1   2
BRANCH   1   4
HETATM    4  C4  UNL     1     -34.122  14.352  -4.113  1.00 20.00     0.172 C 
BRANCH   4   5
HETATM    5  O7  UNL     1     -35.022  13.251  -4.110  1.00 20.00    -0.396 OA
HETATM    6  C2  UNL     1     -36.284  13.608  -4.658  1.00 20.00     0.201 C 
ENDBRANCH   4   5
ENDBRANCH   1   4
BRANCH   1   7
HETATM    7  C5  UNL     1     -34.439  16.840  -4.675  1.00 20.00     0.077 C 
BRANCH   7   8
HETATM    8  S8  UNL     1     -34.696  16.609  -6.462  1.00 20.00    -0.182 SA
HETATM    9  H22 UNL     1     -35.038  15.317  -6.386  1.00 20.00     0.101 HD
ENDBRANCH   7   8
ENDBRANCH   1   7
TORSDOF 5
ENDMDL
MODEL 9
REMARK VINA RESULT:      -3.0      2.769      3.465
REMARK  5 active torsions:
REMARK  status: ('A' for Active; 'I' for Inactive)
REMARK    1  A    between atoms: C3_3  and  C6_6 
REMARK    2  A    between atoms: C4_4  and  C6_6 
REMARK    3  A    between atoms: C4_4  and  O7_7 
REMARK    4  A    between atoms: C5_5  and  C6_6 
REMARK    5  A    between atoms: C5_5  and  S8_8 
ROOT
HETATM    1  C6  UNL     1     -34.832  15.716  -2.580  1.00 20.00     0.018 C 
ENDROOT
BRANCH   1   2
HETATM    2  C3  UNL     1     -33.457  15.969  -3.232  1.00 20.00     0.003 C 
HETATM    3  C1  UNL     1     -33.015  14.867  -4.184  1.00 20.00     0.005 C 
ENDBRANCH   1   2
BRANCH   1   4
HETATM    4  C4  UNL     1     -35.923  15.727  -3.665  1.00 20.00     0.172 C 
BRANCH   4   5
HETATM    5  O7  UNL     1     -36.655  14.508  -3.639  1.00 20.00    -0.396 OA
HETATM    6  C2  UNL     1     -36.373  13.707  -4.778  1.00 20.00     0.201 C 
ENDBRANCH   4   5
ENDBRANCH   1   4
BRANCH   1   7
HETATM    7  C5  UNL     1     -35.157  16.642  -1.388  1.00 20.00     0.077 C 
BRANCH   7   8
HETATM    8  S8  UNL     1     -33.915  17.926  -1.037  1.00 20.00    -0.182 SA
HETATM    9  H22 UNL     1     -32.912  17.078  -0.775  1.00 20.00     0.101 HD
ENDBRANCH   7   8
ENDBRANCH   1   7
TORSDOF 5
ENDMDL
