MODEL 1
REMARK VINA RESULT:      -4.2      0.000      0.000
REMARK  4 active torsions:
REMARK  status: ('A' for Active; 'I' for Inactive)
REMARK    1  A    between atoms: C1_1  and  C9_9 
REMARK    2  A    between atoms: C2_2  and  C10_10 
REMARK    3  A    between atoms: C9_9  and  N11_11 
REMARK    4  A    between atoms: C10_10  and  S12_12 
ROOT
HETATM    1  C3  UNL     1     -34.425  15.244  -3.108  1.00 20.00     0.002 C 
HETATM    2  C4  UNL     1     -35.553  16.112  -2.562  1.00 20.00     0.002 C 
HETATM    3  C5  UNL     1     -33.276  16.005  -3.761  1.00 20.00     0.030 C 
HETATM    4  C6  UNL     1     -35.223  16.691  -1.188  1.00 20.00     0.030 C 
HETATM    5  C7  UNL     1     -32.958  17.402  -3.227  1.00 20.00     0.272 C 
HETATM    6  C8  UNL     1     -34.187  17.816  -1.176  1.00 20.00     0.272 C 
HETATM    7  N11 UNL     1     -32.880  17.464  -1.759  1.00 20.00     0.091 N 
ENDROOT
BRANCH   7   8
HETATM    8  C9  UNL     1     -31.893  18.476  -1.361  1.00 20.00     0.299 C 
BRANCH   8   9
HETATM    9  C1  UNL     1     -32.007  18.814   0.095  1.00 20.00    -0.000 C 
HETATM   10  C2  UNL     1     -31.063  18.525   1.004  1.00 20.00    -0.019 C 
BRANCH  10  11
HETATM   11  C10 UNL     1     -31.178  18.868   2.456  1.00 20.00     0.097 C 
BRANCH  11  12
HETATM   12  S12 UNL     1     -32.606  18.023   3.186  1.00 20.00    -0.178 SA
HETATM   13  H31 UNL     1     -31.901  17.224   3.998  1.00 20.00     0.101 HD
ENDBRANCH  11  12
ENDBRANCH  10  11
ENDBRANCH   8   9
ENDBRANCH   7   8
TORSDOF 4
ENDMDL
MODEL 2
REMARK VINA RESULT:      -4.1      3.041      5.747
REMARK  4 active torsions:
REMARK  status: ('A' for Active; 'I' for Inactive)
REMARK    1  A    between atoms: C1_1  and  C9_9 
REMARK    2  A    between atoms: C2_2  and  C10_10 
REMARK    3  A    between atoms: C9_9  and  N11_11 
REMARK    4  A    between atoms: C10_10  and  S12_12 
ROOT
HETATM    1  C3  UNL     1     -31.898  18.139   2.110  1.00 20.00     0.002 C 
HETATM    2  C4  UNL     1     -31.083  18.993   1.147  1.00 20.00     0.002 C 
HETATM    3  C5  UNL     1     -33.412  18.269   1.973  1.00 20.00     0.030 C 
HETATM    4  C6  UNL     1     -30.963  18.353  -0.234  1.00 20.00     0.030 C 
HETATM    5  C7  UNL     1     -33.974  18.582   0.587  1.00 20.00     0.272 C 
HETATM    6  C8  UNL     1     -32.230  18.383  -1.089  1.00 20.00     0.272 C 
HETATM    7  N11 UNL     1     -33.407  17.740  -0.478  1.00 20.00     0.091 N 
ENDROOT
BRANCH   7   8
HETATM    8  C9  UNL     1     -34.420  17.514  -1.518  1.00 20.00     0.299 C 
BRANCH   8   9
HETATM    9  C1  UNL     1     -34.127  16.278  -2.313  1.00 20.00    -0.000 C 
HETATM   10  C2  UNL     1     -35.060  15.583  -2.982  1.00 20.00    -0.019 C 
BRANCH  10  11
HETATM   11  C10 UNL     1     -34.765  14.352  -3.779  1.00 20.00     0.097 C 
BRANCH  11  12
HETATM   12  S12 UNL     1     -36.250  13.814  -4.669  1.00 20.00    -0.178 SA
HETATM   13  H31 UNL     1     -37.132  14.297  -3.783  1.00 20.00     0.101 HD
ENDBRANCH  11  12
ENDBRANCH  10  11
ENDBRANCH   8   9
ENDBRANCH   7   8
TORSDOF 4
ENDMDL
MODEL 3
REMARK VINA RESULT:      -4.0     13.368     14.676
REMARK  4 active torsions:
REMARK  status: ('A' for Active; 'I' for Inactive)
REMARK    1  A    between atoms: C1_1  and  C9_9 
REMARK    2  A    between atoms: C2_2  and  C10_10 
REMARK    3  A    between atoms: C9_9  and  N11_11 
REMARK    4  A    between atoms: C10_10  and  S12_12 
ROOT
HETATM    1  C3  UNL     1     -22.600  17.681   9.496  1.00 20.00     0.002 C 
HETATM    2  C4  UNL     1     -23.191  19.018   9.066  1.00 20.00     0.002 C 
HETATM    3  C5  UNL     1     -22.618  17.413  10.998  1.00 20.00     0.030 C 
HETATM    4  C6  UNL     1     -24.716  18.978   8.991  1.00 20.00     0.030 C 
HETATM    5  C7  UNL     1     -23.755  18.028  11.813  1.00 20.00     0.272 C 
HETATM    6  C8  UNL     1     -25.445  18.949  10.334  1.00 20.00     0.272 C 
HETATM    7  N11 UNL     1     -25.083  17.823  11.213  1.00 20.00     0.091 N 
ENDROOT
BRANCH   7   8
HETATM    8  C9  UNL     1     -26.090  17.705  12.276  1.00 20.00     0.299 C 
BRANCH   8   9
HETATM    9  C1  UNL     1     -27.317  18.508  11.964  1.00 20.00    -0.000 C 
HETATM   10  C2  UNL     1     -28.568  18.042  12.104  1.00 20.00    -0.019 C 
BRANCH  10  11
HETATM   11  C10 UNL     1     -29.791  18.846  11.795  1.00 20.00     0.097 C 
BRANCH  11  12
HETATM   12  S12 UNL     1     -31.270  17.805  11.924  1.00 20.00    -0.178 SA
HETATM   13  H31 UNL     1     -31.886  18.544  12.858  1.00 20.00     0.101 HD
ENDBRANCH  11  12
ENDBRANCH  10  11
ENDBRANCH   8   9
ENDBRANCH   7   8
TORSDOF 4
ENDMDL
MODEL 4
REMARK VINA RESULT:      -4.0      3.080      5.575
REMARK  4 active torsions:
REMARK  status: ('A' for Active; 'I' for Inactive)
REMARK    1  A    between atoms: C1_1  and  C9_9 
REMARK    2  A    between atoms: C2_2  and  C10_10 
REMARK    3  A    between atoms: C9_9  and  N11_11 
REMARK    4  A    between atoms: C10_10  and  S12_12 
ROOT
HETATM    1  C3  UNL     1     -34.601  17.742   0.765  1.00 20.00     0.002 C 
HETATM    2  C4  UNL     1     -33.712  18.901   0.327  1.00 20.00     0.002 C 
HETATM    3  C5  UNL     1     -35.488  17.154  -0.328  1.00 20.00     0.030 C 
HETATM    4  C6  UNL     1     -32.444  18.423  -0.376  1.00 20.00     0.030 C 
HETATM    5  C7  UNL     1     -34.968  17.201  -1.765  1.00 20.00     0.272 C 
HETATM    6  C8  UNL     1     -32.637  17.878  -1.791  1.00 20.00     0.272 C 
HETATM    7  N11 UNL     1     -33.575  16.746  -1.898  1.00 20.00     0.091 N 
ENDROOT
BRANCH   7   8
HETATM    8  C9  UNL     1     -33.393  16.098  -3.204  1.00 20.00     0.299 C 
BRANCH   8   9
HETATM    9  C1  UNL     1     -34.666  15.480  -3.694  1.00 20.00    -0.000 C 
HETATM   10  C2  UNL     1     -34.792  14.180  -4.007  1.00 20.00    -0.019 C 
BRANCH  10  11
HETATM   11  C10 UNL     1     -36.066  13.564  -4.493  1.00 20.00     0.097 C 
BRANCH  11  12
HETATM   12  S12 UNL     1     -37.428  14.751  -4.348  1.00 20.00    -0.178 SA
HETATM   13  H31 UNL     1     -37.405  15.154  -5.626  1.00 20.00     0.101 HD
ENDBRANCH  11  12
ENDBRANCH  10  11
ENDBRANCH   8   9
ENDBRANCH   7   8
TORSDOF 4
ENDMDL
MODEL 5
REMARK VINA RESULT:      -3.9      2.624      3.766
REMARK  4 active torsions:
REMARK  status: ('A' for Active; 'I' for Inactive)
REMARK    1  A    between atoms: C1_1  and  C9_9 
REMARK    2  A    between atoms: C2_2  and  C10_10 
REMARK    3  A    between atoms: C9_9  and  N11_11 
REMARK    4  A    between atoms: C10_10  and  S12_12 
ROOT
HETATM    1  C3  UNL     1     -36.255  14.000  -5.023  1.00 20.00     0.002 C 
HETATM    2  C4  UNL     1     -35.847  14.753  -6.283  1.00 20.00     0.002 C 
HETATM    3  C5  UNL     1     -35.110  13.637  -4.082  1.00 20.00     0.030 C 
HETATM    4  C6  UNL     1     -35.649  16.245  -6.028  1.00 20.00     0.030 C 
HETATM    5  C7  UNL     1     -33.903  14.574  -4.040  1.00 20.00     0.272 C 
HETATM    6  C8  UNL     1     -34.389  16.622  -5.248  1.00 20.00     0.272 C 
HETATM    7  N11 UNL     1     -34.269  15.994  -3.920  1.00 20.00     0.091 N 
ENDROOT
BRANCH   7   8
HETATM    8  C9  UNL     1     -33.239  16.703  -3.149  1.00 20.00     0.299 C 
BRANCH   8   9
HETATM    9  C1  UNL     1     -33.750  17.125  -1.805  1.00 20.00    -0.000 C 
HETATM   10  C2  UNL     1     -34.960  16.790  -1.329  1.00 20.00    -0.019 C 
BRANCH  10  11
HETATM   11  C10 UNL     1     -35.467  17.209   0.015  1.00 20.00     0.097 C 
BRANCH  11  12
HETATM   12  S12 UNL     1     -34.239  18.250   0.848  1.00 20.00    -0.178 SA
HETATM   13  H31 UNL     1     -35.015  18.585   1.888  1.00 20.00     0.101 HD
ENDBRANCH  11  12
ENDBRANCH  10  11
ENDBRANCH   8   9
ENDBRANCH   7   8
TORSDOF 4
ENDMDL
MODEL 6
REMARK VINA RESULT:      -3.9      2.750      5.369
REMARK  4 active torsions:
REMARK  status: ('A' for Active; 'I' for Inactive)
REMARK    1  A    between atoms: C1_1  and  C9_9 
REMARK    2  A    between atoms: C2_2  and  C10_10 
REMARK    3  A    between atoms: C9_9  and  N11_11 
REMARK    4  A    between atoms: C10_10  and  S12_12 
ROOT
HETATM    1  C3  UNL     1     -31.143  19.168   2.778  1.00 20.00     0.002 C 
HETATM    2  C4  UNL     1     -32.293  18.196   3.011  1.00 20.00     0.002 C 
HETATM    3  C5  UNL     1     -30.288  18.882   1.547  1.00 20.00     0.030 C 
HETATM    4  C6  UNL     1     -33.511  18.523   2.150  1.00 20.00     0.030 C 
HETATM    5  C7  UNL     1     -30.971  18.223   0.348  1.00 20.00     0.272 C 
HETATM    6  C8  UNL     1     -33.377  18.197   0.663  1.00 20.00     0.272 C 
HETATM    7  N11 UNL     1     -32.248  18.855  -0.018  1.00 20.00     0.091 N 
ENDROOT
BRANCH   7   8
HETATM    8  C9  UNL     1     -32.446  18.759  -1.471  1.00 20.00     0.299 C 
BRANCH   8   9
HETATM    9  C1  UNL     1     -33.403  17.662  -1.824  1.00 20.00    -0.000 C 
HETATM   10  C2  UNL     1     -33.131  16.691  -2.711  1.00 20.00    -0.019 C 
BRANCH  10  11
HETATM   11  C10 UNL     1     -34.086  15.595  -3.060  1.00 20.00     0.097 C 
BRANCH  11  12
HETATM   12  S12 UNL     1     -33.471  14.661  -4.487  1.00 20.00    -0.178 SA
HETATM   13  H31 UNL     1     -34.078  15.408  -5.420  1.00 20.00     0.101 HD
ENDBRANCH  11  12
ENDBRANCH  10  11
ENDBRANCH   8   9
ENDBRANCH   7   8
TORSDOF 4
ENDMDL
MODEL 7
REMARK VINA RESULT:      -3.8      1.213      2.344
REMARK  4 active torsions:
REMARK  status: ('A' for Active; 'I' for Inactive)
REMARK    1  A    between atoms: C1_1  and  C9_9 
REMARK    2  A    between atoms: C2_2  and  C10_10 
REMARK    3  A    between atoms: C9_9  and  N11_11 
REMARK    4  A    between atoms: C10_10  and  S12_12 
ROOT
HETATM    1  C3  UNL     1     -35.936  15.183  -3.950  1.00 20.00     0.002 C 
HETATM    2  C4  UNL     1     -34.752  14.237  -3.786  1.00 20.00     0.002 C 
HETATM    3  C5  UNL     1     -36.071  16.250  -2.869  1.00 20.00     0.030 C 
HETATM    4  C6  UNL     1     -33.449  14.847  -4.295  1.00 20.00     0.030 C 
HETATM    5  C7  UNL     1     -34.788  16.759  -2.211  1.00 20.00     0.272 C 
HETATM    6  C8  UNL     1     -32.847  15.947  -3.420  1.00 20.00     0.272 C 
HETATM    7  N11 UNL     1     -33.731  17.100  -3.176  1.00 20.00     0.091 N 
ENDROOT
BRANCH   7   8
HETATM    8  C9  UNL     1     -32.929  18.214  -2.653  1.00 20.00     0.299 C 
BRANCH   8   9
HETATM    9  C1  UNL     1     -32.439  17.935  -1.264  1.00 20.00    -0.000 C 
HETATM   10  C2  UNL     1     -31.364  18.527  -0.720  1.00 20.00    -0.019 C 
BRANCH  10  11
HETATM   11  C10 UNL     1     -30.879  18.250   0.668  1.00 20.00     0.097 C 
BRANCH  11  12
HETATM   12  S12 UNL     1     -32.233  18.458   1.855  1.00 20.00    -0.178 SA
HETATM   13  H31 UNL     1     -31.533  19.172   2.748  1.00 20.00     0.101 HD
ENDBRANCH  11  12
ENDBRANCH  10  11
ENDBRANCH   8   9
ENDBRANCH   7   8
TORSDOF 4
ENDMDL
MODEL 8
REMARK VINA RESULT:      -3.8      2.269      3.595
REMARK  4 active torsions:
REMARK  status: ('A' for Active; 'I' for Inactive)
REMARK    1  A    between atoms: C1_1  and  C9_9 
REMARK    2  A    between atoms: C2_2  and  C10_10 
REMARK    3  A    between atoms: C9_9  and  N11_11 
REMARK    4  A    between atoms: C10_10  and  S12_12 
ROOT
HETATM    1  C3  UNL     1     -36.031  14.425  -5.999  1.00 20.00     0.002 C 
HETATM    2  C4  UNL     1     -34.743  15.051  -6.521  1.00 20.00     0.002 C 
HETATM    3  C5  UNL     1     -35.938  13.810  -4.606  1.00 20.00     0.030 C 
HETATM    4  C6  UNL     1     -34.519  16.457  -5.969  1.00 20.00     0.030 C 
HETATM    5  C7  UNL     1     -34.954  14.438  -3.619  1.00 20.00     0.272 C 
HETATM    6  C8  UNL     1     -34.104  16.534  -4.500  1.00 20.00     0.272 C 
HETATM    7  N11 UNL     1     -35.045  15.905  -3.555  1.00 20.00     0.091 N 
ENDROOT
BRANCH   7   8
HETATM    8  C9  UNL     1     -34.728  16.359  -2.194  1.00 20.00     0.299 C 
BRANCH   8   9
HETATM    9  C1  UNL     1     -33.422  17.091  -2.148  1.00 20.00    -0.000 C 
HETATM   10  C2  UNL     1     -33.020  17.834  -1.105  1.00 20.00    -0.019 C 
BRANCH  10  11
HETATM   11  C10 UNL     1     -31.713  18.561  -1.059  1.00 20.00     0.097 C 
BRANCH  11  12
HETATM   12  S12 UNL     1     -31.015  18.484   0.612  1.00 20.00    -0.178 SA
HETATM   13  H31 UNL     1     -30.884  17.151   0.652  1.00 20.00     0.101 HD
ENDBRANCH  11  12
ENDBRANCH  10  11
ENDBRANCH   8   9
ENDBRANCH   7   8
TORSDOF 4
ENDMDL
MODEL 9
REMARK VINA RESULT:      -3.7      2.416      3.383
REMARK  4 active torsions:
REMARK  status: ('A' for Active; 'I' for Inactive)
REMARK    1  A    between atoms: C1_1  and  C9_9 
REMARK    2  A    between atoms: C2_2  and  C10_10 
REMARK    3  A    between atoms: C9_9  and  N11_11 
REMARK    4  A    between atoms: C10_10  and  S12_12 
ROOT
HETATM    1  C3  UNL     1     -35.374  14.886  -6.499  1.00 20.00     0.002 C 
HETATM    2  C4  UNL     1     -36.243  14.390  -5.349  1.00 20.00     0.002 C 
HETATM    3  C5  UNL     1     -34.838  16.306  -6.345  1.00 20.00     0.030 C 
HETATM    4  C6  UNL     1     -35.412  13.896  -4.168  1.00 20.00     0.030 C 
HETATM    5  C7  UNL     1     -34.569  16.812  -4.928  1.00 20.00     0.272 C 
HETATM    6  C8  UNL     1     -34.724  14.982  -3.341  1.00 20.00     0.272 C 
HETATM    7  N11 UNL     1     -33.814  15.858  -4.100  1.00 20.00     0.091 N 
ENDROOT
BRANCH   7   8
HETATM    8  C9  UNL     1     -32.963  16.594  -3.156  1.00 20.00     0.299 C 
BRANCH   8   9
HETATM    9  C1  UNL     1     -33.721  16.994  -1.927  1.00 20.00    -0.000 C 
HETATM   10  C2  UNL     1     -33.333  17.976  -1.098  1.00 20.00    -0.019 C 
BRANCH  10  11
HETATM   11  C10 UNL     1     -34.094  18.377   0.126  1.00 20.00     0.097 C 
BRANCH  11  12
HETATM   12  S12 UNL     1     -35.578  17.352   0.302  1.00 20.00    -0.178 SA
HETATM   13  H31 UNL     1     -35.763  17.140  -1.009  1.00 20.00     0.101 HD
ENDBRANCH  11  12
ENDBRANCH  10  11
ENDBRANCH   8   9
ENDBRANCH   7   8
TORSDOF 4
ENDMDL
