MODEL 1
REMARK VINA RESULT:      -3.1      0.000      0.000
REMARK  6 active torsions:
REMARK  status: ('A' for Active; 'I' for Inactive)
REMARK    1  A    between atoms: C4_4  and  C5_5 
REMARK    2  A    between atoms: C5_5  and  S10_10 
REMARK    3  A    between atoms: C6_6  and  C8_8 
REMARK    4  A    between atoms: C6_6  and  S9_9 
REMARK    5  A    between atoms: C7_7  and  C8_8 
REMARK    6  A    between atoms: C7_7  and  S10_10 
ROOT
HETATM    1  C2  UNL     1     -33.099  15.562  -3.663  1.00 20.00     0.016 C 
HETATM    2  C3  UNL     1     -34.926  16.028  -2.044  1.00 20.00     0.016 C 
HETATM    3  C8  UNL     1     -33.879  16.698  -2.962  1.00 20.00    -0.031 C 
ENDROOT
BRANCH   3   4
HETATM    4  C6  UNL     1     -32.862  17.511  -2.112  1.00 20.00     0.080 C 
BRANCH   4   5
HETATM    5  S9  UNL     1     -33.526  18.315  -0.616  1.00 20.00    -0.181 SA
HETATM    6  H28 UNL     1     -32.700  17.703   0.243  1.00 20.00     0.101 HD
ENDBRANCH   4   5
ENDBRANCH   3   4
BRANCH   3   7
HETATM    7  C7  UNL     1     -34.648  17.548  -4.012  1.00 20.00     0.083 C 
BRANCH   7   8
HETATM    8  S10 UNL     1     -34.632  16.921  -5.722  1.00 20.00    -0.168 SA
BRANCH   8   9
HETATM    9  C5  UNL     1     -36.160  15.961  -5.657  1.00 20.00     0.073 C 
BRANCH   9  10
HETATM   10  C4  UNL     1     -35.869  14.478  -5.853  1.00 20.00     0.006 C 
HETATM   11  C1  UNL     1     -36.240  13.679  -4.612  1.00 20.00     0.006 C 
ENDBRANCH   9  10
ENDBRANCH   8   9
ENDBRANCH   7   8
ENDBRANCH   3   7
TORSDOF 6
ENDMDL
MODEL 2
REMARK VINA RESULT:      -3.1     16.842     18.031
REMARK  6 active torsions:
REMARK  status: ('A' for Active; 'I' for Inactive)
REMARK    1  A    between atoms: C4_4  and  C5_5 
REMARK    2  A    between atoms: C5_5  and  S10_10 
REMARK    3  A    between atoms: C6_6  and  C8_8 
REMARK    4  A    between atoms: C6_6  and  S9_9 
REMARK    5  A    between atoms: C7_7  and  C8_8 
REMARK    6  A    between atoms: C7_7  and  S10_10 
ROOT
HETATM    1  C2  UNL     1     -24.250  16.255  11.245  1.00 20.00     0.016 C 
HETATM    2  C3  UNL     1     -22.467  17.748  12.122  1.00 20.00     0.016 C 
HETATM    3  C8  UNL     1     -23.825  17.735  11.384  1.00 20.00    -0.031 C 
ENDROOT
BRANCH   3   4
HETATM    4  C6  UNL     1     -23.661  18.314   9.950  1.00 20.00     0.080 C 
BRANCH   4   5
HETATM    5  S9  UNL     1     -22.462  17.463   8.872  1.00 20.00    -0.181 SA
HETATM    6  H28 UNL     1     -22.771  18.146   7.762  1.00 20.00     0.101 HD
ENDBRANCH   4   5
ENDBRANCH   3   4
BRANCH   3   7
HETATM    7  C7  UNL     1     -24.847  18.507  12.264  1.00 20.00     0.083 C 
BRANCH   7   8
HETATM    8  S10 UNL     1     -26.421  18.956  11.464  1.00 20.00    -0.168 SA
BRANCH   8   9
HETATM    9  C5  UNL     1     -27.491  17.788  12.332  1.00 20.00     0.073 C 
BRANCH   9  10
HETATM   10  C4  UNL     1     -28.952  18.030  11.968  1.00 20.00     0.006 C 
HETATM   11  C1  UNL     1     -29.765  16.749  12.092  1.00 20.00     0.006 C 
ENDBRANCH   9  10
ENDBRANCH   8   9
ENDBRANCH   7   8
ENDBRANCH   3   7
TORSDOF 6
ENDMDL
MODEL 3
REMARK VINA RESULT:      -3.1      1.562      2.122
REMARK  6 active torsions:
REMARK  status: ('A' for Active; 'I' for Inactive)
REMARK    1  A    between atoms: C4_4  and  C5_5 
REMARK    2  A    between atoms: C5_5  and  S10_10 
REMARK    3  A    between atoms: C6_6  and  C8_8 
REMARK    4  A    between atoms: C6_6  and  S9_9 
REMARK    5  A    between atoms: C7_7  and  C8_8 
REMARK    6  A    between atoms: C7_7  and  S10_10 
ROOT
HETATM    1  C2  UNL     1     -32.942  16.922  -2.569  1.00 20.00     0.016 C 
HETATM    2  C3  UNL     1     -35.187  16.192  -1.793  1.00 20.00     0.016 C 
HETATM    3  C8  UNL     1     -34.316  16.406  -3.052  1.00 20.00    -0.031 C 
ENDROOT
BRANCH   3   4
HETATM    4  C6  UNL     1     -34.941  17.506  -3.956  1.00 20.00     0.080 C 
BRANCH   4   5
HETATM    5  S9  UNL     1     -33.816  18.832  -4.502  1.00 20.00    -0.181 SA
HETATM    6  H28 UNL     1     -33.296  18.153  -5.532  1.00 20.00     0.101 HD
ENDBRANCH   4   5
ENDBRANCH   3   4
BRANCH   3   7
HETATM    7  C7  UNL     1     -34.156  15.028  -3.753  1.00 20.00     0.083 C 
BRANCH   7   8
HETATM    8  S10 UNL     1     -34.120  15.051  -5.575  1.00 20.00    -0.168 SA
BRANCH   8   9
HETATM    9  C5  UNL     1     -35.784  14.413  -5.870  1.00 20.00     0.073 C 
BRANCH   9  10
HETATM   10  C4  UNL     1     -36.390  13.879  -4.577  1.00 20.00     0.006 C 
HETATM   11  C1  UNL     1     -37.740  14.523  -4.299  1.00 20.00     0.006 C 
ENDBRANCH   9  10
ENDBRANCH   8   9
ENDBRANCH   7   8
ENDBRANCH   3   7
TORSDOF 6
ENDMDL
MODEL 4
REMARK VINA RESULT:      -3.0      1.948      5.015
REMARK  6 active torsions:
REMARK  status: ('A' for Active; 'I' for Inactive)
REMARK    1  A    between atoms: C4_4  and  C5_5 
REMARK    2  A    between atoms: C5_5  and  S10_10 
REMARK    3  A    between atoms: C6_6  and  C8_8 
REMARK    4  A    between atoms: C6_6  and  S9_9 
REMARK    5  A    between atoms: C7_7  and  C8_8 
REMARK    6  A    between atoms: C7_7  and  S10_10 
ROOT
HETATM    1  C2  UNL     1     -33.125  14.654  -4.293  1.00 20.00     0.016 C 
HETATM    2  C3  UNL     1     -34.410  16.655  -5.017  1.00 20.00     0.016 C 
HETATM    3  C8  UNL     1     -34.125  15.730  -3.811  1.00 20.00    -0.031 C 
ENDROOT
BRANCH   3   4
HETATM    4  C6  UNL     1     -35.427  15.001  -3.375  1.00 20.00     0.080 C 
BRANCH   4   5
HETATM    5  S9  UNL     1     -36.180  13.891  -4.610  1.00 20.00    -0.181 SA
HETATM    6  H28 UNL     1     -35.150  13.037  -4.669  1.00 20.00     0.101 HD
ENDBRANCH   4   5
ENDBRANCH   3   4
BRANCH   3   7
HETATM    7  C7  UNL     1     -33.482  16.599  -2.694  1.00 20.00     0.083 C 
BRANCH   7   8
HETATM    8  S10 UNL     1     -34.605  17.188  -1.386  1.00 20.00    -0.168 SA
BRANCH   8   9
HETATM    9  C5  UNL     1     -33.436  18.242  -0.502  1.00 20.00     0.073 C 
BRANCH   9  10
HETATM   10  C4  UNL     1     -32.057  18.172  -1.149  1.00 20.00     0.006 C 
HETATM   11  C1  UNL     1     -30.957  18.308  -0.106  1.00 20.00     0.006 C 
ENDBRANCH   9  10
ENDBRANCH   8   9
ENDBRANCH   7   8
ENDBRANCH   3   7
TORSDOF 6
ENDMDL
MODEL 5
REMARK VINA RESULT:      -3.0      0.983      1.809
REMARK  6 active torsions:
REMARK  status: ('A' for Active; 'I' for Inactive)
REMARK    1  A    between atoms: C4_4  and  C5_5 
REMARK    2  A    between atoms: C5_5  and  S10_10 
REMARK    3  A    between atoms: C6_6  and  C8_8 
REMARK    4  A    between atoms: C6_6  and  S9_9 
REMARK    5  A    between atoms: C7_7  and  C8_8 
REMARK    6  A    between atoms: C7_7  and  S10_10 
ROOT
HETATM    1  C2  UNL     1     -35.030  16.253  -1.728  1.00 20.00     0.016 C 
HETATM    2  C3  UNL     1     -35.098  17.452  -3.904  1.00 20.00     0.016 C 
HETATM    3  C8  UNL     1     -34.264  16.466  -3.054  1.00 20.00    -0.031 C 
ENDROOT
BRANCH   3   4
HETATM    4  C6  UNL     1     -32.885  17.093  -2.705  1.00 20.00     0.080 C 
BRANCH   4   5
HETATM    5  S9  UNL     1     -32.858  18.237  -1.286  1.00 20.00    -0.181 SA
HETATM    6  H28 UNL     1     -32.318  17.368  -0.422  1.00 20.00     0.101 HD
ENDBRANCH   4   5
ENDBRANCH   3   4
BRANCH   3   7
HETATM    7  C7  UNL     1     -34.170  15.129  -3.840  1.00 20.00     0.083 C 
BRANCH   7   8
HETATM    8  S10 UNL     1     -34.304  15.251  -5.653  1.00 20.00    -0.168 SA
BRANCH   8   9
HETATM    9  C5  UNL     1     -35.822  14.294  -5.862  1.00 20.00     0.073 C 
BRANCH   9  10
HETATM   10  C4  UNL     1     -36.410  13.921  -4.506  1.00 20.00     0.006 C 
HETATM   11  C1  UNL     1     -37.755  14.599  -4.288  1.00 20.00     0.006 C 
ENDBRANCH   9  10
ENDBRANCH   8   9
ENDBRANCH   7   8
ENDBRANCH   3   7
TORSDOF 6
ENDMDL
MODEL 6
REMARK VINA RESULT:      -3.0      1.815      4.630
REMARK  6 active torsions:
REMARK  status: ('A' for Active; 'I' for Inactive)
REMARK    1  A    between atoms: C4_4  and  C5_5 
REMARK    2  A    between atoms: C5_5  and  S10_10 
REMARK    3  A    between atoms: C6_6  and  C8_8 
REMARK    4  A    between atoms: C6_6  and  S9_9 
REMARK    5  A    between atoms: C7_7  and  C8_8 
REMARK    6  A    between atoms: C7_7  and  S10_10 
ROOT
HETATM    1  C2  UNL     1     -35.442  13.936  -4.161  1.00 20.00     0.016 C 
HETATM    2  C3  UNL     1     -33.002  14.358  -4.385  1.00 20.00     0.016 C 
HETATM    3  C8  UNL     1     -34.367  15.047  -4.153  1.00 20.00    -0.031 C 
ENDROOT
BRANCH   3   4
HETATM    4  C6  UNL     1     -34.684  16.017  -5.327  1.00 20.00     0.080 C 
BRANCH   4   5
HETATM    5  S9  UNL     1     -34.292  15.408  -7.001  1.00 20.00    -0.181 SA
HETATM    6  H28 UNL     1     -33.024  15.838  -7.007  1.00 20.00     0.101 HD
ENDBRANCH   4   5
ENDBRANCH   3   4
BRANCH   3   7
HETATM    7  C7  UNL     1     -34.317  15.735  -2.761  1.00 20.00     0.083 C 
BRANCH   7   8
HETATM    8  S10 UNL     1     -33.205  17.172  -2.613  1.00 20.00    -0.168 SA
BRANCH   8   9
HETATM    9  C5  UNL     1     -33.842  17.828  -1.055  1.00 20.00     0.073 C 
BRANCH   9  10
HETATM   10  C4  UNL     1     -35.155  17.148  -0.686  1.00 20.00     0.006 C 
HETATM   11  C1  UNL     1     -35.433  17.268   0.806  1.00 20.00     0.006 C 
ENDBRANCH   9  10
ENDBRANCH   8   9
ENDBRANCH   7   8
ENDBRANCH   3   7
TORSDOF 6
ENDMDL
MODEL 7
REMARK VINA RESULT:      -3.0      1.879      4.884
REMARK  6 active torsions:
REMARK  status: ('A' for Active; 'I' for Inactive)
REMARK    1  A    between atoms: C4_4  and  C5_5 
REMARK    2  A    between atoms: C5_5  and  S10_10 
REMARK    3  A    between atoms: C6_6  and  C8_8 
REMARK    4  A    between atoms: C6_6  and  S9_9 
REMARK    5  A    between atoms: C7_7  and  C8_8 
REMARK    6  A    between atoms: C7_7  and  S10_10 
ROOT
HETATM    1  C2  UNL     1     -35.080  15.538  -2.700  1.00 20.00     0.016 C 
HETATM    2  C3  UNL     1     -33.379  14.585  -4.242  1.00 20.00     0.016 C 
HETATM    3  C8  UNL     1     -34.032  15.906  -3.776  1.00 20.00    -0.031 C 
ENDROOT
BRANCH   3   4
HETATM    4  C6  UNL     1     -34.788  16.576  -4.958  1.00 20.00     0.080 C 
BRANCH   4   5
HETATM    5  S9  UNL     1     -34.609  15.773  -6.585  1.00 20.00    -0.181 SA
HETATM    6  H28 UNL     1     -33.457  15.152  -6.304  1.00 20.00     0.101 HD
ENDBRANCH   4   5
ENDBRANCH   3   4
BRANCH   3   7
HETATM    7  C7  UNL     1     -32.915  16.791  -3.157  1.00 20.00     0.083 C 
BRANCH   7   8
HETATM    8  S10 UNL     1     -32.924  18.550  -3.635  1.00 20.00    -0.168 SA
BRANCH   8   9
HETATM    9  C5  UNL     1     -32.713  19.263  -1.989  1.00 20.00     0.073 C 
BRANCH   9  10
HETATM   10  C4  UNL     1     -32.444  18.168  -0.963  1.00 20.00     0.006 C 
HETATM   11  C1  UNL     1     -31.108  18.387  -0.268  1.00 20.00     0.006 C 
ENDBRANCH   9  10
ENDBRANCH   8   9
ENDBRANCH   7   8
ENDBRANCH   3   7
TORSDOF 6
ENDMDL
MODEL 8
REMARK VINA RESULT:      -3.0     17.001     18.042
REMARK  6 active torsions:
REMARK  status: ('A' for Active; 'I' for Inactive)
REMARK    1  A    between atoms: C4_4  and  C5_5 
REMARK    2  A    between atoms: C5_5  and  S10_10 
REMARK    3  A    between atoms: C6_6  and  C8_8 
REMARK    4  A    between atoms: C6_6  and  S9_9 
REMARK    5  A    between atoms: C7_7  and  C8_8 
REMARK    6  A    between atoms: C7_7  and  S10_10 
ROOT
HETATM    1  C2  UNL     1     -23.498  16.660   9.363  1.00 20.00     0.016 C 
HETATM    2  C3  UNL     1     -21.300  17.759   9.735  1.00 20.00     0.016 C 
HETATM    3  C8  UNL     1     -22.823  17.924   9.944  1.00 20.00    -0.031 C 
ENDROOT
BRANCH   3   4
HETATM    4  C6  UNL     1     -23.345  19.148   9.140  1.00 20.00     0.080 C 
BRANCH   4   5
HETATM    5  S9  UNL     1     -24.872  18.886   8.178  1.00 20.00    -0.181 SA
HETATM    6  H28 UNL     1     -25.546  18.273   9.160  1.00 20.00     0.101 HD
ENDBRANCH   4   5
ENDBRANCH   3   4
BRANCH   3   7
HETATM    7  C7  UNL     1     -23.081  18.015  11.474  1.00 20.00     0.083 C 
BRANCH   7   8
HETATM    8  S10 UNL     1     -24.715  17.450  12.048  1.00 20.00    -0.168 SA
BRANCH   8   9
HETATM    9  C5  UNL     1     -25.565  19.043  12.009  1.00 20.00     0.073 C 
BRANCH   9  10
HETATM   10  C4  UNL     1     -27.030  18.859  11.630  1.00 20.00     0.006 C 
HETATM   11  C1  UNL     1     -27.627  17.648  12.332  1.00 20.00     0.006 C 
ENDBRANCH   9  10
ENDBRANCH   8   9
ENDBRANCH   7   8
ENDBRANCH   3   7
TORSDOF 6
ENDMDL
MODEL 9
REMARK VINA RESULT:      -3.0      2.170      3.111
REMARK  6 active torsions:
REMARK  status: ('A' for Active; 'I' for Inactive)
REMARK    1  A    between atoms: C4_4  and  C5_5 
REMARK    2  A    between atoms: C5_5  and  S10_10 
REMARK    3  A    between atoms: C6_6  and  C8_8 
REMARK    4  A    between atoms: C6_6  and  S9_9 
REMARK    5  A    between atoms: C7_7  and  C8_8 
REMARK    6  A    between atoms: C7_7  and  S10_10 
ROOT
HETATM    1  C2  UNL     1     -35.073  16.115  -1.924  1.00 20.00     0.016 C 
HETATM    2  C3  UNL     1     -33.116  16.262  -3.449  1.00 20.00     0.016 C 
HETATM    3  C8  UNL     1     -34.621  15.914  -3.389  1.00 20.00    -0.031 C 
ENDROOT
BRANCH   3   4
HETATM    4  C6  UNL     1     -34.840  14.418  -3.747  1.00 20.00     0.080 C 
BRANCH   4   5
HETATM    5  S9  UNL     1     -36.444  13.999  -4.507  1.00 20.00    -0.181 SA
HETATM    6  H28 UNL     1     -36.101  14.356  -5.751  1.00 20.00     0.101 HD
ENDBRANCH   4   5
ENDBRANCH   3   4
BRANCH   3   7
HETATM    7  C7  UNL     1     -35.371  16.905  -4.323  1.00 20.00     0.083 C 
BRANCH   7   8
HETATM    8  S10 UNL     1     -34.510  17.369  -5.860  1.00 20.00    -0.168 SA
BRANCH   8   9
HETATM    9  C5  UNL     1     -35.735  16.750  -7.035  1.00 20.00     0.073 C 
BRANCH   9  10
HETATM   10  C4  UNL     1     -35.179  15.561  -7.810  1.00 20.00     0.006 C 
HETATM   11  C1  UNL     1     -33.823  15.137  -7.264  1.00 20.00     0.006 C 
ENDBRANCH   9  10
ENDBRANCH   8   9
ENDBRANCH   7   8
ENDBRANCH   3   7
TORSDOF 6
ENDMDL
