MODEL 1
REMARK VINA RESULT:      -3.9      0.000      0.000
REMARK  4 active torsions:
REMARK  status: ('A' for Active; 'I' for Inactive)
REMARK    1  A    between atoms: C4_4  and  O8_8 
REMARK    2  A    between atoms: C5_5  and  C6_6 
REMARK    3  A    between atoms: C5_5  and  O8_8 
REMARK    4  A    between atoms: C6_6  and  S9_9 
ROOT
HETATM    1  C1  UNL     1     -34.477   4.754   4.509  1.00 20.00     0.060 C 
HETATM    2  C2  UNL     1     -34.965   5.160   5.882  1.00 20.00     0.170 C 
HETATM    3  C3  UNL     1     -33.622   6.870   5.049  1.00 20.00     0.199 C 
HETATM    4  C4  UNL     1     -34.185   6.093   3.878  1.00 20.00     0.147 C 
HETATM    5  O7  UNL     1     -34.267   6.366   6.226  1.00 20.00    -0.389 OA
ENDROOT
BRANCH   4   6
HETATM    6  O8  UNL     1     -33.264   5.982   2.816  1.00 20.00    -0.383 OA
BRANCH   6   7
HETATM    7  C5  UNL     1     -32.495   7.167   2.668  1.00 20.00     0.178 C 
BRANCH   7   8
HETATM    8  C6  UNL     1     -32.288   7.473   1.193  1.00 20.00     0.097 C 
BRANCH   8   9
HETATM    9  S9  UNL     1     -33.015   9.078   0.740  1.00 20.00    -0.180 SA
HETATM   10  H21 UNL     1     -32.054   9.426  -0.125  1.00 20.00     0.101 HD
ENDBRANCH   8   9
ENDBRANCH   7   8
ENDBRANCH   6   7
ENDBRANCH   4   6
TORSDOF 4
ENDMDL
MODEL 2
REMARK VINA RESULT:      -3.6     15.998     16.811
REMARK  4 active torsions:
REMARK  status: ('A' for Active; 'I' for Inactive)
REMARK    1  A    between atoms: C4_4  and  O8_8 
REMARK    2  A    between atoms: C5_5  and  C6_6 
REMARK    3  A    between atoms: C5_5  and  O8_8 
REMARK    4  A    between atoms: C6_6  and  S9_9 
ROOT
HETATM    1  C1  UNL     1     -21.938  17.156   9.150  1.00 20.00     0.060 C 
HETATM    2  C2  UNL     1     -21.774  17.429   7.672  1.00 20.00     0.170 C 
HETATM    3  C3  UNL     1     -23.655  18.579   8.422  1.00 20.00     0.199 C 
HETATM    4  C4  UNL     1     -22.728  18.361   9.599  1.00 20.00     0.147 C 
HETATM    5  O7  UNL     1     -22.945  18.146   7.253  1.00 20.00    -0.389 OA
ENDROOT
BRANCH   4   6
HETATM    6  O8  UNL     1     -23.431  18.110  10.796  1.00 20.00    -0.383 OA
BRANCH   6   7
HETATM    7  C5  UNL     1     -23.985  16.802  10.809  1.00 20.00     0.178 C 
BRANCH   7   8
HETATM    8  C6  UNL     1     -25.166  16.746  11.765  1.00 20.00     0.097 C 
BRANCH   8   9
HETATM    9  S9  UNL     1     -25.883  18.398  12.032  1.00 20.00    -0.180 SA
HETATM   10  H21 UNL     1     -24.713  19.042  12.126  1.00 20.00     0.101 HD
ENDBRANCH   8   9
ENDBRANCH   7   8
ENDBRANCH   6   7
ENDBRANCH   4   6
TORSDOF 4
ENDMDL
MODEL 3
REMARK VINA RESULT:      -3.6      1.111      1.468
REMARK  4 active torsions:
REMARK  status: ('A' for Active; 'I' for Inactive)
REMARK    1  A    between atoms: C4_4  and  O8_8 
REMARK    2  A    between atoms: C5_5  and  C6_6 
REMARK    3  A    between atoms: C5_5  and  O8_8 
REMARK    4  A    between atoms: C6_6  and  S9_9 
ROOT
HETATM    1  C1  UNL     1     -34.324   6.536   5.454  1.00 20.00     0.060 C 
HETATM    2  C2  UNL     1     -34.775   5.168   5.914  1.00 20.00     0.170 C 
HETATM    3  C3  UNL     1     -34.404   5.080   3.617  1.00 20.00     0.199 C 
HETATM    4  C4  UNL     1     -33.566   6.202   4.193  1.00 20.00     0.147 C 
HETATM    5  O7  UNL     1     -34.979   4.383   4.729  1.00 20.00    -0.389 OA
ENDROOT
BRANCH   4   6
HETATM    6  O8  UNL     1     -33.481   7.310   3.324  1.00 20.00    -0.383 OA
BRANCH   6   7
HETATM    7  C5  UNL     1     -32.221   7.364   2.672  1.00 20.00     0.178 C 
BRANCH   7   8
HETATM    8  C6  UNL     1     -32.416   7.461   1.167  1.00 20.00     0.097 C 
BRANCH   8   9
HETATM    9  S9  UNL     1     -32.957   9.127   0.674  1.00 20.00    -0.180 SA
HETATM   10  H21 UNL     1     -32.333   9.773   1.667  1.00 20.00     0.101 HD
ENDBRANCH   8   9
ENDBRANCH   7   8
ENDBRANCH   6   7
ENDBRANCH   4   6
TORSDOF 4
ENDMDL
MODEL 4
REMARK VINA RESULT:      -3.3     15.474     16.165
REMARK  4 active torsions:
REMARK  status: ('A' for Active; 'I' for Inactive)
REMARK    1  A    between atoms: C4_4  and  O8_8 
REMARK    2  A    between atoms: C5_5  and  C6_6 
REMARK    3  A    between atoms: C5_5  and  O8_8 
REMARK    4  A    between atoms: C6_6  and  S9_9 
ROOT
HETATM    1  C1  UNL     1     -24.048  17.306   9.903  1.00 20.00     0.060 C 
HETATM    2  C2  UNL     1     -23.161  17.448  11.121  1.00 20.00     0.170 C 
HETATM    3  C3  UNL     1     -22.033  18.337   9.287  1.00 20.00     0.199 C 
HETATM    4  C4  UNL     1     -23.521  18.400   9.009  1.00 20.00     0.147 C 
HETATM    5  O7  UNL     1     -21.887  17.911  10.648  1.00 20.00    -0.389 OA
ENDROOT
BRANCH   4   6
HETATM    6  O8  UNL     1     -23.823  18.159   7.653  1.00 20.00    -0.383 OA
BRANCH   6   7
HETATM    7  C5  UNL     1     -24.499  19.263   7.067  1.00 20.00     0.178 C 
BRANCH   7   8
HETATM    8  C6  UNL     1     -25.987  18.967   6.962  1.00 20.00     0.097 C 
BRANCH   8   9
HETATM    9  S9  UNL     1     -26.563  19.067   5.238  1.00 20.00    -0.180 SA
HETATM   10  H21 UNL     1     -27.690  19.738   5.509  1.00 20.00     0.101 HD
ENDBRANCH   8   9
ENDBRANCH   7   8
ENDBRANCH   6   7
ENDBRANCH   4   6
TORSDOF 4
ENDMDL
MODEL 5
REMARK VINA RESULT:      -3.3     11.615     12.259
REMARK  4 active torsions:
REMARK  status: ('A' for Active; 'I' for Inactive)
REMARK    1  A    between atoms: C4_4  and  O8_8 
REMARK    2  A    between atoms: C5_5  and  C6_6 
REMARK    3  A    between atoms: C5_5  and  O8_8 
REMARK    4  A    between atoms: C6_6  and  S9_9 
ROOT
HETATM    1  C1  UNL     1     -35.132  14.464  -3.641  1.00 20.00     0.060 C 
HETATM    2  C2  UNL     1     -35.950  13.794  -4.722  1.00 20.00     0.170 C 
HETATM    3  C3  UNL     1     -34.163  14.893  -5.733  1.00 20.00     0.199 C 
HETATM    4  C4  UNL     1     -33.781  14.576  -4.302  1.00 20.00     0.147 C 
HETATM    5  O7  UNL     1     -35.417  14.242  -5.978  1.00 20.00    -0.389 OA
ENDROOT
BRANCH   4   6
HETATM    6  O8  UNL     1     -32.996  15.593  -3.719  1.00 20.00    -0.383 OA
BRANCH   6   7
HETATM    7  C5  UNL     1     -33.697  16.260  -2.680  1.00 20.00     0.178 C 
BRANCH   7   8
HETATM    8  C6  UNL     1     -32.896  17.459  -2.196  1.00 20.00     0.097 C 
BRANCH   8   9
HETATM    9  S9  UNL     1     -32.858  18.780  -3.448  1.00 20.00    -0.180 SA
HETATM   10  H21 UNL     1     -31.943  19.533  -2.824  1.00 20.00     0.101 HD
ENDBRANCH   8   9
ENDBRANCH   7   8
ENDBRANCH   6   7
ENDBRANCH   4   6
TORSDOF 4
ENDMDL
MODEL 6
REMARK VINA RESULT:      -3.3     11.634     12.152
REMARK  4 active torsions:
REMARK  status: ('A' for Active; 'I' for Inactive)
REMARK    1  A    between atoms: C4_4  and  O8_8 
REMARK    2  A    between atoms: C5_5  and  C6_6 
REMARK    3  A    between atoms: C5_5  and  O8_8 
REMARK    4  A    between atoms: C6_6  and  S9_9 
ROOT
HETATM    1  C1  UNL     1     -37.170  15.955  -4.393  1.00 20.00     0.060 C 
HETATM    2  C2  UNL     1     -38.298  14.962  -4.225  1.00 20.00     0.170 C 
HETATM    3  C3  UNL     1     -36.312  13.775  -4.481  1.00 20.00     0.199 C 
HETATM    4  C4  UNL     1     -35.979  15.149  -3.938  1.00 20.00     0.147 C 
HETATM    5  O7  UNL     1     -37.741  13.662  -4.470  1.00 20.00    -0.389 OA
ENDROOT
BRANCH   4   6
HETATM    6  O8  UNL     1     -34.772  15.655  -4.463  1.00 20.00    -0.383 OA
BRANCH   6   7
HETATM    7  C5  UNL     1     -33.716  15.566  -3.517  1.00 20.00     0.178 C 
BRANCH   7   8
HETATM    8  C6  UNL     1     -34.058  16.375  -2.276  1.00 20.00     0.097 C 
BRANCH   8   9
HETATM    9  S9  UNL     1     -32.865  17.724  -2.014  1.00 20.00    -0.180 SA
HETATM   10  H21 UNL     1     -32.619  17.944  -3.311  1.00 20.00     0.101 HD
ENDBRANCH   8   9
ENDBRANCH   7   8
ENDBRANCH   6   7
ENDBRANCH   4   6
TORSDOF 4
ENDMDL
MODEL 7
REMARK VINA RESULT:      -3.2     11.782     12.446
REMARK  4 active torsions:
REMARK  status: ('A' for Active; 'I' for Inactive)
REMARK    1  A    between atoms: C4_4  and  O8_8 
REMARK    2  A    between atoms: C5_5  and  C6_6 
REMARK    3  A    between atoms: C5_5  and  O8_8 
REMARK    4  A    between atoms: C6_6  and  S9_9 
ROOT
HETATM    1  C1  UNL     1     -33.307  15.809  -3.634  1.00 20.00     0.060 C 
HETATM    2  C2  UNL     1     -34.134  16.084  -2.398  1.00 20.00     0.170 C 
HETATM    3  C3  UNL     1     -35.422  14.826  -3.876  1.00 20.00     0.199 C 
HETATM    4  C4  UNL     1     -33.961  14.561  -4.172  1.00 20.00     0.147 C 
HETATM    5  O7  UNL     1     -35.463  15.621  -2.683  1.00 20.00    -0.389 OA
ENDROOT
BRANCH   4   6
HETATM    6  O8  UNL     1     -33.715  14.392  -5.550  1.00 20.00    -0.383 OA
BRANCH   6   7
HETATM    7  C5  UNL     1     -34.793  14.882  -6.334  1.00 20.00     0.178 C 
BRANCH   7   8
HETATM    8  C6  UNL     1     -34.279  15.873  -7.367  1.00 20.00     0.097 C 
BRANCH   8   9
HETATM    9  S9  UNL     1     -34.530  17.591  -6.821  1.00 20.00    -0.180 SA
HETATM   10  H21 UNL     1     -35.720  17.750  -7.413  1.00 20.00     0.101 HD
ENDBRANCH   8   9
ENDBRANCH   7   8
ENDBRANCH   6   7
ENDBRANCH   4   6
TORSDOF 4
ENDMDL
MODEL 8
REMARK VINA RESULT:      -3.2     11.457     12.305
REMARK  4 active torsions:
REMARK  status: ('A' for Active; 'I' for Inactive)
REMARK    1  A    between atoms: C4_4  and  O8_8 
REMARK    2  A    between atoms: C5_5  and  C6_6 
REMARK    3  A    between atoms: C5_5  and  O8_8 
REMARK    4  A    between atoms: C6_6  and  S9_9 
ROOT
HETATM    1  C1  UNL     1     -34.574  15.408  -5.291  1.00 20.00     0.060 C 
HETATM    2  C2  UNL     1     -35.282  14.779  -6.470  1.00 20.00     0.170 C 
HETATM    3  C3  UNL     1     -36.115  13.817  -4.519  1.00 20.00     0.199 C 
HETATM    4  C4  UNL     1     -35.570  15.189  -4.180  1.00 20.00     0.147 C 
HETATM    5  O7  UNL     1     -36.068  13.697  -5.947  1.00 20.00    -0.389 OA
ENDROOT
BRANCH   4   6
HETATM    6  O8  UNL     1     -34.957  15.223  -2.911  1.00 20.00    -0.383 OA
BRANCH   6   7
HETATM    7  C5  UNL     1     -33.729  15.937  -2.946  1.00 20.00     0.178 C 
BRANCH   7   8
HETATM    8  C6  UNL     1     -33.784  17.117  -1.989  1.00 20.00     0.097 C 
BRANCH   8   9
HETATM    9  S9  UNL     1     -35.241  17.023  -0.903  1.00 20.00    -0.180 SA
HETATM   10  H21 UNL     1     -34.558  16.775   0.222  1.00 20.00     0.101 HD
ENDBRANCH   8   9
ENDBRANCH   7   8
ENDBRANCH   6   7
ENDBRANCH   4   6
TORSDOF 4
ENDMDL
MODEL 9
REMARK VINA RESULT:      -3.1     11.555     12.654
REMARK  4 active torsions:
REMARK  status: ('A' for Active; 'I' for Inactive)
REMARK    1  A    between atoms: C4_4  and  O8_8 
REMARK    2  A    between atoms: C5_5  and  C6_6 
REMARK    3  A    between atoms: C5_5  and  O8_8 
REMARK    4  A    between atoms: C6_6  and  S9_9 
ROOT
HETATM    1  C1  UNL     1     -35.923  14.779  -6.022  1.00 20.00     0.060 C 
HETATM    2  C2  UNL     1     -34.427  14.997  -5.972  1.00 20.00     0.170 C 
HETATM    3  C3  UNL     1     -35.105  14.109  -3.928  1.00 20.00     0.199 C 
HETATM    4  C4  UNL     1     -36.112  13.701  -4.983  1.00 20.00     0.147 C 
HETATM    5  O7  UNL     1     -34.021  14.745  -4.618  1.00 20.00    -0.389 OA
ENDROOT
BRANCH   4   6
HETATM    6  O8  UNL     1     -37.431  13.679  -4.485  1.00 20.00    -0.383 OA
BRANCH   6   7
HETATM    7  C5  UNL     1     -37.928  14.992  -4.269  1.00 20.00     0.178 C 
BRANCH   7   8
HETATM    8  C6  UNL     1     -39.448  14.988  -4.309  1.00 20.00     0.097 C 
BRANCH   8   9
HETATM    9  S9  UNL     1     -40.142  16.344  -3.314  1.00 20.00    -0.180 SA
HETATM   10  H21 UNL     1     -38.981  16.985  -3.127  1.00 20.00     0.101 HD
ENDBRANCH   8   9
ENDBRANCH   7   8
ENDBRANCH   6   7
ENDBRANCH   4   6
TORSDOF 4
ENDMDL
