MODEL 1
REMARK VINA RESULT:      -3.1      0.000      0.000
REMARK  6 active torsions:
REMARK  status: ('A' for Active; 'I' for Inactive)
REMARK    1  A    between atoms: C2_2  and  C3_3 
REMARK    2  A    between atoms: C2_2  and  O6_6 
REMARK    3  A    between atoms: C3_3  and  S8_8 
REMARK    4  A    between atoms: C4_4  and  C5_5 
REMARK    5  A    between atoms: C4_4  and  S7_7 
REMARK    6  A    between atoms: C5_5  and  S8_8 
ROOT
HETATM    1  S8  UNL     1     -34.325  15.255  -5.873  1.00 20.00    -0.166 SA
ENDROOT
BRANCH   1   2
HETATM    2  C3  UNL     1     -35.858  14.279  -5.953  1.00 20.00     0.100 C 
BRANCH   2   3
HETATM    3  C2  UNL     1     -36.229  13.715  -4.591  1.00 20.00     0.177 C 
BRANCH   3   4
HETATM    4  O6  UNL     1     -37.643  13.667  -4.451  1.00 20.00    -0.395 OA
HETATM    5  C1  UNL     1     -38.194  14.963  -4.264  1.00 20.00     0.201 C 
ENDBRANCH   3   4
ENDBRANCH   2   3
ENDBRANCH   1   2
BRANCH   1   6
HETATM    6  C5  UNL     1     -33.735  14.679  -4.265  1.00 20.00     0.084 C 
BRANCH   6   7
HETATM    7  C4  UNL     1     -33.373  15.866  -3.383  1.00 20.00     0.081 C 
BRANCH   7   8
HETATM    8  S7  UNL     1     -34.717  16.203  -2.206  1.00 20.00    -0.181 SA
HETATM    9  H20 UNL     1     -34.118  15.643  -1.147  1.00 20.00     0.101 HD
ENDBRANCH   7   8
ENDBRANCH   6   7
ENDBRANCH   1   6
TORSDOF 6
ENDMDL
MODEL 2
REMARK VINA RESULT:      -2.9      1.137      1.431
REMARK  6 active torsions:
REMARK  status: ('A' for Active; 'I' for Inactive)
REMARK    1  A    between atoms: C2_2  and  C3_3 
REMARK    2  A    between atoms: C2_2  and  O6_6 
REMARK    3  A    between atoms: C3_3  and  S8_8 
REMARK    4  A    between atoms: C4_4  and  C5_5 
REMARK    5  A    between atoms: C4_4  and  S7_7 
REMARK    6  A    between atoms: C5_5  and  S8_8 
ROOT
HETATM    1  S8  UNL     1     -33.592  14.743  -4.467  1.00 20.00    -0.166 SA
ENDROOT
BRANCH   1   2
HETATM    2  C3  UNL     1     -35.141  13.973  -3.904  1.00 20.00     0.100 C 
BRANCH   2   3
HETATM    3  C2  UNL     1     -36.168  13.911  -5.023  1.00 20.00     0.177 C 
BRANCH   3   4
HETATM    4  O6  UNL     1     -37.456  13.634  -4.488  1.00 20.00    -0.395 OA
HETATM    5  C1  UNL     1     -38.197  14.826  -4.267  1.00 20.00     0.201 C 
ENDBRANCH   3   4
ENDBRANCH   2   3
ENDBRANCH   1   2
BRANCH   1   6
HETATM    6  C5  UNL     1     -33.493  16.058  -3.231  1.00 20.00     0.084 C 
BRANCH   6   7
HETATM    7  C4  UNL     1     -34.679  15.973  -2.279  1.00 20.00     0.081 C 
BRANCH   7   8
HETATM    8  S7  UNL     1     -34.671  17.392  -1.143  1.00 20.00    -0.181 SA
HETATM    9  H20 UNL     1     -33.544  17.053  -0.504  1.00 20.00     0.101 HD
ENDBRANCH   7   8
ENDBRANCH   6   7
ENDBRANCH   1   6
TORSDOF 6
ENDMDL
MODEL 3
REMARK VINA RESULT:      -2.8     11.524     12.027
REMARK  6 active torsions:
REMARK  status: ('A' for Active; 'I' for Inactive)
REMARK    1  A    between atoms: C2_2  and  C3_3 
REMARK    2  A    between atoms: C2_2  and  O6_6 
REMARK    3  A    between atoms: C3_3  and  S8_8 
REMARK    4  A    between atoms: C4_4  and  C5_5 
REMARK    5  A    between atoms: C4_4  and  S7_7 
REMARK    6  A    between atoms: C5_5  and  S8_8 
ROOT
HETATM    1  S8  UNL     1     -33.255   5.435   2.644  1.00 20.00    -0.166 SA
ENDROOT
BRANCH   1   2
HETATM    2  C3  UNL     1     -34.652   5.728   3.772  1.00 20.00     0.100 C 
BRANCH   2   3
HETATM    3  C2  UNL     1     -34.714   4.673   4.864  1.00 20.00     0.177 C 
BRANCH   3   4
HETATM    4  O6  UNL     1     -34.671   5.293   6.143  1.00 20.00    -0.395 OA
HETATM    5  C1  UNL     1     -34.134   6.607   6.069  1.00 20.00     0.201 C 
ENDBRANCH   3   4
ENDBRANCH   2   3
ENDBRANCH   1   2
BRANCH   1   6
HETATM    6  C5  UNL     1     -32.600   7.119   2.600  1.00 20.00     0.084 C 
BRANCH   6   7
HETATM    7  C4  UNL     1     -32.221   7.496   1.174  1.00 20.00     0.081 C 
BRANCH   7   8
HETATM    8  S7  UNL     1     -33.021   9.060   0.708  1.00 20.00    -0.181 SA
HETATM    9  H20 UNL     1     -33.069   8.805  -0.606  1.00 20.00     0.101 HD
ENDBRANCH   7   8
ENDBRANCH   6   7
ENDBRANCH   1   6
TORSDOF 6
ENDMDL
MODEL 4
REMARK VINA RESULT:      -2.8     18.294     19.018
REMARK  6 active torsions:
REMARK  status: ('A' for Active; 'I' for Inactive)
REMARK    1  A    between atoms: C2_2  and  C3_3 
REMARK    2  A    between atoms: C2_2  and  O6_6 
REMARK    3  A    between atoms: C3_3  and  S8_8 
REMARK    4  A    between atoms: C4_4  and  C5_5 
REMARK    5  A    between atoms: C4_4  and  S7_7 
REMARK    6  A    between atoms: C5_5  and  S8_8 
ROOT
HETATM    1  S8  UNL     1     -24.070  16.683  10.603  1.00 20.00    -0.166 SA
ENDROOT
BRANCH   1   2
HETATM    2  C3  UNL     1     -22.982  17.945   9.873  1.00 20.00     0.100 C 
BRANCH   2   3
HETATM    3  C2  UNL     1     -23.582  18.527   8.603  1.00 20.00     0.177 C 
BRANCH   3   4
HETATM    4  O6  UNL     1     -22.904  18.015   7.464  1.00 20.00    -0.395 OA
HETATM    5  C1  UNL     1     -21.671  17.404   7.821  1.00 20.00     0.201 C 
ENDBRANCH   3   4
ENDBRANCH   2   3
ENDBRANCH   1   2
BRANCH   1   6
HETATM    6  C5  UNL     1     -24.519  17.570  12.112  1.00 20.00     0.084 C 
BRANCH   6   7
HETATM    7  C4  UNL     1     -26.033  17.685  12.222  1.00 20.00     0.081 C 
BRANCH   7   8
HETATM    8  S7  UNL     1     -26.596  19.249  11.485  1.00 20.00    -0.181 SA
HETATM    9  H20 UNL     1     -26.170  18.980  10.245  1.00 20.00     0.101 HD
ENDBRANCH   7   8
ENDBRANCH   6   7
ENDBRANCH   1   6
TORSDOF 6
ENDMDL
MODEL 5
REMARK VINA RESULT:      -2.8     11.201     11.871
REMARK  6 active torsions:
REMARK  status: ('A' for Active; 'I' for Inactive)
REMARK    1  A    between atoms: C2_2  and  C3_3 
REMARK    2  A    between atoms: C2_2  and  O6_6 
REMARK    3  A    between atoms: C3_3  and  S8_8 
REMARK    4  A    between atoms: C4_4  and  C5_5 
REMARK    5  A    between atoms: C4_4  and  S7_7 
REMARK    6  A    between atoms: C5_5  and  S8_8 
ROOT
HETATM    1  S8  UNL     1     -33.229   5.026   2.397  1.00 20.00    -0.166 SA
ENDROOT
BRANCH   1   2
HETATM    2  C3  UNL     1     -32.998   6.668   3.143  1.00 20.00     0.100 C 
BRANCH   2   3
HETATM    3  C2  UNL     1     -32.186   7.580   2.238  1.00 20.00     0.177 C 
BRANCH   3   4
HETATM    4  O6  UNL     1     -32.864   7.771   1.003  1.00 20.00    -0.395 OA
HETATM    5  C1  UNL     1     -32.912   9.145   0.641  1.00 20.00     0.201 C 
ENDBRANCH   3   4
ENDBRANCH   2   3
ENDBRANCH   1   2
BRANCH   1   6
HETATM    6  C5  UNL     1     -34.190   4.269   3.727  1.00 20.00     0.084 C 
BRANCH   6   7
HETATM    7  C4  UNL     1     -35.134   5.295   4.339  1.00 20.00     0.081 C 
BRANCH   7   8
HETATM    8  S7  UNL     1     -34.767   5.506   6.108  1.00 20.00    -0.181 SA
HETATM    9  H20 UNL     1     -35.953   5.069   6.549  1.00 20.00     0.101 HD
ENDBRANCH   7   8
ENDBRANCH   6   7
ENDBRANCH   1   6
TORSDOF 6
ENDMDL
MODEL 6
REMARK VINA RESULT:      -2.7     16.218     18.189
REMARK  6 active torsions:
REMARK  status: ('A' for Active; 'I' for Inactive)
REMARK    1  A    between atoms: C2_2  and  C3_3 
REMARK    2  A    between atoms: C2_2  and  O6_6 
REMARK    3  A    between atoms: C3_3  and  S8_8 
REMARK    4  A    between atoms: C4_4  and  C5_5 
REMARK    5  A    between atoms: C4_4  and  S7_7 
REMARK    6  A    between atoms: C5_5  and  S8_8 
ROOT
HETATM    1  S8  UNL     1     -24.741  19.013   9.102  1.00 20.00    -0.166 SA
ENDROOT
BRANCH   1   2
HETATM    2  C3  UNL     1     -22.980  18.596   9.281  1.00 20.00     0.100 C 
BRANCH   2   3
HETATM    3  C2  UNL     1     -22.793  17.157   9.732  1.00 20.00     0.177 C 
BRANCH   3   4
HETATM    4  O6  UNL     1     -23.310  16.986  11.045  1.00 20.00    -0.395 OA
HETATM    5  C1  UNL     1     -22.515  17.662  12.010  1.00 20.00     0.201 C 
ENDBRANCH   3   4
ENDBRANCH   2   3
ENDBRANCH   1   2
BRANCH   1   6
HETATM    6  C5  UNL     1     -24.803  19.106   7.298  1.00 20.00     0.084 C 
BRANCH   6   7
HETATM    7  C4  UNL     1     -26.219  18.834   6.808  1.00 20.00     0.081 C 
BRANCH   7   8
HETATM    8  S7  UNL     1     -26.325  19.119   5.015  1.00 20.00    -0.181 SA
HETATM    9  H20 UNL     1     -27.368  19.958   5.069  1.00 20.00     0.101 HD
ENDBRANCH   7   8
ENDBRANCH   6   7
ENDBRANCH   1   6
TORSDOF 6
ENDMDL
MODEL 7
REMARK VINA RESULT:      -2.7      1.523      1.724
REMARK  6 active torsions:
REMARK  status: ('A' for Active; 'I' for Inactive)
REMARK    1  A    between atoms: C2_2  and  C3_3 
REMARK    2  A    between atoms: C2_2  and  O6_6 
REMARK    3  A    between atoms: C3_3  and  S8_8 
REMARK    4  A    between atoms: C4_4  and  C5_5 
REMARK    5  A    between atoms: C4_4  and  S7_7 
REMARK    6  A    between atoms: C5_5  and  S8_8 
ROOT
HETATM    1  S8  UNL     1     -34.850  16.232  -4.477  1.00 20.00    -0.166 SA
ENDROOT
BRANCH   1   2
HETATM    2  C3  UNL     1     -36.057  15.163  -3.634  1.00 20.00     0.100 C 
BRANCH   2   3
HETATM    3  C2  UNL     1     -36.389  13.936  -4.467  1.00 20.00     0.177 C 
BRANCH   3   4
HETATM    4  O6  UNL     1     -37.789  13.692  -4.439  1.00 20.00    -0.395 OA
HETATM    5  C1  UNL     1     -38.525  14.891  -4.235  1.00 20.00     0.201 C 
ENDBRANCH   3   4
ENDBRANCH   2   3
ENDBRANCH   1   2
BRANCH   1   6
HETATM    6  C5  UNL     1     -33.401  15.826  -3.475  1.00 20.00     0.084 C 
BRANCH   6   7
HETATM    7  C4  UNL     1     -33.078  16.977  -2.531  1.00 20.00     0.081 C 
BRANCH   7   8
HETATM    8  S7  UNL     1     -32.972  18.536  -3.460  1.00 20.00    -0.181 SA
HETATM    9  H20 UNL     1     -33.788  18.162  -4.454  1.00 20.00     0.101 HD
ENDBRANCH   7   8
ENDBRANCH   6   7
ENDBRANCH   1   6
TORSDOF 6
ENDMDL
MODEL 8
REMARK VINA RESULT:      -2.7      1.700      2.312
REMARK  6 active torsions:
REMARK  status: ('A' for Active; 'I' for Inactive)
REMARK    1  A    between atoms: C2_2  and  C3_3 
REMARK    2  A    between atoms: C2_2  and  O6_6 
REMARK    3  A    between atoms: C3_3  and  S8_8 
REMARK    4  A    between atoms: C4_4  and  C5_5 
REMARK    5  A    between atoms: C4_4  and  S7_7 
REMARK    6  A    between atoms: C5_5  and  S8_8 
ROOT
HETATM    1  S8  UNL     1     -34.934  15.653  -2.949  1.00 20.00    -0.166 SA
ENDROOT
BRANCH   1   2
HETATM    2  C3  UNL     1     -34.818  14.159  -3.981  1.00 20.00     0.100 C 
BRANCH   2   3
HETATM    3  C2  UNL     1     -36.163  13.800  -4.590  1.00 20.00     0.177 C 
BRANCH   3   4
HETATM    4  O6  UNL     1     -36.034  13.637  -5.996  1.00 20.00    -0.395 OA
HETATM    5  C1  UNL     1     -35.595  14.835  -6.622  1.00 20.00     0.201 C 
ENDBRANCH   3   4
ENDBRANCH   2   3
ENDBRANCH   1   2
BRANCH   1   6
HETATM    6  C5  UNL     1     -33.220  16.205  -3.101  1.00 20.00     0.084 C 
BRANCH   6   7
HETATM    7  C4  UNL     1     -32.983  17.427  -2.224  1.00 20.00     0.081 C 
BRANCH   7   8
HETATM    8  S7  UNL     1     -34.379  17.655  -1.080  1.00 20.00    -0.181 SA
HETATM    9  H20 UNL     1     -34.185  16.521  -0.396  1.00 20.00     0.101 HD
ENDBRANCH   7   8
ENDBRANCH   6   7
ENDBRANCH   1   6
TORSDOF 6
ENDMDL
MODEL 9
REMARK VINA RESULT:      -2.5      2.181      3.015
REMARK  6 active torsions:
REMARK  status: ('A' for Active; 'I' for Inactive)
REMARK    1  A    between atoms: C2_2  and  C3_3 
REMARK    2  A    between atoms: C2_2  and  O6_6 
REMARK    3  A    between atoms: C3_3  and  S8_8 
REMARK    4  A    between atoms: C4_4  and  C5_5 
REMARK    5  A    between atoms: C4_4  and  S7_7 
REMARK    6  A    between atoms: C5_5  and  S8_8 
ROOT
HETATM    1  S8  UNL     1     -33.435  16.720  -3.109  1.00 20.00    -0.166 SA
ENDROOT
BRANCH   1   2
HETATM    2  C3  UNL     1     -34.617  15.337  -3.129  1.00 20.00     0.100 C 
BRANCH   2   3
HETATM    3  C2  UNL     1     -34.137  14.209  -4.028  1.00 20.00     0.177 C 
BRANCH   3   4
HETATM    4  O6  UNL     1     -35.153  13.224  -4.160  1.00 20.00    -0.395 OA
HETATM    5  C1  UNL     1     -36.393  13.802  -4.549  1.00 20.00     0.201 C 
ENDBRANCH   3   4
ENDBRANCH   2   3
ENDBRANCH   1   2
BRANCH   1   6
HETATM    6  C5  UNL     1     -33.861  17.400  -1.490  1.00 20.00     0.084 C 
BRANCH   6   7
HETATM    7  C4  UNL     1     -35.212  16.867  -1.035  1.00 20.00     0.081 C 
BRANCH   7   8
HETATM    8  S7  UNL     1     -35.557  17.406   0.666  1.00 20.00    -0.181 SA
HETATM    9  H20 UNL     1     -34.296  17.746   0.963  1.00 20.00     0.101 HD
ENDBRANCH   7   8
ENDBRANCH   6   7
ENDBRANCH   1   6
TORSDOF 6
ENDMDL
