MODEL 1
REMARK VINA RESULT:      -3.6      0.000      0.000
REMARK  5 active torsions:
REMARK  status: ('A' for Active; 'I' for Inactive)
REMARK    1  A    between atoms: C5_5  and  C8_8 
REMARK    2  A    between atoms: C5_5  and  N9_9 
REMARK    3  A    between atoms: C6_6  and  C8_8 
REMARK    4  A    between atoms: C6_6  and  S10_10 
REMARK    5  A    between atoms: C7_7  and  C8_8 
ROOT
HETATM    1  C8  UNL     1     -34.903  15.289  -4.289  1.00 20.00     0.024 C 
ENDROOT
BRANCH   1   2
HETATM    2  C5  UNL     1     -33.898  14.956  -5.413  1.00 20.00     0.239 C 
BRANCH   2   3
HETATM    3  N9  UNL     1     -33.904  15.986  -6.479  1.00 20.00    -0.078 N 
HETATM    4  C3  UNL     1     -34.002  15.393  -7.863  1.00 20.00     0.269 C 
HETATM    5  C4  UNL     1     -34.962  17.042  -6.263  1.00 20.00     0.269 C 
HETATM    6  H29 UNL     1     -32.996  16.483  -6.446  1.00 20.00     0.278 HD
ENDBRANCH   2   3
ENDBRANCH   1   2
BRANCH   1   7
HETATM    7  C6  UNL     1     -36.005  14.213  -4.114  1.00 20.00     0.077 C 
BRANCH   7   8
HETATM    8  S10 UNL     1     -37.707  14.805  -4.380  1.00 20.00    -0.182 SA
HETATM    9  H30 UNL     1     -38.111  14.626  -3.116  1.00 20.00     0.101 HD
ENDBRANCH   7   8
ENDBRANCH   1   7
BRANCH   1  10
HETATM   10  C7  UNL     1     -34.210  15.575  -2.911  1.00 20.00    -0.016 C 
HETATM   11  C1  UNL     1     -35.170  16.192  -1.886  1.00 20.00     0.010 C 
HETATM   12  C2  UNL     1     -32.998  16.507  -3.052  1.00 20.00     0.010 C 
ENDBRANCH   1  10
TORSDOF 5
ENDMDL
MODEL 2
REMARK VINA RESULT:      -3.4      2.406      3.338
REMARK  5 active torsions:
REMARK  status: ('A' for Active; 'I' for Inactive)
REMARK    1  A    between atoms: C5_5  and  C8_8 
REMARK    2  A    between atoms: C5_5  and  N9_9 
REMARK    3  A    between atoms: C6_6  and  C8_8 
REMARK    4  A    between atoms: C6_6  and  S10_10 
REMARK    5  A    between atoms: C7_7  and  C8_8 
ROOT
HETATM    1  C8  UNL     1     -35.016  15.938  -3.848  1.00 20.00     0.024 C 
ENDROOT
BRANCH   1   2
HETATM    2  C5  UNL     1     -36.547  16.067  -3.699  1.00 20.00     0.239 C 
BRANCH   2   3
HETATM    3  N9  UNL     1     -37.220  14.748  -3.776  1.00 20.00    -0.078 N 
HETATM    4  C3  UNL     1     -38.652  14.850  -4.243  1.00 20.00     0.269 C 
HETATM    5  C4  UNL     1     -36.448  13.748  -4.603  1.00 20.00     0.269 C 
HETATM    6  H29 UNL     1     -37.260  14.356  -2.819  1.00 20.00     0.278 HD
ENDBRANCH   2   3
ENDBRANCH   1   2
BRANCH   1   7
HETATM    7  C6  UNL     1     -34.413  16.943  -4.863  1.00 20.00     0.077 C 
BRANCH   7   8
HETATM    8  S10 UNL     1     -34.661  16.508  -6.615  1.00 20.00    -0.182 SA
HETATM    9  H30 UNL     1     -35.721  17.305  -6.803  1.00 20.00     0.101 HD
ENDBRANCH   7   8
ENDBRANCH   1   7
BRANCH   1  10
HETATM   10  C7  UNL     1     -34.256  16.037  -2.480  1.00 20.00    -0.016 C 
HETATM   11  C1  UNL     1     -35.140  16.592  -1.355  1.00 20.00     0.010 C 
HETATM   12  C2  UNL     1     -32.999  16.914  -2.575  1.00 20.00     0.010 C 
ENDBRANCH   1  10
TORSDOF 5
ENDMDL
MODEL 3
REMARK VINA RESULT:      -3.3      2.538      3.417
REMARK  5 active torsions:
REMARK  status: ('A' for Active; 'I' for Inactive)
REMARK    1  A    between atoms: C5_5  and  C8_8 
REMARK    2  A    between atoms: C5_5  and  N9_9 
REMARK    3  A    between atoms: C6_6  and  C8_8 
REMARK    4  A    between atoms: C6_6  and  S10_10 
REMARK    5  A    between atoms: C7_7  and  C8_8 
ROOT
HETATM    1  C8  UNL     1     -35.466  15.241  -3.327  1.00 20.00     0.024 C 
ENDROOT
BRANCH   1   2
HETATM    2  C5  UNL     1     -36.477  16.272  -3.875  1.00 20.00     0.239 C 
BRANCH   2   3
HETATM    3  N9  UNL     1     -37.862  15.969  -3.441  1.00 20.00    -0.078 N 
HETATM    4  C3  UNL     1     -38.743  17.194  -3.402  1.00 20.00     0.269 C 
HETATM    5  C4  UNL     1     -38.498  14.866  -4.252  1.00 20.00     0.269 C 
HETATM    6  H29 UNL     1     -37.819  15.618  -2.467  1.00 20.00     0.278 HD
ENDBRANCH   2   3
ENDBRANCH   1   2
BRANCH   1   7
HETATM    7  C6  UNL     1     -34.735  14.449  -4.442  1.00 20.00     0.077 C 
BRANCH   7   8
HETATM    8  S10 UNL     1     -35.109  14.991  -6.141  1.00 20.00    -0.182 SA
HETATM    9  H30 UNL     1     -35.252  16.288  -5.840  1.00 20.00     0.101 HD
ENDBRANCH   7   8
ENDBRANCH   1   7
BRANCH   1  10
HETATM   10  C7  UNL     1     -34.420  15.871  -2.344  1.00 20.00    -0.016 C 
HETATM   11  C1  UNL     1     -35.059  16.856  -1.356  1.00 20.00     0.010 C 
HETATM   12  C2  UNL     1     -33.292  16.604  -3.085  1.00 20.00     0.010 C 
ENDBRANCH   1  10
TORSDOF 5
ENDMDL
MODEL 4
REMARK VINA RESULT:      -3.3      2.197      2.939
REMARK  5 active torsions:
REMARK  status: ('A' for Active; 'I' for Inactive)
REMARK    1  A    between atoms: C5_5  and  C8_8 
REMARK    2  A    between atoms: C5_5  and  N9_9 
REMARK    3  A    between atoms: C6_6  and  C8_8 
REMARK    4  A    between atoms: C6_6  and  S10_10 
REMARK    5  A    between atoms: C7_7  and  C8_8 
ROOT
HETATM    1  C8  UNL     1     -34.868  15.338  -3.955  1.00 20.00     0.024 C 
ENDROOT
BRANCH   1   2
HETATM    2  C5  UNL     1     -35.811  16.405  -4.552  1.00 20.00     0.239 C 
BRANCH   2   3
HETATM    3  N9  UNL     1     -37.209  15.920  -4.633  1.00 20.00    -0.078 N 
HETATM    4  C3  UNL     1     -37.337  14.451  -4.305  1.00 20.00     0.269 C 
HETATM    5  C4  UNL     1     -38.163  16.747  -3.805  1.00 20.00     0.269 C 
HETATM    6  H29 UNL     1     -37.524  16.020  -5.615  1.00 20.00     0.278 HD
ENDBRANCH   2   3
ENDBRANCH   1   2
BRANCH   1   7
HETATM    7  C6  UNL     1     -33.801  14.833  -4.961  1.00 20.00     0.077 C 
BRANCH   7   8
HETATM    8  S10 UNL     1     -34.175  15.170  -6.711  1.00 20.00    -0.182 SA
HETATM    9  H30 UNL     1     -32.900  15.282  -7.103  1.00 20.00     0.101 HD
ENDBRANCH   7   8
ENDBRANCH   1   7
BRANCH   1  10
HETATM   10  C7  UNL     1     -34.174  15.805  -2.628  1.00 20.00    -0.016 C 
HETATM   11  C1  UNL     1     -35.164  16.427  -1.634  1.00 20.00     0.010 C 
HETATM   12  C2  UNL     1     -33.053  16.822  -2.885  1.00 20.00     0.010 C 
ENDBRANCH   1  10
TORSDOF 5
ENDMDL
MODEL 5
REMARK VINA RESULT:      -3.3      2.570      3.330
REMARK  5 active torsions:
REMARK  status: ('A' for Active; 'I' for Inactive)
REMARK    1  A    between atoms: C5_5  and  C8_8 
REMARK    2  A    between atoms: C5_5  and  N9_9 
REMARK    3  A    between atoms: C6_6  and  C8_8 
REMARK    4  A    between atoms: C6_6  and  S10_10 
REMARK    5  A    between atoms: C7_7  and  C8_8 
ROOT
HETATM    1  C8  UNL     1     -33.779  16.335  -2.878  1.00 20.00     0.024 C 
ENDROOT
BRANCH   1   2
HETATM    2  C5  UNL     1     -33.931  16.666  -4.378  1.00 20.00     0.239 C 
BRANCH   2   3
HETATM    3  N9  UNL     1     -33.538  15.522  -5.235  1.00 20.00    -0.078 N 
HETATM    4  C3  UNL     1     -32.923  14.389  -4.450  1.00 20.00     0.269 C 
HETATM    5  C4  UNL     1     -34.669  15.031  -6.106  1.00 20.00     0.269 C 
HETATM    6  H29 UNL     1     -32.801  15.851  -5.885  1.00 20.00     0.278 HD
ENDBRANCH   2   3
ENDBRANCH   1   2
BRANCH   1   7
HETATM    7  C6  UNL     1     -32.910  17.363  -2.109  1.00 20.00     0.077 C 
BRANCH   7   8
HETATM    8  S10 UNL     1     -32.693  18.966  -2.947  1.00 20.00    -0.182 SA
HETATM    9  H30 UNL     1     -32.895  19.717  -1.857  1.00 20.00     0.101 HD
ENDBRANCH   7   8
ENDBRANCH   1   7
BRANCH   1  10
HETATM   10  C7  UNL     1     -35.155  16.147  -2.149  1.00 20.00    -0.016 C 
HETATM   11  C1  UNL     1     -36.342  16.609  -3.004  1.00 20.00     0.010 C 
HETATM   12  C2  UNL     1     -35.212  16.895  -0.810  1.00 20.00     0.010 C 
ENDBRANCH   1  10
TORSDOF 5
ENDMDL
MODEL 6
REMARK VINA RESULT:      -3.3      2.104      2.602
REMARK  5 active torsions:
REMARK  status: ('A' for Active; 'I' for Inactive)
REMARK    1  A    between atoms: C5_5  and  C8_8 
REMARK    2  A    between atoms: C5_5  and  N9_9 
REMARK    3  A    between atoms: C6_6  and  C8_8 
REMARK    4  A    between atoms: C6_6  and  S10_10 
REMARK    5  A    between atoms: C7_7  and  C8_8 
ROOT
HETATM    1  C8  UNL     1     -33.833  16.329  -4.221  1.00 20.00     0.024 C 
ENDROOT
BRANCH   1   2
HETATM    2  C5  UNL     1     -34.105  14.971  -4.905  1.00 20.00     0.239 C 
BRANCH   2   3
HETATM    3  N9  UNL     1     -35.512  14.858  -5.360  1.00 20.00    -0.078 N 
HETATM    4  C3  UNL     1     -35.631  14.715  -6.858  1.00 20.00     0.269 C 
HETATM    5  C4  UNL     1     -36.267  13.762  -4.647  1.00 20.00     0.269 C 
HETATM    6  H29 UNL     1     -35.996  15.741  -5.118  1.00 20.00     0.278 HD
ENDBRANCH   2   3
ENDBRANCH   1   2
BRANCH   1   7
HETATM    7  C6  UNL     1     -34.880  17.415  -4.577  1.00 20.00     0.077 C 
BRANCH   7   8
HETATM    8  S10 UNL     1     -34.451  18.457  -6.008  1.00 20.00    -0.182 SA
HETATM    9  H30 UNL     1     -34.380  17.452  -6.890  1.00 20.00     0.101 HD
ENDBRANCH   7   8
ENDBRANCH   1   7
BRANCH   1  10
HETATM   10  C7  UNL     1     -33.690  16.213  -2.664  1.00 20.00    -0.016 C 
HETATM   11  C1  UNL     1     -35.047  16.126  -1.953  1.00 20.00     0.010 C 
HETATM   12  C2  UNL     1     -32.910  17.390  -2.061  1.00 20.00     0.010 C 
ENDBRANCH   1  10
TORSDOF 5
ENDMDL
MODEL 7
REMARK VINA RESULT:      -3.3      3.199      4.730
REMARK  5 active torsions:
REMARK  status: ('A' for Active; 'I' for Inactive)
REMARK    1  A    between atoms: C5_5  and  C8_8 
REMARK    2  A    between atoms: C5_5  and  N9_9 
REMARK    3  A    between atoms: C6_6  and  C8_8 
REMARK    4  A    between atoms: C6_6  and  S10_10 
REMARK    5  A    between atoms: C7_7  and  C8_8 
ROOT
HETATM    1  C8  UNL     1     -34.435  16.223  -2.919  1.00 20.00     0.024 C 
ENDROOT
BRANCH   1   2
HETATM    2  C5  UNL     1     -35.114  16.337  -1.537  1.00 20.00     0.239 C 
BRANCH   2   3
HETATM    3  N9  UNL     1     -36.391  17.087  -1.612  1.00 20.00    -0.078 N 
HETATM    4  C3  UNL     1     -36.611  17.985  -0.418  1.00 20.00     0.269 C 
HETATM    5  C4  UNL     1     -36.542  17.852  -2.904  1.00 20.00     0.269 C 
HETATM    6  H29 UNL     1     -37.165  16.399  -1.596  1.00 20.00     0.278 HD
ENDBRANCH   2   3
ENDBRANCH   1   2
BRANCH   1   7
HETATM    7  C6  UNL     1     -32.996  16.800  -2.944  1.00 20.00     0.077 C 
BRANCH   7   8
HETATM    8  S10 UNL     1     -32.682  18.132  -1.742  1.00 20.00    -0.182 SA
HETATM    9  H30 UNL     1     -32.593  19.114  -2.648  1.00 20.00     0.101 HD
ENDBRANCH   7   8
ENDBRANCH   1   7
BRANCH   1  10
HETATM   10  C7  UNL     1     -34.436  14.761  -3.484  1.00 20.00    -0.016 C 
HETATM   11  C1  UNL     1     -33.304  14.519  -4.492  1.00 20.00     0.010 C 
HETATM   12  C2  UNL     1     -35.764  14.399  -4.163  1.00 20.00     0.010 C 
ENDBRANCH   1  10
TORSDOF 5
ENDMDL
MODEL 8
REMARK VINA RESULT:      -3.3      1.133      1.439
REMARK  5 active torsions:
REMARK  status: ('A' for Active; 'I' for Inactive)
REMARK    1  A    between atoms: C5_5  and  C8_8 
REMARK    2  A    between atoms: C5_5  and  N9_9 
REMARK    3  A    between atoms: C6_6  and  C8_8 
REMARK    4  A    between atoms: C6_6  and  S10_10 
REMARK    5  A    between atoms: C7_7  and  C8_8 
ROOT
HETATM    1  C8  UNL     1     -35.836  15.911  -3.834  1.00 20.00     0.024 C 
ENDROOT
BRANCH   1   2
HETATM    2  C5  UNL     1     -35.221  16.469  -5.136  1.00 20.00     0.239 C 
BRANCH   2   3
HETATM    3  N9  UNL     1     -35.332  15.503  -6.254  1.00 20.00    -0.078 N 
HETATM    4  C3  UNL     1     -36.169  16.026  -7.397  1.00 20.00     0.269 C 
HETATM    5  C4  UNL     1     -33.987  15.021  -6.742  1.00 20.00     0.269 C 
HETATM    6  H29 UNL     1     -35.825  14.664  -5.902  1.00 20.00     0.278 HD
ENDBRANCH   2   3
ENDBRANCH   1   2
BRANCH   1   7
HETATM    7  C6  UNL     1     -36.660  14.615  -4.052  1.00 20.00     0.077 C 
BRANCH   7   8
HETATM    8  S10 UNL     1     -38.448  14.872  -4.283  1.00 20.00    -0.182 SA
HETATM    9  H30 UNL     1     -38.813  13.645  -3.890  1.00 20.00     0.101 HD
ENDBRANCH   7   8
ENDBRANCH   1   7
BRANCH   1  10
HETATM   10  C7  UNL     1     -34.774  15.686  -2.702  1.00 20.00    -0.016 C 
HETATM   11  C1  UNL     1     -35.069  16.515  -1.445  1.00 20.00     0.010 C 
HETATM   12  C2  UNL     1     -33.349  16.015  -3.167  1.00 20.00     0.010 C 
ENDBRANCH   1  10
TORSDOF 5
ENDMDL
MODEL 9
REMARK VINA RESULT:      -3.2      2.573      3.993
REMARK  5 active torsions:
REMARK  status: ('A' for Active; 'I' for Inactive)
REMARK    1  A    between atoms: C5_5  and  C8_8 
REMARK    2  A    between atoms: C5_5  and  N9_9 
REMARK    3  A    between atoms: C6_6  and  C8_8 
REMARK    4  A    between atoms: C6_6  and  S10_10 
REMARK    5  A    between atoms: C7_7  and  C8_8 
ROOT
HETATM    1  C8  UNL     1     -35.056  15.606  -2.759  1.00 20.00     0.024 C 
ENDROOT
BRANCH   1   2
HETATM    2  C5  UNL     1     -35.808  16.953  -2.682  1.00 20.00     0.239 C 
BRANCH   2   3
HETATM    3  N9  UNL     1     -36.449  17.150  -1.361  1.00 20.00    -0.078 N 
HETATM    4  C3  UNL     1     -35.451  17.207  -0.230  1.00 20.00     0.269 C 
HETATM    5  C4  UNL     1     -37.371  18.345  -1.333  1.00 20.00     0.269 C 
HETATM    6  H29 UNL     1     -37.047  16.325  -1.171  1.00 20.00     0.278 HD
ENDBRANCH   2   3
ENDBRANCH   1   2
BRANCH   1   7
HETATM    7  C6  UNL     1     -35.689  14.608  -3.763  1.00 20.00     0.077 C 
BRANCH   7   8
HETATM    8  S10 UNL     1     -37.364  15.046  -4.329  1.00 20.00    -0.182 SA
HETATM    9  H30 UNL     1     -38.011  14.327  -3.404  1.00 20.00     0.101 HD
ENDBRANCH   7   8
ENDBRANCH   1   7
BRANCH   1  10
HETATM   10  C7  UNL     1     -33.527  15.774  -3.063  1.00 20.00    -0.016 C 
HETATM   11  C1  UNL     1     -33.138  17.233  -3.339  1.00 20.00     0.010 C 
HETATM   12  C2  UNL     1     -33.074  14.925  -4.259  1.00 20.00     0.010 C 
ENDBRANCH   1  10
TORSDOF 5
ENDMDL
