MODEL 1
REMARK VINA RESULT:      -3.8      0.000      0.000
REMARK  5 active torsions:
REMARK  status: ('A' for Active; 'I' for Inactive)
REMARK    1  A    between atoms: C1_1  and  C5_5 
REMARK    2  A    between atoms: C2_2  and  C6_6 
REMARK    3  A    between atoms: C5_5  and  O8_8 
REMARK    4  A    between atoms: C6_6  and  S9_9 
REMARK    5  A    between atoms: C7_7  and  O8_8 
ROOT
HETATM    1  C1  UNL     1     -33.111   5.674   2.506  1.00 20.00    -0.004 C 
HETATM    2  C2  UNL     1     -32.965   7.004   2.400  1.00 20.00    -0.019 C 
ENDROOT
BRANCH   1   3
HETATM    3  C5  UNL     1     -33.989   5.015   3.518  1.00 20.00     0.195 C 
BRANCH   3   4
HETATM    4  O8  UNL     1     -34.861   5.991   4.072  1.00 20.00    -0.383 OA
BRANCH   4   5
HETATM    5  C7  UNL     1     -34.814   5.987   5.493  1.00 20.00     0.113 C 
HETATM    6  C3  UNL     1     -34.542   4.572   5.981  1.00 20.00     0.039 C 
HETATM    7  C4  UNL     1     -33.745   6.964   5.961  1.00 20.00     0.039 C 
ENDBRANCH   4   5
ENDBRANCH   3   4
ENDBRANCH   1   3
BRANCH   2   8
HETATM    8  C6  UNL     1     -32.093   7.663   1.378  1.00 20.00     0.097 C 
BRANCH   8   9
HETATM    9  S9  UNL     1     -32.996   9.006   0.562  1.00 20.00    -0.178 SA
HETATM   10  H23 UNL     1     -33.335   8.309  -0.531  1.00 20.00     0.101 HD
ENDBRANCH   8   9
ENDBRANCH   2   8
TORSDOF 5
ENDMDL
MODEL 2
REMARK VINA RESULT:      -3.6      0.939      1.498
REMARK  5 active torsions:
REMARK  status: ('A' for Active; 'I' for Inactive)
REMARK    1  A    between atoms: C1_1  and  C5_5 
REMARK    2  A    between atoms: C2_2  and  C6_6 
REMARK    3  A    between atoms: C5_5  and  O8_8 
REMARK    4  A    between atoms: C6_6  and  S9_9 
REMARK    5  A    between atoms: C7_7  and  O8_8 
ROOT
HETATM    1  C1  UNL     1     -32.459   7.365   3.432  1.00 20.00    -0.004 C 
HETATM    2  C2  UNL     1     -32.835   7.206   2.155  1.00 20.00    -0.019 C 
ENDROOT
BRANCH   1   3
HETATM    3  C5  UNL     1     -33.215   6.809   4.595  1.00 20.00     0.195 C 
BRANCH   3   4
HETATM    4  O8  UNL     1     -34.546   6.533   4.183  1.00 20.00    -0.383 OA
BRANCH   4   5
HETATM    5  C7  UNL     1     -34.980   5.259   4.640  1.00 20.00     0.113 C 
HETATM    6  C3  UNL     1     -34.240   4.173   3.875  1.00 20.00     0.039 C 
HETATM    7  C4  UNL     1     -34.743   5.157   6.140  1.00 20.00     0.039 C 
ENDBRANCH   4   5
ENDBRANCH   3   4
ENDBRANCH   1   3
BRANCH   2   8
HETATM    8  C6  UNL     1     -32.071   7.755   0.991  1.00 20.00     0.097 C 
BRANCH   8   9
HETATM    9  S9  UNL     1     -32.993   9.115   0.225  1.00 20.00    -0.178 SA
HETATM   10  H23 UNL     1     -34.071   8.391  -0.106  1.00 20.00     0.101 HD
ENDBRANCH   8   9
ENDBRANCH   2   8
TORSDOF 5
ENDMDL
MODEL 3
REMARK VINA RESULT:      -3.4     16.063     16.432
REMARK  5 active torsions:
REMARK  status: ('A' for Active; 'I' for Inactive)
REMARK    1  A    between atoms: C1_1  and  C5_5 
REMARK    2  A    between atoms: C2_2  and  C6_6 
REMARK    3  A    between atoms: C5_5  and  O8_8 
REMARK    4  A    between atoms: C6_6  and  S9_9 
REMARK    5  A    between atoms: C7_7  and  O8_8 
ROOT
HETATM    1  C1  UNL     1     -23.063  18.081   8.541  1.00 20.00    -0.004 C 
HETATM    2  C2  UNL     1     -24.240  18.688   8.324  1.00 20.00    -0.019 C 
ENDROOT
BRANCH   1   3
HETATM    3  C5  UNL     1     -22.654  17.516   9.862  1.00 20.00     0.195 C 
BRANCH   3   4
HETATM    4  O8  UNL     1     -23.780  16.891  10.460  1.00 20.00    -0.383 OA
BRANCH   4   5
HETATM    5  C7  UNL     1     -23.888  17.219  11.840  1.00 20.00     0.113 C 
HETATM    6  C3  UNL     1     -22.555  17.764  12.331  1.00 20.00     0.039 C 
HETATM    7  C4  UNL     1     -25.016  18.223  12.029  1.00 20.00     0.039 C 
ENDBRANCH   4   5
ENDBRANCH   3   4
ENDBRANCH   1   3
BRANCH   2   8
HETATM    8  C6  UNL     1     -24.653  19.244   6.997  1.00 20.00     0.097 C 
BRANCH   8   9
HETATM    9  S9  UNL     1     -26.406  18.897   6.694  1.00 20.00    -0.178 SA
HETATM   10  H23 UNL     1     -26.351  17.594   7.004  1.00 20.00     0.101 HD
ENDBRANCH   8   9
ENDBRANCH   2   8
TORSDOF 5
ENDMDL
MODEL 4
REMARK VINA RESULT:      -3.3     11.467     12.734
REMARK  5 active torsions:
REMARK  status: ('A' for Active; 'I' for Inactive)
REMARK    1  A    between atoms: C1_1  and  C5_5 
REMARK    2  A    between atoms: C2_2  and  C6_6 
REMARK    3  A    between atoms: C5_5  and  O8_8 
REMARK    4  A    between atoms: C6_6  and  S9_9 
REMARK    5  A    between atoms: C7_7  and  O8_8 
ROOT
HETATM    1  C1  UNL     1     -33.976  15.530  -3.272  1.00 20.00    -0.004 C 
HETATM    2  C2  UNL     1     -34.731  15.965  -2.252  1.00 20.00    -0.019 C 
ENDROOT
BRANCH   1   3
HETATM    3  C5  UNL     1     -34.262  14.282  -4.042  1.00 20.00     0.195 C 
BRANCH   3   4
HETATM    4  O8  UNL     1     -33.669  14.393  -5.328  1.00 20.00    -0.383 OA
BRANCH   4   5
HETATM    5  C7  UNL     1     -34.479  15.156  -6.213  1.00 20.00     0.113 C 
HETATM    6  C3  UNL     1     -33.808  15.222  -7.576  1.00 20.00     0.039 C 
HETATM    7  C4  UNL     1     -35.862  14.526  -6.293  1.00 20.00     0.039 C 
ENDBRANCH   4   5
ENDBRANCH   3   4
ENDBRANCH   1   3
BRANCH   2   8
HETATM    8  C6  UNL     1     -34.448  17.221  -1.489  1.00 20.00     0.097 C 
BRANCH   8   9
HETATM    9  S9  UNL     1     -32.783  17.824  -1.874  1.00 20.00    -0.178 SA
HETATM   10  H23 UNL     1     -32.328  17.806  -0.613  1.00 20.00     0.101 HD
ENDBRANCH   8   9
ENDBRANCH   2   8
TORSDOF 5
ENDMDL
MODEL 5
REMARK VINA RESULT:      -3.3      2.857      4.917
REMARK  5 active torsions:
REMARK  status: ('A' for Active; 'I' for Inactive)
REMARK    1  A    between atoms: C1_1  and  C5_5 
REMARK    2  A    between atoms: C2_2  and  C6_6 
REMARK    3  A    between atoms: C5_5  and  O8_8 
REMARK    4  A    between atoms: C6_6  and  S9_9 
REMARK    5  A    between atoms: C7_7  and  O8_8 
ROOT
HETATM    1  C1  UNL     1     -33.232   6.619   3.645  1.00 20.00    -0.004 C 
HETATM    2  C2  UNL     1     -33.815   5.457   3.320  1.00 20.00    -0.019 C 
ENDROOT
BRANCH   1   3
HETATM    3  C5  UNL     1     -32.316   7.371   2.734  1.00 20.00     0.195 C 
BRANCH   3   4
HETATM    4  O8  UNL     1     -32.829   7.299   1.411  1.00 20.00    -0.383 OA
BRANCH   4   5
HETATM    5  C7  UNL     1     -32.613   8.512   0.701  1.00 20.00     0.113 C 
HETATM    6  C3  UNL     1     -33.328   8.442  -0.640  1.00 20.00     0.039 C 
HETATM    7  C4  UNL     1     -33.103   9.680   1.544  1.00 20.00     0.039 C 
ENDBRANCH   4   5
ENDBRANCH   3   4
ENDBRANCH   1   3
BRANCH   2   8
HETATM    8  C6  UNL     1     -34.740   4.711   4.229  1.00 20.00     0.097 C 
BRANCH   8   9
HETATM    9  S9  UNL     1     -34.721   5.453   5.883  1.00 20.00    -0.178 SA
HETATM   10  H23 UNL     1     -34.277   4.364   6.525  1.00 20.00     0.101 HD
ENDBRANCH   8   9
ENDBRANCH   2   8
TORSDOF 5
ENDMDL
MODEL 6
REMARK VINA RESULT:      -3.3     15.059     15.956
REMARK  5 active torsions:
REMARK  status: ('A' for Active; 'I' for Inactive)
REMARK    1  A    between atoms: C1_1  and  C5_5 
REMARK    2  A    between atoms: C2_2  and  C6_6 
REMARK    3  A    between atoms: C5_5  and  O8_8 
REMARK    4  A    between atoms: C6_6  and  S9_9 
REMARK    5  A    between atoms: C7_7  and  O8_8 
ROOT
HETATM    1  C1  UNL     1     -25.315  19.002   7.600  1.00 20.00    -0.004 C 
HETATM    2  C2  UNL     1     -25.301  19.263   6.285  1.00 20.00    -0.019 C 
ENDROOT
BRANCH   1   3
HETATM    3  C5  UNL     1     -24.133  19.194   8.495  1.00 20.00     0.195 C 
BRANCH   3   4
HETATM    4  O8  UNL     1     -24.504  18.844   9.821  1.00 20.00    -0.383 OA
BRANCH   4   5
HETATM    5  C7  UNL     1     -23.545  17.982  10.420  1.00 20.00     0.113 C 
HETATM    6  C3  UNL     1     -24.073  16.556  10.403  1.00 20.00     0.039 C 
HETATM    7  C4  UNL     1     -22.224  18.107   9.675  1.00 20.00     0.039 C 
ENDBRANCH   4   5
ENDBRANCH   3   4
ENDBRANCH   1   3
BRANCH   2   8
HETATM    8  C6  UNL     1     -26.489  19.081   5.392  1.00 20.00     0.097 C 
BRANCH   8   9
HETATM    9  S9  UNL     1     -25.955  18.944   3.665  1.00 20.00    -0.178 SA
HETATM   10  H23 UNL     1     -25.286  17.792   3.812  1.00 20.00     0.101 HD
ENDBRANCH   8   9
ENDBRANCH   2   8
TORSDOF 5
ENDMDL
MODEL 7
REMARK VINA RESULT:      -3.3     11.551     12.010
REMARK  5 active torsions:
REMARK  status: ('A' for Active; 'I' for Inactive)
REMARK    1  A    between atoms: C1_1  and  C5_5 
REMARK    2  A    between atoms: C2_2  and  C6_6 
REMARK    3  A    between atoms: C5_5  and  O8_8 
REMARK    4  A    between atoms: C6_6  and  S9_9 
REMARK    5  A    between atoms: C7_7  and  O8_8 
ROOT
HETATM    1  C1  UNL     1     -33.712  15.735  -3.280  1.00 20.00    -0.004 C 
HETATM    2  C2  UNL     1     -34.564  16.130  -2.323  1.00 20.00    -0.019 C 
ENDROOT
BRANCH   1   3
HETATM    3  C5  UNL     1     -34.034  14.686  -4.295  1.00 20.00     0.195 C 
BRANCH   3   4
HETATM    4  O8  UNL     1     -35.139  13.925  -3.829  1.00 20.00    -0.383 OA
BRANCH   4   5
HETATM    5  C7  UNL     1     -36.154  13.819  -4.820  1.00 20.00     0.113 C 
HETATM    6  C3  UNL     1     -37.430  14.463  -4.300  1.00 20.00     0.039 C 
HETATM    7  C4  UNL     1     -35.670  14.476  -6.104  1.00 20.00     0.039 C 
ENDBRANCH   4   5
ENDBRANCH   3   4
ENDBRANCH   1   3
BRANCH   2   8
HETATM    8  C6  UNL     1     -34.243  17.188  -1.314  1.00 20.00     0.097 C 
BRANCH   8   9
HETATM    9  S9  UNL     1     -32.645  17.952  -1.697  1.00 20.00    -0.178 SA
HETATM   10  H23 UNL     1     -33.142  19.120  -2.126  1.00 20.00     0.101 HD
ENDBRANCH   8   9
ENDBRANCH   2   8
TORSDOF 5
ENDMDL
MODEL 8
REMARK VINA RESULT:      -3.3     11.409     12.192
REMARK  5 active torsions:
REMARK  status: ('A' for Active; 'I' for Inactive)
REMARK    1  A    between atoms: C1_1  and  C5_5 
REMARK    2  A    between atoms: C2_2  and  C6_6 
REMARK    3  A    between atoms: C5_5  and  O8_8 
REMARK    4  A    between atoms: C6_6  and  S9_9 
REMARK    5  A    between atoms: C7_7  and  O8_8 
ROOT
HETATM    1  C1  UNL     1     -33.595  16.205  -2.830  1.00 20.00    -0.004 C 
HETATM    2  C2  UNL     1     -34.642  15.386  -3.011  1.00 20.00    -0.019 C 
ENDROOT
BRANCH   1   3
HETATM    3  C5  UNL     1     -33.603  17.362  -1.885  1.00 20.00     0.195 C 
BRANCH   3   4
HETATM    4  O8  UNL     1     -32.263  17.781  -1.666  1.00 20.00    -0.383 OA
BRANCH   4   5
HETATM    5  C7  UNL     1     -32.157  18.611  -0.516  1.00 20.00     0.113 C 
HETATM    6  C3  UNL     1     -33.380  18.405   0.365  1.00 20.00     0.039 C 
HETATM    7  C4  UNL     1     -30.866  18.284   0.220  1.00 20.00     0.039 C 
ENDBRANCH   4   5
ENDBRANCH   3   4
ENDBRANCH   1   3
BRANCH   2   8
HETATM    8  C6  UNL     1     -34.629  14.221  -3.950  1.00 20.00     0.097 C 
BRANCH   8   9
HETATM    9  S9  UNL     1     -36.301  13.907  -4.576  1.00 20.00    -0.178 SA
HETATM   10  H23 UNL     1     -36.685  13.111  -3.569  1.00 20.00     0.101 HD
ENDBRANCH   8   9
ENDBRANCH   2   8
TORSDOF 5
ENDMDL
MODEL 9
REMARK VINA RESULT:      -3.3     11.608     12.254
REMARK  5 active torsions:
REMARK  status: ('A' for Active; 'I' for Inactive)
REMARK    1  A    between atoms: C1_1  and  C5_5 
REMARK    2  A    between atoms: C2_2  and  C6_6 
REMARK    3  A    between atoms: C5_5  and  O8_8 
REMARK    4  A    between atoms: C6_6  and  S9_9 
REMARK    5  A    between atoms: C7_7  and  O8_8 
ROOT
HETATM    1  C1  UNL     1     -33.724  15.718  -3.114  1.00 20.00    -0.004 C 
HETATM    2  C2  UNL     1     -33.103  16.818  -2.665  1.00 20.00    -0.019 C 
ENDROOT
BRANCH   1   3
HETATM    3  C5  UNL     1     -33.232  14.897  -4.260  1.00 20.00     0.195 C 
BRANCH   3   4
HETATM    4  O8  UNL     1     -34.249  13.979  -4.635  1.00 20.00    -0.383 OA
BRANCH   4   5
HETATM    5  C7  UNL     1     -35.428  14.650  -5.058  1.00 20.00     0.113 C 
HETATM    6  C3  UNL     1     -35.431  14.750  -6.576  1.00 20.00     0.039 C 
HETATM    7  C4  UNL     1     -36.646  13.900  -4.538  1.00 20.00     0.039 C 
ENDBRANCH   4   5
ENDBRANCH   3   4
ENDBRANCH   1   3
BRANCH   2   8
HETATM    8  C6  UNL     1     -33.591  17.633  -1.509  1.00 20.00     0.097 C 
BRANCH   8   9
HETATM    9  S9  UNL     1     -35.232  17.062  -0.992  1.00 20.00    -0.178 SA
HETATM   10  H23 UNL     1     -35.506  18.106  -0.199  1.00 20.00     0.101 HD
ENDBRANCH   8   9
ENDBRANCH   2   8
TORSDOF 5
ENDMDL
