MODEL 1
REMARK VINA RESULT:      -3.6      0.000      0.000
REMARK  5 active torsions:
REMARK  status: ('A' for Active; 'I' for Inactive)
REMARK    1  A    between atoms: C4_4  and  C7_7 
REMARK    2  A    between atoms: C4_4  and  O8_8 
REMARK    3  A    between atoms: C5_5  and  C7_7 
REMARK    4  A    between atoms: C5_5  and  S9_9 
REMARK    5  A    between atoms: C6_6  and  C7_7 
ROOT
HETATM    1  C7  UNL     1     -35.834  14.122  -4.666  1.00 20.00     0.022 C 
ENDROOT
BRANCH   1   2
HETATM    2  C4  UNL     1     -37.094  14.771  -4.057  1.00 20.00     0.172 C 
BRANCH   2   3
HETATM    3  O8  UNL     1     -38.251  14.001  -4.360  1.00 20.00    -0.396 OA
HETATM    4  C3  UNL     1     -39.427  14.798  -4.343  1.00 20.00     0.201 C 
ENDBRANCH   2   3
ENDBRANCH   1   2
BRANCH   1   5
HETATM    5  C5  UNL     1     -35.630  14.533  -6.145  1.00 20.00     0.077 C 
BRANCH   5   6
HETATM    6  S9  UNL     1     -36.328  16.150  -6.606  1.00 20.00    -0.182 SA
HETATM    7  H25 UNL     1     -35.297  16.532  -7.370  1.00 20.00     0.101 HD
ENDBRANCH   5   6
ENDBRANCH   1   5
BRANCH   1   8
HETATM    8  C6  UNL     1     -34.577  14.342  -3.765  1.00 20.00    -0.016 C 
HETATM    9  C1  UNL     1     -33.306  14.579  -4.594  1.00 20.00     0.010 C 
HETATM   10  C2  UNL     1     -34.751  15.525  -2.802  1.00 20.00     0.010 C 
ENDBRANCH   1   8
TORSDOF 5
ENDMDL
MODEL 2
REMARK VINA RESULT:      -3.4      1.905      2.514
REMARK  5 active torsions:
REMARK  status: ('A' for Active; 'I' for Inactive)
REMARK    1  A    between atoms: C4_4  and  C7_7 
REMARK    2  A    between atoms: C4_4  and  O8_8 
REMARK    3  A    between atoms: C5_5  and  C7_7 
REMARK    4  A    between atoms: C5_5  and  S9_9 
REMARK    5  A    between atoms: C6_6  and  C7_7 
ROOT
HETATM    1  C7  UNL     1     -35.887  15.339  -4.161  1.00 20.00     0.022 C 
ENDROOT
BRANCH   1   2
HETATM    2  C4  UNL     1     -36.413  13.946  -4.564  1.00 20.00     0.172 C 
BRANCH   2   3
HETATM    3  O8  UNL     1     -35.960  13.595  -5.865  1.00 20.00    -0.396 OA
HETATM    4  C3  UNL     1     -35.642  14.745  -6.635  1.00 20.00     0.201 C 
ENDBRANCH   2   3
ENDBRANCH   1   2
BRANCH   1   5
HETATM    5  C5  UNL     1     -37.039  16.303  -3.778  1.00 20.00     0.077 C 
BRANCH   5   6
HETATM    6  S9  UNL     1     -38.706  15.746  -4.251  1.00 20.00    -0.182 SA
HETATM    7  H25 UNL     1     -39.124  16.935  -4.704  1.00 20.00     0.101 HD
ENDBRANCH   5   6
ENDBRANCH   1   5
BRANCH   1   8
HETATM    8  C6  UNL     1     -34.755  15.243  -3.090  1.00 20.00    -0.016 C 
HETATM    9  C1  UNL     1     -33.373  15.557  -3.680  1.00 20.00     0.010 C 
HETATM   10  C2  UNL     1     -34.997  16.184  -1.902  1.00 20.00     0.010 C 
ENDBRANCH   1   8
TORSDOF 5
ENDMDL
MODEL 3
REMARK VINA RESULT:      -3.4      1.377      1.897
REMARK  5 active torsions:
REMARK  status: ('A' for Active; 'I' for Inactive)
REMARK    1  A    between atoms: C4_4  and  C7_7 
REMARK    2  A    between atoms: C4_4  and  O8_8 
REMARK    3  A    between atoms: C5_5  and  C7_7 
REMARK    4  A    between atoms: C5_5  and  S9_9 
REMARK    5  A    between atoms: C6_6  and  C7_7 
ROOT
HETATM    1  C7  UNL     1     -34.844  14.895  -3.484  1.00 20.00     0.022 C 
ENDROOT
BRANCH   1   2
HETATM    2  C4  UNL     1     -36.211  15.320  -4.058  1.00 20.00     0.172 C 
BRANCH   2   3
HETATM    3  O8  UNL     1     -37.155  14.263  -3.938  1.00 20.00    -0.396 OA
HETATM    4  C3  UNL     1     -38.470  14.701  -4.247  1.00 20.00     0.201 C 
ENDBRANCH   2   3
ENDBRANCH   1   2
BRANCH   1   5
HETATM    5  C5  UNL     1     -33.805  14.630  -4.602  1.00 20.00     0.077 C 
BRANCH   5   6
HETATM    6  S9  UNL     1     -34.308  15.155  -6.270  1.00 20.00    -0.182 SA
HETATM    7  H25 UNL     1     -33.928  14.031  -6.889  1.00 20.00     0.101 HD
ENDBRANCH   5   6
ENDBRANCH   1   5
BRANCH   1   8
HETATM    8  C6  UNL     1     -34.350  15.880  -2.377  1.00 20.00    -0.016 C 
HETATM    9  C1  UNL     1     -33.158  16.727  -2.847  1.00 20.00     0.010 C 
HETATM   10  C2  UNL     1     -35.459  16.830  -1.906  1.00 20.00     0.010 C 
ENDBRANCH   1   8
TORSDOF 5
ENDMDL
MODEL 4
REMARK VINA RESULT:      -3.4      2.296      3.349
REMARK  5 active torsions:
REMARK  status: ('A' for Active; 'I' for Inactive)
REMARK    1  A    between atoms: C4_4  and  C7_7 
REMARK    2  A    between atoms: C4_4  and  O8_8 
REMARK    3  A    between atoms: C5_5  and  C7_7 
REMARK    4  A    between atoms: C5_5  and  S9_9 
REMARK    5  A    between atoms: C6_6  and  C7_7 
ROOT
HETATM    1  C7  UNL     1     -34.662  15.434  -3.881  1.00 20.00     0.022 C 
ENDROOT
BRANCH   1   2
HETATM    2  C4  UNL     1     -33.559  14.784  -4.742  1.00 20.00     0.172 C 
BRANCH   2   3
HETATM    3  O8  UNL     1     -34.091  14.332  -5.982  1.00 20.00    -0.396 OA
HETATM    4  C3  UNL     1     -34.096  15.366  -6.955  1.00 20.00     0.201 C 
ENDBRANCH   2   3
ENDBRANCH   1   2
BRANCH   1   5
HETATM    5  C5  UNL     1     -35.914  14.529  -3.767  1.00 20.00     0.077 C 
BRANCH   5   6
HETATM    6  S9  UNL     1     -37.427  15.197  -4.526  1.00 20.00    -0.182 SA
HETATM    7  H25 UNL     1     -38.241  14.883  -3.510  1.00 20.00     0.101 HD
ENDBRANCH   5   6
ENDBRANCH   1   5
BRANCH   1   8
HETATM    8  C6  UNL     1     -34.107  15.929  -2.508  1.00 20.00    -0.016 C 
HETATM    9  C1  UNL     1     -33.014  16.995  -2.677  1.00 20.00     0.010 C 
HETATM   10  C2  UNL     1     -35.209  16.507  -1.610  1.00 20.00     0.010 C 
ENDBRANCH   1   8
TORSDOF 5
ENDMDL
MODEL 5
REMARK VINA RESULT:      -3.3     17.781     19.281
REMARK  5 active torsions:
REMARK  status: ('A' for Active; 'I' for Inactive)
REMARK    1  A    between atoms: C4_4  and  C7_7 
REMARK    2  A    between atoms: C4_4  and  O8_8 
REMARK    3  A    between atoms: C5_5  and  C7_7 
REMARK    4  A    between atoms: C5_5  and  S9_9 
REMARK    5  A    between atoms: C6_6  and  C7_7 
ROOT
HETATM    1  C7  UNL     1     -23.912  17.892   9.851  1.00 20.00     0.022 C 
ENDROOT
BRANCH   1   2
HETATM    2  C4  UNL     1     -24.924  18.903   9.272  1.00 20.00     0.172 C 
BRANCH   2   3
HETATM    3  O8  UNL     1     -24.634  19.177   7.907  1.00 20.00    -0.396 OA
HETATM    4  C3  UNL     1     -25.778  19.004   7.085  1.00 20.00     0.201 C 
ENDBRANCH   2   3
ENDBRANCH   1   2
BRANCH   1   5
HETATM    5  C5  UNL     1     -22.449  18.352   9.636  1.00 20.00     0.077 C 
BRANCH   5   6
HETATM    6  S9  UNL     1     -21.465  17.311   8.512  1.00 20.00    -0.182 SA
HETATM    7  H25 UNL     1     -21.676  18.053   7.418  1.00 20.00     0.101 HD
ENDBRANCH   5   6
ENDBRANCH   1   5
BRANCH   1   8
HETATM    8  C6  UNL     1     -24.251  17.517  11.329  1.00 20.00    -0.016 C 
HETATM    9  C1  UNL     1     -24.578  16.025  11.486  1.00 20.00     0.010 C 
HETATM   10  C2  UNL     1     -23.109  17.864  12.294  1.00 20.00     0.010 C 
ENDBRANCH   1   8
TORSDOF 5
ENDMDL
MODEL 6
REMARK VINA RESULT:      -3.3     18.504     19.614
REMARK  5 active torsions:
REMARK  status: ('A' for Active; 'I' for Inactive)
REMARK    1  A    between atoms: C4_4  and  C7_7 
REMARK    2  A    between atoms: C4_4  and  O8_8 
REMARK    3  A    between atoms: C5_5  and  C7_7 
REMARK    4  A    between atoms: C5_5  and  S9_9 
REMARK    5  A    between atoms: C6_6  and  C7_7 
ROOT
HETATM    1  C7  UNL     1     -24.298  18.039  10.189  1.00 20.00     0.022 C 
ENDROOT
BRANCH   1   2
HETATM    2  C4  UNL     1     -23.563  17.934  11.540  1.00 20.00     0.172 C 
BRANCH   2   3
HETATM    3  O8  UNL     1     -23.386  16.572  11.911  1.00 20.00    -0.396 OA
HETATM    4  C3  UNL     1     -24.536  15.795  11.610  1.00 20.00     0.201 C 
ENDBRANCH   2   3
ENDBRANCH   1   2
BRANCH   1   5
HETATM    5  C5  UNL     1     -25.516  18.993  10.266  1.00 20.00     0.077 C 
BRANCH   5   6
HETATM    6  S9  UNL     1     -26.302  19.118  11.902  1.00 20.00    -0.182 SA
HETATM    7  H25 UNL     1     -25.209  18.795  12.605  1.00 20.00     0.101 HD
ENDBRANCH   5   6
ENDBRANCH   1   5
BRANCH   1   8
HETATM    8  C6  UNL     1     -23.314  18.355   9.018  1.00 20.00    -0.016 C 
HETATM    9  C1  UNL     1     -22.412  17.159   8.682  1.00 20.00     0.010 C 
HETATM   10  C2  UNL     1     -24.049  18.778   7.739  1.00 20.00     0.010 C 
ENDBRANCH   1   8
TORSDOF 5
ENDMDL
MODEL 7
REMARK VINA RESULT:      -3.3     18.659     19.691
REMARK  5 active torsions:
REMARK  status: ('A' for Active; 'I' for Inactive)
REMARK    1  A    between atoms: C4_4  and  C7_7 
REMARK    2  A    between atoms: C4_4  and  O8_8 
REMARK    3  A    between atoms: C5_5  and  C7_7 
REMARK    4  A    between atoms: C5_5  and  S9_9 
REMARK    5  A    between atoms: C6_6  and  C7_7 
ROOT
HETATM    1  C7  UNL     1     -23.873  18.142  10.224  1.00 20.00     0.022 C 
ENDROOT
BRANCH   1   2
HETATM    2  C4  UNL     1     -23.352  17.000   9.328  1.00 20.00     0.172 C 
BRANCH   2   3
HETATM    3  O8  UNL     1     -21.929  16.979   9.318  1.00 20.00    -0.396 OA
HETATM    4  C3  UNL     1     -21.388  18.291   9.293  1.00 20.00     0.201 C 
ENDBRANCH   2   3
ENDBRANCH   1   2
BRANCH   1   5
HETATM    5  C5  UNL     1     -24.979  18.969   9.521  1.00 20.00     0.077 C 
BRANCH   5   6
HETATM    6  S9  UNL     1     -24.831  19.084   7.711  1.00 20.00    -0.182 SA
HETATM    7  H25 UNL     1     -23.557  18.677   7.651  1.00 20.00     0.101 HD
ENDBRANCH   5   6
ENDBRANCH   1   5
BRANCH   1   8
HETATM    8  C6  UNL     1     -24.268  17.628  11.645  1.00 20.00    -0.016 C 
HETATM    9  C1  UNL     1     -25.462  18.400  12.227  1.00 20.00     0.010 C 
HETATM   10  C2  UNL     1     -24.614  16.134  11.647  1.00 20.00     0.010 C 
ENDBRANCH   1   8
TORSDOF 5
ENDMDL
MODEL 8
REMARK VINA RESULT:      -3.2      5.298      6.913
REMARK  5 active torsions:
REMARK  status: ('A' for Active; 'I' for Inactive)
REMARK    1  A    between atoms: C4_4  and  C7_7 
REMARK    2  A    between atoms: C4_4  and  O8_8 
REMARK    3  A    between atoms: C5_5  and  C7_7 
REMARK    4  A    between atoms: C5_5  and  S9_9 
REMARK    5  A    between atoms: C6_6  and  C7_7 
ROOT
HETATM    1  C7  UNL     1     -32.971  17.832  -1.111  1.00 20.00     0.022 C 
ENDROOT
BRANCH   1   2
HETATM    2  C4  UNL     1     -31.874  18.915  -1.157  1.00 20.00     0.172 C 
BRANCH   2   3
HETATM    3  O8  UNL     1     -30.661  18.424  -0.601  1.00 20.00    -0.396 OA
HETATM    4  C3  UNL     1     -30.759  18.262   0.806  1.00 20.00     0.201 C 
ENDBRANCH   2   3
ENDBRANCH   1   2
BRANCH   1   5
HETATM    5  C5  UNL     1     -34.331  18.407  -0.641  1.00 20.00     0.077 C 
BRANCH   5   6
HETATM    6  S9  UNL     1     -34.884  17.849   1.000  1.00 20.00    -0.182 SA
HETATM    7  H25 UNL     1     -35.834  17.020   0.551  1.00 20.00     0.101 HD
ENDBRANCH   5   6
ENDBRANCH   1   5
BRANCH   1   8
HETATM    8  C6  UNL     1     -33.048  17.030  -2.449  1.00 20.00    -0.016 C 
HETATM    9  C1  UNL     1     -34.223  16.041  -2.463  1.00 20.00     0.010 C 
HETATM   10  C2  UNL     1     -33.176  17.947  -3.672  1.00 20.00     0.010 C 
ENDBRANCH   1   8
TORSDOF 5
ENDMDL
MODEL 9
REMARK VINA RESULT:      -3.2      1.896      2.885
REMARK  5 active torsions:
REMARK  status: ('A' for Active; 'I' for Inactive)
REMARK    1  A    between atoms: C4_4  and  C7_7 
REMARK    2  A    between atoms: C4_4  and  O8_8 
REMARK    3  A    between atoms: C5_5  and  C7_7 
REMARK    4  A    between atoms: C5_5  and  S9_9 
REMARK    5  A    between atoms: C6_6  and  C7_7 
ROOT
HETATM    1  C7  UNL     1     -35.864  15.158  -5.183  1.00 20.00     0.022 C 
ENDROOT
BRANCH   1   2
HETATM    2  C4  UNL     1     -36.284  13.892  -4.410  1.00 20.00     0.172 C 
BRANCH   2   3
HETATM    3  O8  UNL     1     -37.692  13.703  -4.483  1.00 20.00    -0.396 OA
HETATM    4  C3  UNL     1     -38.394  14.913  -4.239  1.00 20.00     0.201 C 
ENDBRANCH   2   3
ENDBRANCH   1   2
BRANCH   1   5
HETATM    5  C5  UNL     1     -34.812  15.988  -4.404  1.00 20.00     0.077 C 
BRANCH   5   6
HETATM    6  S9  UNL     1     -34.869  15.811  -2.594  1.00 20.00    -0.182 SA
HETATM    7  H25 UNL     1     -36.087  15.257  -2.548  1.00 20.00     0.101 HD
ENDBRANCH   5   6
ENDBRANCH   1   5
BRANCH   1   8
HETATM    8  C6  UNL     1     -35.453  14.829  -6.653  1.00 20.00    -0.016 C 
HETATM    9  C1  UNL     1     -36.248  15.656  -7.675  1.00 20.00     0.010 C 
HETATM   10  C2  UNL     1     -33.957  15.063  -6.906  1.00 20.00     0.010 C 
ENDBRANCH   1   8
TORSDOF 5
ENDMDL
