MODEL 1
REMARK VINA RESULT:      -5.5      0.000      0.000
REMARK  1 active torsions:
REMARK  status: ('A' for Active; 'I' for Inactive)
REMARK    1  A    between atoms: C4_4  and  C11_11 
ROOT
HETATM    1  C1  UNL     1     -34.253  17.397  -0.931  1.00 20.00     0.008 A 
HETATM    2  C2  UNL     1     -35.154  16.463  -1.446  1.00 20.00     0.008 A 
HETATM    3  C3  UNL     1     -32.793  17.118  -2.859  1.00 20.00     0.016 A 
HETATM    4  C4  UNL     1     -33.082  17.723  -1.633  1.00 20.00    -0.053 A 
HETATM    5  C5  UNL     1     -34.866  15.876  -2.667  1.00 20.00    -0.050 A 
HETATM    6  C6  UNL     1     -33.695  16.196  -3.366  1.00 20.00    -0.033 A 
HETATM    7  C7  UNL     1     -35.657  14.836  -3.398  1.00 20.00     0.041 C 
HETATM    8  C8  UNL     1     -35.054  14.946  -4.808  1.00 20.00     0.030 C 
HETATM    9  C12 UNL     1     -33.595  15.405  -4.633  1.00 20.00     0.116 C 
HETATM   10 CL13 UNL     1     -32.504  14.021  -4.407  1.00 20.00    -0.120 Cl
ENDROOT
BRANCH   4  11
HETATM   11  C11 UNL     1     -32.135  18.722  -1.062  1.00 20.00     0.018 A 
HETATM   12  C9  UNL     1     -31.004  18.243  -0.190  1.00 20.00     0.010 A 
HETATM   13  C10 UNL     1     -32.152  18.986   0.421  1.00 20.00     0.010 A 
ENDBRANCH   4  11
TORSDOF 1
ENDMDL
MODEL 2
REMARK VINA RESULT:      -5.5      2.177      5.236
REMARK  1 active torsions:
REMARK  status: ('A' for Active; 'I' for Inactive)
REMARK    1  A    between atoms: C4_4  and  C11_11 
ROOT
HETATM    1  C1  UNL     1     -33.408  15.427  -3.692  1.00 20.00     0.008 A 
HETATM    2  C2  UNL     1     -32.760  16.463  -3.017  1.00 20.00     0.008 A 
HETATM    3  C3  UNL     1     -35.484  15.894  -2.512  1.00 20.00     0.016 A 
HETATM    4  C4  UNL     1     -34.760  15.145  -3.443  1.00 20.00    -0.053 A 
HETATM    5  C5  UNL     1     -33.487  17.208  -2.105  1.00 20.00    -0.050 A 
HETATM    6  C6  UNL     1     -34.836  16.924  -1.849  1.00 20.00    -0.033 A 
HETATM    7  C7  UNL     1     -33.007  18.336  -1.246  1.00 20.00     0.041 C 
HETATM    8  C8  UNL     1     -34.342  18.972  -0.824  1.00 20.00     0.030 C 
HETATM    9  C12 UNL     1     -35.386  17.841  -0.801  1.00 20.00     0.116 C 
HETATM   10 CL13 UNL     1     -35.418  17.021   0.775  1.00 20.00    -0.120 Cl
ENDROOT
BRANCH   4  11
HETATM   11  C11 UNL     1     -35.429  14.033  -4.175  1.00 20.00     0.018 A 
HETATM   12  C9  UNL     1     -35.931  14.276  -5.575  1.00 20.00     0.010 A 
HETATM   13  C10 UNL     1     -36.908  14.120  -4.450  1.00 20.00     0.010 A 
ENDBRANCH   4  11
TORSDOF 1
ENDMDL
MODEL 3
REMARK VINA RESULT:      -5.5      1.743      2.714
REMARK  1 active torsions:
REMARK  status: ('A' for Active; 'I' for Inactive)
REMARK    1  A    between atoms: C4_4  and  C11_11 
ROOT
HETATM    1  C1  UNL     1     -33.091  17.716  -1.501  1.00 20.00     0.008 A 
HETATM    2  C2  UNL     1     -32.707  16.964  -2.613  1.00 20.00     0.008 A 
HETATM    3  C3  UNL     1     -35.257  16.607  -1.441  1.00 20.00     0.016 A 
HETATM    4  C4  UNL     1     -34.356  17.538  -0.919  1.00 20.00    -0.053 A 
HETATM    5  C5  UNL     1     -33.601  16.034  -3.117  1.00 20.00    -0.050 A 
HETATM    6  C6  UNL     1     -34.867  15.860  -2.541  1.00 20.00    -0.033 A 
HETATM    7  C7  UNL     1     -33.429  15.143  -4.307  1.00 20.00     0.041 C 
HETATM    8  C8  UNL     1     -34.539  14.108  -4.062  1.00 20.00     0.030 C 
HETATM    9  C12 UNL     1     -35.656  14.830  -3.288  1.00 20.00     0.116 C 
HETATM   10 CL13 UNL     1     -36.804  15.618  -4.392  1.00 20.00    -0.120 Cl
ENDROOT
BRANCH   4  11
HETATM   11  C11 UNL     1     -34.744  18.354   0.267  1.00 20.00     0.018 A 
HETATM   12  C9  UNL     1     -34.217  17.968   1.625  1.00 20.00     0.010 A 
HETATM   13  C10 UNL     1     -35.664  17.757   1.300  1.00 20.00     0.010 A 
ENDBRANCH   4  11
TORSDOF 1
ENDMDL
MODEL 4
REMARK VINA RESULT:      -5.2      2.080      2.997
REMARK  1 active torsions:
REMARK  status: ('A' for Active; 'I' for Inactive)
REMARK    1  A    between atoms: C4_4  and  C11_11 
ROOT
HETATM    1  C1  UNL     1     -32.730  18.451  -0.571  1.00 20.00     0.008 A 
HETATM    2  C2  UNL     1     -32.383  17.813  -1.763  1.00 20.00     0.008 A 
HETATM    3  C3  UNL     1     -34.890  17.330  -0.546  1.00 20.00     0.016 A 
HETATM    4  C4  UNL     1     -33.973  18.210   0.035  1.00 20.00    -0.053 A 
HETATM    5  C5  UNL     1     -33.292  16.933  -2.326  1.00 20.00    -0.050 A 
HETATM    6  C6  UNL     1     -34.537  16.696  -1.727  1.00 20.00    -0.033 A 
HETATM    7  C7  UNL     1     -33.159  16.164  -3.603  1.00 20.00     0.041 C 
HETATM    8  C8  UNL     1     -34.259  15.104  -3.422  1.00 20.00     0.030 C 
HETATM    9  C12 UNL     1     -35.350  15.741  -2.543  1.00 20.00     0.116 C 
HETATM   10 CL13 UNL     1     -36.536  16.628  -3.525  1.00 20.00    -0.120 Cl
ENDROOT
BRANCH   4  11
HETATM   11  C11 UNL     1     -34.321  18.904   1.307  1.00 20.00     0.018 A 
HETATM   12  C9  UNL     1     -33.904  18.285   2.616  1.00 20.00     0.010 A 
HETATM   13  C10 UNL     1     -35.348  18.289   2.221  1.00 20.00     0.010 A 
ENDBRANCH   4  11
TORSDOF 1
ENDMDL
MODEL 5
REMARK VINA RESULT:      -5.0     10.951     11.916
REMARK  1 active torsions:
REMARK  status: ('A' for Active; 'I' for Inactive)
REMARK    1  A    between atoms: C4_4  and  C11_11 
ROOT
HETATM    1  C1  UNL     1     -32.075   8.168   3.385  1.00 20.00     0.008 A 
HETATM    2  C2  UNL     1     -32.435   7.774   4.675  1.00 20.00     0.008 A 
HETATM    3  C3  UNL     1     -33.532   6.478   2.413  1.00 20.00     0.016 A 
HETATM    4  C4  UNL     1     -32.621   7.525   2.262  1.00 20.00    -0.053 A 
HETATM    5  C5  UNL     1     -33.348   6.743   4.816  1.00 20.00    -0.050 A 
HETATM    6  C6  UNL     1     -33.889   6.096   3.697  1.00 20.00    -0.033 A 
HETATM    7  C7  UNL     1     -33.858   6.132   6.084  1.00 20.00     0.041 C 
HETATM    8  C8  UNL     1     -35.104   5.390   5.572  1.00 20.00     0.030 C 
HETATM    9  C12 UNL     1     -34.817   4.996   4.111  1.00 20.00     0.116 C 
HETATM   10 CL13 UNL     1     -33.990   3.427   4.013  1.00 20.00    -0.120 Cl
ENDROOT
BRANCH   4  11
HETATM   11  C11 UNL     1     -32.220   7.962   0.895  1.00 20.00     0.018 A 
HETATM   12  C9  UNL     1     -32.653   9.319   0.403  1.00 20.00     0.010 A 
HETATM   13  C10 UNL     1     -33.273   8.085  -0.175  1.00 20.00     0.010 A 
ENDBRANCH   4  11
TORSDOF 1
ENDMDL
MODEL 6
REMARK VINA RESULT:      -4.9      1.779      2.670
REMARK  1 active torsions:
REMARK  status: ('A' for Active; 'I' for Inactive)
REMARK    1  A    between atoms: C4_4  and  C11_11 
ROOT
HETATM    1  C1  UNL     1     -32.935  16.747  -2.552  1.00 20.00     0.008 A 
HETATM    2  C2  UNL     1     -32.988  15.957  -3.702  1.00 20.00     0.008 A 
HETATM    3  C3  UNL     1     -35.280  16.299  -2.080  1.00 20.00     0.016 A 
HETATM    4  C4  UNL     1     -34.072  16.915  -1.746  1.00 20.00    -0.053 A 
HETATM    5  C5  UNL     1     -34.186  15.339  -4.020  1.00 20.00    -0.050 A 
HETATM    6  C6  UNL     1     -35.324  15.512  -3.220  1.00 20.00    -0.033 A 
HETATM    7  C7  UNL     1     -34.492  14.479  -5.206  1.00 20.00     0.041 C 
HETATM    8  C8  UNL     1     -35.790  13.795  -4.745  1.00 20.00     0.030 C 
HETATM    9  C12 UNL     1     -36.496  14.777  -3.793  1.00 20.00     0.116 C 
HETATM   10 CL13 UNL     1     -37.548  15.899  -4.683  1.00 20.00    -0.120 Cl
ENDROOT
BRANCH   4  11
HETATM   11  C11 UNL     1     -33.990  17.765  -0.525  1.00 20.00     0.018 A 
HETATM   12  C9  UNL     1     -34.279  19.239  -0.638  1.00 20.00     0.010 A 
HETATM   13  C10 UNL     1     -32.876  18.772  -0.404  1.00 20.00     0.010 A 
ENDBRANCH   4  11
TORSDOF 1
ENDMDL
MODEL 7
REMARK VINA RESULT:      -4.7      2.268      3.228
REMARK  1 active torsions:
REMARK  status: ('A' for Active; 'I' for Inactive)
REMARK    1  A    between atoms: C4_4  and  C11_11 
ROOT
HETATM    1  C1  UNL     1     -33.604  16.251  -2.514  1.00 20.00     0.008 A 
HETATM    2  C2  UNL     1     -33.271  15.802  -3.794  1.00 20.00     0.008 A 
HETATM    3  C3  UNL     1     -35.977  16.136  -3.040  1.00 20.00     0.016 A 
HETATM    4  C4  UNL     1     -34.947  16.415  -2.139  1.00 20.00    -0.053 A 
HETATM    5  C5  UNL     1     -34.299  15.516  -4.676  1.00 20.00    -0.050 A 
HETATM    6  C6  UNL     1     -35.640  15.686  -4.307  1.00 20.00    -0.033 A 
HETATM    7  C7  UNL     1     -34.191  15.056  -6.097  1.00 20.00     0.041 C 
HETATM    8  C8  UNL     1     -35.614  14.527  -6.343  1.00 20.00     0.030 C 
HETATM    9  C12 UNL     1     -36.555  15.348  -5.442  1.00 20.00     0.116 C 
HETATM   10 CL13 UNL     1     -37.097  16.832  -6.255  1.00 20.00    -0.120 Cl
ENDROOT
BRANCH   4  11
HETATM   11  C11 UNL     1     -35.276  16.897  -0.768  1.00 20.00     0.018 A 
HETATM   12  C9  UNL     1     -35.672  18.337  -0.574  1.00 20.00     0.010 A 
HETATM   13  C10 UNL     1     -34.340  17.859  -0.084  1.00 20.00     0.010 A 
ENDBRANCH   4  11
TORSDOF 1
ENDMDL
MODEL 8
REMARK VINA RESULT:      -4.5      1.293      1.504
REMARK  1 active torsions:
REMARK  status: ('A' for Active; 'I' for Inactive)
REMARK    1  A    between atoms: C4_4  and  C11_11 
ROOT
HETATM    1  C1  UNL     1     -34.189  16.706  -1.837  1.00 20.00     0.008 A 
HETATM    2  C2  UNL     1     -35.079  15.721  -2.267  1.00 20.00     0.008 A 
HETATM    3  C3  UNL     1     -33.679  17.316  -4.138  1.00 20.00     0.016 A 
HETATM    4  C4  UNL     1     -33.495  17.499  -2.765  1.00 20.00    -0.053 A 
HETATM    5  C5  UNL     1     -35.266  15.554  -3.629  1.00 20.00    -0.050 A 
HETATM    6  C6  UNL     1     -34.569  16.340  -4.557  1.00 20.00    -0.033 A 
HETATM    7  C7  UNL     1     -36.136  14.553  -4.323  1.00 20.00     0.041 C 
HETATM    8  C8  UNL     1     -36.223  15.167  -5.731  1.00 20.00     0.030 C 
HETATM    9  C12 UNL     1     -34.913  15.943  -5.959  1.00 20.00     0.116 C 
HETATM   10 CL13 UNL     1     -33.646  14.892  -6.628  1.00 20.00    -0.120 Cl
ENDROOT
BRANCH   4  11
HETATM   11  C11 UNL     1     -32.548  18.543  -2.281  1.00 20.00     0.018 A 
HETATM   12  C9  UNL     1     -31.673  18.242  -1.092  1.00 20.00     0.010 A 
HETATM   13  C10 UNL     1     -32.807  19.211  -0.956  1.00 20.00     0.010 A 
ENDBRANCH   4  11
TORSDOF 1
ENDMDL
MODEL 9
REMARK VINA RESULT:      -4.5      1.935      2.593
REMARK  1 active torsions:
REMARK  status: ('A' for Active; 'I' for Inactive)
REMARK    1  A    between atoms: C4_4  and  C11_11 
ROOT
HETATM    1  C1  UNL     1     -34.430  18.397  -2.803  1.00 20.00     0.008 A 
HETATM    2  C2  UNL     1     -34.497  18.147  -4.175  1.00 20.00     0.008 A 
HETATM    3  C3  UNL     1     -34.240  16.016  -2.333  1.00 20.00     0.016 A 
HETATM    4  C4  UNL     1     -34.301  17.339  -1.889  1.00 20.00    -0.053 A 
HETATM    5  C5  UNL     1     -34.424  16.834  -4.608  1.00 20.00    -0.050 A 
HETATM    6  C6  UNL     1     -34.301  15.777  -3.696  1.00 20.00    -0.033 A 
HETATM    7  C7  UNL     1     -34.504  16.322  -6.012  1.00 20.00     0.041 C 
HETATM    8  C8  UNL     1     -33.938  14.902  -5.839  1.00 20.00     0.030 C 
HETATM    9  C12 UNL     1     -34.281  14.459  -4.406  1.00 20.00     0.116 C 
HETATM   10 CL13 UNL     1     -35.885  13.697  -4.330  1.00 20.00    -0.120 Cl
ENDROOT
BRANCH   4  11
HETATM   11  C11 UNL     1     -34.233  17.631  -0.429  1.00 20.00     0.018 A 
HETATM   12  C9  UNL     1     -35.406  17.270   0.445  1.00 20.00     0.010 A 
HETATM   13  C10 UNL     1     -35.116  18.708   0.146  1.00 20.00     0.010 A 
ENDBRANCH   4  11
TORSDOF 1
ENDMDL
