MODEL 1
REMARK VINA RESULT:      -6.3      0.000      0.000
REMARK  1 active torsions:
REMARK  status: ('A' for Active; 'I' for Inactive)
REMARK    1  A    between atoms: C5_5  and  C12_12 
ROOT
HETATM    1  C1  UNL     1     -33.103   5.734   1.676  1.00 20.00     0.008 A 
HETATM    2  C2  UNL     1     -33.697   4.781   2.510  1.00 20.00     0.009 A 
HETATM    3  C3  UNL     1     -33.130   7.386   3.459  1.00 20.00     0.023 A 
HETATM    4  C4  UNL     1     -33.716   6.424   4.259  1.00 20.00     0.017 A 
HETATM    5  C5  UNL     1     -32.821   7.027   2.147  1.00 20.00    -0.053 A 
HETATM    6  C6  UNL     1     -34.003   5.140   3.813  1.00 20.00    -0.044 A 
HETATM    7  C7  UNL     1     -34.136   6.527   5.647  1.00 20.00     0.160 A 
HETATM    8  C8  UNL     1     -34.635   4.287   4.866  1.00 20.00     0.047 A 
HETATM    9  C9  UNL     1     -34.728   5.211   6.093  1.00 20.00     0.088 A 
HETATM   10  O13 UNL     1     -34.019   7.530   6.327  1.00 20.00    -0.292 OA
ENDROOT
BRANCH   5  11
HETATM   11  C12 UNL     1     -32.189   8.023   1.236  1.00 20.00     0.018 A 
HETATM   12  C10 UNL     1     -32.913   9.312   0.943  1.00 20.00     0.010 A 
HETATM   13  C11 UNL     1     -32.796   8.265  -0.121  1.00 20.00     0.010 A 
ENDBRANCH   5  11
TORSDOF 1
ENDMDL
MODEL 2
REMARK VINA RESULT:      -5.9     15.874     17.019
REMARK  1 active torsions:
REMARK  status: ('A' for Active; 'I' for Inactive)
REMARK    1  A    between atoms: C5_5  and  C12_12 
ROOT
HETATM    1  C1  UNL     1     -24.172  18.104  12.317  1.00 20.00     0.008 A 
HETATM    2  C2  UNL     1     -22.943  17.712  11.774  1.00 20.00     0.009 A 
HETATM    3  C3  UNL     1     -25.038  18.628  10.106  1.00 20.00     0.023 A 
HETATM    4  C4  UNL     1     -23.814  18.235   9.600  1.00 20.00     0.017 A 
HETATM    5  C5  UNL     1     -25.212  18.558  11.489  1.00 20.00    -0.053 A 
HETATM    6  C6  UNL     1     -22.772  17.783  10.401  1.00 20.00    -0.044 A 
HETATM    7  C7  UNL     1     -23.368  18.207   8.217  1.00 20.00     0.160 A 
HETATM    8  C8  UNL     1     -21.553  17.419   9.617  1.00 20.00     0.047 A 
HETATM    9  C9  UNL     1     -21.946  17.703   8.156  1.00 20.00     0.088 A 
HETATM   10  O13 UNL     1     -24.053  18.544   7.268  1.00 20.00    -0.292 OA
ENDROOT
BRANCH   5  11
HETATM   11  C12 UNL     1     -26.510  18.968  12.093  1.00 20.00     0.018 A 
HETATM   12  C10 UNL     1     -27.570  17.924  12.332  1.00 20.00     0.010 A 
HETATM   13  C11 UNL     1     -27.756  18.938  11.247  1.00 20.00     0.010 A 
ENDBRANCH   5  11
TORSDOF 1
ENDMDL
MODEL 3
REMARK VINA RESULT:      -5.9     10.924     12.032
REMARK  1 active torsions:
REMARK  status: ('A' for Active; 'I' for Inactive)
REMARK    1  A    between atoms: C5_5  and  C12_12 
ROOT
HETATM    1  C1  UNL     1     -35.304  16.465  -1.798  1.00 20.00     0.008 A 
HETATM    2  C2  UNL     1     -35.263  17.161  -0.586  1.00 20.00     0.009 A 
HETATM    3  C3  UNL     1     -32.991  17.046  -2.270  1.00 20.00     0.023 A 
HETATM    4  C4  UNL     1     -32.980  17.727  -1.067  1.00 20.00     0.017 A 
HETATM    5  C5  UNL     1     -34.176  16.407  -2.634  1.00 20.00    -0.053 A 
HETATM    6  C6  UNL     1     -34.084  17.796  -0.226  1.00 20.00    -0.044 A 
HETATM    7  C7  UNL     1     -31.894  18.471  -0.451  1.00 20.00     0.160 A 
HETATM    8  C8  UNL     1     -33.822  18.589   1.013  1.00 20.00     0.047 A 
HETATM    9  C9  UNL     1     -32.359  19.044   0.866  1.00 20.00     0.088 A 
HETATM   10  O13 UNL     1     -30.786  18.599  -0.941  1.00 20.00    -0.292 OA
ENDROOT
BRANCH   5  11
HETATM   11  C12 UNL     1     -34.248  15.658  -3.920  1.00 20.00     0.018 A 
HETATM   12  C10 UNL     1     -34.435  14.163  -3.887  1.00 20.00     0.010 A 
HETATM   13  C11 UNL     1     -33.116  14.739  -4.298  1.00 20.00     0.010 A 
ENDBRANCH   5  11
TORSDOF 1
ENDMDL
MODEL 4
REMARK VINA RESULT:      -5.7     10.952     11.744
REMARK  1 active torsions:
REMARK  status: ('A' for Active; 'I' for Inactive)
REMARK    1  A    between atoms: C5_5  and  C12_12 
ROOT
HETATM    1  C1  UNL     1     -33.422  15.516  -3.825  1.00 20.00     0.008 A 
HETATM    2  C2  UNL     1     -32.738  16.521  -3.132  1.00 20.00     0.009 A 
HETATM    3  C3  UNL     1     -35.329  15.711  -2.330  1.00 20.00     0.023 A 
HETATM    4  C4  UNL     1     -34.629  16.700  -1.665  1.00 20.00     0.017 A 
HETATM    5  C5  UNL     1     -34.708  15.114  -3.427  1.00 20.00    -0.053 A 
HETATM    6  C6  UNL     1     -33.357  17.113  -2.042  1.00 20.00    -0.044 A 
HETATM    7  C7  UNL     1     -35.033  17.479  -0.506  1.00 20.00     0.160 A 
HETATM    8  C8  UNL     1     -32.813  18.195  -1.166  1.00 20.00     0.047 A 
HETATM    9  C9  UNL     1     -33.930  18.441  -0.136  1.00 20.00     0.088 A 
HETATM   10  O13 UNL     1     -36.102  17.356   0.065  1.00 20.00    -0.292 OA
ENDROOT
BRANCH   5  11
HETATM   11  C12 UNL     1     -35.413  14.041  -4.183  1.00 20.00     0.018 A 
HETATM   12  C10 UNL     1     -35.950  14.346  -5.558  1.00 20.00     0.010 A 
HETATM   13  C11 UNL     1     -36.896  14.160  -4.414  1.00 20.00     0.010 A 
ENDBRANCH   5  11
TORSDOF 1
ENDMDL
MODEL 5
REMARK VINA RESULT:      -5.7     11.063     12.080
REMARK  1 active torsions:
REMARK  status: ('A' for Active; 'I' for Inactive)
REMARK    1  A    between atoms: C5_5  and  C12_12 
ROOT
HETATM    1  C1  UNL     1     -34.414  17.721  -1.464  1.00 20.00     0.008 A 
HETATM    2  C2  UNL     1     -35.445  16.860  -1.852  1.00 20.00     0.009 A 
HETATM    3  C3  UNL     1     -32.835  16.562  -2.904  1.00 20.00     0.023 A 
HETATM    4  C4  UNL     1     -33.874  15.726  -3.268  1.00 20.00     0.017 A 
HETATM    5  C5  UNL     1     -33.118  17.574  -1.987  1.00 20.00    -0.053 A 
HETATM    6  C6  UNL     1     -35.162  15.854  -2.763  1.00 20.00    -0.044 A 
HETATM    7  C7  UNL     1     -33.858  14.604  -4.192  1.00 20.00     0.160 A 
HETATM    8  C8  UNL     1     -36.105  14.831  -3.310  1.00 20.00     0.047 A 
HETATM    9  C9  UNL     1     -35.237  13.992  -4.264  1.00 20.00     0.088 A 
HETATM   10  O13 UNL     1     -32.873  14.232  -4.803  1.00 20.00    -0.292 OA
ENDROOT
BRANCH   5  11
HETATM   11  C12 UNL     1     -32.038  18.506  -1.556  1.00 20.00     0.018 A 
HETATM   12  C10 UNL     1     -31.170  18.129  -0.383  1.00 20.00     0.010 A 
HETATM   13  C11 UNL     1     -32.175  19.230  -0.242  1.00 20.00     0.010 A 
ENDBRANCH   5  11
TORSDOF 1
ENDMDL
MODEL 6
REMARK VINA RESULT:      -5.5     14.331     15.892
REMARK  1 active torsions:
REMARK  status: ('A' for Active; 'I' for Inactive)
REMARK    1  A    between atoms: C5_5  and  C12_12 
ROOT
HETATM    1  C1  UNL     1     -25.920  19.249   8.000  1.00 20.00     0.008 A 
HETATM    2  C2  UNL     1     -27.017  19.263   7.133  1.00 20.00     0.009 A 
HETATM    3  C3  UNL     1     -24.374  19.165   6.126  1.00 20.00     0.023 A 
HETATM    4  C4  UNL     1     -25.477  19.180   5.294  1.00 20.00     0.017 A 
HETATM    5  C5  UNL     1     -24.608  19.201   7.501  1.00 20.00    -0.053 A 
HETATM    6  C6  UNL     1     -26.783  19.227   5.767  1.00 20.00    -0.044 A 
HETATM    7  C7  UNL     1     -25.522  19.150   3.841  1.00 20.00     0.160 A 
HETATM    8  C8  UNL     1     -27.798  19.234   4.670  1.00 20.00     0.047 A 
HETATM    9  C9  UNL     1     -26.959  19.180   3.381  1.00 20.00     0.088 A 
HETATM   10  O13 UNL     1     -24.538  19.108   3.125  1.00 20.00    -0.292 OA
ENDROOT
BRANCH   5  11
HETATM   11  C12 UNL     1     -23.457  19.187   8.448  1.00 20.00     0.018 A 
HETATM   12  C10 UNL     1     -22.707  17.899   8.670  1.00 20.00     0.010 A 
HETATM   13  C11 UNL     1     -23.589  18.442   9.750  1.00 20.00     0.010 A 
ENDBRANCH   5  11
TORSDOF 1
ENDMDL
MODEL 7
REMARK VINA RESULT:      -5.3     11.255     11.957
REMARK  1 active torsions:
REMARK  status: ('A' for Active; 'I' for Inactive)
REMARK    1  A    between atoms: C5_5  and  C12_12 
ROOT
HETATM    1  C1  UNL     1     -33.267  17.286  -1.858  1.00 20.00     0.008 A 
HETATM    2  C2  UNL     1     -32.881  16.519  -2.962  1.00 20.00     0.009 A 
HETATM    3  C3  UNL     1     -35.529  16.400  -1.970  1.00 20.00     0.023 A 
HETATM    4  C4  UNL     1     -35.118  15.655  -3.058  1.00 20.00     0.017 A 
HETATM    5  C5  UNL     1     -34.582  17.227  -1.365  1.00 20.00    -0.053 A 
HETATM    6  C6  UNL     1     -33.823  15.698  -3.562  1.00 20.00    -0.044 A 
HETATM    7  C7  UNL     1     -35.888  14.723  -3.866  1.00 20.00     0.160 A 
HETATM    8  C8  UNL     1     -33.629  14.802  -4.742  1.00 20.00     0.047 A 
HETATM    9  C9  UNL     1     -35.007  14.150  -4.950  1.00 20.00     0.088 A 
HETATM   10  O13 UNL     1     -37.062  14.462  -3.680  1.00 20.00    -0.292 OA
ENDROOT
BRANCH   5  11
HETATM   11  C12 UNL     1     -34.966  18.055  -0.187  1.00 20.00     0.018 A 
HETATM   12  C10 UNL     1     -34.361  17.742   1.157  1.00 20.00     0.010 A 
HETATM   13  C11 UNL     1     -35.804  17.438   0.901  1.00 20.00     0.010 A 
ENDBRANCH   5  11
TORSDOF 1
ENDMDL
MODEL 8
REMARK VINA RESULT:      -5.2     11.561     12.433
REMARK  1 active torsions:
REMARK  status: ('A' for Active; 'I' for Inactive)
REMARK    1  A    between atoms: C5_5  and  C12_12 
ROOT
HETATM    1  C1  UNL     1     -33.577  16.351  -2.517  1.00 20.00     0.008 A 
HETATM    2  C2  UNL     1     -33.228  15.908  -3.797  1.00 20.00     0.009 A 
HETATM    3  C3  UNL     1     -35.927  15.897  -2.946  1.00 20.00     0.023 A 
HETATM    4  C4  UNL     1     -35.551  15.465  -4.204  1.00 20.00     0.017 A 
HETATM    5  C5  UNL     1     -34.917  16.345  -2.094  1.00 20.00    -0.053 A 
HETATM    6  C6  UNL     1     -34.232  15.462  -4.641  1.00 20.00    -0.044 A 
HETATM    7  C7  UNL     1     -36.387  14.954  -5.278  1.00 20.00     0.160 A 
HETATM    8  C8  UNL     1     -34.085  14.950  -6.038  1.00 20.00     0.047 A 
HETATM    9  C9  UNL     1     -35.523  14.611  -6.468  1.00 20.00     0.088 A 
HETATM   10  O13 UNL     1     -37.596  14.830  -5.207  1.00 20.00    -0.292 OA
ENDROOT
BRANCH   5  11
HETATM   11  C12 UNL     1     -35.261  16.823  -0.725  1.00 20.00     0.018 A 
HETATM   12  C10 UNL     1     -35.776  18.229  -0.548  1.00 20.00     0.010 A 
HETATM   13  C11 UNL     1     -34.399  17.876  -0.078  1.00 20.00     0.010 A 
ENDBRANCH   5  11
TORSDOF 1
ENDMDL
MODEL 9
REMARK VINA RESULT:      -5.2     11.291     12.160
REMARK  1 active torsions:
REMARK  status: ('A' for Active; 'I' for Inactive)
REMARK    1  A    between atoms: C5_5  and  C12_12 
ROOT
HETATM    1  C1  UNL     1     -31.811  18.112  -1.143  1.00 20.00     0.008 A 
HETATM    2  C2  UNL     1     -31.143  18.522   0.016  1.00 20.00     0.009 A 
HETATM    3  C3  UNL     1     -33.915  17.956   0.066  1.00 20.00     0.023 A 
HETATM    4  C4  UNL     1     -33.227  18.362   1.194  1.00 20.00     0.017 A 
HETATM    5  C5  UNL     1     -33.188  17.832  -1.118  1.00 20.00    -0.053 A 
HETATM    6  C6  UNL     1     -31.867  18.644   1.191  1.00 20.00    -0.044 A 
HETATM    7  C7  UNL     1     -33.731  18.571   2.541  1.00 20.00     0.160 A 
HETATM    8  C8  UNL     1     -31.358  19.063   2.533  1.00 20.00     0.047 A 
HETATM    9  C9  UNL     1     -32.601  19.013   3.439  1.00 20.00     0.088 A 
HETATM   10  O13 UNL     1     -34.892  18.407   2.873  1.00 20.00    -0.292 OA
ENDROOT
BRANCH   5  11
HETATM   11  C12 UNL     1     -33.875  17.397  -2.367  1.00 20.00     0.018 A 
HETATM   12  C10 UNL     1     -34.391  15.985  -2.465  1.00 20.00     0.010 A 
HETATM   13  C11 UNL     1     -33.196  16.398  -3.267  1.00 20.00     0.010 A 
ENDBRANCH   5  11
TORSDOF 1
ENDMDL
