MODEL 1
REMARK VINA RESULT:      -5.4      0.000      0.000
REMARK  2 active torsions:
REMARK  status: ('A' for Active; 'I' for Inactive)
REMARK    1  A    between atoms: C5_5  and  C10_10 
REMARK    2  A    between atoms: C6_6  and  C11_11 
ROOT
HETATM    1  C1  UNL     1     -34.582  16.851  -1.553  1.00 20.00     0.008 A 
HETATM    2  C2  UNL     1     -32.744  16.726  -3.115  1.00 20.00     0.008 A 
HETATM    3  C3  UNL     1     -35.193  15.769  -2.186  1.00 20.00     0.010 A 
HETATM    4  C4  UNL     1     -33.354  15.644  -3.748  1.00 20.00     0.010 A 
HETATM    5  C5  UNL     1     -33.358  17.330  -2.017  1.00 20.00    -0.054 A 
HETATM    6  C6  UNL     1     -34.581  15.166  -3.284  1.00 20.00    -0.027 A 
ENDROOT
BRANCH   5   7
HETATM    7  C10 UNL     1     -32.704  18.485  -1.340  1.00 20.00     0.018 A 
HETATM    8  C7  UNL     1     -31.425  18.258  -0.575  1.00 20.00     0.010 A 
HETATM    9  C8  UNL     1     -32.694  18.544   0.165  1.00 20.00     0.010 A 
ENDBRANCH   5   7
BRANCH   6  10
HETATM   10  C11 UNL     1     -35.234  14.010  -3.959  1.00 20.00     0.178 A 
HETATM   11  C9  UNL     1     -36.434  14.244  -4.835  1.00 20.00     0.205 A 
HETATM   12  O12 UNL     1     -35.145  13.970  -5.390  1.00 20.00    -0.376 OA
ENDBRANCH   6  10
TORSDOF 2
ENDMDL
MODEL 2
REMARK VINA RESULT:      -5.4      0.073      1.397
REMARK  2 active torsions:
REMARK  status: ('A' for Active; 'I' for Inactive)
REMARK    1  A    between atoms: C5_5  and  C10_10 
REMARK    2  A    between atoms: C6_6  and  C11_11 
ROOT
HETATM    1  C1  UNL     1     -32.736  16.730  -3.079  1.00 20.00     0.008 A 
HETATM    2  C2  UNL     1     -34.583  16.894  -1.531  1.00 20.00     0.008 A 
HETATM    3  C3  UNL     1     -33.365  15.660  -3.716  1.00 20.00     0.010 A 
HETATM    4  C4  UNL     1     -35.212  15.825  -2.167  1.00 20.00     0.010 A 
HETATM    5  C5  UNL     1     -33.345  17.347  -1.987  1.00 20.00    -0.054 A 
HETATM    6  C6  UNL     1     -34.602  15.207  -3.260  1.00 20.00    -0.027 A 
ENDROOT
BRANCH   5   7
HETATM    7  C10 UNL     1     -32.673  18.490  -1.307  1.00 20.00     0.018 A 
HETATM    8  C7  UNL     1     -31.399  18.241  -0.542  1.00 20.00     0.010 A 
HETATM    9  C8  UNL     1     -32.664  18.546   0.198  1.00 20.00     0.010 A 
ENDBRANCH   5   7
BRANCH   6  10
HETATM   10  C11 UNL     1     -35.273  14.064  -3.940  1.00 20.00     0.178 A 
HETATM   11  C9  UNL     1     -36.357  14.334  -4.949  1.00 20.00     0.205 A 
HETATM   12  O12 UNL     1     -35.044  13.933  -5.350  1.00 20.00    -0.376 OA
ENDBRANCH   6  10
TORSDOF 2
ENDMDL
MODEL 3
REMARK VINA RESULT:      -5.3      2.142      5.125
REMARK  2 active torsions:
REMARK  status: ('A' for Active; 'I' for Inactive)
REMARK    1  A    between atoms: C5_5  and  C10_10 
REMARK    2  A    between atoms: C6_6  and  C11_11 
ROOT
HETATM    1  C1  UNL     1     -35.227  15.847  -2.225  1.00 20.00     0.008 A 
HETATM    2  C2  UNL     1     -33.283  15.759  -3.657  1.00 20.00     0.008 A 
HETATM    3  C3  UNL     1     -34.661  16.912  -1.524  1.00 20.00     0.010 A 
HETATM    4  C4  UNL     1     -32.718  16.824  -2.957  1.00 20.00     0.010 A 
HETATM    5  C5  UNL     1     -34.538  15.270  -3.292  1.00 20.00    -0.054 A 
HETATM    6  C6  UNL     1     -33.407  17.400  -1.889  1.00 20.00    -0.027 A 
ENDROOT
BRANCH   5   7
HETATM    7  C10 UNL     1     -35.142  14.133  -4.041  1.00 20.00     0.018 A 
HETATM    8  C7  UNL     1     -35.706  14.380  -5.417  1.00 20.00     0.010 A 
HETATM    9  C8  UNL     1     -36.631  14.113  -4.271  1.00 20.00     0.010 A 
ENDBRANCH   5   7
BRANCH   6  10
HETATM   10  C11 UNL     1     -32.804  18.538  -1.140  1.00 20.00     0.178 A 
HETATM   11  C9  UNL     1     -31.599  18.299  -0.271  1.00 20.00     0.205 A 
HETATM   12  O12 UNL     1     -31.489  18.945  -1.542  1.00 20.00    -0.376 OA
ENDBRANCH   6  10
TORSDOF 2
ENDMDL
MODEL 4
REMARK VINA RESULT:      -5.3      2.166      5.313
REMARK  2 active torsions:
REMARK  status: ('A' for Active; 'I' for Inactive)
REMARK    1  A    between atoms: C5_5  and  C10_10 
REMARK    2  A    between atoms: C6_6  and  C11_11 
ROOT
HETATM    1  C1  UNL     1     -33.281  15.799  -3.614  1.00 20.00     0.008 A 
HETATM    2  C2  UNL     1     -35.204  15.911  -2.155  1.00 20.00     0.008 A 
HETATM    3  C3  UNL     1     -32.699  16.865  -2.928  1.00 20.00     0.010 A 
HETATM    4  C4  UNL     1     -34.621  16.976  -1.469  1.00 20.00     0.010 A 
HETATM    5  C5  UNL     1     -34.533  15.322  -3.227  1.00 20.00    -0.054 A 
HETATM    6  C6  UNL     1     -33.368  17.454  -1.856  1.00 20.00    -0.027 A 
ENDROOT
BRANCH   5   7
HETATM    7  C10 UNL     1     -35.156  14.183  -3.959  1.00 20.00     0.018 A 
HETATM    8  C7  UNL     1     -35.677  14.408  -5.355  1.00 20.00     0.010 A 
HETATM    9  C8  UNL     1     -36.638  14.204  -4.226  1.00 20.00     0.010 A 
ENDBRANCH   5   7
BRANCH   6  10
HETATM   10  C11 UNL     1     -32.746  18.592  -1.124  1.00 20.00     0.178 A 
HETATM   11  C9  UNL     1     -31.711  18.317  -0.066  1.00 20.00     0.205 A 
HETATM   12  O12 UNL     1     -31.348  18.816  -1.356  1.00 20.00    -0.376 OA
ENDBRANCH   6  10
TORSDOF 2
ENDMDL
MODEL 5
REMARK VINA RESULT:      -5.1      1.224      1.396
REMARK  2 active torsions:
REMARK  status: ('A' for Active; 'I' for Inactive)
REMARK    1  A    between atoms: C5_5  and  C10_10 
REMARK    2  A    between atoms: C6_6  and  C11_11 
ROOT
HETATM    1  C1  UNL     1     -34.993  16.936  -1.127  1.00 20.00     0.008 A 
HETATM    2  C2  UNL     1     -32.832  17.399  -2.102  1.00 20.00     0.008 A 
HETATM    3  C3  UNL     1     -35.207  15.936  -2.076  1.00 20.00     0.010 A 
HETATM    4  C4  UNL     1     -33.045  16.399  -3.050  1.00 20.00     0.010 A 
HETATM    5  C5  UNL     1     -33.807  17.667  -1.140  1.00 20.00    -0.054 A 
HETATM    6  C6  UNL     1     -34.234  15.667  -3.038  1.00 20.00    -0.027 A 
ENDROOT
BRANCH   5   7
HETATM    7  C10 UNL     1     -33.578  18.735  -0.126  1.00 20.00     0.018 A 
HETATM    8  C7  UNL     1     -32.593  18.489   0.987  1.00 20.00     0.010 A 
HETATM    9  C8  UNL     1     -34.059  18.523   1.285  1.00 20.00     0.010 A 
ENDBRANCH   5   7
BRANCH   6  10
HETATM   10  C11 UNL     1     -34.462  14.599  -4.050  1.00 20.00     0.178 A 
HETATM   11  C9  UNL     1     -34.420  14.943  -5.514  1.00 20.00     0.205 A 
HETATM   12  O12 UNL     1     -33.343  14.251  -4.878  1.00 20.00    -0.376 OA
ENDBRANCH   6  10
TORSDOF 2
ENDMDL
MODEL 6
REMARK VINA RESULT:      -4.9      1.385      2.389
REMARK  2 active torsions:
REMARK  status: ('A' for Active; 'I' for Inactive)
REMARK    1  A    between atoms: C5_5  and  C10_10 
REMARK    2  A    between atoms: C6_6  and  C11_11 
ROOT
HETATM    1  C1  UNL     1     -33.042  17.770  -1.689  1.00 20.00     0.008 A 
HETATM    2  C2  UNL     1     -35.150  16.780  -1.045  1.00 20.00     0.008 A 
HETATM    3  C3  UNL     1     -33.013  16.966  -2.829  1.00 20.00     0.010 A 
HETATM    4  C4  UNL     1     -35.122  15.978  -2.185  1.00 20.00     0.010 A 
HETATM    5  C5  UNL     1     -34.110  17.677  -0.797  1.00 20.00    -0.054 A 
HETATM    6  C6  UNL     1     -34.052  16.070  -3.077  1.00 20.00    -0.027 A 
ENDROOT
BRANCH   5   7
HETATM    7  C10 UNL     1     -34.141  18.535   0.421  1.00 20.00     0.018 A 
HETATM    8  C7  UNL     1     -33.399  18.084   1.653  1.00 20.00     0.010 A 
HETATM    9  C8  UNL     1     -34.896  18.059   1.634  1.00 20.00     0.010 A 
ENDBRANCH   5   7
BRANCH   6  10
HETATM   10  C11 UNL     1     -34.022  15.213  -4.295  1.00 20.00     0.178 A 
HETATM   11  C9  UNL     1     -32.892  14.237  -4.487  1.00 20.00     0.205 A 
HETATM   12  O12 UNL     1     -34.196  13.804  -4.092  1.00 20.00    -0.376 OA
ENDBRANCH   6  10
TORSDOF 2
ENDMDL
MODEL 7
REMARK VINA RESULT:      -4.9      2.805      5.340
REMARK  2 active torsions:
REMARK  status: ('A' for Active; 'I' for Inactive)
REMARK    1  A    between atoms: C5_5  and  C10_10 
REMARK    2  A    between atoms: C6_6  and  C11_11 
ROOT
HETATM    1  C1  UNL     1     -33.044  17.167  -2.403  1.00 20.00     0.008 A 
HETATM    2  C2  UNL     1     -35.241  16.381  -1.777  1.00 20.00     0.008 A 
HETATM    3  C3  UNL     1     -32.973  17.908  -1.224  1.00 20.00     0.010 A 
HETATM    4  C4  UNL     1     -35.170  17.121  -0.597  1.00 20.00     0.010 A 
HETATM    5  C5  UNL     1     -34.177  16.403  -2.680  1.00 20.00    -0.054 A 
HETATM    6  C6  UNL     1     -34.036  17.886  -0.321  1.00 20.00    -0.027 A 
ENDROOT
BRANCH   5   7
HETATM    7  C10 UNL     1     -34.253  15.611  -3.939  1.00 20.00     0.018 A 
HETATM    8  C7  UNL     1     -34.441  14.118  -3.854  1.00 20.00     0.010 A 
HETATM    9  C8  UNL     1     -33.123  14.678  -4.289  1.00 20.00     0.010 A 
ENDBRANCH   5   7
BRANCH   6  10
HETATM   10  C11 UNL     1     -33.959  18.678   0.938  1.00 20.00     0.178 A 
HETATM   11  C9  UNL     1     -33.560  17.997   2.220  1.00 20.00     0.205 A 
HETATM   12  O12 UNL     1     -32.655  18.848   1.511  1.00 20.00    -0.376 OA
ENDBRANCH   6  10
TORSDOF 2
ENDMDL
MODEL 8
REMARK VINA RESULT:      -4.4      1.391      2.023
REMARK  2 active torsions:
REMARK  status: ('A' for Active; 'I' for Inactive)
REMARK    1  A    between atoms: C5_5  and  C10_10 
REMARK    2  A    between atoms: C6_6  and  C11_11 
ROOT
HETATM    1  C1  UNL     1     -33.774  17.600  -4.056  1.00 20.00     0.008 A 
HETATM    2  C2  UNL     1     -34.275  15.818  -2.504  1.00 20.00     0.008 A 
HETATM    3  C3  UNL     1     -34.643  17.033  -4.988  1.00 20.00     0.010 A 
HETATM    4  C4  UNL     1     -35.144  15.251  -3.435  1.00 20.00     0.010 A 
HETATM    5  C5  UNL     1     -33.589  16.993  -2.815  1.00 20.00    -0.054 A 
HETATM    6  C6  UNL     1     -35.328  15.859  -4.678  1.00 20.00    -0.027 A 
ENDROOT
BRANCH   5   7
HETATM    7  C10 UNL     1     -32.661  17.599  -1.819  1.00 20.00     0.018 A 
HETATM    8  C7  UNL     1     -33.215  18.536  -0.777  1.00 20.00     0.010 A 
HETATM    9  C8  UNL     1     -32.372  19.076  -1.889  1.00 20.00     0.010 A 
ENDBRANCH   5   7
BRANCH   6  10
HETATM   10  C11 UNL     1     -36.257  15.253  -5.673  1.00 20.00     0.178 A 
HETATM   11  C9  UNL     1     -35.717  14.759  -6.988  1.00 20.00     0.205 A 
HETATM   12  O12 UNL     1     -36.086  13.855  -5.943  1.00 20.00    -0.376 OA
ENDBRANCH   6  10
TORSDOF 2
ENDMDL
MODEL 9
REMARK VINA RESULT:      -4.3     15.700     16.602
REMARK  2 active torsions:
REMARK  status: ('A' for Active; 'I' for Inactive)
REMARK    1  A    between atoms: C5_5  and  C10_10 
REMARK    2  A    between atoms: C6_6  and  C11_11 
ROOT
HETATM    1  C1  UNL     1     -24.541  19.193   9.377  1.00 20.00     0.008 A 
HETATM    2  C2  UNL     1     -23.467  17.784  11.019  1.00 20.00     0.008 A 
HETATM    3  C3  UNL     1     -25.687  19.244  10.170  1.00 20.00     0.010 A 
HETATM    4  C4  UNL     1     -24.612  17.835  11.813  1.00 20.00     0.010 A 
HETATM    5  C5  UNL     1     -23.431  18.464   9.801  1.00 20.00    -0.054 A 
HETATM    6  C6  UNL     1     -25.724  18.565  11.388  1.00 20.00    -0.027 A 
ENDROOT
BRANCH   5   7
HETATM    7  C10 UNL     1     -22.206  18.410   8.954  1.00 20.00     0.018 A 
HETATM    8  C7  UNL     1     -22.134  17.402   7.836  1.00 20.00     0.010 A 
HETATM    9  C8  UNL     1     -21.294  17.216   9.060  1.00 20.00     0.010 A 
ENDBRANCH   5   7
BRANCH   6  10
HETATM   10  C11 UNL     1     -26.948  18.620  12.235  1.00 20.00     0.178 A 
HETATM   11  C9  UNL     1     -28.302  18.506  11.590  1.00 20.00     0.205 A 
HETATM   12  O12 UNL     1     -27.726  17.418  12.316  1.00 20.00    -0.376 OA
ENDBRANCH   6  10
TORSDOF 2
ENDMDL
