MODEL 1
REMARK VINA RESULT:      -5.3      0.000      0.000
REMARK  3 active torsions:
REMARK  status: ('A' for Active; 'I' for Inactive)
REMARK    1  A    between atoms: C5_5  and  C6_6 
REMARK    2  A    between atoms: C6_6  and  C7_7 
REMARK    3  A    between atoms: C7_7  and  C8_8 
ROOT
HETATM    1  C1  UNL     1     -33.043   9.126   0.510  1.00 20.00     0.012 C 
HETATM    2  C2  UNL     1     -32.670   8.202   1.181  1.00 20.00    -0.117 C 
HETATM    3  C5  UNL     1     -32.211   7.070   1.999  1.00 20.00     0.093 C 
ENDROOT
BRANCH   3   4
HETATM    4  C6  UNL     1     -32.883   7.080   3.376  1.00 20.00     0.018 C 
BRANCH   4   5
HETATM    5  C7  UNL     1     -34.051   6.072   3.500  1.00 20.00     0.000 C 
HETATM    6  C3  UNL     1     -33.642   4.675   3.014  1.00 20.00     0.011 C 
BRANCH   5   7
HETATM    7  C8  UNL     1     -34.619   6.084   4.945  1.00 20.00     0.082 C 
HETATM    8  C4  UNL     1     -34.762   4.691   5.550  1.00 20.00     0.027 C 
HETATM    9 CL9  UNL     1     -33.639   7.099   6.049  1.00 20.00    -0.125 Cl
ENDBRANCH   5   7
ENDBRANCH   4   5
ENDBRANCH   3   4
TORSDOF 3
ENDMDL
MODEL 2
REMARK VINA RESULT:      -4.4      0.968      1.491
REMARK  3 active torsions:
REMARK  status: ('A' for Active; 'I' for Inactive)
REMARK    1  A    between atoms: C5_5  and  C6_6 
REMARK    2  A    between atoms: C6_6  and  C7_7 
REMARK    3  A    between atoms: C7_7  and  C8_8 
ROOT
HETATM    1  C1  UNL     1     -33.315   9.140  -0.094  1.00 20.00     0.012 C 
HETATM    2  C2  UNL     1     -32.770   8.413   0.692  1.00 20.00    -0.117 C 
HETATM    3  C5  UNL     1     -32.099   7.525   1.653  1.00 20.00     0.093 C 
ENDROOT
BRANCH   3   4
HETATM    4  C6  UNL     1     -33.103   6.577   2.317  1.00 20.00     0.018 C 
BRANCH   4   5
HETATM    5  C7  UNL     1     -32.964   6.512   3.857  1.00 20.00     0.000 C 
HETATM    6  C3  UNL     1     -32.287   7.772   4.415  1.00 20.00     0.011 C 
BRANCH   5   7
HETATM    7  C8  UNL     1     -34.341   6.210   4.508  1.00 20.00     0.082 C 
HETATM    8  C4  UNL     1     -34.798   4.767   4.316  1.00 20.00     0.027 C 
HETATM    9 CL9  UNL     1     -34.364   6.597   6.257  1.00 20.00    -0.125 Cl
ENDBRANCH   5   7
ENDBRANCH   4   5
ENDBRANCH   3   4
TORSDOF 3
ENDMDL
MODEL 3
REMARK VINA RESULT:      -4.2     15.851     16.856
REMARK  3 active torsions:
REMARK  status: ('A' for Active; 'I' for Inactive)
REMARK    1  A    between atoms: C5_5  and  C6_6 
REMARK    2  A    between atoms: C6_6  and  C7_7 
REMARK    3  A    between atoms: C7_7  and  C8_8 
ROOT
HETATM    1  C1  UNL     1     -26.662  18.773  11.986  1.00 20.00     0.012 C 
HETATM    2  C2  UNL     1     -26.054  17.737  11.983  1.00 20.00    -0.117 C 
HETATM    3  C5  UNL     1     -25.311  16.469  11.981  1.00 20.00     0.093 C 
ENDROOT
BRANCH   3   4
HETATM    4  C6  UNL     1     -24.107  16.539  11.036  1.00 20.00     0.018 C 
BRANCH   4   5
HETATM    5  C7  UNL     1     -23.305  17.857  11.155  1.00 20.00     0.000 C 
HETATM    6  C3  UNL     1     -22.179  17.738  12.191  1.00 20.00     0.011 C 
BRANCH   5   7
HETATM    7  C8  UNL     1     -22.813  18.314   9.755  1.00 20.00     0.082 C 
HETATM    8  C4  UNL     1     -22.324  17.164   8.880  1.00 20.00     0.027 C 
HETATM    9 CL9  UNL     1     -24.067  19.231   8.863  1.00 20.00    -0.125 Cl
ENDBRANCH   5   7
ENDBRANCH   4   5
ENDBRANCH   3   4
TORSDOF 3
ENDMDL
MODEL 4
REMARK VINA RESULT:      -4.2     15.871     16.605
REMARK  3 active torsions:
REMARK  status: ('A' for Active; 'I' for Inactive)
REMARK    1  A    between atoms: C5_5  and  C6_6 
REMARK    2  A    between atoms: C6_6  and  C7_7 
REMARK    3  A    between atoms: C7_7  and  C8_8 
ROOT
HETATM    1  C1  UNL     1     -21.729  17.378   8.450  1.00 20.00     0.012 C 
HETATM    2  C2  UNL     1     -22.628  18.117   8.748  1.00 20.00    -0.117 C 
HETATM    3  C5  UNL     1     -23.726  19.025   9.110  1.00 20.00     0.093 C 
ENDROOT
BRANCH   3   4
HETATM    4  C6  UNL     1     -24.842  18.272   9.841  1.00 20.00     0.018 C 
BRANCH   4   5
HETATM    5  C7  UNL     1     -24.879  18.547  11.363  1.00 20.00     0.000 C 
HETATM    6  C3  UNL     1     -26.303  18.853  11.846  1.00 20.00     0.011 C 
BRANCH   5   7
HETATM    7  C8  UNL     1     -24.200  17.384  12.135  1.00 20.00     0.082 C 
HETATM    8  C4  UNL     1     -24.436  16.017  11.500  1.00 20.00     0.027 C 
HETATM    9 CL9  UNL     1     -22.437  17.637  12.330  1.00 20.00    -0.125 Cl
ENDBRANCH   5   7
ENDBRANCH   4   5
ENDBRANCH   3   4
TORSDOF 3
ENDMDL
MODEL 5
REMARK VINA RESULT:      -4.1      2.223      4.155
REMARK  3 active torsions:
REMARK  status: ('A' for Active; 'I' for Inactive)
REMARK    1  A    between atoms: C5_5  and  C6_6 
REMARK    2  A    between atoms: C6_6  and  C7_7 
REMARK    3  A    between atoms: C7_7  and  C8_8 
ROOT
HETATM    1  C1  UNL     1     -34.017   7.036   6.570  1.00 20.00     0.012 C 
HETATM    2  C2  UNL     1     -34.388   6.119   5.889  1.00 20.00    -0.117 C 
HETATM    3  C5  UNL     1     -34.844   4.996   5.056  1.00 20.00     0.093 C 
ENDROOT
BRANCH   3   4
HETATM    4  C6  UNL     1     -34.744   5.341   3.566  1.00 20.00     0.018 C 
BRANCH   4   5
HETATM    5  C7  UNL     1     -33.288   5.491   3.064  1.00 20.00     0.000 C 
HETATM    6  C3  UNL     1     -33.018   4.598   1.846  1.00 20.00     0.011 C 
BRANCH   5   7
HETATM    7  C8  UNL     1     -32.956   6.988   2.820  1.00 20.00     0.082 C 
HETATM    8  C4  UNL     1     -31.807   7.502   3.683  1.00 20.00     0.027 C 
HETATM    9 CL9  UNL     1     -32.587   7.328   1.100  1.00 20.00    -0.125 Cl
ENDBRANCH   5   7
ENDBRANCH   4   5
ENDBRANCH   3   4
TORSDOF 3
ENDMDL
MODEL 6
REMARK VINA RESULT:      -4.1     11.353     12.120
REMARK  3 active torsions:
REMARK  status: ('A' for Active; 'I' for Inactive)
REMARK    1  A    between atoms: C5_5  and  C6_6 
REMARK    2  A    between atoms: C6_6  and  C7_7 
REMARK    3  A    between atoms: C7_7  and  C8_8 
ROOT
HETATM    1  C1  UNL     1     -35.140  16.448  -1.594  1.00 20.00     0.012 C 
HETATM    2  C2  UNL     1     -34.274  16.184  -2.382  1.00 20.00    -0.117 C 
HETATM    3  C5  UNL     1     -33.211  15.863  -3.347  1.00 20.00     0.093 C 
ENDROOT
BRANCH   3   4
HETATM    4  C6  UNL     1     -33.672  14.783  -4.332  1.00 20.00     0.018 C 
BRANCH   4   5
HETATM    5  C7  UNL     1     -34.499  15.340  -5.515  1.00 20.00     0.000 C 
HETATM    6  C3  UNL     1     -33.835  15.026  -6.863  1.00 20.00     0.011 C 
BRANCH   5   7
HETATM    7  C8  UNL     1     -35.969  14.850  -5.420  1.00 20.00     0.082 C 
HETATM    8  C4  UNL     1     -36.144  13.635  -4.514  1.00 20.00     0.027 C 
HETATM    9 CL9  UNL     1     -37.081  16.144  -4.876  1.00 20.00    -0.125 Cl
ENDBRANCH   5   7
ENDBRANCH   4   5
ENDBRANCH   3   4
TORSDOF 3
ENDMDL
MODEL 7
REMARK VINA RESULT:      -4.0     11.137     12.239
REMARK  3 active torsions:
REMARK  status: ('A' for Active; 'I' for Inactive)
REMARK    1  A    between atoms: C5_5  and  C6_6 
REMARK    2  A    between atoms: C6_6  and  C7_7 
REMARK    3  A    between atoms: C7_7  and  C8_8 
ROOT
HETATM    1  C1  UNL     1     -33.029  16.942  -2.571  1.00 20.00     0.012 C 
HETATM    2  C2  UNL     1     -33.974  16.214  -2.705  1.00 20.00    -0.117 C 
HETATM    3  C5  UNL     1     -35.133  15.324  -2.866  1.00 20.00     0.093 C 
ENDROOT
BRANCH   3   4
HETATM    4  C6  UNL     1     -34.834  14.211  -3.876  1.00 20.00     0.018 C 
BRANCH   4   5
HETATM    5  C7  UNL     1     -35.983  13.967  -4.884  1.00 20.00     0.000 C 
HETATM    6  C3  UNL     1     -37.339  14.393  -4.305  1.00 20.00     0.011 C 
BRANCH   5   7
HETATM    7  C8  UNL     1     -35.653  14.636  -6.246  1.00 20.00     0.082 C 
HETATM    8  C4  UNL     1     -36.395  15.950  -6.470  1.00 20.00     0.027 C 
HETATM    9 CL9  UNL     1     -33.896  14.919  -6.453  1.00 20.00    -0.125 Cl
ENDBRANCH   5   7
ENDBRANCH   4   5
ENDBRANCH   3   4
TORSDOF 3
ENDMDL
MODEL 8
REMARK VINA RESULT:      -3.9     11.184     11.986
REMARK  3 active torsions:
REMARK  status: ('A' for Active; 'I' for Inactive)
REMARK    1  A    between atoms: C5_5  and  C6_6 
REMARK    2  A    between atoms: C6_6  and  C7_7 
REMARK    3  A    between atoms: C7_7  and  C8_8 
ROOT
HETATM    1  C1  UNL     1     -30.970  18.278  -0.069  1.00 20.00     0.012 C 
HETATM    2  C2  UNL     1     -31.910  18.293  -0.816  1.00 20.00    -0.117 C 
HETATM    3  C5  UNL     1     -33.062  18.314  -1.730  1.00 20.00     0.093 C 
ENDROOT
BRANCH   3   4
HETATM    4  C6  UNL     1     -32.937  17.222  -2.797  1.00 20.00     0.018 C 
BRANCH   4   5
HETATM    5  C7  UNL     1     -33.884  16.020  -2.565  1.00 20.00     0.000 C 
HETATM    6  C3  UNL     1     -35.126  16.430  -1.761  1.00 20.00     0.011 C 
BRANCH   5   7
HETATM    7  C8  UNL     1     -34.220  15.333  -3.916  1.00 20.00     0.082 C 
HETATM    8  C4  UNL     1     -33.066  14.509  -4.480  1.00 20.00     0.027 C 
HETATM    9 CL9  UNL     1     -35.675  14.294  -3.804  1.00 20.00    -0.125 Cl
ENDBRANCH   5   7
ENDBRANCH   4   5
ENDBRANCH   3   4
TORSDOF 3
ENDMDL
MODEL 9
REMARK VINA RESULT:      -3.9     15.417     16.080
REMARK  3 active torsions:
REMARK  status: ('A' for Active; 'I' for Inactive)
REMARK    1  A    between atoms: C5_5  and  C6_6 
REMARK    2  A    between atoms: C6_6  and  C7_7 
REMARK    3  A    between atoms: C7_7  and  C8_8 
ROOT
HETATM    1  C1  UNL     1     -25.259  19.263   6.232  1.00 20.00     0.012 C 
HETATM    2  C2  UNL     1     -25.258  19.234   7.433  1.00 20.00    -0.117 C 
HETATM    3  C5  UNL     1     -25.259  19.199   8.903  1.00 20.00     0.093 C 
ENDROOT
BRANCH   3   4
HETATM    4  C6  UNL     1     -23.861  18.886   9.446  1.00 20.00     0.018 C 
BRANCH   4   5
HETATM    5  C7  UNL     1     -23.531  17.375   9.467  1.00 20.00     0.000 C 
HETATM    6  C3  UNL     1     -22.261  17.064   8.663  1.00 20.00     0.011 C 
BRANCH   5   7
HETATM    7  C8  UNL     1     -23.479  16.858  10.931  1.00 20.00     0.082 C 
HETATM    8  C4  UNL     1     -22.721  17.787  11.874  1.00 20.00     0.027 C 
HETATM    9 CL9  UNL     1     -25.113  16.557  11.602  1.00 20.00    -0.125 Cl
ENDBRANCH   5   7
ENDBRANCH   4   5
ENDBRANCH   3   4
TORSDOF 3
ENDMDL
