MODEL 1
REMARK VINA RESULT:      -3.9      0.000      0.000
REMARK  4 active torsions:
REMARK  status: ('A' for Active; 'I' for Inactive)
REMARK    1  A    between atoms: C2_2  and  C6_6 
REMARK    2  A    between atoms: C2_2  and  C7_7 
REMARK    3  A    between atoms: C7_7  and  C8_8 
REMARK    4  A    between atoms: C8_8  and  C9_9 
ROOT
HETATM    1  C7  UNL     1     -24.876  17.922   9.763  1.00 20.00     0.039 C 
ENDROOT
BRANCH   1   2
HETATM    2  C2  UNL     1     -24.059  18.684   8.736  1.00 20.00    -0.089 C 
HETATM    3  C1  UNL     1     -24.652  19.263   7.679  1.00 20.00     0.014 C 
BRANCH   2   4
HETATM    4  C6  UNL     1     -22.563  18.782   8.931  1.00 20.00     0.029 C 
HETATM    5  C3  UNL     1     -21.847  17.450   8.752  1.00 20.00     0.010 C 
ENDBRANCH   2   4
ENDBRANCH   1   2
BRANCH   1   6
HETATM    6  C8  UNL     1     -24.771  18.462  11.210  1.00 20.00     0.003 C 
HETATM    7  C4  UNL     1     -26.146  18.885  11.750  1.00 20.00     0.011 C 
BRANCH   6   8
HETATM    8  C9  UNL     1     -24.076  17.474  12.184  1.00 20.00     0.082 C 
HETATM    9  C5  UNL     1     -24.302  16.009  11.821  1.00 20.00     0.027 C 
HETATM   10 CL10 UNL     1     -22.315  17.771  12.328  1.00 20.00    -0.125 Cl
ENDBRANCH   6   8
ENDBRANCH   1   6
TORSDOF 4
ENDMDL
MODEL 2
REMARK VINA RESULT:      -3.9     15.944     16.976
REMARK  4 active torsions:
REMARK  status: ('A' for Active; 'I' for Inactive)
REMARK    1  A    between atoms: C2_2  and  C6_6 
REMARK    2  A    between atoms: C2_2  and  C7_7 
REMARK    3  A    between atoms: C7_7  and  C8_8 
REMARK    4  A    between atoms: C8_8  and  C9_9 
ROOT
HETATM    1  C7  UNL     1     -33.159   5.840   2.442  1.00 20.00     0.039 C 
ENDROOT
BRANCH   1   2
HETATM    2  C2  UNL     1     -33.924   5.344   3.655  1.00 20.00    -0.089 C 
HETATM    3  C1  UNL     1     -34.189   4.036   3.812  1.00 20.00     0.014 C 
BRANCH   2   4
HETATM    4  C6  UNL     1     -34.379   6.352   4.686  1.00 20.00     0.029 C 
HETATM    5  C3  UNL     1     -34.631   5.737   6.055  1.00 20.00     0.010 C 
ENDBRANCH   2   4
ENDBRANCH   1   2
BRANCH   1   6
HETATM    6  C8  UNL     1     -32.821   7.351   2.458  1.00 20.00     0.003 C 
HETATM    7  C4  UNL     1     -31.465   7.613   3.132  1.00 20.00     0.011 C 
BRANCH   6   8
HETATM    8  C9  UNL     1     -32.874   8.006   1.053  1.00 20.00     0.082 C 
HETATM    9  C5  UNL     1     -33.101   9.515   1.099  1.00 20.00     0.027 C 
HETATM   10 CL10 UNL     1     -31.409   7.669   0.077  1.00 20.00    -0.125 Cl
ENDBRANCH   6   8
ENDBRANCH   1   6
TORSDOF 4
ENDMDL
MODEL 3
REMARK VINA RESULT:      -3.9     15.910     16.604
REMARK  4 active torsions:
REMARK  status: ('A' for Active; 'I' for Inactive)
REMARK    1  A    between atoms: C2_2  and  C6_6 
REMARK    2  A    between atoms: C2_2  and  C7_7 
REMARK    3  A    between atoms: C7_7  and  C8_8 
REMARK    4  A    between atoms: C8_8  and  C9_9 
ROOT
HETATM    1  C7  UNL     1     -32.499   7.152   2.817  1.00 20.00     0.039 C 
ENDROOT
BRANCH   1   2
HETATM    2  C2  UNL     1     -32.395   7.856   1.477  1.00 20.00    -0.089 C 
HETATM    3  C1  UNL     1     -31.568   7.397   0.522  1.00 20.00     0.014 C 
BRANCH   2   4
HETATM    4  C6  UNL     1     -33.245   9.083   1.237  1.00 20.00     0.029 C 
HETATM    5  C3  UNL     1     -33.622   9.273  -0.226  1.00 20.00     0.010 C 
ENDBRANCH   2   4
ENDBRANCH   1   2
BRANCH   1   6
HETATM    6  C8  UNL     1     -33.642   6.112   2.920  1.00 20.00     0.003 C 
HETATM    7  C4  UNL     1     -33.137   4.694   2.616  1.00 20.00     0.011 C 
BRANCH   6   8
HETATM    8  C9  UNL     1     -34.389   6.154   4.280  1.00 20.00     0.082 C 
HETATM    9  C5  UNL     1     -34.776   4.772   4.797  1.00 20.00     0.027 C 
HETATM   10 CL10 UNL     1     -33.460   7.011   5.551  1.00 20.00    -0.125 Cl
ENDBRANCH   6   8
ENDBRANCH   1   6
TORSDOF 4
ENDMDL
MODEL 4
REMARK VINA RESULT:      -3.8     16.754     18.638
REMARK  4 active torsions:
REMARK  status: ('A' for Active; 'I' for Inactive)
REMARK    1  A    between atoms: C2_2  and  C6_6 
REMARK    2  A    between atoms: C2_2  and  C7_7 
REMARK    3  A    between atoms: C7_7  and  C8_8 
REMARK    4  A    between atoms: C8_8  and  C9_9 
ROOT
HETATM    1  C7  UNL     1     -33.852  14.946  -4.131  1.00 20.00     0.039 C 
ENDROOT
BRANCH   1   2
HETATM    2  C2  UNL     1     -33.906  15.957  -3.001  1.00 20.00    -0.089 C 
HETATM    3  C1  UNL     1     -32.912  16.842  -2.822  1.00 20.00     0.014 C 
BRANCH   2   4
HETATM    4  C6  UNL     1     -35.106  15.949  -2.081  1.00 20.00     0.029 C 
HETATM    5  C3  UNL     1     -35.034  17.011  -0.992  1.00 20.00     0.010 C 
ENDBRANCH   2   4
ENDBRANCH   1   2
BRANCH   1   6
HETATM    6  C8  UNL     1     -34.595  15.370  -5.421  1.00 20.00     0.003 C 
HETATM    7  C4  UNL     1     -33.795  14.993  -6.677  1.00 20.00     0.011 C 
BRANCH   6   8
HETATM    8  C9  UNL     1     -36.044  14.820  -5.503  1.00 20.00     0.082 C 
HETATM    9  C5  UNL     1     -36.272  13.590  -4.629  1.00 20.00     0.027 C 
HETATM   10 CL10 UNL     1     -37.276  16.057  -5.097  1.00 20.00    -0.125 Cl
ENDBRANCH   6   8
ENDBRANCH   1   6
TORSDOF 4
ENDMDL
MODEL 5
REMARK VINA RESULT:      -3.8     15.762     16.423
REMARK  4 active torsions:
REMARK  status: ('A' for Active; 'I' for Inactive)
REMARK    1  A    between atoms: C2_2  and  C6_6 
REMARK    2  A    between atoms: C2_2  and  C7_7 
REMARK    3  A    between atoms: C7_7  and  C8_8 
REMARK    4  A    between atoms: C8_8  and  C9_9 
ROOT
HETATM    1  C7  UNL     1     -33.291   5.939   2.896  1.00 20.00     0.039 C 
ENDROOT
BRANCH   1   2
HETATM    2  C2  UNL     1     -32.443   7.119   2.460  1.00 20.00    -0.089 C 
HETATM    3  C1  UNL     1     -31.629   7.739   3.330  1.00 20.00     0.014 C 
BRANCH   2   4
HETATM    4  C6  UNL     1     -32.530   7.580   1.022  1.00 20.00     0.029 C 
HETATM    5  C3  UNL     1     -32.945   9.038   0.884  1.00 20.00     0.010 C 
ENDBRANCH   2   4
ENDBRANCH   1   2
BRANCH   1   6
HETATM    6  C8  UNL     1     -34.335   6.257   3.995  1.00 20.00     0.003 C 
HETATM    7  C4  UNL     1     -35.631   5.461   3.781  1.00 20.00     0.011 C 
BRANCH   6   8
HETATM    8  C9  UNL     1     -33.792   6.052   5.434  1.00 20.00     0.082 C 
HETATM    9  C5  UNL     1     -33.724   7.344   6.243  1.00 20.00     0.027 C 
HETATM   10 CL10 UNL     1     -34.730   4.836   6.358  1.00 20.00    -0.125 Cl
ENDBRANCH   6   8
ENDBRANCH   1   6
TORSDOF 4
ENDMDL
MODEL 6
REMARK VINA RESULT:      -3.7     15.885     17.785
REMARK  4 active torsions:
REMARK  status: ('A' for Active; 'I' for Inactive)
REMARK    1  A    between atoms: C2_2  and  C6_6 
REMARK    2  A    between atoms: C2_2  and  C7_7 
REMARK    3  A    between atoms: C7_7  and  C8_8 
REMARK    4  A    between atoms: C8_8  and  C9_9 
ROOT
HETATM    1  C7  UNL     1     -34.654  15.480  -2.715  1.00 20.00     0.039 C 
ENDROOT
BRANCH   1   2
HETATM    2  C2  UNL     1     -34.213  16.715  -1.953  1.00 20.00    -0.089 C 
HETATM    3  C1  UNL     1     -34.910  17.153  -0.891  1.00 20.00     0.014 C 
BRANCH   2   4
HETATM    4  C6  UNL     1     -32.967  17.440  -2.410  1.00 20.00     0.029 C 
HETATM    5  C3  UNL     1     -32.220  18.123  -1.273  1.00 20.00     0.010 C 
ENDBRANCH   2   4
ENDBRANCH   1   2
BRANCH   1   6
HETATM    6  C8  UNL     1     -34.212  15.436  -4.198  1.00 20.00     0.003 C 
HETATM    7  C4  UNL     1     -33.036  14.469  -4.403  1.00 20.00     0.011 C 
BRANCH   6   8
HETATM    8  C9  UNL     1     -35.373  15.108  -5.175  1.00 20.00     0.082 C 
HETATM    9  C5  UNL     1     -34.917  14.955  -6.623  1.00 20.00     0.027 C 
HETATM   10 CL10 UNL     1     -36.284  13.641  -4.696  1.00 20.00    -0.125 Cl
ENDBRANCH   6   8
ENDBRANCH   1   6
TORSDOF 4
ENDMDL
MODEL 7
REMARK VINA RESULT:      -3.7      1.991      4.290
REMARK  4 active torsions:
REMARK  status: ('A' for Active; 'I' for Inactive)
REMARK    1  A    between atoms: C2_2  and  C6_6 
REMARK    2  A    between atoms: C2_2  and  C7_7 
REMARK    3  A    between atoms: C7_7  and  C8_8 
REMARK    4  A    between atoms: C8_8  and  C9_9 
ROOT
HETATM    1  C7  UNL     1     -24.345  17.167  10.328  1.00 20.00     0.039 C 
ENDROOT
BRANCH   1   2
HETATM    2  C2  UNL     1     -25.031  17.179  11.681  1.00 20.00    -0.089 C 
HETATM    3  C1  UNL     1     -25.311  16.031  12.319  1.00 20.00     0.014 C 
BRANCH   2   4
HETATM    4  C6  UNL     1     -25.388  18.512  12.298  1.00 20.00     0.029 C 
HETATM    5  C3  UNL     1     -26.534  19.216  11.585  1.00 20.00     0.010 C 
ENDBRANCH   2   4
ENDBRANCH   1   2
BRANCH   1   6
HETATM    6  C8  UNL     1     -23.205  18.201  10.165  1.00 20.00     0.003 C 
HETATM    7  C4  UNL     1     -21.954  17.783  10.953  1.00 20.00     0.011 C 
BRANCH   6   8
HETATM    8  C9  UNL     1     -22.851  18.496   8.683  1.00 20.00     0.082 C 
HETATM    9  C5  UNL     1     -21.995  17.409   8.039  1.00 20.00     0.027 C 
HETATM   10 CL10 UNL     1     -24.303  18.769   7.668  1.00 20.00    -0.125 Cl
ENDBRANCH   6   8
ENDBRANCH   1   6
TORSDOF 4
ENDMDL
MODEL 8
REMARK VINA RESULT:      -3.6     14.402     16.169
REMARK  4 active torsions:
REMARK  status: ('A' for Active; 'I' for Inactive)
REMARK    1  A    between atoms: C2_2  and  C6_6 
REMARK    2  A    between atoms: C2_2  and  C7_7 
REMARK    3  A    between atoms: C7_7  and  C8_8 
REMARK    4  A    between atoms: C8_8  and  C9_9 
ROOT
HETATM    1  C7  UNL     1     -33.063  16.742  -2.619  1.00 20.00     0.039 C 
ENDROOT
BRANCH   1   2
HETATM    2  C2  UNL     1     -33.666  16.210  -3.905  1.00 20.00    -0.089 C 
HETATM    3  C1  UNL     1     -34.264  17.039  -4.777  1.00 20.00     0.014 C 
BRANCH   2   4
HETATM    4  C6  UNL     1     -33.576  14.728  -4.187  1.00 20.00     0.029 C 
HETATM    5  C3  UNL     1     -34.880  13.987  -3.925  1.00 20.00     0.010 C 
ENDBRANCH   2   4
ENDBRANCH   1   2
BRANCH   1   6
HETATM    6  C8  UNL     1     -34.014  17.615  -1.764  1.00 20.00     0.003 C 
HETATM    7  C4  UNL     1     -35.113  16.765  -1.106  1.00 20.00     0.011 C 
BRANCH   6   8
HETATM    8  C9  UNL     1     -33.273  18.474  -0.705  1.00 20.00     0.082 C 
HETATM    9  C5  UNL     1     -33.770  18.238   0.718  1.00 20.00     0.027 C 
HETATM   10 CL10 UNL     1     -31.497  18.240  -0.747  1.00 20.00    -0.125 Cl
ENDBRANCH   6   8
ENDBRANCH   1   6
TORSDOF 4
ENDMDL
MODEL 9
REMARK VINA RESULT:      -3.6     14.800     16.695
REMARK  4 active torsions:
REMARK  status: ('A' for Active; 'I' for Inactive)
REMARK    1  A    between atoms: C2_2  and  C6_6 
REMARK    2  A    between atoms: C2_2  and  C7_7 
REMARK    3  A    between atoms: C7_7  and  C8_8 
REMARK    4  A    between atoms: C8_8  and  C9_9 
ROOT
HETATM    1  C7  UNL     1     -34.043  16.214  -2.294  1.00 20.00     0.039 C 
ENDROOT
BRANCH   1   2
HETATM    2  C2  UNL     1     -34.322  15.281  -3.456  1.00 20.00    -0.089 C 
HETATM    3  C1  UNL     1     -33.314  14.750  -4.168  1.00 20.00     0.014 C 
BRANCH   2   4
HETATM    4  C6  UNL     1     -35.760  14.955  -3.793  1.00 20.00     0.029 C 
HETATM    5  C3  UNL     1     -35.917  13.640  -4.543  1.00 20.00     0.010 C 
ENDBRANCH   2   4
ENDBRANCH   1   2
BRANCH   1   6
HETATM    6  C8  UNL     1     -33.095  17.395  -2.618  1.00 20.00     0.003 C 
HETATM    7  C4  UNL     1     -33.600  18.201  -3.825  1.00 20.00     0.011 C 
BRANCH   6   8
HETATM    8  C9  UNL     1     -32.834  18.324  -1.403  1.00 20.00     0.082 C 
HETATM    9  C5  UNL     1     -33.847  18.142  -0.276  1.00 20.00     0.027 C 
HETATM   10 CL10 UNL     1     -31.182  18.138  -0.735  1.00 20.00    -0.125 Cl
ENDBRANCH   6   8
ENDBRANCH   1   6
TORSDOF 4
ENDMDL
