MODEL 1
REMARK VINA RESULT:      -4.5      0.000      0.000
REMARK  3 active torsions:
REMARK  status: ('A' for Active; 'I' for Inactive)
REMARK    1  A    between atoms: C4_4  and  C10_10 
REMARK    2  A    between atoms: C8_8  and  C10_10 
REMARK    3  A    between atoms: C9_9  and  C10_10 
ROOT
HETATM    1  C1  UNL     1     -33.081  15.714  -3.521  1.00 20.00     0.006 C 
HETATM    2  C2  UNL     1     -33.721  14.711  -4.470  1.00 20.00     0.020 C 
HETATM    3  C3  UNL     1     -35.494  15.589  -3.102  1.00 20.00     0.025 C 
HETATM    4  C4  UNL     1     -34.267  16.511  -2.965  1.00 20.00    -0.009 C 
HETATM    5  C5  UNL     1     -34.958  14.288  -3.695  1.00 20.00     0.082 C 
HETATM    6 CL11 UNL     1     -36.145  13.466  -4.718  1.00 20.00    -0.125 Cl
ENDROOT
BRANCH   4   7
HETATM    7  C10 UNL     1     -34.033  16.980  -1.536  1.00 20.00    -0.011 C 
BRANCH   7   8
HETATM    8  C8  UNL     1     -35.357  17.086  -0.749  1.00 20.00     0.000 C 
HETATM    9  C6  UNL     1     -35.169  17.389   0.732  1.00 20.00     0.005 C 
ENDBRANCH   7   8
BRANCH   7  10
HETATM   10  C9  UNL     1     -33.315  18.344  -1.498  1.00 20.00     0.000 C 
HETATM   11  C7  UNL     1     -31.871  18.267  -1.022  1.00 20.00     0.005 C 
ENDBRANCH   7  10
ENDBRANCH   4   7
TORSDOF 3
ENDMDL
MODEL 2
REMARK VINA RESULT:      -4.4      2.413      4.547
REMARK  3 active torsions:
REMARK  status: ('A' for Active; 'I' for Inactive)
REMARK    1  A    between atoms: C4_4  and  C10_10 
REMARK    2  A    between atoms: C8_8  and  C10_10 
REMARK    3  A    between atoms: C9_9  and  C10_10 
ROOT
HETATM    1  C1  UNL     1     -33.016  16.628  -3.234  1.00 20.00     0.006 C 
HETATM    2  C2  UNL     1     -33.050  17.403  -1.925  1.00 20.00     0.020 C 
HETATM    3  C3  UNL     1     -35.051  16.069  -1.985  1.00 20.00     0.025 C 
HETATM    4  C4  UNL     1     -34.072  15.532  -3.047  1.00 20.00    -0.009 C 
HETATM    5  C5  UNL     1     -34.541  17.465  -1.634  1.00 20.00     0.082 C 
HETATM    6 CL11 UNL     1     -34.881  17.911   0.045  1.00 20.00    -0.125 Cl
ENDROOT
BRANCH   4   7
HETATM    7  C10 UNL     1     -34.759  15.158  -4.353  1.00 20.00    -0.011 C 
BRANCH   7   8
HETATM    8  C8  UNL     1     -35.710  13.957  -4.171  1.00 20.00     0.000 C 
HETATM    9  C6  UNL     1     -37.172  14.283  -4.446  1.00 20.00     0.005 C 
ENDBRANCH   7   8
BRANCH   7  10
HETATM   10  C9  UNL     1     -33.734  14.825  -5.457  1.00 20.00     0.000 C 
HETATM   11  C7  UNL     1     -34.199  15.188  -6.860  1.00 20.00     0.005 C 
ENDBRANCH   7  10
ENDBRANCH   4   7
TORSDOF 3
ENDMDL
MODEL 3
REMARK VINA RESULT:      -4.3      1.455      1.910
REMARK  3 active torsions:
REMARK  status: ('A' for Active; 'I' for Inactive)
REMARK    1  A    between atoms: C4_4  and  C10_10 
REMARK    2  A    between atoms: C8_8  and  C10_10 
REMARK    3  A    between atoms: C9_9  and  C10_10 
ROOT
HETATM    1  C1  UNL     1     -35.909  15.509  -3.561  1.00 20.00     0.006 C 
HETATM    2  C2  UNL     1     -35.788  15.045  -5.005  1.00 20.00     0.020 C 
HETATM    3  C3  UNL     1     -33.548  15.432  -4.219  1.00 20.00     0.025 C 
HETATM    4  C4  UNL     1     -34.490  15.361  -3.001  1.00 20.00    -0.009 C 
HETATM    5  C5  UNL     1     -34.460  15.657  -5.422  1.00 20.00     0.082 C 
HETATM    6 CL11 UNL     1     -33.821  14.931  -6.905  1.00 20.00    -0.125 Cl
ENDROOT
BRANCH   4   7
HETATM    7  C10 UNL     1     -34.171  16.407  -1.942  1.00 20.00    -0.011 C 
BRANCH   7   8
HETATM    8  C8  UNL     1     -35.453  17.074  -1.400  1.00 20.00     0.000 C 
HETATM    9  C6  UNL     1     -35.504  17.166   0.119  1.00 20.00     0.005 C 
ENDBRANCH   7   8
BRANCH   7  10
HETATM   10  C9  UNL     1     -33.229  17.499  -2.488  1.00 20.00     0.000 C 
HETATM   11  C7  UNL     1     -32.252  18.043  -1.455  1.00 20.00     0.005 C 
ENDBRANCH   7  10
ENDBRANCH   4   7
TORSDOF 3
ENDMDL
MODEL 4
REMARK VINA RESULT:      -4.2      0.527      2.000
REMARK  3 active torsions:
REMARK  status: ('A' for Active; 'I' for Inactive)
REMARK    1  A    between atoms: C4_4  and  C10_10 
REMARK    2  A    between atoms: C8_8  and  C10_10 
REMARK    3  A    between atoms: C9_9  and  C10_10 
ROOT
HETATM    1  C1  UNL     1     -33.133  15.882  -3.436  1.00 20.00     0.006 C 
HETATM    2  C2  UNL     1     -33.662  14.694  -4.227  1.00 20.00     0.020 C 
HETATM    3  C3  UNL     1     -35.585  15.858  -3.369  1.00 20.00     0.025 C 
HETATM    4  C4  UNL     1     -34.359  16.785  -3.254  1.00 20.00    -0.009 C 
HETATM    5  C5  UNL     1     -35.013  14.457  -3.573  1.00 20.00     0.082 C 
HETATM    6 CL11 UNL     1     -36.066  13.430  -4.558  1.00 20.00    -0.125 Cl
ENDROOT
BRANCH   4   7
HETATM    7  C10 UNL     1     -34.321  17.560  -1.945  1.00 20.00    -0.011 C 
BRANCH   7   8
HETATM    8  C8  UNL     1     -32.880  17.702  -1.411  1.00 20.00     0.000 C 
HETATM    9  C6  UNL     1     -32.275  19.082  -1.634  1.00 20.00     0.005 C 
ENDBRANCH   7   8
BRANCH   7  10
HETATM   10  C9  UNL     1     -35.193  16.889  -0.863  1.00 20.00     0.000 C 
HETATM   11  C7  UNL     1     -35.058  17.519   0.516  1.00 20.00     0.005 C 
ENDBRANCH   7  10
ENDBRANCH   4   7
TORSDOF 3
ENDMDL
MODEL 5
REMARK VINA RESULT:      -4.2      1.351      2.666
REMARK  3 active torsions:
REMARK  status: ('A' for Active; 'I' for Inactive)
REMARK    1  A    between atoms: C4_4  and  C10_10 
REMARK    2  A    between atoms: C8_8  and  C10_10 
REMARK    3  A    between atoms: C9_9  and  C10_10 
ROOT
HETATM    1  C1  UNL     1     -35.165  16.217  -2.037  1.00 20.00     0.006 C 
HETATM    2  C2  UNL     1     -35.244  15.278  -3.233  1.00 20.00     0.020 C 
HETATM    3  C3  UNL     1     -33.143  16.437  -3.409  1.00 20.00     0.025 C 
HETATM    4  C4  UNL     1     -33.687  16.622  -1.979  1.00 20.00    -0.009 C 
HETATM    5  C5  UNL     1     -34.338  15.970  -4.237  1.00 20.00     0.082 C 
HETATM    6 CL11 UNL     1     -33.867  14.901  -5.567  1.00 20.00    -0.125 Cl
ENDROOT
BRANCH   4   7
HETATM    7  C10 UNL     1     -33.493  18.035  -1.448  1.00 20.00    -0.011 C 
BRANCH   7   8
HETATM    8  C8  UNL     1     -32.028  18.499  -1.587  1.00 20.00     0.000 C 
HETATM    9  C6  UNL     1     -31.227  18.402  -0.296  1.00 20.00     0.005 C 
ENDBRANCH   7   8
BRANCH   7  10
HETATM   10  C9  UNL     1     -33.918  18.148   0.031  1.00 20.00     0.000 C 
HETATM   11  C7  UNL     1     -35.047  19.139   0.274  1.00 20.00     0.005 C 
ENDBRANCH   7  10
ENDBRANCH   4   7
TORSDOF 3
ENDMDL
MODEL 6
REMARK VINA RESULT:      -4.2      2.657      4.557
REMARK  3 active torsions:
REMARK  status: ('A' for Active; 'I' for Inactive)
REMARK    1  A    between atoms: C4_4  and  C10_10 
REMARK    2  A    between atoms: C8_8  and  C10_10 
REMARK    3  A    between atoms: C9_9  and  C10_10 
ROOT
HETATM    1  C1  UNL     1     -33.124  16.725  -2.908  1.00 20.00     0.006 C 
HETATM    2  C2  UNL     1     -32.704  17.673  -1.794  1.00 20.00     0.020 C 
HETATM    3  C3  UNL     1     -34.904  16.880  -1.228  1.00 20.00     0.025 C 
HETATM    4  C4  UNL     1     -34.319  15.965  -2.321  1.00 20.00    -0.009 C 
HETATM    5  C5  UNL     1     -34.046  18.143  -1.258  1.00 20.00     0.082 C 
HETATM    6 CL11 UNL     1     -33.905  18.908   0.332  1.00 20.00    -0.125 Cl
ENDROOT
BRANCH   4   7
HETATM    7  C10 UNL     1     -35.340  15.579  -3.382  1.00 20.00    -0.011 C 
BRANCH   7   8
HETATM    8  C8  UNL     1     -35.077  14.162  -3.935  1.00 20.00     0.000 C 
HETATM    9  C6  UNL     1     -36.255  13.572  -4.699  1.00 20.00     0.005 C 
ENDBRANCH   7   8
BRANCH   7  10
HETATM   10  C9  UNL     1     -35.346  16.583  -4.554  1.00 20.00     0.000 C 
HETATM   11  C7  UNL     1     -36.519  17.552  -4.529  1.00 20.00     0.005 C 
ENDBRANCH   7  10
ENDBRANCH   4   7
TORSDOF 3
ENDMDL
MODEL 7
REMARK VINA RESULT:      -4.1      2.525      4.586
REMARK  3 active torsions:
REMARK  status: ('A' for Active; 'I' for Inactive)
REMARK    1  A    between atoms: C4_4  and  C10_10 
REMARK    2  A    between atoms: C8_8  and  C10_10 
REMARK    3  A    between atoms: C9_9  and  C10_10 
ROOT
HETATM    1  C1  UNL     1     -33.014  17.014  -2.728  1.00 20.00     0.006 C 
HETATM    2  C2  UNL     1     -33.087  17.763  -1.405  1.00 20.00     0.020 C 
HETATM    3  C3  UNL     1     -35.062  16.395  -1.528  1.00 20.00     0.025 C 
HETATM    4  C4  UNL     1     -34.053  15.896  -2.581  1.00 20.00    -0.009 C 
HETATM    5  C5  UNL     1     -34.584  17.793  -1.142  1.00 20.00     0.082 C 
HETATM    6 CL11 UNL     1     -34.963  18.202   0.538  1.00 20.00    -0.125 Cl
ENDROOT
BRANCH   4   7
HETATM    7  C10 UNL     1     -34.708  15.534  -3.906  1.00 20.00    -0.011 C 
BRANCH   7   8
HETATM    8  C8  UNL     1     -36.065  16.247  -4.083  1.00 20.00     0.000 C 
HETATM    9  C6  UNL     1     -36.008  17.462  -4.999  1.00 20.00     0.005 C 
ENDBRANCH   7   8
BRANCH   7  10
HETATM   10  C9  UNL     1     -34.920  14.011  -4.037  1.00 20.00     0.000 C 
HETATM   11  C7  UNL     1     -36.275  13.625  -4.613  1.00 20.00     0.005 C 
ENDBRANCH   7  10
ENDBRANCH   4   7
TORSDOF 3
ENDMDL
MODEL 8
REMARK VINA RESULT:      -4.1      1.563      2.881
REMARK  3 active torsions:
REMARK  status: ('A' for Active; 'I' for Inactive)
REMARK    1  A    between atoms: C4_4  and  C10_10 
REMARK    2  A    between atoms: C8_8  and  C10_10 
REMARK    3  A    between atoms: C9_9  and  C10_10 
ROOT
HETATM    1  C1  UNL     1     -34.634  17.212  -1.781  1.00 20.00     0.006 C 
HETATM    2  C2  UNL     1     -35.240  15.864  -2.146  1.00 20.00     0.020 C 
HETATM    3  C3  UNL     1     -33.126  15.998  -3.287  1.00 20.00     0.025 C 
HETATM    4  C4  UNL     1     -33.163  17.084  -2.194  1.00 20.00    -0.009 C 
HETATM    5  C5  UNL     1     -34.580  15.575  -3.484  1.00 20.00     0.082 C 
HETATM    6 CL11 UNL     1     -34.735  13.876  -3.957  1.00 20.00    -0.125 Cl
ENDROOT
BRANCH   4   7
HETATM    7  C10 UNL     1     -32.572  18.409  -2.653  1.00 20.00    -0.011 C 
BRANCH   7   8
HETATM    8  C8  UNL     1     -32.020  19.227  -1.466  1.00 20.00     0.000 C 
HETATM    9  C6  UNL     1     -31.314  18.383  -0.413  1.00 20.00     0.005 C 
ENDBRANCH   7   8
BRANCH   7  10
HETATM   10  C9  UNL     1     -33.610  19.261  -3.411  1.00 20.00     0.000 C 
HETATM   11  C7  UNL     1     -33.438  19.242  -4.923  1.00 20.00     0.005 C 
ENDBRANCH   7  10
ENDBRANCH   4   7
TORSDOF 3
ENDMDL
MODEL 9
REMARK VINA RESULT:      -4.1      2.593      5.024
REMARK  3 active torsions:
REMARK  status: ('A' for Active; 'I' for Inactive)
REMARK    1  A    between atoms: C4_4  and  C10_10 
REMARK    2  A    between atoms: C8_8  and  C10_10 
REMARK    3  A    between atoms: C9_9  and  C10_10 
ROOT
HETATM    1  C1  UNL     1     -34.885  16.075  -2.233  1.00 20.00     0.006 C 
HETATM    2  C2  UNL     1     -34.359  17.238  -1.404  1.00 20.00     0.020 C 
HETATM    3  C3  UNL     1     -32.994  17.132  -3.381  1.00 20.00     0.025 C 
HETATM    4  C4  UNL     1     -34.264  16.294  -3.618  1.00 20.00    -0.009 C 
HETATM    5  C5  UNL     1     -32.915  17.328  -1.869  1.00 20.00     0.082 C 
HETATM    6 CL11 UNL     1     -32.159  18.865  -1.421  1.00 20.00    -0.125 Cl
ENDROOT
BRANCH   4   7
HETATM    7  C10 UNL     1     -33.986  14.985  -4.343  1.00 20.00    -0.011 C 
BRANCH   7   8
HETATM    8  C8  UNL     1     -34.191  15.124  -5.866  1.00 20.00     0.000 C 
HETATM    9  C6  UNL     1     -34.689  16.497  -6.297  1.00 20.00     0.005 C 
ENDBRANCH   7   8
BRANCH   7  10
HETATM   10  C9  UNL     1     -34.882  13.844  -3.817  1.00 20.00     0.000 C 
HETATM   11  C7  UNL     1     -36.149  13.631  -4.632  1.00 20.00     0.005 C 
ENDBRANCH   7  10
ENDBRANCH   4   7
TORSDOF 3
ENDMDL
