MODEL 1
REMARK VINA RESULT:      -4.1      0.000      0.000
REMARK  4 active torsions:
REMARK  status: ('A' for Active; 'I' for Inactive)
REMARK    1  A    between atoms: C5_5  and  C8_8 
REMARK    2  A    between atoms: C6_6  and  C8_8 
REMARK    3  A    between atoms: C7_7  and  C8_8 
REMARK    4  A    between atoms: C7_7  and  S10_10 
ROOT
HETATM    1  C1  UNL     1     -36.846  14.660  -4.179  1.00 20.00     0.074 C 
HETATM    2  C7  UNL     1     -36.041  15.866  -3.898  1.00 20.00     0.157 C 
HETATM    3  N9  UNL     1     -37.473  13.711  -4.405  1.00 20.00    -0.196 NA
ENDROOT
BRANCH   2   4
HETATM    4  C8  UNL     1     -34.918  15.572  -2.857  1.00 20.00     0.012 C 
BRANCH   4   5
HETATM    5  C5  UNL     1     -35.036  16.451  -1.582  1.00 20.00     0.002 C 
HETATM    6  C2  UNL     1     -33.891  17.442  -1.416  1.00 20.00     0.005 C 
ENDBRANCH   4   5
BRANCH   4   7
HETATM    7  C6  UNL     1     -33.490  15.674  -3.451  1.00 20.00     0.002 C 
HETATM    8  C3  UNL     1     -33.118  14.536  -4.393  1.00 20.00     0.005 C 
ENDBRANCH   4   7
ENDBRANCH   2   4
BRANCH   2   9
HETATM    9  S10 UNL     1     -37.131  17.268  -3.449  1.00 20.00    -0.154 SA
HETATM   10  C4  UNL     1     -36.293  18.548  -4.407  1.00 20.00     0.091 C 
ENDBRANCH   2   9
TORSDOF 4
ENDMDL
MODEL 2
REMARK VINA RESULT:      -4.0      1.619      1.940
REMARK  4 active torsions:
REMARK  status: ('A' for Active; 'I' for Inactive)
REMARK    1  A    between atoms: C5_5  and  C8_8 
REMARK    2  A    between atoms: C6_6  and  C8_8 
REMARK    3  A    between atoms: C7_7  and  C8_8 
REMARK    4  A    between atoms: C7_7  and  S10_10 
ROOT
HETATM    1  C1  UNL     1     -37.033  14.361  -4.492  1.00 20.00     0.074 C 
HETATM    2  C7  UNL     1     -35.662  14.857  -4.726  1.00 20.00     0.157 C 
HETATM    3  N9  UNL     1     -38.107  13.965  -4.308  1.00 20.00    -0.196 NA
ENDROOT
BRANCH   2   4
HETATM    4  C8  UNL     1     -34.960  15.243  -3.389  1.00 20.00     0.012 C 
BRANCH   4   5
HETATM    5  C5  UNL     1     -35.668  16.415  -2.655  1.00 20.00     0.002 C 
HETATM    6  C2  UNL     1     -35.129  16.674  -1.254  1.00 20.00     0.005 C 
ENDBRANCH   4   5
BRANCH   4   7
HETATM    7  C6  UNL     1     -33.450  15.547  -3.555  1.00 20.00     0.002 C 
HETATM    8  C3  UNL     1     -32.681  14.498  -4.348  1.00 20.00     0.005 C 
ENDBRANCH   4   7
ENDBRANCH   2   4
BRANCH   2   9
HETATM    9  S10 UNL     1     -35.673  16.193  -5.979  1.00 20.00    -0.154 SA
HETATM   10  C4  UNL     1     -34.836  15.296  -7.303  1.00 20.00     0.091 C 
ENDBRANCH   2   9
TORSDOF 4
ENDMDL
MODEL 3
REMARK VINA RESULT:      -3.8      0.715      2.268
REMARK  4 active torsions:
REMARK  status: ('A' for Active; 'I' for Inactive)
REMARK    1  A    between atoms: C5_5  and  C8_8 
REMARK    2  A    between atoms: C6_6  and  C8_8 
REMARK    3  A    between atoms: C7_7  and  C8_8 
REMARK    4  A    between atoms: C7_7  and  S10_10 
ROOT
HETATM    1  C1  UNL     1     -37.192  14.786  -4.382  1.00 20.00     0.074 C 
HETATM    2  C7  UNL     1     -36.309  15.966  -4.473  1.00 20.00     0.157 C 
HETATM    3  N9  UNL     1     -37.882  13.856  -4.317  1.00 20.00    -0.196 NA
ENDROOT
BRANCH   2   4
HETATM    4  C8  UNL     1     -34.990  15.754  -3.668  1.00 20.00     0.012 C 
BRANCH   4   5
HETATM    5  C5  UNL     1     -34.368  14.349  -3.895  1.00 20.00     0.002 C 
HETATM    6  C2  UNL     1     -32.934  14.392  -4.410  1.00 20.00     0.005 C 
ENDBRANCH   4   5
BRANCH   4   7
HETATM    7  C6  UNL     1     -35.145  16.034  -2.152  1.00 20.00     0.002 C 
HETATM    8  C3  UNL     1     -34.200  17.099  -1.610  1.00 20.00     0.005 C 
ENDBRANCH   4   7
ENDBRANCH   2   4
BRANCH   2   9
HETATM    9  S10 UNL     1     -37.227  17.484  -4.019  1.00 20.00    -0.154 SA
HETATM   10  C4  UNL     1     -36.022  18.689  -4.616  1.00 20.00     0.091 C 
ENDBRANCH   2   9
TORSDOF 4
ENDMDL
MODEL 4
REMARK VINA RESULT:      -3.7      2.129      2.933
REMARK  4 active torsions:
REMARK  status: ('A' for Active; 'I' for Inactive)
REMARK    1  A    between atoms: C5_5  and  C8_8 
REMARK    2  A    between atoms: C6_6  and  C8_8 
REMARK    3  A    between atoms: C7_7  and  C8_8 
REMARK    4  A    between atoms: C7_7  and  S10_10 
ROOT
HETATM    1  C1  UNL     1     -36.693  14.195  -4.828  1.00 20.00     0.074 C 
HETATM    2  C7  UNL     1     -35.412  14.617  -5.429  1.00 20.00     0.157 C 
HETATM    3  N9  UNL     1     -37.696  13.858  -4.353  1.00 20.00    -0.196 NA
ENDROOT
BRANCH   2   4
HETATM    4  C8  UNL     1     -34.706  15.703  -4.561  1.00 20.00     0.012 C 
BRANCH   4   5
HETATM    5  C5  UNL     1     -34.436  15.228  -3.107  1.00 20.00     0.002 C 
HETATM    6  C2  UNL     1     -35.029  16.145  -2.044  1.00 20.00     0.005 C 
ENDBRANCH   4   5
BRANCH   4   7
HETATM    7  C6  UNL     1     -35.453  17.061  -4.553  1.00 20.00     0.002 C 
HETATM    8  C3  UNL     1     -34.660  18.218  -5.148  1.00 20.00     0.005 C 
ENDBRANCH   4   7
ENDBRANCH   2   4
BRANCH   2   9
HETATM    9  S10 UNL     1     -35.657  15.099  -7.179  1.00 20.00    -0.154 SA
HETATM   10  C4  UNL     1     -33.921  15.337  -7.614  1.00 20.00     0.091 C 
ENDBRANCH   2   9
TORSDOF 4
ENDMDL
MODEL 5
REMARK VINA RESULT:      -3.7      1.869      2.609
REMARK  4 active torsions:
REMARK  status: ('A' for Active; 'I' for Inactive)
REMARK    1  A    between atoms: C5_5  and  C8_8 
REMARK    2  A    between atoms: C6_6  and  C8_8 
REMARK    3  A    between atoms: C7_7  and  C8_8 
REMARK    4  A    between atoms: C7_7  and  S10_10 
ROOT
HETATM    1  C1  UNL     1     -35.414  13.817  -4.337  1.00 20.00     0.074 C 
HETATM    2  C7  UNL     1     -34.906  15.190  -4.146  1.00 20.00     0.157 C 
HETATM    3  N9  UNL     1     -35.806  12.735  -4.483  1.00 20.00    -0.196 NA
ENDROOT
BRANCH   2   4
HETATM    4  C8  UNL     1     -35.539  15.862  -2.889  1.00 20.00     0.012 C 
BRANCH   4   5
HETATM    5  C5  UNL     1     -36.663  16.871  -3.250  1.00 20.00     0.002 C 
HETATM    6  C2  UNL     1     -36.702  18.092  -2.339  1.00 20.00     0.005 C 
ENDBRANCH   4   5
BRANCH   4   7
HETATM    7  C6  UNL     1     -34.494  16.530  -1.960  1.00 20.00     0.002 C 
HETATM    8  C3  UNL     1     -33.117  16.708  -2.588  1.00 20.00     0.005 C 
ENDBRANCH   4   7
ENDBRANCH   2   4
BRANCH   2   9
HETATM    9  S10 UNL     1     -35.095  16.159  -5.689  1.00 20.00    -0.154 SA
HETATM   10  C4  UNL     1     -34.086  15.116  -6.761  1.00 20.00     0.091 C 
ENDBRANCH   2   9
TORSDOF 4
ENDMDL
MODEL 6
REMARK VINA RESULT:      -3.6      3.356      4.588
REMARK  4 active torsions:
REMARK  status: ('A' for Active; 'I' for Inactive)
REMARK    1  A    between atoms: C5_5  and  C8_8 
REMARK    2  A    between atoms: C6_6  and  C8_8 
REMARK    3  A    between atoms: C7_7  and  C8_8 
REMARK    4  A    between atoms: C7_7  and  S10_10 
ROOT
HETATM    1  C1  UNL     1     -32.097  18.389  -1.614  1.00 20.00     0.074 C 
HETATM    2  C7  UNL     1     -33.299  18.036  -2.396  1.00 20.00     0.157 C 
HETATM    3  N9  UNL     1     -31.157  18.668  -0.994  1.00 20.00    -0.196 NA
ENDROOT
BRANCH   2   4
HETATM    4  C8  UNL     1     -33.603  16.509  -2.313  1.00 20.00     0.012 C 
BRANCH   4   5
HETATM    5  C5  UNL     1     -33.312  15.766  -3.646  1.00 20.00     0.002 C 
HETATM    6  C2  UNL     1     -34.294  14.640  -3.945  1.00 20.00     0.005 C 
ENDBRANCH   4   5
BRANCH   4   7
HETATM    7  C6  UNL     1     -35.041  16.197  -1.827  1.00 20.00     0.002 C 
HETATM    8  C3  UNL     1     -35.549  17.123  -0.729  1.00 20.00     0.005 C 
ENDBRANCH   4   7
ENDBRANCH   2   4
BRANCH   2   9
HETATM    9  S10 UNL     1     -33.160  18.681  -4.104  1.00 20.00    -0.154 SA
HETATM   10  C4  UNL     1     -34.895  19.117  -4.345  1.00 20.00     0.091 C 
ENDBRANCH   2   9
TORSDOF 4
ENDMDL
MODEL 7
REMARK VINA RESULT:      -3.6      2.031      2.744
REMARK  4 active torsions:
REMARK  status: ('A' for Active; 'I' for Inactive)
REMARK    1  A    between atoms: C5_5  and  C8_8 
REMARK    2  A    between atoms: C6_6  and  C8_8 
REMARK    3  A    between atoms: C7_7  and  C8_8 
REMARK    4  A    between atoms: C7_7  and  S10_10 
ROOT
HETATM    1  C1  UNL     1     -36.099  14.109  -4.484  1.00 20.00     0.074 C 
HETATM    2  C7  UNL     1     -34.762  14.735  -4.519  1.00 20.00     0.157 C 
HETATM    3  N9  UNL     1     -37.147  13.613  -4.451  1.00 20.00    -0.196 NA
ENDROOT
BRANCH   2   4
HETATM    4  C8  UNL     1     -34.704  16.004  -3.615  1.00 20.00     0.012 C 
BRANCH   4   5
HETATM    5  C5  UNL     1     -33.250  16.459  -3.312  1.00 20.00     0.002 C 
HETATM    6  C2  UNL     1     -32.969  17.905  -3.701  1.00 20.00     0.005 C 
ENDBRANCH   4   5
BRANCH   4   7
HETATM    7  C6  UNL     1     -35.505  15.854  -2.297  1.00 20.00     0.002 C 
HETATM    8  C3  UNL     1     -35.023  16.750  -1.162  1.00 20.00     0.005 C 
ENDBRANCH   4   7
ENDBRANCH   2   4
BRANCH   2   9
HETATM    9  S10 UNL     1     -34.239  15.025  -6.250  1.00 20.00    -0.154 SA
HETATM   10  C4  UNL     1     -35.615  16.081  -6.750  1.00 20.00     0.091 C 
ENDBRANCH   2   9
TORSDOF 4
ENDMDL
MODEL 8
REMARK VINA RESULT:      -3.6      2.323      2.989
REMARK  4 active torsions:
REMARK  status: ('A' for Active; 'I' for Inactive)
REMARK    1  A    between atoms: C5_5  and  C8_8 
REMARK    2  A    between atoms: C6_6  and  C8_8 
REMARK    3  A    between atoms: C7_7  and  C8_8 
REMARK    4  A    between atoms: C7_7  and  S10_10 
ROOT
HETATM    1  C1  UNL     1     -33.520  15.035  -4.263  1.00 20.00     0.074 C 
HETATM    2  C7  UNL     1     -33.638  16.460  -3.894  1.00 20.00     0.157 C 
HETATM    3  N9  UNL     1     -33.419  13.917  -4.553  1.00 20.00    -0.196 NA
ENDROOT
BRANCH   2   4
HETATM    4  C8  UNL     1     -33.667  16.647  -2.347  1.00 20.00     0.012 C 
BRANCH   4   5
HETATM    5  C5  UNL     1     -35.027  16.240  -1.717  1.00 20.00     0.002 C 
HETATM    6  C2  UNL     1     -35.400  17.058  -0.487  1.00 20.00     0.005 C 
ENDBRANCH   4   5
BRANCH   4   7
HETATM    7  C6  UNL     1     -33.272  18.076  -1.895  1.00 20.00     0.002 C 
HETATM    8  C3  UNL     1     -31.907  18.169  -1.224  1.00 20.00     0.005 C 
ENDBRANCH   4   7
ENDBRANCH   2   4
BRANCH   2   9
HETATM    9  S10 UNL     1     -35.053  17.228  -4.768  1.00 20.00    -0.154 SA
HETATM   10  C4  UNL     1     -34.547  16.830  -6.454  1.00 20.00     0.091 C 
ENDBRANCH   2   9
TORSDOF 4
ENDMDL
MODEL 9
REMARK VINA RESULT:      -3.5      1.626      2.316
REMARK  4 active torsions:
REMARK  status: ('A' for Active; 'I' for Inactive)
REMARK    1  A    between atoms: C5_5  and  C8_8 
REMARK    2  A    between atoms: C6_6  and  C8_8 
REMARK    3  A    between atoms: C7_7  and  C8_8 
REMARK    4  A    between atoms: C7_7  and  S10_10 
ROOT
HETATM    1  C1  UNL     1     -36.035  13.968  -4.576  1.00 20.00     0.074 C 
HETATM    2  C7  UNL     1     -36.143  15.441  -4.551  1.00 20.00     0.157 C 
HETATM    3  N9  UNL     1     -35.943  12.812  -4.598  1.00 20.00    -0.196 NA
ENDROOT
BRANCH   2   4
HETATM    4  C8  UNL     1     -35.819  16.011  -3.136  1.00 20.00     0.012 C 
BRANCH   4   5
HETATM    5  C5  UNL     1     -36.062  17.542  -3.037  1.00 20.00     0.002 C 
HETATM    6  C2  UNL     1     -37.078  17.931  -1.970  1.00 20.00     0.005 C 
ENDBRANCH   4   5
BRANCH   4   7
HETATM    7  C6  UNL     1     -34.392  15.660  -2.645  1.00 20.00     0.002 C 
HETATM    8  C3  UNL     1     -33.320  16.659  -3.062  1.00 20.00     0.005 C 
ENDBRANCH   4   7
ENDBRANCH   2   4
BRANCH   2   9
HETATM    9  S10 UNL     1     -37.762  15.972  -5.220  1.00 20.00    -0.154 SA
HETATM   10  C4  UNL     1     -38.812  14.940  -4.175  1.00 20.00     0.091 C 
ENDBRANCH   2   9
TORSDOF 4
ENDMDL
