MODEL 1
REMARK VINA RESULT:      -3.9      0.000      0.000
REMARK  3 active torsions:
REMARK  status: ('A' for Active; 'I' for Inactive)
REMARK    1  A    between atoms: C4_4  and  C7_7 
REMARK    2  A    between atoms: C4_4  and  C9_9 
REMARK    3  A    between atoms: C8_8  and  C9_9 
ROOT
HETATM    1  C1  UNL     1     -34.796  13.778  -3.887  1.00 20.00     0.002 C 
HETATM    2  C2  UNL     1     -33.635  14.655  -4.395  1.00 20.00     0.011 C 
HETATM    3  C3  UNL     1     -35.668  15.048  -3.841  1.00 20.00     0.011 C 
HETATM    4  C4  UNL     1     -34.358  15.887  -3.779  1.00 20.00    -0.025 C 
ENDROOT
BRANCH   4   5
HETATM    5  C7  UNL     1     -34.366  17.118  -4.680  1.00 20.00     0.124 C 
HETATM    6 CL10 UNL     1     -35.836  18.069  -4.403  1.00 20.00    -0.130 Cl
ENDBRANCH   4   5
BRANCH   4   7
HETATM    7  C9  UNL     1     -33.905  16.236  -2.361  1.00 20.00    -0.010 C 
HETATM    8  C6  UNL     1     -35.122  16.586  -1.500  1.00 20.00     0.011 C 
BRANCH   7   9
HETATM    9  C8  UNL     1     -32.899  17.400  -2.334  1.00 20.00     0.000 C 
HETATM   10  C5  UNL     1     -32.816  18.101  -0.986  1.00 20.00     0.005 C 
ENDBRANCH   7   9
ENDBRANCH   4   7
TORSDOF 3
ENDMDL
MODEL 2
REMARK VINA RESULT:      -3.9      1.218      1.357
REMARK  3 active torsions:
REMARK  status: ('A' for Active; 'I' for Inactive)
REMARK    1  A    between atoms: C4_4  and  C7_7 
REMARK    2  A    between atoms: C4_4  and  C9_9 
REMARK    3  A    between atoms: C8_8  and  C9_9 
ROOT
HETATM    1  C1  UNL     1     -35.981  13.593  -4.565  1.00 20.00     0.002 C 
HETATM    2  C2  UNL     1     -35.053  14.678  -5.148  1.00 20.00     0.011 C 
HETATM    3  C3  UNL     1     -36.782  14.718  -3.882  1.00 20.00     0.011 C 
HETATM    4  C4  UNL     1     -35.524  15.626  -4.007  1.00 20.00    -0.025 C 
ENDROOT
BRANCH   4   5
HETATM    5  C7  UNL     1     -35.829  17.048  -4.468  1.00 20.00     0.124 C 
HETATM    6 CL10 UNL     1     -34.693  17.536  -5.739  1.00 20.00    -0.130 Cl
ENDBRANCH   4   5
BRANCH   4   7
HETATM    7  C9  UNL     1     -34.622  15.620  -2.773  1.00 20.00    -0.010 C 
HETATM    8  C6  UNL     1     -35.255  16.465  -1.664  1.00 20.00     0.011 C 
BRANCH   7   9
HETATM    9  C8  UNL     1     -33.206  16.141  -3.077  1.00 20.00     0.000 C 
HETATM   10  C5  UNL     1     -32.828  17.377  -2.272  1.00 20.00     0.005 C 
ENDBRANCH   7   9
ENDBRANCH   4   7
TORSDOF 3
ENDMDL
MODEL 3
REMARK VINA RESULT:      -3.8     11.452     13.308
REMARK  3 active torsions:
REMARK  status: ('A' for Active; 'I' for Inactive)
REMARK    1  A    between atoms: C4_4  and  C7_7 
REMARK    2  A    between atoms: C4_4  and  C9_9 
REMARK    3  A    between atoms: C8_8  and  C9_9 
ROOT
HETATM    1  C1  UNL     1     -41.201   9.059   0.112  1.00 20.00     0.002 C 
HETATM    2  C2  UNL     1     -41.107   7.713   0.857  1.00 20.00     0.011 C 
HETATM    3  C3  UNL     1     -42.701   8.779  -0.102  1.00 20.00     0.011 C 
HETATM    4  C4  UNL     1     -42.401   7.267   0.115  1.00 20.00    -0.025 C 
ENDROOT
BRANCH   4   5
HETATM    5  C7  UNL     1     -43.414   6.555   1.006  1.00 20.00     0.124 C 
HETATM    6 CL10 UNL     1     -42.736   5.030   1.605  1.00 20.00    -0.130 Cl
ENDBRANCH   4   5
BRANCH   4   7
HETATM    7  C9  UNL     1     -42.146   6.488  -1.176  1.00 20.00    -0.010 C 
HETATM    8  C6  UNL     1     -43.417   5.738  -1.587  1.00 20.00     0.011 C 
BRANCH   7   9
HETATM    9  C8  UNL     1     -40.979   5.494  -1.042  1.00 20.00     0.000 C 
HETATM   10  C5  UNL     1     -41.197   4.195  -1.805  1.00 20.00     0.005 C 
ENDBRANCH   7   9
ENDBRANCH   4   7
TORSDOF 3
ENDMDL
MODEL 4
REMARK VINA RESULT:      -3.8     14.542     16.943
REMARK  3 active torsions:
REMARK  status: ('A' for Active; 'I' for Inactive)
REMARK    1  A    between atoms: C4_4  and  C7_7 
REMARK    2  A    between atoms: C4_4  and  C9_9 
REMARK    3  A    between atoms: C8_8  and  C9_9 
ROOT
HETATM    1  C1  UNL     1     -21.293  18.148   9.319  1.00 20.00     0.002 C 
HETATM    2  C2  UNL     1     -22.344  17.293   8.585  1.00 20.00     0.011 C 
HETATM    3  C3  UNL     1     -22.188  18.084  10.571  1.00 20.00     0.011 C 
HETATM    4  C4  UNL     1     -23.391  17.764   9.636  1.00 20.00    -0.025 C 
ENDROOT
BRANCH   4   5
HETATM    5  C7  UNL     1     -24.299  16.651  10.151  1.00 20.00     0.124 C 
HETATM    6 CL10 UNL     1     -23.925  16.294  11.846  1.00 20.00    -0.130 Cl
ENDBRANCH   4   5
BRANCH   4   7
HETATM    7  C9  UNL     1     -24.198  18.992   9.211  1.00 20.00    -0.010 C 
HETATM    8  C6  UNL     1     -25.483  19.079  10.039  1.00 20.00     0.011 C 
BRANCH   7   9
HETATM    9  C8  UNL     1     -24.547  18.976   7.713  1.00 20.00     0.000 C 
HETATM   10  C5  UNL     1     -26.044  19.018   7.437  1.00 20.00     0.005 C 
ENDBRANCH   7   9
ENDBRANCH   4   7
TORSDOF 3
ENDMDL
MODEL 5
REMARK VINA RESULT:      -3.7      0.977      3.600
REMARK  3 active torsions:
REMARK  status: ('A' for Active; 'I' for Inactive)
REMARK    1  A    between atoms: C4_4  and  C7_7 
REMARK    2  A    between atoms: C4_4  and  C9_9 
REMARK    3  A    between atoms: C8_8  and  C9_9 
ROOT
HETATM    1  C1  UNL     1     -35.088  16.913  -1.096  1.00 20.00     0.002 C 
HETATM    2  C2  UNL     1     -35.853  17.067  -2.425  1.00 20.00     0.011 C 
HETATM    3  C3  UNL     1     -33.778  16.919  -1.907  1.00 20.00     0.011 C 
HETATM    4  C4  UNL     1     -34.605  16.492  -3.156  1.00 20.00    -0.025 C 
ENDROOT
BRANCH   4   5
HETATM    5  C7  UNL     1     -34.232  17.239  -4.432  1.00 20.00     0.124 C 
HETATM    6 CL10 UNL     1     -35.691  17.614  -5.368  1.00 20.00    -0.130 Cl
ENDBRANCH   4   5
BRANCH   4   7
HETATM    7  C9  UNL     1     -34.654  14.981  -3.386  1.00 20.00    -0.010 C 
HETATM    8  C6  UNL     1     -33.577  14.576  -4.396  1.00 20.00     0.011 C 
BRANCH   7   9
HETATM    9  C8  UNL     1     -36.032  14.506  -3.880  1.00 20.00     0.000 C 
HETATM   10  C5  UNL     1     -36.022  14.002  -5.316  1.00 20.00     0.005 C 
ENDBRANCH   7   9
ENDBRANCH   4   7
TORSDOF 3
ENDMDL
MODEL 6
REMARK VINA RESULT:      -3.7      2.034      2.670
REMARK  3 active torsions:
REMARK  status: ('A' for Active; 'I' for Inactive)
REMARK    1  A    between atoms: C4_4  and  C7_7 
REMARK    2  A    between atoms: C4_4  and  C9_9 
REMARK    3  A    between atoms: C8_8  and  C9_9 
ROOT
HETATM    1  C1  UNL     1     -37.016  14.194  -4.511  1.00 20.00     0.002 C 
HETATM    2  C2  UNL     1     -35.594  13.841  -4.033  1.00 20.00     0.011 C 
HETATM    3  C3  UNL     1     -36.377  15.096  -5.584  1.00 20.00     0.011 C 
HETATM    4  C4  UNL     1     -35.094  15.153  -4.704  1.00 20.00    -0.025 C 
ENDROOT
BRANCH   4   5
HETATM    5  C7  UNL     1     -33.796  14.993  -5.489  1.00 20.00     0.124 C 
HETATM    6 CL10 UNL     1     -32.526  14.332  -4.443  1.00 20.00    -0.130 Cl
ENDBRANCH   4   5
BRANCH   4   7
HETATM    7  C9  UNL     1     -35.033  16.356  -3.763  1.00 20.00    -0.010 C 
HETATM    8  C6  UNL     1     -34.182  17.463  -4.392  1.00 20.00     0.011 C 
BRANCH   7   9
HETATM    9  C8  UNL     1     -34.468  15.991  -2.379  1.00 20.00     0.000 C 
HETATM   10  C5  UNL     1     -35.168  16.704  -1.230  1.00 20.00     0.005 C 
ENDBRANCH   7   9
ENDBRANCH   4   7
TORSDOF 3
ENDMDL
MODEL 7
REMARK VINA RESULT:      -3.7      1.190      3.776
REMARK  3 active torsions:
REMARK  status: ('A' for Active; 'I' for Inactive)
REMARK    1  A    between atoms: C4_4  and  C7_7 
REMARK    2  A    between atoms: C4_4  and  C9_9 
REMARK    3  A    between atoms: C8_8  and  C9_9 
ROOT
HETATM    1  C1  UNL     1     -33.162  18.318  -0.212  1.00 20.00     0.002 C 
HETATM    2  C2  UNL     1     -34.233  18.571  -1.292  1.00 20.00     0.011 C 
HETATM    3  C3  UNL     1     -32.144  18.091  -1.347  1.00 20.00     0.011 C 
HETATM    4  C4  UNL     1     -33.341  17.782  -2.294  1.00 20.00    -0.025 C 
ENDROOT
BRANCH   4   5
HETATM    5  C7  UNL     1     -33.228  18.433  -3.669  1.00 20.00     0.124 C 
HETATM    6 CL10 UNL     1     -34.840  18.821  -4.296  1.00 20.00    -0.130 Cl
ENDBRANCH   4   5
BRANCH   4   7
HETATM    7  C9  UNL     1     -33.684  16.297  -2.405  1.00 20.00    -0.010 C 
HETATM    8  C6  UNL     1     -33.107  15.727  -3.704  1.00 20.00     0.011 C 
BRANCH   7   9
HETATM    9  C8  UNL     1     -35.200  16.039  -2.354  1.00 20.00     0.000 C 
HETATM   10  C5  UNL     1     -35.705  15.161  -3.491  1.00 20.00     0.005 C 
ENDBRANCH   7   9
ENDBRANCH   4   7
TORSDOF 3
ENDMDL
MODEL 8
REMARK VINA RESULT:      -3.7      2.000      3.727
REMARK  3 active torsions:
REMARK  status: ('A' for Active; 'I' for Inactive)
REMARK    1  A    between atoms: C4_4  and  C7_7 
REMARK    2  A    between atoms: C4_4  and  C9_9 
REMARK    3  A    between atoms: C8_8  and  C9_9 
ROOT
HETATM    1  C1  UNL     1     -33.977  16.963  -1.893  1.00 20.00     0.002 C 
HETATM    2  C2  UNL     1     -33.084  16.387  -3.008  1.00 20.00     0.011 C 
HETATM    3  C3  UNL     1     -35.044  15.920  -2.279  1.00 20.00     0.011 C 
HETATM    4  C4  UNL     1     -34.368  15.815  -3.677  1.00 20.00    -0.025 C 
ENDROOT
BRANCH   4   5
HETATM    5  C7  UNL     1     -34.218  14.386  -4.188  1.00 20.00     0.124 C 
HETATM    6 CL10 UNL     1     -35.800  13.588  -4.245  1.00 20.00    -0.130 Cl
ENDBRANCH   4   5
BRANCH   4   7
HETATM    7  C9  UNL     1     -34.981  16.728  -4.739  1.00 20.00    -0.010 C 
HETATM    8  C6  UNL     1     -36.505  16.743  -4.591  1.00 20.00     0.011 C 
BRANCH   7   9
HETATM    9  C8  UNL     1     -34.604  16.301  -6.169  1.00 20.00     0.000 C 
HETATM   10  C5  UNL     1     -35.808  16.063  -7.069  1.00 20.00     0.005 C 
ENDBRANCH   7   9
ENDBRANCH   4   7
TORSDOF 3
ENDMDL
MODEL 9
REMARK VINA RESULT:      -3.6      2.114      3.860
REMARK  3 active torsions:
REMARK  status: ('A' for Active; 'I' for Inactive)
REMARK    1  A    between atoms: C4_4  and  C7_7 
REMARK    2  A    between atoms: C4_4  and  C9_9 
REMARK    3  A    between atoms: C8_8  and  C9_9 
ROOT
HETATM    1  C1  UNL     1     -33.369  16.280  -2.908  1.00 20.00     0.002 C 
HETATM    2  C2  UNL     1     -33.205  15.118  -3.907  1.00 20.00     0.011 C 
HETATM    3  C3  UNL     1     -34.882  15.989  -2.896  1.00 20.00     0.011 C 
HETATM    4  C4  UNL     1     -34.709  15.281  -4.272  1.00 20.00    -0.025 C 
ENDROOT
BRANCH   4   5
HETATM    5  C7  UNL     1     -35.466  13.962  -4.391  1.00 20.00     0.124 C 
HETATM    6 CL10 UNL     1     -37.207  14.238  -4.198  1.00 20.00    -0.130 Cl
ENDBRANCH   4   5
BRANCH   4   7
HETATM    7  C9  UNL     1     -34.968  16.186  -5.477  1.00 20.00    -0.010 C 
HETATM    8  C6  UNL     1     -36.196  17.061  -5.214  1.00 20.00     0.011 C 
BRANCH   7   9
HETATM    9  C8  UNL     1     -35.169  15.388  -6.778  1.00 20.00     0.000 C 
HETATM   10  C5  UNL     1     -33.903  15.258  -7.613  1.00 20.00     0.005 C 
ENDBRANCH   7   9
ENDBRANCH   4   7
TORSDOF 3
ENDMDL
