MODEL 1
REMARK VINA RESULT:      -4.6      0.000      0.000
REMARK  4 active torsions:
REMARK  status: ('A' for Active; 'I' for Inactive)
REMARK    1  A    between atoms: C2_2  and  C6_6 
REMARK    2  A    between atoms: C2_2  and  C7_7 
REMARK    3  A    between atoms: C7_7  and  C8_8 
REMARK    4  A    between atoms: C8_8  and  C9_9 
ROOT
HETATM    1  C7  UNL     1     -33.695   6.372   2.405  1.00 20.00     0.039 C 
ENDROOT
BRANCH   1   2
HETATM    2  C2  UNL     1     -32.511   7.294   2.184  1.00 20.00    -0.089 C 
HETATM    3  C1  UNL     1     -31.643   7.547   3.177  1.00 20.00     0.014 C 
BRANCH   2   4
HETATM    4  C6  UNL     1     -32.327   7.917   0.818  1.00 20.00     0.029 C 
HETATM    5  C3  UNL     1     -33.018   9.266   0.677  1.00 20.00     0.010 C 
ENDBRANCH   2   4
ENDBRANCH   1   2
BRANCH   1   6
HETATM    6  C8  UNL     1     -33.617   5.506   3.686  1.00 20.00     0.003 C 
HETATM    7  C4  UNL     1     -33.939   4.034   3.384  1.00 20.00     0.011 C 
BRANCH   6   8
HETATM    8  C9  UNL     1     -34.500   6.034   4.849  1.00 20.00     0.082 C 
HETATM    9  C5  UNL     1     -35.088   4.921   5.712  1.00 20.00     0.027 C 
HETATM   10 CL10 UNL     1     -33.631   7.190   5.906  1.00 20.00    -0.125 Cl
ENDBRANCH   6   8
ENDBRANCH   1   6
TORSDOF 4
ENDMDL
MODEL 2
REMARK VINA RESULT:      -4.2      1.109      1.650
REMARK  4 active torsions:
REMARK  status: ('A' for Active; 'I' for Inactive)
REMARK    1  A    between atoms: C2_2  and  C6_6 
REMARK    2  A    between atoms: C2_2  and  C7_7 
REMARK    3  A    between atoms: C7_7  and  C8_8 
REMARK    4  A    between atoms: C8_8  and  C9_9 
ROOT
HETATM    1  C7  UNL     1     -33.118   6.100   2.849  1.00 20.00     0.039 C 
ENDROOT
BRANCH   1   2
HETATM    2  C2  UNL     1     -32.360   7.297   2.309  1.00 20.00    -0.089 C 
HETATM    3  C1  UNL     1     -31.431   7.916   3.056  1.00 20.00     0.014 C 
BRANCH   2   4
HETATM    4  C6  UNL     1     -32.670   7.777   0.909  1.00 20.00     0.029 C 
HETATM    5  C3  UNL     1     -32.966   9.269   0.838  1.00 20.00     0.010 C 
ENDBRANCH   2   4
ENDBRANCH   1   2
BRANCH   1   6
HETATM    6  C8  UNL     1     -34.125   6.421   3.981  1.00 20.00     0.003 C 
HETATM    7  C4  UNL     1     -33.445   7.175   5.134  1.00 20.00     0.011 C 
BRANCH   6   8
HETATM    8  C9  UNL     1     -34.883   5.174   4.511  1.00 20.00     0.082 C 
HETATM    9  C5  UNL     1     -34.300   3.856   4.010  1.00 20.00     0.027 C 
HETATM   10 CL10 UNL     1     -34.969   5.127   6.300  1.00 20.00    -0.125 Cl
ENDBRANCH   6   8
ENDBRANCH   1   6
TORSDOF 4
ENDMDL
MODEL 3
REMARK VINA RESULT:      -4.1      2.125      4.739
REMARK  4 active torsions:
REMARK  status: ('A' for Active; 'I' for Inactive)
REMARK    1  A    between atoms: C2_2  and  C6_6 
REMARK    2  A    between atoms: C2_2  and  C7_7 
REMARK    3  A    between atoms: C7_7  and  C8_8 
REMARK    4  A    between atoms: C8_8  and  C9_9 
ROOT
HETATM    1  C7  UNL     1     -33.852   6.714   3.255  1.00 20.00     0.039 C 
ENDROOT
BRANCH   1   2
HETATM    2  C2  UNL     1     -34.052   5.228   3.483  1.00 20.00    -0.089 C 
HETATM    3  C1  UNL     1     -33.497   4.325   2.656  1.00 20.00     0.014 C 
BRANCH   2   4
HETATM    4  C6  UNL     1     -34.886   4.784   4.664  1.00 20.00     0.029 C 
HETATM    5  C3  UNL     1     -34.655   5.628   5.910  1.00 20.00     0.010 C 
ENDBRANCH   2   4
ENDBRANCH   1   2
BRANCH   1   6
HETATM    6  C8  UNL     1     -32.560   7.087   2.487  1.00 20.00     0.003 C 
HETATM    7  C4  UNL     1     -31.563   7.821   3.396  1.00 20.00     0.011 C 
BRANCH   6   8
HETATM    8  C9  UNL     1     -32.822   7.901   1.190  1.00 20.00     0.082 C 
HETATM    9  C5  UNL     1     -33.048   9.388   1.448  1.00 20.00     0.027 C 
HETATM   10 CL10 UNL     1     -31.512   7.714  -0.018  1.00 20.00    -0.125 Cl
ENDBRANCH   6   8
ENDBRANCH   1   6
TORSDOF 4
ENDMDL
MODEL 4
REMARK VINA RESULT:      -4.1     11.340     12.357
REMARK  4 active torsions:
REMARK  status: ('A' for Active; 'I' for Inactive)
REMARK    1  A    between atoms: C2_2  and  C6_6 
REMARK    2  A    between atoms: C2_2  and  C7_7 
REMARK    3  A    between atoms: C7_7  and  C8_8 
REMARK    4  A    between atoms: C8_8  and  C9_9 
ROOT
HETATM    1  C7  UNL     1     -34.312  14.866  -3.692  1.00 20.00     0.039 C 
ENDROOT
BRANCH   1   2
HETATM    2  C2  UNL     1     -34.151  16.004  -2.703  1.00 20.00    -0.089 C 
HETATM    3  C1  UNL     1     -35.082  16.235  -1.763  1.00 20.00     0.014 C 
BRANCH   2   4
HETATM    4  C6  UNL     1     -32.914  16.870  -2.794  1.00 20.00     0.029 C 
HETATM    5  C3  UNL     1     -32.742  17.796  -1.598  1.00 20.00     0.010 C 
ENDBRANCH   2   4
ENDBRANCH   1   2
BRANCH   1   6
HETATM    6  C8  UNL     1     -35.599  14.929  -4.553  1.00 20.00     0.003 C 
HETATM    7  C4  UNL     1     -36.299  13.562  -4.609  1.00 20.00     0.011 C 
BRANCH   6   8
HETATM    8  C9  UNL     1     -35.363  15.484  -5.983  1.00 20.00     0.082 C 
HETATM    9  C5  UNL     1     -35.427  17.007  -6.056  1.00 20.00     0.027 C 
HETATM   10 CL10 UNL     1     -33.812  14.934  -6.692  1.00 20.00    -0.125 Cl
ENDBRANCH   6   8
ENDBRANCH   1   6
TORSDOF 4
ENDMDL
MODEL 5
REMARK VINA RESULT:      -4.1     11.347     12.353
REMARK  4 active torsions:
REMARK  status: ('A' for Active; 'I' for Inactive)
REMARK    1  A    between atoms: C2_2  and  C6_6 
REMARK    2  A    between atoms: C2_2  and  C7_7 
REMARK    3  A    between atoms: C7_7  and  C8_8 
REMARK    4  A    between atoms: C8_8  and  C9_9 
ROOT
HETATM    1  C7  UNL     1     -34.144  14.942  -3.758  1.00 20.00     0.039 C 
ENDROOT
BRANCH   1   2
HETATM    2  C2  UNL     1     -34.016  16.046  -2.727  1.00 20.00    -0.089 C 
HETATM    3  C1  UNL     1     -32.934  16.842  -2.703  1.00 20.00     0.014 C 
BRANCH   2   4
HETATM    4  C6  UNL     1     -35.136  16.235  -1.728  1.00 20.00     0.029 C 
HETATM    5  C3  UNL     1     -34.845  17.319  -0.699  1.00 20.00     0.010 C 
ENDBRANCH   2   4
ENDBRANCH   1   2
BRANCH   1   6
HETATM    6  C8  UNL     1     -35.464  14.957  -4.569  1.00 20.00     0.003 C 
HETATM    7  C4  UNL     1     -36.135  13.574  -4.567  1.00 20.00     0.011 C 
BRANCH   6   8
HETATM    8  C9  UNL     1     -35.297  15.485  -6.019  1.00 20.00     0.082 C 
HETATM    9  C5  UNL     1     -35.372  17.005  -6.119  1.00 20.00     0.027 C 
HETATM   10 CL10 UNL     1     -33.776  14.928  -6.786  1.00 20.00    -0.125 Cl
ENDBRANCH   6   8
ENDBRANCH   1   6
TORSDOF 4
ENDMDL
MODEL 6
REMARK VINA RESULT:      -4.0     10.978     12.358
REMARK  4 active torsions:
REMARK  status: ('A' for Active; 'I' for Inactive)
REMARK    1  A    between atoms: C2_2  and  C6_6 
REMARK    2  A    between atoms: C2_2  and  C7_7 
REMARK    3  A    between atoms: C7_7  and  C8_8 
REMARK    4  A    between atoms: C8_8  and  C9_9 
ROOT
HETATM    1  C7  UNL     1     -32.831  16.838  -2.540  1.00 20.00     0.039 C 
ENDROOT
BRANCH   1   2
HETATM    2  C2  UNL     1     -34.019  15.934  -2.811  1.00 20.00    -0.089 C 
HETATM    3  C1  UNL     1     -35.145  16.044  -2.086  1.00 20.00     0.014 C 
BRANCH   2   4
HETATM    4  C6  UNL     1     -33.909  14.911  -3.919  1.00 20.00     0.029 C 
HETATM    5  C3  UNL     1     -35.157  14.050  -4.064  1.00 20.00     0.010 C 
ENDBRANCH   2   4
ENDBRANCH   1   2
BRANCH   1   6
HETATM    6  C8  UNL     1     -33.192  18.308  -2.211  1.00 20.00     0.003 C 
HETATM    7  C4  UNL     1     -32.697  19.262  -3.308  1.00 20.00     0.011 C 
BRANCH   6   8
HETATM    8  C9  UNL     1     -32.696  18.771  -0.815  1.00 20.00     0.082 C 
HETATM    9  C5  UNL     1     -33.624  18.356   0.323  1.00 20.00     0.027 C 
HETATM   10 CL10 UNL     1     -31.037  18.201  -0.447  1.00 20.00    -0.125 Cl
ENDBRANCH   6   8
ENDBRANCH   1   6
TORSDOF 4
ENDMDL
MODEL 7
REMARK VINA RESULT:      -4.0     11.090     11.959
REMARK  4 active torsions:
REMARK  status: ('A' for Active; 'I' for Inactive)
REMARK    1  A    between atoms: C2_2  and  C6_6 
REMARK    2  A    between atoms: C2_2  and  C7_7 
REMARK    3  A    between atoms: C7_7  and  C8_8 
REMARK    4  A    between atoms: C8_8  and  C9_9 
ROOT
HETATM    1  C7  UNL     1     -33.597  16.575  -3.527  1.00 20.00     0.039 C 
ENDROOT
BRANCH   1   2
HETATM    2  C2  UNL     1     -33.854  16.975  -2.087  1.00 20.00    -0.089 C 
HETATM    3  C1  UNL     1     -32.986  17.758  -1.426  1.00 20.00     0.014 C 
BRANCH   2   4
HETATM    4  C6  UNL     1     -35.113  16.476  -1.413  1.00 20.00     0.029 C 
HETATM    5  C3  UNL     1     -35.396  17.167  -0.086  1.00 20.00     0.010 C 
ENDBRANCH   2   4
ENDBRANCH   1   2
BRANCH   1   6
HETATM    6  C8  UNL     1     -33.978  15.115  -3.876  1.00 20.00     0.003 C 
HETATM    7  C4  UNL     1     -32.766  14.335  -4.410  1.00 20.00     0.011 C 
BRANCH   6   8
HETATM    8  C9  UNL     1     -35.178  15.003  -4.855  1.00 20.00     0.082 C 
HETATM    9  C5  UNL     1     -34.758  14.976  -6.322  1.00 20.00     0.027 C 
HETATM   10 CL10 UNL     1     -36.211  13.577  -4.521  1.00 20.00    -0.125 Cl
ENDBRANCH   6   8
ENDBRANCH   1   6
TORSDOF 4
ENDMDL
MODEL 8
REMARK VINA RESULT:      -3.9     11.320     11.869
REMARK  4 active torsions:
REMARK  status: ('A' for Active; 'I' for Inactive)
REMARK    1  A    between atoms: C2_2  and  C6_6 
REMARK    2  A    between atoms: C2_2  and  C7_7 
REMARK    3  A    between atoms: C7_7  and  C8_8 
REMARK    4  A    between atoms: C8_8  and  C9_9 
ROOT
HETATM    1  C7  UNL     1     -34.898  16.188  -3.572  1.00 20.00     0.039 C 
ENDROOT
BRANCH   1   2
HETATM    2  C2  UNL     1     -34.372  16.680  -2.238  1.00 20.00    -0.089 C 
HETATM    3  C1  UNL     1     -35.145  16.648  -1.140  1.00 20.00     0.014 C 
BRANCH   2   4
HETATM    4  C6  UNL     1     -32.955  17.204  -2.169  1.00 20.00     0.029 C 
HETATM    5  C3  UNL     1     -32.770  18.297  -1.125  1.00 20.00     0.010 C 
ENDBRANCH   2   4
ENDBRANCH   1   2
BRANCH   1   6
HETATM    6  C8  UNL     1     -34.721  14.670  -3.823  1.00 20.00     0.003 C 
HETATM    7  C4  UNL     1     -33.335  14.359  -4.410  1.00 20.00     0.011 C 
BRANCH   6   8
HETATM    8  C9  UNL     1     -35.841  14.050  -4.701  1.00 20.00     0.082 C 
HETATM    9  C5  UNL     1     -37.246  14.424  -4.238  1.00 20.00     0.027 C 
HETATM   10 CL10 UNL     1     -35.672  14.471  -6.435  1.00 20.00    -0.125 Cl
ENDBRANCH   6   8
ENDBRANCH   1   6
TORSDOF 4
ENDMDL
MODEL 9
REMARK VINA RESULT:      -3.9     11.345     12.464
REMARK  4 active torsions:
REMARK  status: ('A' for Active; 'I' for Inactive)
REMARK    1  A    between atoms: C2_2  and  C6_6 
REMARK    2  A    between atoms: C2_2  and  C7_7 
REMARK    3  A    between atoms: C7_7  and  C8_8 
REMARK    4  A    between atoms: C8_8  and  C9_9 
ROOT
HETATM    1  C7  UNL     1     -33.133  16.537  -3.134  1.00 20.00     0.039 C 
ENDROOT
BRANCH   1   2
HETATM    2  C2  UNL     1     -33.938  16.936  -1.912  1.00 20.00    -0.089 C 
HETATM    3  C1  UNL     1     -35.108  16.337  -1.634  1.00 20.00     0.014 C 
BRANCH   2   4
HETATM    4  C6  UNL     1     -33.392  18.019  -1.009  1.00 20.00     0.029 C 
HETATM    5  C3  UNL     1     -31.890  18.224  -1.160  1.00 20.00     0.010 C 
ENDBRANCH   2   4
ENDBRANCH   1   2
BRANCH   1   6
HETATM    6  C8  UNL     1     -33.810  15.483  -4.044  1.00 20.00     0.003 C 
HETATM    7  C4  UNL     1     -32.841  14.342  -4.392  1.00 20.00     0.011 C 
BRANCH   6   8
HETATM    8  C9  UNL     1     -34.436  16.083  -5.332  1.00 20.00     0.082 C 
HETATM    9  C5  UNL     1     -34.192  15.231  -6.574  1.00 20.00     0.027 C 
HETATM   10 CL10 UNL     1     -36.195  16.382  -5.170  1.00 20.00    -0.125 Cl
ENDBRANCH   6   8
ENDBRANCH   1   6
TORSDOF 4
ENDMDL
