MODEL 1
REMARK VINA RESULT:      -3.9      0.000      0.000
REMARK  6 active torsions:
REMARK  status: ('A' for Active; 'I' for Inactive)
REMARK    1  A    between atoms: C4_4  and  C7_7 
REMARK    2  A    between atoms: C5_5  and  C9_9 
REMARK    3  A    between atoms: C6_6  and  C9_9 
REMARK    4  A    between atoms: C7_7  and  C10_10 
REMARK    5  A    between atoms: C8_8  and  C10_10 
REMARK    6  A    between atoms: C9_9  and  C10_10 
ROOT
HETATM    1  C10 UNL     1     -34.023  14.947  -4.146  1.00 20.00     0.003 C 
ENDROOT
BRANCH   1   2
HETATM    2  C7  UNL     1     -35.117  13.878  -3.863  1.00 20.00     0.005 C 
BRANCH   2   3
HETATM    3  C4  UNL     1     -36.263  13.845  -4.880  1.00 20.00    -0.004 C 
HETATM    4  C1  UNL     1     -37.541  14.429  -4.293  1.00 20.00     0.005 C 
ENDBRANCH   2   3
ENDBRANCH   1   2
BRANCH   1   5
HETATM    5  C8  UNL     1     -34.311  15.754  -5.431  1.00 20.00     0.119 C 
HETATM    6 CL11 UNL     1     -33.659  14.990  -6.901  1.00 20.00    -0.130 Cl
ENDBRANCH   1   5
BRANCH   1   7
HETATM    7  C9  UNL     1     -33.773  15.869  -2.891  1.00 20.00    -0.010 C 
BRANCH   7   8
HETATM    8  C5  UNL     1     -33.144  17.240  -3.253  1.00 20.00     0.000 C 
HETATM    9  C2  UNL     1     -32.456  17.955  -2.098  1.00 20.00     0.005 C 
ENDBRANCH   7   8
BRANCH   7  10
HETATM   10  C6  UNL     1     -35.060  16.031  -2.036  1.00 20.00     0.000 C 
HETATM   11  C3  UNL     1     -35.938  17.217  -2.419  1.00 20.00     0.005 C 
ENDBRANCH   7  10
ENDBRANCH   1   7
TORSDOF 6
ENDMDL
MODEL 2
REMARK VINA RESULT:      -3.8      2.426      4.952
REMARK  6 active torsions:
REMARK  status: ('A' for Active; 'I' for Inactive)
REMARK    1  A    between atoms: C4_4  and  C7_7 
REMARK    2  A    between atoms: C5_5  and  C9_9 
REMARK    3  A    between atoms: C6_6  and  C9_9 
REMARK    4  A    between atoms: C7_7  and  C10_10 
REMARK    5  A    between atoms: C8_8  and  C10_10 
REMARK    6  A    between atoms: C9_9  and  C10_10 
ROOT
HETATM    1  C10 UNL     1     -34.184  16.090  -2.293  1.00 20.00     0.003 C 
ENDROOT
BRANCH   1   2
HETATM    2  C7  UNL     1     -32.998  16.924  -2.856  1.00 20.00     0.005 C 
BRANCH   2   3
HETATM    3  C4  UNL     1     -32.811  18.299  -2.203  1.00 20.00    -0.004 C 
HETATM    4  C1  UNL     1     -31.829  18.230  -1.041  1.00 20.00     0.005 C 
ENDBRANCH   2   3
ENDBRANCH   1   2
BRANCH   1   5
HETATM    5  C8  UNL     1     -35.321  16.983  -1.746  1.00 20.00     0.119 C 
HETATM    6 CL11 UNL     1     -35.425  16.980   0.031  1.00 20.00    -0.130 Cl
ENDBRANCH   1   5
BRANCH   1   7
HETATM    7  C9  UNL     1     -34.694  15.025  -3.338  1.00 20.00    -0.010 C 
BRANCH   7   8
HETATM    8  C5  UNL     1     -35.984  15.463  -4.079  1.00 20.00     0.000 C 
HETATM    9  C2  UNL     1     -37.049  14.382  -4.206  1.00 20.00     0.005 C 
ENDBRANCH   7   8
BRANCH   7  10
HETATM   10  C6  UNL     1     -33.570  14.614  -4.328  1.00 20.00     0.000 C 
HETATM   11  C3  UNL     1     -33.866  14.913  -5.793  1.00 20.00     0.005 C 
ENDBRANCH   7  10
ENDBRANCH   1   7
TORSDOF 6
ENDMDL
MODEL 3
REMARK VINA RESULT:      -3.8      1.160      2.054
REMARK  6 active torsions:
REMARK  status: ('A' for Active; 'I' for Inactive)
REMARK    1  A    between atoms: C4_4  and  C7_7 
REMARK    2  A    between atoms: C5_5  and  C9_9 
REMARK    3  A    between atoms: C6_6  and  C9_9 
REMARK    4  A    between atoms: C7_7  and  C10_10 
REMARK    5  A    between atoms: C8_8  and  C10_10 
REMARK    6  A    between atoms: C9_9  and  C10_10 
ROOT
HETATM    1  C10 UNL     1     -34.079  15.319  -4.160  1.00 20.00     0.003 C 
ENDROOT
BRANCH   1   2
HETATM    2  C7  UNL     1     -34.944  14.073  -3.818  1.00 20.00     0.005 C 
BRANCH   2   3
HETATM    3  C4  UNL     1     -36.101  13.806  -4.787  1.00 20.00    -0.004 C 
HETATM    4  C1  UNL     1     -37.395  14.437  -4.292  1.00 20.00     0.005 C 
ENDBRANCH   2   3
ENDBRANCH   1   2
BRANCH   1   5
HETATM    5  C8  UNL     1     -34.294  15.800  -5.613  1.00 20.00     0.119 C 
HETATM    6 CL11 UNL     1     -35.254  17.294  -5.725  1.00 20.00    -0.130 Cl
ENDBRANCH   1   5
BRANCH   1   7
HETATM    7  C9  UNL     1     -34.275  16.471  -3.102  1.00 20.00    -0.010 C 
BRANCH   7   8
HETATM    8  C5  UNL     1     -35.138  16.046  -1.885  1.00 20.00     0.000 C 
HETATM    9  C2  UNL     1     -35.165  17.045  -0.737  1.00 20.00     0.005 C 
ENDBRANCH   7   8
BRANCH   7  10
HETATM   10  C6  UNL     1     -32.916  17.079  -2.662  1.00 20.00     0.000 C 
HETATM   11  C3  UNL     1     -32.673  18.511  -3.127  1.00 20.00     0.005 C 
ENDBRANCH   7  10
ENDBRANCH   1   7
TORSDOF 6
ENDMDL
MODEL 4
REMARK VINA RESULT:      -3.7      2.196      5.028
REMARK  6 active torsions:
REMARK  status: ('A' for Active; 'I' for Inactive)
REMARK    1  A    between atoms: C4_4  and  C7_7 
REMARK    2  A    between atoms: C5_5  and  C9_9 
REMARK    3  A    between atoms: C6_6  and  C9_9 
REMARK    4  A    between atoms: C7_7  and  C10_10 
REMARK    5  A    between atoms: C8_8  and  C10_10 
REMARK    6  A    between atoms: C9_9  and  C10_10 
ROOT
HETATM    1  C10 UNL     1     -33.131  18.109  -2.184  1.00 20.00     0.003 C 
ENDROOT
BRANCH   1   2
HETATM    2  C7  UNL     1     -31.833  18.314  -1.352  1.00 20.00     0.005 C 
BRANCH   2   3
HETATM    3  C4  UNL     1     -32.056  18.490   0.155  1.00 20.00    -0.004 C 
HETATM    4  C1  UNL     1     -30.781  18.213   0.939  1.00 20.00     0.005 C 
ENDBRANCH   2   3
ENDBRANCH   1   2
BRANCH   1   5
HETATM    5  C8  UNL     1     -32.985  18.623  -3.634  1.00 20.00     0.119 C 
HETATM    6 CL11 UNL     1     -34.512  19.222  -4.325  1.00 20.00    -0.130 Cl
ENDBRANCH   1   5
BRANCH   1   7
HETATM    7  C9  UNL     1     -33.636  16.617  -2.114  1.00 20.00    -0.010 C 
BRANCH   7   8
HETATM    8  C5  UNL     1     -35.118  16.491  -1.674  1.00 20.00     0.000 C 
HETATM    9  C2  UNL     1     -35.436  17.092  -0.312  1.00 20.00     0.005 C 
ENDBRANCH   7   8
BRANCH   7  10
HETATM   10  C6  UNL     1     -33.361  15.859  -3.441  1.00 20.00     0.000 C 
HETATM   11  C3  UNL     1     -34.358  14.752  -3.766  1.00 20.00     0.005 C 
ENDBRANCH   7  10
ENDBRANCH   1   7
TORSDOF 6
ENDMDL
MODEL 5
REMARK VINA RESULT:      -3.7     16.483     17.758
REMARK  6 active torsions:
REMARK  status: ('A' for Active; 'I' for Inactive)
REMARK    1  A    between atoms: C4_4  and  C7_7 
REMARK    2  A    between atoms: C5_5  and  C9_9 
REMARK    3  A    between atoms: C6_6  and  C9_9 
REMARK    4  A    between atoms: C7_7  and  C10_10 
REMARK    5  A    between atoms: C8_8  and  C10_10 
REMARK    6  A    between atoms: C9_9  and  C10_10 
ROOT
HETATM    1  C10 UNL     1     -25.016  18.392  10.209  1.00 20.00     0.003 C 
ENDROOT
BRANCH   1   2
HETATM    2  C7  UNL     1     -25.639  19.166  11.405  1.00 20.00     0.005 C 
BRANCH   2   3
HETATM    3  C4  UNL     1     -27.169  19.259  11.385  1.00 20.00    -0.004 C 
HETATM    4  C1  UNL     1     -27.807  18.030  12.017  1.00 20.00     0.005 C 
ENDBRANCH   2   3
ENDBRANCH   1   2
BRANCH   1   5
HETATM    5  C8  UNL     1     -24.917  19.263   8.936  1.00 20.00     0.119 C 
HETATM    6 CL11 UNL     1     -26.244  18.977   7.784  1.00 20.00    -0.130 Cl
ENDBRANCH   1   5
BRANCH   1   7
HETATM    7  C9  UNL     1     -23.641  17.726  10.600  1.00 20.00    -0.010 C 
BRANCH   7   8
HETATM    8  C5  UNL     1     -23.718  16.879  11.897  1.00 20.00     0.000 C 
HETATM    9  C2  UNL     1     -24.629  15.661  11.815  1.00 20.00     0.005 C 
ENDBRANCH   7   8
BRANCH   7  10
HETATM   10  C6  UNL     1     -23.041  16.919   9.417  1.00 20.00     0.000 C 
HETATM   11  C3  UNL     1     -21.684  17.412   8.929  1.00 20.00     0.005 C 
ENDBRANCH   7  10
ENDBRANCH   1   7
TORSDOF 6
ENDMDL
MODEL 6
REMARK VINA RESULT:      -3.7      1.766      2.158
REMARK  6 active torsions:
REMARK  status: ('A' for Active; 'I' for Inactive)
REMARK    1  A    between atoms: C4_4  and  C7_7 
REMARK    2  A    between atoms: C5_5  and  C9_9 
REMARK    3  A    between atoms: C6_6  and  C9_9 
REMARK    4  A    between atoms: C7_7  and  C10_10 
REMARK    5  A    between atoms: C8_8  and  C10_10 
REMARK    6  A    between atoms: C9_9  and  C10_10 
ROOT
HETATM    1  C10 UNL     1     -33.873  16.245  -2.910  1.00 20.00     0.003 C 
ENDROOT
BRANCH   1   2
HETATM    2  C7  UNL     1     -35.061  15.246  -3.011  1.00 20.00     0.005 C 
BRANCH   2   3
HETATM    3  C4  UNL     1     -34.841  14.081  -3.983  1.00 20.00    -0.004 C 
HETATM    4  C1  UNL     1     -36.153  13.626  -4.607  1.00 20.00     0.005 C 
ENDBRANCH   2   3
ENDBRANCH   1   2
BRANCH   1   5
HETATM    5  C8  UNL     1     -33.821  17.217  -4.109  1.00 20.00     0.119 C 
HETATM    6 CL11 UNL     1     -35.427  17.608  -4.769  1.00 20.00    -0.130 Cl
ENDBRANCH   1   5
BRANCH   1   7
HETATM    7  C9  UNL     1     -33.856  16.989  -1.520  1.00 20.00    -0.010 C 
BRANCH   7   8
HETATM    8  C5  UNL     1     -33.112  18.349  -1.562  1.00 20.00     0.000 C 
HETATM    9  C2  UNL     1     -31.739  18.351  -0.904  1.00 20.00     0.005 C 
ENDBRANCH   7   8
BRANCH   7  10
HETATM   10  C6  UNL     1     -35.286  17.130  -0.931  1.00 20.00     0.000 C 
HETATM   11  C3  UNL     1     -35.341  17.284   0.585  1.00 20.00     0.005 C 
ENDBRANCH   7  10
ENDBRANCH   1   7
TORSDOF 6
ENDMDL
MODEL 7
REMARK VINA RESULT:      -3.7      1.834      2.905
REMARK  6 active torsions:
REMARK  status: ('A' for Active; 'I' for Inactive)
REMARK    1  A    between atoms: C4_4  and  C7_7 
REMARK    2  A    between atoms: C5_5  and  C9_9 
REMARK    3  A    between atoms: C6_6  and  C9_9 
REMARK    4  A    between atoms: C7_7  and  C10_10 
REMARK    5  A    between atoms: C8_8  and  C10_10 
REMARK    6  A    between atoms: C9_9  and  C10_10 
ROOT
HETATM    1  C10 UNL     1     -36.062  16.042  -4.036  1.00 20.00     0.003 C 
ENDROOT
BRANCH   1   2
HETATM    2  C7  UNL     1     -35.539  16.810  -5.283  1.00 20.00     0.005 C 
BRANCH   2   3
HETATM    3  C4  UNL     1     -35.917  16.184  -6.630  1.00 20.00    -0.004 C 
HETATM    4  C1  UNL     1     -34.701  15.587  -7.325  1.00 20.00     0.005 C 
ENDBRANCH   2   3
ENDBRANCH   1   2
BRANCH   1   5
HETATM    5  C8  UNL     1     -36.994  14.871  -4.418  1.00 20.00     0.119 C 
HETATM    6 CL11 UNL     1     -36.159  13.301  -4.487  1.00 20.00    -0.130 Cl
ENDBRANCH   1   5
BRANCH   1   7
HETATM    7  C9  UNL     1     -34.882  15.598  -3.089  1.00 20.00    -0.010 C 
BRANCH   7   8
HETATM    8  C5  UNL     1     -33.480  15.795  -3.723  1.00 20.00     0.000 C 
HETATM    9  C2  UNL     1     -32.855  14.534  -4.303  1.00 20.00     0.005 C 
ENDBRANCH   7   8
BRANCH   7  10
HETATM   10  C6  UNL     1     -34.986  16.273  -1.694  1.00 20.00     0.000 C 
HETATM   11  C3  UNL     1     -33.984  17.396  -1.449  1.00 20.00     0.005 C 
ENDBRANCH   7  10
ENDBRANCH   1   7
TORSDOF 6
ENDMDL
MODEL 8
REMARK VINA RESULT:      -3.6      2.555      3.939
REMARK  6 active torsions:
REMARK  status: ('A' for Active; 'I' for Inactive)
REMARK    1  A    between atoms: C4_4  and  C7_7 
REMARK    2  A    between atoms: C5_5  and  C9_9 
REMARK    3  A    between atoms: C6_6  and  C9_9 
REMARK    4  A    between atoms: C7_7  and  C10_10 
REMARK    5  A    between atoms: C8_8  and  C10_10 
REMARK    6  A    between atoms: C9_9  and  C10_10 
ROOT
HETATM    1  C10 UNL     1     -33.245  17.898  -3.434  1.00 20.00     0.003 C 
ENDROOT
BRANCH   1   2
HETATM    2  C7  UNL     1     -34.531  18.492  -4.074  1.00 20.00     0.005 C 
BRANCH   2   3
HETATM    3  C4  UNL     1     -34.730  18.148  -5.555  1.00 20.00    -0.004 C 
HETATM    4  C1  UNL     1     -35.955  17.268  -5.760  1.00 20.00     0.005 C 
ENDBRANCH   2   3
ENDBRANCH   1   2
BRANCH   1   5
HETATM    5  C8  UNL     1     -32.557  18.891  -2.471  1.00 20.00     0.119 C 
HETATM    6 CL11 UNL     1     -31.761  18.097  -1.091  1.00 20.00    -0.130 Cl
ENDBRANCH   1   5
BRANCH   1   7
HETATM    7  C9  UNL     1     -33.521  16.495  -2.768  1.00 20.00    -0.010 C 
BRANCH   7   8
HETATM    8  C5  UNL     1     -34.966  16.349  -2.225  1.00 20.00     0.000 C 
HETATM    9  C2  UNL     1     -35.178  16.877  -0.813  1.00 20.00     0.005 C 
ENDBRANCH   7   8
BRANCH   7  10
HETATM   10  C6  UNL     1     -33.139  15.328  -3.718  1.00 20.00     0.000 C 
HETATM   11  C3  UNL     1     -34.276  14.364  -4.039  1.00 20.00     0.005 C 
ENDBRANCH   7  10
ENDBRANCH   1   7
TORSDOF 6
ENDMDL
MODEL 9
REMARK VINA RESULT:      -3.6      2.840      5.167
REMARK  6 active torsions:
REMARK  status: ('A' for Active; 'I' for Inactive)
REMARK    1  A    between atoms: C4_4  and  C7_7 
REMARK    2  A    between atoms: C5_5  and  C9_9 
REMARK    3  A    between atoms: C6_6  and  C9_9 
REMARK    4  A    between atoms: C7_7  and  C10_10 
REMARK    5  A    between atoms: C8_8  and  C10_10 
REMARK    6  A    between atoms: C9_9  and  C10_10 
ROOT
HETATM    1  C10 UNL     1     -33.810  17.069  -1.615  1.00 20.00     0.003 C 
ENDROOT
BRANCH   1   2
HETATM    2  C7  UNL     1     -32.555  17.983  -1.706  1.00 20.00     0.005 C 
BRANCH   2   3
HETATM    3  C4  UNL     1     -32.220  18.746  -0.419  1.00 20.00    -0.004 C 
HETATM    4  C1  UNL     1     -30.883  18.301   0.156  1.00 20.00     0.005 C 
ENDBRANCH   2   3
ENDBRANCH   1   2
BRANCH   1   5
HETATM    5  C8  UNL     1     -35.016  17.791  -0.974  1.00 20.00     0.119 C 
HETATM    6 CL11 UNL     1     -35.488  17.109   0.601  1.00 20.00    -0.130 Cl
ENDBRANCH   1   5
BRANCH   1   7
HETATM    7  C9  UNL     1     -34.158  16.420  -3.010  1.00 20.00    -0.010 C 
BRANCH   7   8
HETATM    8  C5  UNL     1     -32.949  15.716  -3.678  1.00 20.00     0.000 C 
HETATM    9  C2  UNL     1     -33.286  14.434  -4.427  1.00 20.00     0.005 C 
ENDBRANCH   7   8
BRANCH   7  10
HETATM   10  C6  UNL     1     -35.391  15.481  -2.910  1.00 20.00     0.000 C 
HETATM   11  C3  UNL     1     -36.583  15.896  -3.764  1.00 20.00     0.005 C 
ENDBRANCH   7  10
ENDBRANCH   1   7
TORSDOF 6
ENDMDL
