MODEL 1
REMARK VINA RESULT:      -4.4      0.000      0.000
REMARK  2 active torsions:
REMARK  status: ('A' for Active; 'I' for Inactive)
REMARK    1  A    between atoms: C4_4  and  C7_7 
REMARK    2  A    between atoms: C4_4  and  C8_8 
ROOT
HETATM    1  C1  UNL     1     -36.507  15.292  -3.603  1.00 20.00     0.039 C 
HETATM    2  C2  UNL     1     -37.090  14.195  -4.475  1.00 20.00     0.168 C 
HETATM    3  C3  UNL     1     -34.859  13.677  -4.033  1.00 20.00     0.178 C 
HETATM    4  C4  UNL     1     -35.013  15.187  -3.870  1.00 20.00    -0.001 C 
HETATM    5  O9  UNL     1     -36.069  13.200  -4.641  1.00 20.00    -0.390 OA
ENDROOT
BRANCH   4   6
HETATM    6  C7  UNL     1     -34.633  15.917  -5.169  1.00 20.00     0.126 C 
HETATM    7 CL10 UNL     1     -33.745  14.823  -6.245  1.00 20.00    -0.130 Cl
ENDBRANCH   4   6
BRANCH   4   8
HETATM    8  C8  UNL     1     -34.173  15.731  -2.716  1.00 20.00    -0.011 C 
HETATM    9  C5  UNL     1     -33.132  16.713  -3.239  1.00 20.00     0.010 C 
HETATM   10  C6  UNL     1     -35.071  16.392  -1.678  1.00 20.00     0.010 C 
ENDBRANCH   4   8
TORSDOF 2
ENDMDL
MODEL 2
REMARK VINA RESULT:      -4.2     18.107     18.997
REMARK  2 active torsions:
REMARK  status: ('A' for Active; 'I' for Inactive)
REMARK    1  A    between atoms: C4_4  and  C7_7 
REMARK    2  A    between atoms: C4_4  and  C8_8 
ROOT
HETATM    1  C1  UNL     1     -24.186  16.268  11.131  1.00 20.00     0.039 C 
HETATM    2  C2  UNL     1     -25.382  16.179  12.059  1.00 20.00     0.168 C 
HETATM    3  C3  UNL     1     -25.291  18.338  11.184  1.00 20.00     0.178 C 
HETATM    4  C4  UNL     1     -23.881  17.759  11.105  1.00 20.00    -0.001 C 
HETATM    5  O9  UNL     1     -26.064  17.440  11.994  1.00 20.00    -0.390 OA
ENDROOT
BRANCH   4   6
HETATM    6  C7  UNL     1     -23.052  18.174  12.332  1.00 20.00     0.126 C 
HETATM    7 CL10 UNL     1     -21.347  17.756  12.086  1.00 20.00    -0.130 Cl
ENDBRANCH   4   6
BRANCH   4   8
HETATM    8  C8  UNL     1     -23.153  18.185   9.832  1.00 20.00    -0.011 C 
HETATM    9  C5  UNL     1     -22.765  16.961   9.013  1.00 20.00     0.010 C 
HETATM   10  C6  UNL     1     -24.027  19.131   9.017  1.00 20.00     0.010 C 
ENDBRANCH   4   8
TORSDOF 2
ENDMDL
MODEL 3
REMARK VINA RESULT:      -4.1      1.340      1.810
REMARK  2 active torsions:
REMARK  status: ('A' for Active; 'I' for Inactive)
REMARK    1  A    between atoms: C4_4  and  C7_7 
REMARK    2  A    between atoms: C4_4  and  C8_8 
ROOT
HETATM    1  C1  UNL     1     -37.144  15.876  -3.745  1.00 20.00     0.039 C 
HETATM    2  C2  UNL     1     -38.252  14.931  -4.172  1.00 20.00     0.168 C 
HETATM    3  C3  UNL     1     -36.205  13.865  -4.507  1.00 20.00     0.178 C 
HETATM    4  C4  UNL     1     -35.939  15.369  -4.523  1.00 20.00    -0.001 C 
HETATM    5  O9  UNL     1     -37.630  13.696  -4.552  1.00 20.00    -0.390 OA
ENDROOT
BRANCH   4   6
HETATM    6  C7  UNL     1     -35.944  15.908  -5.963  1.00 20.00     0.126 C 
HETATM    7 CL10 UNL     1     -35.645  14.589  -7.109  1.00 20.00    -0.130 Cl
ENDBRANCH   4   6
BRANCH   4   8
HETATM    8  C8  UNL     1     -34.615  15.727  -3.850  1.00 20.00    -0.011 C 
HETATM    9  C5  UNL     1     -34.813  15.880  -2.348  1.00 20.00     0.010 C 
HETATM   10  C6  UNL     1     -33.565  14.666  -4.156  1.00 20.00     0.010 C 
ENDBRANCH   4   8
TORSDOF 2
ENDMDL
MODEL 4
REMARK VINA RESULT:      -4.0      1.883      2.602
REMARK  2 active torsions:
REMARK  status: ('A' for Active; 'I' for Inactive)
REMARK    1  A    between atoms: C4_4  and  C7_7 
REMARK    2  A    between atoms: C4_4  and  C8_8 
ROOT
HETATM    1  C1  UNL     1     -33.705  14.714  -4.891  1.00 20.00     0.039 C 
HETATM    2  C2  UNL     1     -33.981  15.117  -6.327  1.00 20.00     0.168 C 
HETATM    3  C3  UNL     1     -34.474  16.931  -4.947  1.00 20.00     0.178 C 
HETATM    4  C4  UNL     1     -34.577  15.671  -4.090  1.00 20.00    -0.001 C 
HETATM    5  O9  UNL     1     -34.371  16.498  -6.312  1.00 20.00    -0.390 OA
ENDROOT
BRANCH   4   6
HETATM    6  C7  UNL     1     -36.030  15.172  -4.028  1.00 20.00     0.126 C 
HETATM    7 CL10 UNL     1     -36.091  13.431  -4.357  1.00 20.00    -0.130 Cl
ENDBRANCH   4   6
BRANCH   4   8
HETATM    8  C8  UNL     1     -34.053  15.893  -2.673  1.00 20.00    -0.011 C 
HETATM    9  C5  UNL     1     -32.967  16.961  -2.674  1.00 20.00     0.010 C 
HETATM   10  C6  UNL     1     -35.198  16.282  -1.744  1.00 20.00     0.010 C 
ENDBRANCH   4   8
TORSDOF 2
ENDMDL
MODEL 5
REMARK VINA RESULT:      -4.0     18.088     19.019
REMARK  2 active torsions:
REMARK  status: ('A' for Active; 'I' for Inactive)
REMARK    1  A    between atoms: C4_4  and  C7_7 
REMARK    2  A    between atoms: C4_4  and  C8_8 
ROOT
HETATM    1  C1  UNL     1     -24.874  18.930  10.085  1.00 20.00     0.039 C 
HETATM    2  C2  UNL     1     -26.168  19.021  10.871  1.00 20.00     0.168 C 
HETATM    3  C3  UNL     1     -24.484  18.293  12.310  1.00 20.00     0.178 C 
HETATM    4  C4  UNL     1     -24.051  17.934  10.891  1.00 20.00    -0.001 C 
HETATM    5  O9  UNL     1     -25.859  18.698  12.234  1.00 20.00    -0.390 OA
ENDROOT
BRANCH   4   6
HETATM    6  C7  UNL     1     -24.446  16.488  10.549  1.00 20.00     0.126 C 
HETATM    7 CL10 UNL     1     -24.689  15.555  12.036  1.00 20.00    -0.130 Cl
ENDBRANCH   4   6
BRANCH   4   8
HETATM    8  C8  UNL     1     -22.548  18.115  10.683  1.00 20.00    -0.011 C 
HETATM    9  C5  UNL     1     -21.791  17.706  11.940  1.00 20.00     0.010 C 
HETATM   10  C6  UNL     1     -22.083  17.305   9.479  1.00 20.00     0.010 C 
ENDBRANCH   4   8
TORSDOF 2
ENDMDL
MODEL 6
REMARK VINA RESULT:      -3.9      1.695      1.703
REMARK  2 active torsions:
REMARK  status: ('A' for Active; 'I' for Inactive)
REMARK    1  A    between atoms: C4_4  and  C7_7 
REMARK    2  A    between atoms: C4_4  and  C8_8 
ROOT
HETATM    1  C1  UNL     1     -35.845  15.108  -3.604  1.00 20.00     0.039 C 
HETATM    2  C2  UNL     1     -35.875  14.251  -4.856  1.00 20.00     0.168 C 
HETATM    3  C3  UNL     1     -33.649  14.693  -4.321  1.00 20.00     0.178 C 
HETATM    4  C4  UNL     1     -34.492  15.800  -3.694  1.00 20.00    -0.001 C 
HETATM    5  O9  UNL     1     -34.513  13.962  -5.204  1.00 20.00    -0.390 OA
ENDROOT
BRANCH   4   6
HETATM    6  C7  UNL     1     -34.560  17.025  -4.620  1.00 20.00     0.126 C 
HETATM    7 CL10 UNL     1     -36.185  17.731  -4.579  1.00 20.00    -0.130 Cl
ENDBRANCH   4   6
BRANCH   4   8
HETATM    8  C8  UNL     1     -33.961  16.225  -2.325  1.00 20.00    -0.011 C 
HETATM    9  C5  UNL     1     -32.978  17.378  -2.477  1.00 20.00     0.010 C 
HETATM   10  C6  UNL     1     -35.117  16.611  -1.410  1.00 20.00     0.010 C 
ENDBRANCH   4   8
TORSDOF 2
ENDMDL
MODEL 7
REMARK VINA RESULT:      -3.8      1.949      2.398
REMARK  2 active torsions:
REMARK  status: ('A' for Active; 'I' for Inactive)
REMARK    1  A    between atoms: C4_4  and  C7_7 
REMARK    2  A    between atoms: C4_4  and  C8_8 
ROOT
HETATM    1  C1  UNL     1     -35.387  15.001  -3.182  1.00 20.00     0.039 C 
HETATM    2  C2  UNL     1     -34.935  13.866  -4.081  1.00 20.00     0.168 C 
HETATM    3  C3  UNL     1     -33.171  15.376  -3.859  1.00 20.00     0.178 C 
HETATM    4  C4  UNL     1     -34.460  16.143  -3.575  1.00 20.00    -0.001 C 
HETATM    5  O9  UNL     1     -33.556  14.103  -4.401  1.00 20.00    -0.390 OA
ENDROOT
BRANCH   4   6
HETATM    6  C7  UNL     1     -34.965  16.850  -4.843  1.00 20.00     0.126 C 
HETATM    7 CL10 UNL     1     -35.370  18.537  -4.480  1.00 20.00    -0.130 Cl
ENDBRANCH   4   6
BRANCH   4   8
HETATM    8  C8  UNL     1     -34.287  17.167  -2.455  1.00 20.00    -0.011 C 
HETATM    9  C5  UNL     1     -35.085  16.747  -1.229  1.00 20.00     0.010 C 
HETATM   10  C6  UNL     1     -32.810  17.329  -2.115  1.00 20.00     0.010 C 
ENDBRANCH   4   8
TORSDOF 2
ENDMDL
MODEL 8
REMARK VINA RESULT:      -3.7      2.371      3.755
REMARK  2 active torsions:
REMARK  status: ('A' for Active; 'I' for Inactive)
REMARK    1  A    between atoms: C4_4  and  C7_7 
REMARK    2  A    between atoms: C4_4  and  C8_8 
ROOT
HETATM    1  C1  UNL     1     -33.081  16.668  -2.817  1.00 20.00     0.039 C 
HETATM    2  C2  UNL     1     -33.217  17.755  -1.767  1.00 20.00     0.168 C 
HETATM    3  C3  UNL     1     -35.039  16.313  -1.572  1.00 20.00     0.178 C 
HETATM    4  C4  UNL     1     -34.513  16.186  -3.000  1.00 20.00    -0.001 C 
HETATM    5  O9  UNL     1     -34.381  17.447  -0.988  1.00 20.00    -0.390 OA
ENDROOT
BRANCH   4   6
HETATM    6  C7  UNL     1     -35.289  17.110  -3.952  1.00 20.00     0.126 C 
HETATM    7 CL10 UNL     1     -34.200  17.768  -5.185  1.00 20.00    -0.130 Cl
ENDBRANCH   4   6
BRANCH   4   8
HETATM    8  C8  UNL     1     -34.584  14.749  -3.515  1.00 20.00    -0.011 C 
HETATM    9  C5  UNL     1     -35.874  14.533  -4.296  1.00 20.00     0.010 C 
HETATM   10  C6  UNL     1     -33.367  14.438  -4.377  1.00 20.00     0.010 C 
ENDBRANCH   4   8
TORSDOF 2
ENDMDL
MODEL 9
REMARK VINA RESULT:      -3.7      1.356      1.831
REMARK  2 active torsions:
REMARK  status: ('A' for Active; 'I' for Inactive)
REMARK    1  A    between atoms: C4_4  and  C7_7 
REMARK    2  A    between atoms: C4_4  and  C8_8 
ROOT
HETATM    1  C1  UNL     1     -36.177  14.798  -3.744  1.00 20.00     0.039 C 
HETATM    2  C2  UNL     1     -36.327  13.863  -4.929  1.00 20.00     0.168 C 
HETATM    3  C3  UNL     1     -34.339  15.057  -5.181  1.00 20.00     0.178 C 
HETATM    4  C4  UNL     1     -35.251  15.882  -4.275  1.00 20.00    -0.001 C 
HETATM    5  O9  UNL     1     -35.146  14.004  -5.731  1.00 20.00    -0.390 OA
ENDROOT
BRANCH   4   6
HETATM    6  C7  UNL     1     -36.033  16.924  -5.091  1.00 20.00     0.126 C 
HETATM    7 CL10 UNL     1     -35.097  17.411  -6.516  1.00 20.00    -0.130 Cl
ENDBRANCH   4   6
BRANCH   4   8
HETATM    8  C8  UNL     1     -34.474  16.585  -3.163  1.00 20.00    -0.011 C 
HETATM    9  C5  UNL     1     -35.056  16.220  -1.803  1.00 20.00     0.010 C 
HETATM   10  C6  UNL     1     -32.997  16.218  -3.240  1.00 20.00     0.010 C 
ENDBRANCH   4   8
TORSDOF 2
ENDMDL
