MODEL 1
REMARK VINA RESULT:      -4.1      0.000      0.000
REMARK  2 active torsions:
REMARK  status: ('A' for Active; 'I' for Inactive)
REMARK    1  A    between atoms: C4_4  and  C7_7 
REMARK    2  A    between atoms: C7_7  and  C8_8 
ROOT
HETATM    1  C1  UNL     1     -36.581  15.047  -3.802  1.00 20.00     0.033 C 
HETATM    2  C2  UNL     1     -36.928  13.897  -4.725  1.00 20.00     0.168 C 
HETATM    3  C3  UNL     1     -34.793  13.529  -3.867  1.00 20.00     0.172 C 
HETATM    4  C4  UNL     1     -35.069  15.023  -3.839  1.00 20.00     0.016 C 
HETATM    5  O9  UNL     1     -35.875  12.931  -4.596  1.00 20.00    -0.391 OA
ENDROOT
BRANCH   4   6
HETATM    6  C7  UNL     1     -34.406  15.745  -2.681  1.00 20.00     0.002 C 
HETATM    7  C5  UNL     1     -33.082  16.321  -3.128  1.00 20.00     0.011 C 
BRANCH   6   8
HETATM    8  C8  UNL     1     -35.365  16.785  -2.068  1.00 20.00     0.058 C 
HETATM    9  C6  UNL     1     -35.274  16.970  -0.559  1.00 20.00     0.022 C 
HETATM   10 BR10 UNL     1     -35.097  18.536  -2.924  1.00 20.00    -0.091 Br
ENDBRANCH   6   8
ENDBRANCH   4   6
TORSDOF 2
ENDMDL
MODEL 2
REMARK VINA RESULT:      -4.0      1.368      1.666
REMARK  2 active torsions:
REMARK  status: ('A' for Active; 'I' for Inactive)
REMARK    1  A    between atoms: C4_4  and  C7_7 
REMARK    2  A    between atoms: C7_7  and  C8_8 
ROOT
HETATM    1  C1  UNL     1     -35.196  13.931  -3.882  1.00 20.00     0.033 C 
HETATM    2  C2  UNL     1     -36.371  13.879  -4.836  1.00 20.00     0.168 C 
HETATM    3  C3  UNL     1     -35.885  16.114  -4.395  1.00 20.00     0.172 C 
HETATM    4  C4  UNL     1     -35.396  15.279  -3.224  1.00 20.00     0.016 C 
HETATM    5  O9  UNL     1     -36.640  15.230  -5.238  1.00 20.00    -0.391 OA
ENDROOT
BRANCH   4   6
HETATM    6  C7  UNL     1     -34.154  15.835  -2.553  1.00 20.00     0.002 C 
HETATM    7  C5  UNL     1     -33.043  15.972  -3.568  1.00 20.00     0.011 C 
BRANCH   6   8
HETATM    8  C8  UNL     1     -34.480  17.142  -1.804  1.00 20.00     0.058 C 
HETATM    9  C6  UNL     1     -35.312  16.996  -0.536  1.00 20.00     0.022 C 
HETATM   10 BR10 UNL     1     -32.818  18.091  -1.348  1.00 20.00    -0.091 Br
ENDBRANCH   6   8
ENDBRANCH   4   6
TORSDOF 2
ENDMDL
MODEL 3
REMARK VINA RESULT:      -4.0      1.252      1.267
REMARK  2 active torsions:
REMARK  status: ('A' for Active; 'I' for Inactive)
REMARK    1  A    between atoms: C4_4  and  C7_7 
REMARK    2  A    between atoms: C7_7  and  C8_8 
ROOT
HETATM    1  C1  UNL     1     -36.916  15.771  -3.673  1.00 20.00     0.033 C 
HETATM    2  C2  UNL     1     -37.917  14.966  -4.475  1.00 20.00     0.168 C 
HETATM    3  C3  UNL     1     -35.994  13.679  -4.204  1.00 20.00     0.172 C 
HETATM    4  C4  UNL     1     -35.607  15.145  -4.102  1.00 20.00     0.016 C 
HETATM    5  O9  UNL     1     -37.365  13.650  -4.627  1.00 20.00    -0.391 OA
ENDROOT
BRANCH   4   6
HETATM    6  C7  UNL     1     -34.451  15.408  -3.156  1.00 20.00     0.002 C 
HETATM    7  C5  UNL     1     -33.141  15.256  -3.894  1.00 20.00     0.011 C 
BRANCH   6   8
HETATM    8  C8  UNL     1     -34.619  16.772  -2.457  1.00 20.00     0.058 C 
HETATM    9  C6  UNL     1     -35.103  16.728  -1.013  1.00 20.00     0.022 C 
HETATM   10 BR10 UNL     1     -32.926  17.771  -2.513  1.00 20.00    -0.091 Br
ENDBRANCH   6   8
ENDBRANCH   4   6
TORSDOF 2
ENDMDL
MODEL 4
REMARK VINA RESULT:      -3.9      3.152      4.817
REMARK  2 active torsions:
REMARK  status: ('A' for Active; 'I' for Inactive)
REMARK    1  A    between atoms: C4_4  and  C7_7 
REMARK    2  A    between atoms: C7_7  and  C8_8 
ROOT
HETATM    1  C1  UNL     1     -32.997  17.824  -1.317  1.00 20.00     0.033 C 
HETATM    2  C2  UNL     1     -32.244  19.062  -1.759  1.00 20.00     0.168 C 
HETATM    3  C3  UNL     1     -33.191  18.070  -3.643  1.00 20.00     0.172 C 
HETATM    4  C4  UNL     1     -32.996  16.997  -2.584  1.00 20.00     0.016 C 
HETATM    5  O9  UNL     1     -32.534  19.248  -3.152  1.00 20.00    -0.391 OA
ENDROOT
BRANCH   4   6
HETATM    6  C7  UNL     1     -34.051  15.907  -2.617  1.00 20.00     0.002 C 
HETATM    7  C5  UNL     1     -35.361  16.448  -2.093  1.00 20.00     0.011 C 
BRANCH   6   8
HETATM    8  C8  UNL     1     -34.150  15.289  -4.026  1.00 20.00     0.058 C 
HETATM    9  C6  UNL     1     -32.969  14.432  -4.465  1.00 20.00     0.022 C 
HETATM   10 BR10 UNL     1     -35.788  14.210  -4.175  1.00 20.00    -0.091 Br
ENDBRANCH   6   8
ENDBRANCH   4   6
TORSDOF 2
ENDMDL
MODEL 5
REMARK VINA RESULT:      -3.9      2.149      2.735
REMARK  2 active torsions:
REMARK  status: ('A' for Active; 'I' for Inactive)
REMARK    1  A    between atoms: C4_4  and  C7_7 
REMARK    2  A    between atoms: C7_7  and  C8_8 
ROOT
HETATM    1  C1  UNL     1     -37.573  16.091  -4.394  1.00 20.00     0.033 C 
HETATM    2  C2  UNL     1     -38.698  15.080  -4.313  1.00 20.00     0.168 C 
HETATM    3  C3  UNL     1     -36.703  13.928  -4.660  1.00 20.00     0.172 C 
HETATM    4  C4  UNL     1     -36.542  15.337  -5.205  1.00 20.00     0.016 C 
HETATM    5  O9  UNL     1     -38.090  13.781  -4.318  1.00 20.00    -0.391 OA
ENDROOT
BRANCH   4   6
HETATM    6  C7  UNL     1     -35.132  15.882  -5.083  1.00 20.00     0.002 C 
HETATM    7  C5  UNL     1     -35.177  17.382  -4.904  1.00 20.00     0.011 C 
BRANCH   6   8
HETATM    8  C8  UNL     1     -34.358  15.144  -3.973  1.00 20.00     0.058 C 
HETATM    9  C6  UNL     1     -32.956  14.671  -4.336  1.00 20.00     0.022 C 
HETATM   10 BR10 UNL     1     -34.234  16.276  -2.369  1.00 20.00    -0.091 Br
ENDBRANCH   6   8
ENDBRANCH   4   6
TORSDOF 2
ENDMDL
MODEL 6
REMARK VINA RESULT:      -3.9      2.600      4.117
REMARK  2 active torsions:
REMARK  status: ('A' for Active; 'I' for Inactive)
REMARK    1  A    between atoms: C4_4  and  C7_7 
REMARK    2  A    between atoms: C7_7  and  C8_8 
ROOT
HETATM    1  C1  UNL     1     -35.401  15.938  -2.664  1.00 20.00     0.033 C 
HETATM    2  C2  UNL     1     -34.565  16.751  -1.697  1.00 20.00     0.168 C 
HETATM    3  C3  UNL     1     -33.183  16.023  -3.425  1.00 20.00     0.172 C 
HETATM    4  C4  UNL     1     -34.352  15.059  -3.309  1.00 20.00     0.016 C 
HETATM    5  O9  UNL     1     -33.270  16.904  -2.295  1.00 20.00    -0.391 OA
ENDROOT
BRANCH   4   6
HETATM    6  C7  UNL     1     -34.777  14.452  -4.633  1.00 20.00     0.002 C 
HETATM    7  C5  UNL     1     -36.126  13.788  -4.482  1.00 20.00     0.011 C 
BRANCH   6   8
HETATM    8  C8  UNL     1     -34.722  15.506  -5.757  1.00 20.00     0.058 C 
HETATM    9  C6  UNL     1     -33.944  15.112  -7.006  1.00 20.00     0.022 C 
HETATM   10 BR10 UNL     1     -36.545  16.011  -6.296  1.00 20.00    -0.091 Br
ENDBRANCH   6   8
ENDBRANCH   4   6
TORSDOF 2
ENDMDL
MODEL 7
REMARK VINA RESULT:      -3.9      2.002      3.053
REMARK  2 active torsions:
REMARK  status: ('A' for Active; 'I' for Inactive)
REMARK    1  A    between atoms: C4_4  and  C7_7 
REMARK    2  A    between atoms: C7_7  and  C8_8 
ROOT
HETATM    1  C1  UNL     1     -33.231  15.667  -3.712  1.00 20.00     0.033 C 
HETATM    2  C2  UNL     1     -33.865  14.372  -4.175  1.00 20.00     0.168 C 
HETATM    3  C3  UNL     1     -35.456  15.578  -2.974  1.00 20.00     0.172 C 
HETATM    4  C4  UNL     1     -34.076  16.008  -2.505  1.00 20.00     0.016 C 
HETATM    5  O9  UNL     1     -35.257  14.448  -3.838  1.00 20.00    -0.391 OA
ENDROOT
BRANCH   4   6
HETATM    6  C7  UNL     1     -34.000  17.462  -2.081  1.00 20.00     0.002 C 
HETATM    7  C5  UNL     1     -34.481  17.605  -0.656  1.00 20.00     0.011 C 
BRANCH   6   8
HETATM    8  C8  UNL     1     -32.586  18.026  -2.323  1.00 20.00     0.058 C 
HETATM    9  C6  UNL     1     -32.501  19.261  -3.210  1.00 20.00     0.022 C 
HETATM   10 BR10 UNL     1     -31.721  18.437  -0.605  1.00 20.00    -0.091 Br
ENDBRANCH   6   8
ENDBRANCH   4   6
TORSDOF 2
ENDMDL
MODEL 8
REMARK VINA RESULT:      -3.8      2.184      2.943
REMARK  2 active torsions:
REMARK  status: ('A' for Active; 'I' for Inactive)
REMARK    1  A    between atoms: C4_4  and  C7_7 
REMARK    2  A    between atoms: C7_7  and  C8_8 
ROOT
HETATM    1  C1  UNL     1     -37.688  16.146  -4.058  1.00 20.00     0.033 C 
HETATM    2  C2  UNL     1     -38.716  15.095  -4.425  1.00 20.00     0.168 C 
HETATM    3  C3  UNL     1     -36.638  14.057  -4.251  1.00 20.00     0.172 C 
HETATM    4  C4  UNL     1     -36.413  15.523  -4.582  1.00 20.00     0.016 C 
HETATM    5  O9  UNL     1     -38.050  13.826  -4.368  1.00 20.00    -0.391 OA
ENDROOT
BRANCH   4   6
HETATM    6  C7  UNL     1     -35.145  16.098  -3.979  1.00 20.00     0.002 C 
HETATM    7  C5  UNL     1     -35.013  15.649  -2.542  1.00 20.00     0.011 C 
BRANCH   6   8
HETATM    8  C8  UNL     1     -33.923  15.758  -4.855  1.00 20.00     0.058 C 
HETATM    9  C6  UNL     1     -33.102  14.551  -4.419  1.00 20.00     0.022 C 
HETATM   10 BR10 UNL     1     -34.487  15.482  -6.720  1.00 20.00    -0.091 Br
ENDBRANCH   6   8
ENDBRANCH   4   6
TORSDOF 2
ENDMDL
MODEL 9
REMARK VINA RESULT:      -3.8      2.895      4.184
REMARK  2 active torsions:
REMARK  status: ('A' for Active; 'I' for Inactive)
REMARK    1  A    between atoms: C4_4  and  C7_7 
REMARK    2  A    between atoms: C7_7  and  C8_8 
ROOT
HETATM    1  C1  UNL     1     -35.107  16.444  -1.837  1.00 20.00     0.033 C 
HETATM    2  C2  UNL     1     -34.603  17.241  -0.651  1.00 20.00     0.168 C 
HETATM    3  C3  UNL     1     -33.034  17.409  -2.366  1.00 20.00     0.172 C 
HETATM    4  C4  UNL     1     -33.817  16.120  -2.558  1.00 20.00     0.016 C 
HETATM    5  O9  UNL     1     -33.424  17.934  -1.088  1.00 20.00    -0.391 OA
ENDROOT
BRANCH   4   6
HETATM    6  C7  UNL     1     -33.998  15.726  -4.012  1.00 20.00     0.002 C 
HETATM    7  C5  UNL     1     -33.288  14.420  -4.280  1.00 20.00     0.011 C 
BRANCH   6   8
HETATM    8  C8  UNL     1     -35.493  15.713  -4.389  1.00 20.00     0.058 C 
HETATM    9  C6  UNL     1     -35.869  16.467  -5.658  1.00 20.00     0.022 C 
HETATM   10 BR10 UNL     1     -36.129  13.859  -4.558  1.00 20.00    -0.091 Br
ENDBRANCH   6   8
ENDBRANCH   4   6
TORSDOF 2
ENDMDL
