MODEL 1
REMARK VINA RESULT:      -4.2      0.000      0.000
REMARK  5 active torsions:
REMARK  status: ('A' for Active; 'I' for Inactive)
REMARK    1  A    between atoms: C5_5  and  C7_7 
REMARK    2  A    between atoms: C6_6  and  C9_9 
REMARK    3  A    between atoms: C7_7  and  C10_10 
REMARK    4  A    between atoms: C8_8  and  C10_10 
REMARK    5  A    between atoms: C9_9  and  C10_10 
ROOT
HETATM    1  C4  UNL     1     -32.712  14.655  -4.303  1.00 20.00     0.016 C 
HETATM    2  C10 UNL     1     -34.154  15.219  -4.287  1.00 20.00    -0.028 C 
ENDROOT
BRANCH   2   3
HETATM    3  C7  UNL     1     -35.108  14.024  -3.946  1.00 20.00     0.010 C 
BRANCH   3   4
HETATM    4  C5  UNL     1     -36.313  13.851  -4.878  1.00 20.00    -0.004 C 
HETATM    5  C1  UNL     1     -37.566  14.474  -4.277  1.00 20.00     0.005 C 
ENDBRANCH   3   4
ENDBRANCH   2   3
BRANCH   2   6
HETATM    6  C8  UNL     1     -34.481  15.799  -5.700  1.00 20.00     0.124 C 
HETATM    7 CL11 UNL     1     -33.681  14.964  -7.061  1.00 20.00    -0.130 Cl
ENDBRANCH   2   6
BRANCH   2   8
HETATM    8  C9  UNL     1     -34.281  16.393  -3.215  1.00 20.00    -0.010 C 
HETATM    9  C3  UNL     1     -32.920  16.924  -2.724  1.00 20.00     0.011 C 
BRANCH   8  10
HETATM   10  C6  UNL     1     -35.163  16.020  -1.992  1.00 20.00     0.000 C 
HETATM   11  C2  UNL     1     -35.083  17.019  -0.842  1.00 20.00     0.005 C 
ENDBRANCH   8  10
ENDBRANCH   2   8
TORSDOF 5
ENDMDL
MODEL 2
REMARK VINA RESULT:      -4.1      0.622      1.423
REMARK  5 active torsions:
REMARK  status: ('A' for Active; 'I' for Inactive)
REMARK    1  A    between atoms: C5_5  and  C7_7 
REMARK    2  A    between atoms: C6_6  and  C9_9 
REMARK    3  A    between atoms: C7_7  and  C10_10 
REMARK    4  A    between atoms: C8_8  and  C10_10 
REMARK    5  A    between atoms: C9_9  and  C10_10 
ROOT
HETATM    1  C4  UNL     1     -32.846  14.361  -4.500  1.00 20.00     0.016 C 
HETATM    2  C10 UNL     1     -34.143  15.079  -4.054  1.00 20.00    -0.028 C 
ENDROOT
BRANCH   2   3
HETATM    3  C7  UNL     1     -35.230  13.969  -3.845  1.00 20.00     0.010 C 
BRANCH   3   4
HETATM    4  C5  UNL     1     -36.366  13.951  -4.874  1.00 20.00    -0.004 C 
HETATM    5  C1  UNL     1     -37.658  14.492  -4.275  1.00 20.00     0.005 C 
ENDBRANCH   3   4
ENDBRANCH   2   3
BRANCH   2   6
HETATM    6  C8  UNL     1     -34.580  16.072  -5.179  1.00 20.00     0.124 C 
HETATM    7 CL11 UNL     1     -34.071  15.612  -6.828  1.00 20.00    -0.130 Cl
ENDBRANCH   2   6
BRANCH   2   8
HETATM    8  C9  UNL     1     -33.889  15.908  -2.716  1.00 20.00    -0.010 C 
HETATM    9  C3  UNL     1     -35.185  16.263  -1.961  1.00 20.00     0.011 C 
BRANCH   8  10
HETATM   10  C6  UNL     1     -33.050  17.196  -2.937  1.00 20.00     0.000 C 
HETATM   11  C2  UNL     1     -32.612  17.881  -1.646  1.00 20.00     0.005 C 
ENDBRANCH   8  10
ENDBRANCH   2   8
TORSDOF 5
ENDMDL
MODEL 3
REMARK VINA RESULT:      -4.1     16.247     18.109
REMARK  5 active torsions:
REMARK  status: ('A' for Active; 'I' for Inactive)
REMARK    1  A    between atoms: C5_5  and  C7_7 
REMARK    2  A    between atoms: C6_6  and  C9_9 
REMARK    3  A    between atoms: C7_7  and  C10_10 
REMARK    4  A    between atoms: C8_8  and  C10_10 
REMARK    5  A    between atoms: C9_9  and  C10_10 
ROOT
HETATM    1  C4  UNL     1     -23.955  16.680   9.561  1.00 20.00     0.016 C 
HETATM    2  C10 UNL     1     -23.143  17.944   9.936  1.00 20.00    -0.028 C 
ENDROOT
BRANCH   2   3
HETATM    3  C7  UNL     1     -23.711  19.123   9.073  1.00 20.00     0.010 C 
BRANCH   3   4
HETATM    4  C5  UNL     1     -25.010  18.825   8.316  1.00 20.00    -0.004 C 
HETATM    5  C1  UNL     1     -24.902  19.239   6.855  1.00 20.00     0.005 C 
ENDBRANCH   3   4
ENDBRANCH   2   3
BRANCH   2   6
HETATM    6  C8  UNL     1     -21.638  17.692   9.601  1.00 20.00     0.124 C 
HETATM    7 CL11 UNL     1     -21.308  17.259   7.899  1.00 20.00    -0.130 Cl
ENDBRANCH   2   6
BRANCH   2   8
HETATM    8  C9  UNL     1     -23.271  18.247  11.496  1.00 20.00    -0.010 C 
HETATM    9  C3  UNL     1     -22.098  17.692  12.326  1.00 20.00     0.011 C 
BRANCH   8  10
HETATM   10  C6  UNL     1     -24.614  17.764  12.111  1.00 20.00     0.000 C 
HETATM   11  C2  UNL     1     -25.687  18.847  12.185  1.00 20.00     0.005 C 
ENDBRANCH   8  10
ENDBRANCH   2   8
TORSDOF 5
ENDMDL
MODEL 4
REMARK VINA RESULT:      -4.0      1.790      4.426
REMARK  5 active torsions:
REMARK  status: ('A' for Active; 'I' for Inactive)
REMARK    1  A    between atoms: C5_5  and  C7_7 
REMARK    2  A    between atoms: C6_6  and  C9_9 
REMARK    3  A    between atoms: C7_7  and  C10_10 
REMARK    4  A    between atoms: C8_8  and  C10_10 
REMARK    5  A    between atoms: C9_9  and  C10_10 
ROOT
HETATM    1  C4  UNL     1     -35.154  16.783  -1.128  1.00 20.00     0.016 C 
HETATM    2  C10 UNL     1     -34.491  16.693  -2.525  1.00 20.00    -0.028 C 
ENDROOT
BRANCH   2   3
HETATM    3  C7  UNL     1     -32.988  17.097  -2.343  1.00 20.00     0.010 C 
BRANCH   3   4
HETATM    4  C5  UNL     1     -32.738  18.382  -1.546  1.00 20.00    -0.004 C 
HETATM    5  C1  UNL     1     -31.486  18.262  -0.688  1.00 20.00     0.005 C 
ENDBRANCH   3   4
ENDBRANCH   2   3
BRANCH   2   6
HETATM    6  C8  UNL     1     -35.215  17.686  -3.489  1.00 20.00     0.124 C 
HETATM    7 CL11 UNL     1     -34.219  18.274  -4.851  1.00 20.00    -0.130 Cl
ENDBRANCH   2   6
BRANCH   2   8
HETATM    8  C9  UNL     1     -34.633  15.219  -3.115  1.00 20.00    -0.010 C 
HETATM    9  C3  UNL     1     -33.520  14.849  -4.114  1.00 20.00     0.011 C 
BRANCH   8  10
HETATM   10  C6  UNL     1     -36.019  14.941  -3.759  1.00 20.00     0.000 C 
HETATM   11  C2  UNL     1     -36.093  13.627  -4.530  1.00 20.00     0.005 C 
ENDBRANCH   8  10
ENDBRANCH   2   8
TORSDOF 5
ENDMDL
MODEL 5
REMARK VINA RESULT:      -4.0     16.311     18.212
REMARK  5 active torsions:
REMARK  status: ('A' for Active; 'I' for Inactive)
REMARK    1  A    between atoms: C5_5  and  C7_7 
REMARK    2  A    between atoms: C6_6  and  C9_9 
REMARK    3  A    between atoms: C7_7  and  C10_10 
REMARK    4  A    between atoms: C8_8  and  C10_10 
REMARK    5  A    between atoms: C9_9  and  C10_10 
ROOT
HETATM    1  C4  UNL     1     -23.926  16.451   9.686  1.00 20.00     0.016 C 
HETATM    2  C10 UNL     1     -23.796  17.790  10.453  1.00 20.00    -0.028 C 
ENDROOT
BRANCH   2   3
HETATM    3  C7  UNL     1     -24.456  18.894   9.558  1.00 20.00     0.010 C 
BRANCH   3   4
HETATM    4  C5  UNL     1     -24.322  18.689   8.045  1.00 20.00    -0.004 C 
HETATM    5  C1  UNL     1     -25.612  19.055   7.324  1.00 20.00     0.005 C 
ENDBRANCH   3   4
ENDBRANCH   2   3
BRANCH   2   6
HETATM    6  C8  UNL     1     -22.281  18.096  10.677  1.00 20.00     0.124 C 
HETATM    7 CL11 UNL     1     -21.685  17.785  12.332  1.00 20.00    -0.130 Cl
ENDBRANCH   2   6
BRANCH   2   8
HETATM    8  C9  UNL     1     -24.508  17.689  11.876  1.00 20.00    -0.010 C 
HETATM    9  C3  UNL     1     -25.065  16.285  12.184  1.00 20.00     0.011 C 
BRANCH   8  10
HETATM   10  C6  UNL     1     -25.627  18.746  12.084  1.00 20.00     0.000 C 
HETATM   11  C2  UNL     1     -27.038  18.165  12.081  1.00 20.00     0.005 C 
ENDBRANCH   8  10
ENDBRANCH   2   8
TORSDOF 5
ENDMDL
MODEL 6
REMARK VINA RESULT:      -4.0      1.012      1.805
REMARK  5 active torsions:
REMARK  status: ('A' for Active; 'I' for Inactive)
REMARK    1  A    between atoms: C5_5  and  C7_7 
REMARK    2  A    between atoms: C6_6  and  C9_9 
REMARK    3  A    between atoms: C7_7  and  C10_10 
REMARK    4  A    between atoms: C8_8  and  C10_10 
REMARK    5  A    between atoms: C9_9  and  C10_10 
ROOT
HETATM    1  C4  UNL     1     -34.821  13.800  -4.002  1.00 20.00     0.016 C 
HETATM    2  C10 UNL     1     -34.994  15.331  -3.843  1.00 20.00    -0.028 C 
ENDROOT
BRANCH   2   3
HETATM    3  C7  UNL     1     -36.535  15.610  -3.773  1.00 20.00     0.010 C 
BRANCH   3   4
HETATM    4  C5  UNL     1     -37.436  14.497  -4.318  1.00 20.00    -0.004 C 
HETATM    5  C1  UNL     1     -38.907  14.881  -4.214  1.00 20.00     0.005 C 
ENDBRANCH   3   4
ENDBRANCH   2   3
BRANCH   2   6
HETATM    6  C8  UNL     1     -34.362  16.039  -5.083  1.00 20.00     0.124 C 
HETATM    7 CL11 UNL     1     -33.947  14.954  -6.440  1.00 20.00    -0.130 Cl
ENDBRANCH   2   6
BRANCH   2   8
HETATM    8  C9  UNL     1     -34.247  15.842  -2.531  1.00 20.00    -0.010 C 
HETATM    9  C3  UNL     1     -35.177  16.570  -1.541  1.00 20.00     0.011 C 
BRANCH   8  10
HETATM   10  C6  UNL     1     -33.012  16.734  -2.831  1.00 20.00     0.000 C 
HETATM   11  C2  UNL     1     -32.732  17.787  -1.763  1.00 20.00     0.005 C 
ENDBRANCH   8  10
ENDBRANCH   2   8
TORSDOF 5
ENDMDL
MODEL 7
REMARK VINA RESULT:      -3.9      1.792      2.476
REMARK  5 active torsions:
REMARK  status: ('A' for Active; 'I' for Inactive)
REMARK    1  A    between atoms: C5_5  and  C7_7 
REMARK    2  A    between atoms: C6_6  and  C9_9 
REMARK    3  A    between atoms: C7_7  and  C10_10 
REMARK    4  A    between atoms: C8_8  and  C10_10 
REMARK    5  A    between atoms: C9_9  and  C10_10 
ROOT
HETATM    1  C4  UNL     1     -32.863  15.432  -3.858  1.00 20.00     0.016 C 
HETATM    2  C10 UNL     1     -34.032  16.256  -3.265  1.00 20.00    -0.028 C 
ENDROOT
BRANCH   2   3
HETATM    3  C7  UNL     1     -35.239  15.271  -3.087  1.00 20.00     0.010 C 
BRANCH   3   4
HETATM    4  C5  UNL     1     -35.185  13.997  -3.936  1.00 20.00    -0.004 C 
HETATM    5  C1  UNL     1     -36.467  13.817  -4.740  1.00 20.00     0.005 C 
ENDBRANCH   3   4
ENDBRANCH   2   3
BRANCH   2   6
HETATM    6  C8  UNL     1     -34.399  17.400  -4.264  1.00 20.00     0.124 C 
HETATM    7 CL11 UNL     1     -36.149  17.691  -4.466  1.00 20.00    -0.130 Cl
ENDBRANCH   2   6
BRANCH   2   8
HETATM    8  C9  UNL     1     -33.604  16.912  -1.877  1.00 20.00    -0.010 C 
HETATM    9  C3  UNL     1     -34.800  17.266  -0.972  1.00 20.00     0.011 C 
BRANCH   8  10
HETATM   10  C6  UNL     1     -32.691  18.158  -2.038  1.00 20.00     0.000 C 
HETATM   11  C2  UNL     1     -31.681  18.338  -0.908  1.00 20.00     0.005 C 
ENDBRANCH   8  10
ENDBRANCH   2   8
TORSDOF 5
ENDMDL
MODEL 8
REMARK VINA RESULT:      -3.8      1.602      3.486
REMARK  5 active torsions:
REMARK  status: ('A' for Active; 'I' for Inactive)
REMARK    1  A    between atoms: C5_5  and  C7_7 
REMARK    2  A    between atoms: C6_6  and  C9_9 
REMARK    3  A    between atoms: C7_7  and  C10_10 
REMARK    4  A    between atoms: C8_8  and  C10_10 
REMARK    5  A    between atoms: C9_9  and  C10_10 
ROOT
HETATM    1  C4  UNL     1     -32.657  14.358  -4.481  1.00 20.00     0.016 C 
HETATM    2  C10 UNL     1     -34.056  14.968  -4.217  1.00 20.00    -0.028 C 
ENDROOT
BRANCH   2   3
HETATM    3  C7  UNL     1     -33.900  15.965  -3.018  1.00 20.00     0.010 C 
BRANCH   3   4
HETATM    4  C5  UNL     1     -35.079  16.015  -2.040  1.00 20.00    -0.004 C 
HETATM    5  C1  UNL     1     -34.891  17.119  -1.008  1.00 20.00     0.005 C 
ENDBRANCH   3   4
ENDBRANCH   2   3
BRANCH   2   6
HETATM    6  C8  UNL     1     -35.045  13.816  -3.850  1.00 20.00     0.124 C 
HETATM    7 CL11 UNL     1     -36.654  13.933  -4.618  1.00 20.00    -0.130 Cl
ENDBRANCH   2   6
BRANCH   2   8
HETATM    8  C9  UNL     1     -34.597  15.705  -5.523  1.00 20.00    -0.010 C 
HETATM    9  C3  UNL     1     -33.986  15.163  -6.830  1.00 20.00     0.011 C 
BRANCH   8  10
HETATM   10  C6  UNL     1     -34.431  17.249  -5.475  1.00 20.00     0.000 C 
HETATM   11  C2  UNL     1     -35.748  18.017  -5.547  1.00 20.00     0.005 C 
ENDBRANCH   8  10
ENDBRANCH   2   8
TORSDOF 5
ENDMDL
MODEL 9
REMARK VINA RESULT:      -3.8      1.718      3.091
REMARK  5 active torsions:
REMARK  status: ('A' for Active; 'I' for Inactive)
REMARK    1  A    between atoms: C5_5  and  C7_7 
REMARK    2  A    between atoms: C6_6  and  C9_9 
REMARK    3  A    between atoms: C7_7  and  C10_10 
REMARK    4  A    between atoms: C8_8  and  C10_10 
REMARK    5  A    between atoms: C9_9  and  C10_10 
ROOT
HETATM    1  C4  UNL     1     -36.895  16.926  -3.560  1.00 20.00     0.016 C 
HETATM    2  C10 UNL     1     -35.785  15.925  -3.962  1.00 20.00    -0.028 C 
ENDROOT
BRANCH   2   3
HETATM    3  C7  UNL     1     -35.076  16.514  -5.229  1.00 20.00     0.010 C 
BRANCH   3   4
HETATM    4  C5  UNL     1     -35.251  15.709  -6.521  1.00 20.00    -0.004 C 
HETATM    5  C1  UNL     1     -33.930  15.100  -6.973  1.00 20.00     0.005 C 
ENDBRANCH   3   4
ENDBRANCH   2   3
BRANCH   2   6
HETATM    6  C8  UNL     1     -36.446  14.548  -4.291  1.00 20.00     0.124 C 
HETATM    7 CL11 UNL     1     -35.372  13.133  -4.102  1.00 20.00    -0.130 Cl
ENDBRANCH   2   6
BRANCH   2   8
HETATM    8  C9  UNL     1     -34.758  15.719  -2.760  1.00 20.00    -0.010 C 
HETATM    9  C3  UNL     1     -35.183  16.433  -1.462  1.00 20.00     0.011 C 
BRANCH   8  10
HETATM   10  C6  UNL     1     -33.300  16.119  -3.117  1.00 20.00     0.000 C 
HETATM   11  C2  UNL     1     -32.791  17.346  -2.365  1.00 20.00     0.005 C 
ENDBRANCH   8  10
ENDBRANCH   2   8
TORSDOF 5
ENDMDL
