MODEL 1
REMARK VINA RESULT:      -4.5      0.000      0.000
REMARK  2 active torsions:
REMARK  status: ('A' for Active; 'I' for Inactive)
REMARK    1  A    between atoms: C3_3  and  C8_8 
REMARK    2  A    between atoms: C8_8  and  C9_9 
ROOT
HETATM    1  C1  UNL     1     -33.207   5.305   2.564  1.00 20.00     0.302 C 
HETATM    2  C2  UNL     1     -34.573   5.612   4.573  1.00 20.00     0.244 C 
HETATM    3  C3  UNL     1     -33.280   6.829   2.564  1.00 20.00     0.150 C 
HETATM    4  C4  UNL     1     -33.386   6.518   4.955  1.00 20.00     0.150 C 
HETATM    5  C5  UNL     1     -35.074   4.744   5.724  1.00 20.00     0.045 C 
HETATM    6  C6  UNL     1     -33.684   7.444   6.131  1.00 20.00     0.042 C 
HETATM    7  N10 UNL     1     -34.194   4.714   3.468  1.00 20.00     0.092 N 
HETATM    8  O11 UNL     1     -33.000   7.365   3.861  1.00 20.00    -0.377 OA
HETATM    9  H30 UNL     1     -35.036   4.462   2.928  1.00 20.00     0.316 HD
ENDROOT
BRANCH   3  10
HETATM   10  C8  UNL     1     -32.275   7.435   1.592  1.00 20.00     0.033 C 
BRANCH  10  11
HETATM   11  C9  UNL     1     -32.756   8.785   1.072  1.00 20.00    -0.002 C 
HETATM   12  C7  UNL     1     -33.358   8.657  -0.318  1.00 20.00     0.005 C 
ENDBRANCH  10  11
ENDBRANCH   3  10
TORSDOF 2
ENDMDL
MODEL 2
REMARK VINA RESULT:      -4.3     11.068     11.839
REMARK  2 active torsions:
REMARK  status: ('A' for Active; 'I' for Inactive)
REMARK    1  A    between atoms: C3_3  and  C8_8 
REMARK    2  A    between atoms: C8_8  and  C9_9 
ROOT
HETATM    1  C1  UNL     1     -35.744  16.928  -2.402  1.00 20.00     0.302 C 
HETATM    2  C2  UNL     1     -35.385  14.745  -3.453  1.00 20.00     0.244 C 
HETATM    3  C3  UNL     1     -34.367  16.616  -1.823  1.00 20.00     0.150 C 
HETATM    4  C4  UNL     1     -34.092  15.444  -3.916  1.00 20.00     0.150 C 
HETATM    5  C5  UNL     1     -36.051  13.908  -4.542  1.00 20.00     0.045 C 
HETATM    6  C6  UNL     1     -33.041  14.479  -4.458  1.00 20.00     0.042 C 
HETATM    7  N10 UNL     1     -36.367  15.742  -2.991  1.00 20.00     0.092 N 
HETATM    8  O11 UNL     1     -33.466  16.157  -2.837  1.00 20.00    -0.377 OA
HETATM    9  H30 UNL     1     -36.993  15.309  -2.294  1.00 20.00     0.316 HD
ENDROOT
BRANCH   3  10
HETATM   10  C8  UNL     1     -33.742  17.846  -1.179  1.00 20.00     0.033 C 
BRANCH  10  11
HETATM   11  C9  UNL     1     -32.288  18.014  -1.604  1.00 20.00    -0.002 C 
HETATM   12  C7  UNL     1     -31.407  18.383  -0.421  1.00 20.00     0.005 C 
ENDBRANCH  10  11
ENDBRANCH   3  10
TORSDOF 2
ENDMDL
MODEL 3
REMARK VINA RESULT:      -4.1     11.306     12.878
REMARK  2 active torsions:
REMARK  status: ('A' for Active; 'I' for Inactive)
REMARK    1  A    between atoms: C3_3  and  C8_8 
REMARK    2  A    between atoms: C8_8  and  C9_9 
ROOT
HETATM    1  C1  UNL     1     -33.636  14.694  -4.264  1.00 20.00     0.302 C 
HETATM    2  C2  UNL     1     -34.155  15.658  -6.455  1.00 20.00     0.244 C 
HETATM    3  C3  UNL     1     -34.462  15.892  -3.802  1.00 20.00     0.150 C 
HETATM    4  C4  UNL     1     -35.590  15.537  -5.906  1.00 20.00     0.150 C 
HETATM    5  C5  UNL     1     -34.024  15.239  -7.917  1.00 20.00     0.045 C 
HETATM    6  C6  UNL     1     -36.615  16.336  -6.705  1.00 20.00     0.042 C 
HETATM    7  N10 UNL     1     -33.234  14.822  -5.665  1.00 20.00     0.092 N 
HETATM    8  O11 UNL     1     -35.675  16.010  -4.552  1.00 20.00    -0.377 OA
HETATM    9  H30 UNL     1     -32.285  15.224  -5.708  1.00 20.00     0.316 HD
ENDROOT
BRANCH   3  10
HETATM   10  C8  UNL     1     -34.843  15.770  -2.332  1.00 20.00     0.033 C 
BRANCH  10  11
HETATM   11  C9  UNL     1     -34.414  17.004  -1.547  1.00 20.00    -0.002 C 
HETATM   12  C7  UNL     1     -33.043  17.490  -1.989  1.00 20.00     0.005 C 
ENDBRANCH  10  11
ENDBRANCH   3  10
TORSDOF 2
ENDMDL
MODEL 4
REMARK VINA RESULT:      -4.1     11.245     12.167
REMARK  2 active torsions:
REMARK  status: ('A' for Active; 'I' for Inactive)
REMARK    1  A    between atoms: C3_3  and  C8_8 
REMARK    2  A    between atoms: C8_8  and  C9_9 
ROOT
HETATM    1  C1  UNL     1     -33.454  16.499  -3.038  1.00 20.00     0.302 C 
HETATM    2  C2  UNL     1     -34.441  15.581  -5.083  1.00 20.00     0.244 C 
HETATM    3  C3  UNL     1     -34.921  16.516  -2.616  1.00 20.00     0.150 C 
HETATM    4  C4  UNL     1     -35.043  14.591  -4.067  1.00 20.00     0.150 C 
HETATM    5  C5  UNL     1     -33.940  14.916  -6.362  1.00 20.00     0.045 C 
HETATM    6  C6  UNL     1     -36.193  13.764  -4.634  1.00 20.00     0.042 C 
HETATM    7  N10 UNL     1     -33.307  16.305  -4.481  1.00 20.00     0.092 N 
HETATM    8  O11 UNL     1     -35.565  15.274  -2.916  1.00 20.00    -0.377 OA
HETATM    9  H30 UNL     1     -33.208  17.225  -4.936  1.00 20.00     0.316 HD
ENDROOT
BRANCH   3  10
HETATM   10  C8  UNL     1     -35.066  16.758  -1.119  1.00 20.00     0.033 C 
BRANCH  10  11
HETATM   11  C9  UNL     1     -34.114  17.848  -0.641  1.00 20.00    -0.002 C 
HETATM   12  C7  UNL     1     -34.258  18.090   0.853  1.00 20.00     0.005 C 
ENDBRANCH  10  11
ENDBRANCH   3  10
TORSDOF 2
ENDMDL
MODEL 5
REMARK VINA RESULT:      -4.0     11.177     12.797
REMARK  2 active torsions:
REMARK  status: ('A' for Active; 'I' for Inactive)
REMARK    1  A    between atoms: C3_3  and  C8_8 
REMARK    2  A    between atoms: C8_8  and  C9_9 
ROOT
HETATM    1  C1  UNL     1     -33.016  18.055  -3.617  1.00 20.00     0.302 C 
HETATM    2  C2  UNL     1     -34.420  16.532  -4.922  1.00 20.00     0.244 C 
HETATM    3  C3  UNL     1     -33.842  17.467  -2.477  1.00 20.00     0.150 C 
HETATM    4  C4  UNL     1     -33.861  15.520  -3.903  1.00 20.00     0.150 C 
HETATM    5  C5  UNL     1     -34.459  16.000  -6.352  1.00 20.00     0.045 C 
HETATM    6  C6  UNL     1     -34.623  14.198  -3.879  1.00 20.00     0.042 C 
HETATM    7  N10 UNL     1     -33.605  17.759  -4.923  1.00 20.00     0.092 N 
HETATM    8  O11 UNL     1     -33.914  16.041  -2.565  1.00 20.00    -0.377 OA
HETATM    9  H30 UNL     1     -34.189  18.558  -5.218  1.00 20.00     0.316 HD
ENDROOT
BRANCH   3  10
HETATM   10  C8  UNL     1     -33.244  17.813  -1.120  1.00 20.00     0.033 C 
BRANCH  10  11
HETATM   11  C9  UNL     1     -31.816  18.329  -1.262  1.00 20.00    -0.002 C 
HETATM   12  C7  UNL     1     -31.138  18.455   0.093  1.00 20.00     0.005 C 
ENDBRANCH  10  11
ENDBRANCH   3  10
TORSDOF 2
ENDMDL
MODEL 6
REMARK VINA RESULT:      -4.0     11.132     11.832
REMARK  2 active torsions:
REMARK  status: ('A' for Active; 'I' for Inactive)
REMARK    1  A    between atoms: C3_3  and  C8_8 
REMARK    2  A    between atoms: C8_8  and  C9_9 
ROOT
HETATM    1  C1  UNL     1     -33.965  15.735  -4.548  1.00 20.00     0.302 C 
HETATM    2  C2  UNL     1     -33.271  16.683  -2.399  1.00 20.00     0.244 C 
HETATM    3  C3  UNL     1     -34.719  14.786  -3.621  1.00 20.00     0.150 C 
HETATM    4  C4  UNL     1     -34.797  16.732  -2.194  1.00 20.00     0.150 C 
HETATM    5  C5  UNL     1     -32.548  17.938  -1.915  1.00 20.00     0.045 C 
HETATM    6  C6  UNL     1     -35.207  16.965  -0.743  1.00 20.00     0.042 C 
HETATM    7  N10 UNL     1     -32.952  16.507  -3.827  1.00 20.00     0.092 N 
HETATM    8  O11 UNL     1     -35.419  15.502  -2.598  1.00 20.00    -0.377 OA
HETATM    9  H30 UNL     1     -32.040  16.033  -3.919  1.00 20.00     0.316 HD
ENDROOT
BRANCH   3  10
HETATM   10  C8  UNL     1     -35.745  13.959  -4.385  1.00 20.00     0.033 C 
BRANCH  10  11
HETATM   11  C9  UNL     1     -37.151  14.521  -4.206  1.00 20.00    -0.002 C 
HETATM   12  C7  UNL     1     -37.479  15.542  -5.284  1.00 20.00     0.005 C 
ENDBRANCH  10  11
ENDBRANCH   3  10
TORSDOF 2
ENDMDL
MODEL 7
REMARK VINA RESULT:      -3.9     10.998     11.821
REMARK  2 active torsions:
REMARK  status: ('A' for Active; 'I' for Inactive)
REMARK    1  A    between atoms: C3_3  and  C8_8 
REMARK    2  A    between atoms: C8_8  and  C9_9 
ROOT
HETATM    1  C1  UNL     1     -35.662  16.954  -2.377  1.00 20.00     0.302 C 
HETATM    2  C2  UNL     1     -35.331  14.760  -3.413  1.00 20.00     0.244 C 
HETATM    3  C3  UNL     1     -34.283  16.633  -1.806  1.00 20.00     0.150 C 
HETATM    4  C4  UNL     1     -34.035  15.442  -3.890  1.00 20.00     0.150 C 
HETATM    5  C5  UNL     1     -36.013  13.920  -4.490  1.00 20.00     0.045 C 
HETATM    6  C6  UNL     1     -32.998  14.463  -4.432  1.00 20.00     0.042 C 
HETATM    7  N10 UNL     1     -36.300  15.769  -2.952  1.00 20.00     0.092 N 
HETATM    8  O11 UNL     1     -33.395  16.157  -2.822  1.00 20.00    -0.377 OA
HETATM    9  H30 UNL     1     -36.925  15.348  -2.247  1.00 20.00     0.316 HD
ENDROOT
BRANCH   3  10
HETATM   10  C8  UNL     1     -33.642  17.862  -1.175  1.00 20.00     0.033 C 
BRANCH  10  11
HETATM   11  C9  UNL     1     -34.569  18.502  -0.147  1.00 20.00    -0.002 C 
HETATM   12  C7  UNL     1     -34.287  17.977   1.251  1.00 20.00     0.005 C 
ENDBRANCH  10  11
ENDBRANCH   3  10
TORSDOF 2
ENDMDL
MODEL 8
REMARK VINA RESULT:      -3.9     10.921     11.920
REMARK  2 active torsions:
REMARK  status: ('A' for Active; 'I' for Inactive)
REMARK    1  A    between atoms: C3_3  and  C8_8 
REMARK    2  A    between atoms: C8_8  and  C9_9 
ROOT
HETATM    1  C1  UNL     1     -32.988  17.503  -3.403  1.00 20.00     0.302 C 
HETATM    2  C2  UNL     1     -33.193  17.887  -0.993  1.00 20.00     0.244 C 
HETATM    3  C3  UNL     1     -33.524  16.133  -2.994  1.00 20.00     0.150 C 
HETATM    4  C4  UNL     1     -34.633  17.420  -1.278  1.00 20.00     0.150 C 
HETATM    5  C5  UNL     1     -33.115  19.079  -0.042  1.00 20.00     0.045 C 
HETATM    6  C6  UNL     1     -35.413  17.053  -0.019  1.00 20.00     0.042 C 
HETATM    7  N10 UNL     1     -32.521  18.270  -2.247  1.00 20.00     0.092 N 
HETATM    8  O11 UNL     1     -34.648  16.253  -2.117  1.00 20.00    -0.377 OA
HETATM    9  H30 UNL     1     -31.503  18.138  -2.145  1.00 20.00     0.316 HD
ENDROOT
BRANCH   3  10
HETATM   10  C8  UNL     1     -33.972  15.327  -4.205  1.00 20.00     0.033 C 
BRANCH  10  11
HETATM   11  C9  UNL     1     -34.684  14.046  -3.783  1.00 20.00    -0.002 C 
HETATM   12  C7  UNL     1     -36.046  13.929  -4.448  1.00 20.00     0.005 C 
ENDBRANCH  10  11
ENDBRANCH   3  10
TORSDOF 2
ENDMDL
MODEL 9
REMARK VINA RESULT:      -3.8      9.824     10.510
REMARK  2 active torsions:
REMARK  status: ('A' for Active; 'I' for Inactive)
REMARK    1  A    between atoms: C3_3  and  C8_8 
REMARK    2  A    between atoms: C8_8  and  C9_9 
ROOT
HETATM    1  C1  UNL     1     -41.239   4.974  -1.259  1.00 20.00     0.302 C 
HETATM    2  C2  UNL     1     -41.845   6.974   0.018  1.00 20.00     0.244 C 
HETATM    3  C3  UNL     1     -42.739   4.982  -1.539  1.00 20.00     0.150 C 
HETATM    4  C4  UNL     1     -42.452   7.371  -1.341  1.00 20.00     0.150 C 
HETATM    5  C5  UNL     1     -41.112   8.116   0.718  1.00 20.00     0.045 C 
HETATM    6  C6  UNL     1     -43.417   8.549  -1.254  1.00 20.00     0.042 C 
HETATM    7  N10 UNL     1     -40.889   5.866  -0.153  1.00 20.00     0.092 N 
HETATM    8  O11 UNL     1     -43.191   6.285  -1.923  1.00 20.00    -0.377 OA
HETATM    9  H30 UNL     1     -40.840   5.317   0.720  1.00 20.00     0.316 HD
ENDROOT
BRANCH   3  10
HETATM   10  C8  UNL     1     -43.101   4.023  -2.665  1.00 20.00     0.033 C 
BRANCH  10  11
HETATM   11  C9  UNL     1     -41.917   3.136  -3.035  1.00 20.00    -0.002 C 
HETATM   12  C7  UNL     1     -41.982   2.711  -4.493  1.00 20.00     0.005 C 
ENDBRANCH  10  11
ENDBRANCH   3  10
TORSDOF 2
ENDMDL
