MODEL 1
REMARK VINA RESULT:      -3.9      0.000      0.000
REMARK  6 active torsions:
REMARK  status: ('A' for Active; 'I' for Inactive)
REMARK    1  A    between atoms: C5_5  and  C7_7 
REMARK    2  A    between atoms: C6_6  and  C11_11 
REMARK    3  A    between atoms: C7_7  and  C8_8 
REMARK    4  A    between atoms: C8_8  and  C11_11 
REMARK    5  A    between atoms: C9_9  and  C11_11 
REMARK    6  A    between atoms: C10_10  and  C11_11 
ROOT
HETATM    1  C11 UNL     1     -34.408  16.456  -2.788  1.00 20.00    -0.025 C 
ENDROOT
BRANCH   1   2
HETATM    2  C6  UNL     1     -35.064  16.542  -1.357  1.00 20.00     0.006 C 
HETATM    3  C2  UNL     1     -36.101  17.642  -1.150  1.00 20.00     0.006 C 
ENDBRANCH   1   2
BRANCH   1   4
HETATM    4  C8  UNL     1     -32.907  16.885  -2.645  1.00 20.00     0.011 C 
BRANCH   4   5
HETATM    5  C7  UNL     1     -32.652  18.307  -2.115  1.00 20.00     0.000 C 
BRANCH   5   6
HETATM    6  C5  UNL     1     -31.703  18.282  -0.914  1.00 20.00    -0.005 C 
HETATM    7  C1  UNL     1     -32.443  18.546   0.387  1.00 20.00     0.005 C 
ENDBRANCH   5   6
ENDBRANCH   4   5
ENDBRANCH   1   4
BRANCH   1   8
HETATM    8  C9  UNL     1     -35.213  17.435  -3.706  1.00 20.00     0.124 C 
HETATM    9 CL12 UNL     1     -34.440  17.887  -5.249  1.00 20.00    -0.130 Cl
ENDBRANCH   1   8
BRANCH   1  10
HETATM   10  C10 UNL     1     -34.510  14.966  -3.338  1.00 20.00    -0.013 C 
HETATM   11  C3  UNL     1     -35.869  14.631  -3.978  1.00 20.00     0.010 C 
HETATM   12  C4  UNL     1     -33.414  14.546  -4.329  1.00 20.00     0.010 C 
ENDBRANCH   1  10
TORSDOF 6
ENDMDL
MODEL 2
REMARK VINA RESULT:      -3.9      2.087      3.612
REMARK  6 active torsions:
REMARK  status: ('A' for Active; 'I' for Inactive)
REMARK    1  A    between atoms: C5_5  and  C7_7 
REMARK    2  A    between atoms: C6_6  and  C11_11 
REMARK    3  A    between atoms: C7_7  and  C8_8 
REMARK    4  A    between atoms: C8_8  and  C11_11 
REMARK    5  A    between atoms: C9_9  and  C11_11 
REMARK    6  A    between atoms: C10_10  and  C11_11 
ROOT
HETATM    1  C11 UNL     1     -35.509  15.040  -4.311  1.00 20.00    -0.025 C 
ENDROOT
BRANCH   1   2
HETATM    2  C6  UNL     1     -34.287  14.202  -3.775  1.00 20.00     0.006 C 
HETATM    3  C2  UNL     1     -32.954  14.413  -4.486  1.00 20.00     0.006 C 
ENDBRANCH   1   2
BRANCH   1   4
HETATM    4  C8  UNL     1     -35.880  16.091  -3.208  1.00 20.00     0.011 C 
BRANCH   4   5
HETATM    5  C7  UNL     1     -35.034  16.058  -1.924  1.00 20.00     0.000 C 
BRANCH   5   6
HETATM    6  C5  UNL     1     -34.327  17.397  -1.699  1.00 20.00    -0.005 C 
HETATM    7  C1  UNL     1     -32.927  17.394  -2.291  1.00 20.00     0.005 C 
ENDBRANCH   5   6
ENDBRANCH   4   5
ENDBRANCH   1   4
BRANCH   1   8
HETATM    8  C9  UNL     1     -36.670  14.022  -4.566  1.00 20.00     0.124 C 
HETATM    9 CL12 UNL     1     -38.322  14.609  -4.238  1.00 20.00    -0.130 Cl
ENDBRANCH   1   8
BRANCH   1  10
HETATM   10  C10 UNL     1     -35.106  15.775  -5.664  1.00 20.00    -0.013 C 
HETATM   11  C3  UNL     1     -35.721  15.139  -6.924  1.00 20.00     0.010 C 
HETATM   12  C4  UNL     1     -35.397  17.282  -5.716  1.00 20.00     0.010 C 
ENDBRANCH   1  10
TORSDOF 6
ENDMDL
MODEL 3
REMARK VINA RESULT:      -3.8      1.248      2.693
REMARK  6 active torsions:
REMARK  status: ('A' for Active; 'I' for Inactive)
REMARK    1  A    between atoms: C5_5  and  C7_7 
REMARK    2  A    between atoms: C6_6  and  C11_11 
REMARK    3  A    between atoms: C7_7  and  C8_8 
REMARK    4  A    between atoms: C8_8  and  C11_11 
REMARK    5  A    between atoms: C9_9  and  C11_11 
REMARK    6  A    between atoms: C10_10  and  C11_11 
ROOT
HETATM    1  C11 UNL     1     -35.286  15.567  -3.986  1.00 20.00    -0.025 C 
ENDROOT
BRANCH   1   2
HETATM    2  C6  UNL     1     -36.257  14.337  -4.153  1.00 20.00     0.006 C 
HETATM    3  C2  UNL     1     -37.739  14.660  -4.314  1.00 20.00     0.006 C 
ENDBRANCH   1   2
BRANCH   1   4
HETATM    4  C8  UNL     1     -34.786  15.574  -2.499  1.00 20.00     0.011 C 
BRANCH   4   5
HETATM    5  C7  UNL     1     -35.277  16.738  -1.621  1.00 20.00     0.000 C 
BRANCH   5   6
HETATM    6  C5  UNL     1     -34.102  17.592  -1.136  1.00 20.00    -0.005 C 
HETATM    7  C1  UNL     1     -32.896  17.452  -2.051  1.00 20.00     0.005 C 
ENDBRANCH   5   6
ENDBRANCH   4   5
ENDBRANCH   1   4
BRANCH   1   8
HETATM    8  C9  UNL     1     -36.121  16.845  -4.330  1.00 20.00     0.124 C 
HETATM    9 CL12 UNL     1     -35.205  18.247  -4.943  1.00 20.00    -0.130 Cl
ENDBRANCH   1   8
BRANCH   1  10
HETATM   10  C10 UNL     1     -34.055  15.421  -4.984  1.00 20.00    -0.013 C 
HETATM   11  C3  UNL     1     -32.936  14.503  -4.461  1.00 20.00     0.010 C 
HETATM   12  C4  UNL     1     -34.403  14.963  -6.408  1.00 20.00     0.010 C 
ENDBRANCH   1  10
TORSDOF 6
ENDMDL
MODEL 4
REMARK VINA RESULT:      -3.8      1.044      4.693
REMARK  6 active torsions:
REMARK  status: ('A' for Active; 'I' for Inactive)
REMARK    1  A    between atoms: C5_5  and  C7_7 
REMARK    2  A    between atoms: C6_6  and  C11_11 
REMARK    3  A    between atoms: C7_7  and  C8_8 
REMARK    4  A    between atoms: C8_8  and  C11_11 
REMARK    5  A    between atoms: C9_9  and  C11_11 
REMARK    6  A    between atoms: C10_10  and  C11_11 
ROOT
HETATM    1  C11 UNL     1     -34.439  16.302  -3.008  1.00 20.00    -0.025 C 
ENDROOT
BRANCH   1   2
HETATM    2  C6  UNL     1     -33.013  16.035  -3.626  1.00 20.00     0.006 C 
HETATM    3  C2  UNL     1     -32.790  14.662  -4.252  1.00 20.00     0.006 C 
ENDBRANCH   1   2
BRANCH   1   4
HETATM    4  C8  UNL     1     -35.228  14.947  -3.043  1.00 20.00     0.011 C 
BRANCH   4   5
HETATM    5  C7  UNL     1     -36.491  14.917  -3.920  1.00 20.00     0.000 C 
BRANCH   5   6
HETATM    6  C5  UNL     1     -36.350  13.893  -5.049  1.00 20.00    -0.005 C 
HETATM    7  C1  UNL     1     -35.800  14.529  -6.315  1.00 20.00     0.005 C 
ENDBRANCH   5   6
ENDBRANCH   4   5
ENDBRANCH   1   4
BRANCH   1   8
HETATM    8  C9  UNL     1     -35.113  17.397  -3.900  1.00 20.00     0.124 C 
HETATM    9 CL12 UNL     1     -34.300  17.769  -5.444  1.00 20.00    -0.130 Cl
ENDBRANCH   1   8
BRANCH   1  10
HETATM   10  C10 UNL     1     -34.289  16.818  -1.510  1.00 20.00    -0.013 C 
HETATM   11  C3  UNL     1     -33.260  17.951  -1.343  1.00 20.00     0.010 C 
HETATM   12  C4  UNL     1     -35.589  17.269  -0.828  1.00 20.00     0.010 C 
ENDBRANCH   1  10
TORSDOF 6
ENDMDL
MODEL 5
REMARK VINA RESULT:      -3.7      1.725      4.252
REMARK  6 active torsions:
REMARK  status: ('A' for Active; 'I' for Inactive)
REMARK    1  A    between atoms: C5_5  and  C7_7 
REMARK    2  A    between atoms: C6_6  and  C11_11 
REMARK    3  A    between atoms: C7_7  and  C8_8 
REMARK    4  A    between atoms: C8_8  and  C11_11 
REMARK    5  A    between atoms: C9_9  and  C11_11 
REMARK    6  A    between atoms: C10_10  and  C11_11 
ROOT
HETATM    1  C11 UNL     1     -34.205  16.505  -3.225  1.00 20.00    -0.025 C 
ENDROOT
BRANCH   1   2
HETATM    2  C6  UNL     1     -35.158  16.070  -2.048  1.00 20.00     0.006 C 
HETATM    3  C2  UNL     1     -35.141  16.949  -0.801  1.00 20.00     0.006 C 
ENDBRANCH   1   2
BRANCH   1   4
HETATM    4  C8  UNL     1     -33.984  15.251  -4.141  1.00 20.00     0.011 C 
BRANCH   4   5
HETATM    5  C7  UNL     1     -34.853  14.020  -3.830  1.00 20.00     0.000 C 
BRANCH   5   6
HETATM    6  C5  UNL     1     -36.056  13.946  -4.775  1.00 20.00    -0.005 C 
HETATM    7  C1  UNL     1     -35.716  14.489  -6.154  1.00 20.00     0.005 C 
ENDBRANCH   5   6
ENDBRANCH   4   5
ENDBRANCH   1   4
BRANCH   1   8
HETATM    8  C9  UNL     1     -32.872  16.990  -2.563  1.00 20.00     0.124 C 
HETATM    9 CL12 UNL     1     -32.552  18.744  -2.624  1.00 20.00    -0.130 Cl
ENDBRANCH   1   8
BRANCH   1  10
HETATM   10  C10 UNL     1     -34.876  17.686  -4.054  1.00 20.00    -0.013 C 
HETATM   11  C3  UNL     1     -34.347  17.815  -5.494  1.00 20.00     0.010 C 
HETATM   12  C4  UNL     1     -36.410  17.662  -4.124  1.00 20.00     0.010 C 
ENDBRANCH   1  10
TORSDOF 6
ENDMDL
MODEL 6
REMARK VINA RESULT:      -3.7      1.805      3.467
REMARK  6 active torsions:
REMARK  status: ('A' for Active; 'I' for Inactive)
REMARK    1  A    between atoms: C5_5  and  C7_7 
REMARK    2  A    between atoms: C6_6  and  C11_11 
REMARK    3  A    between atoms: C7_7  and  C8_8 
REMARK    4  A    between atoms: C8_8  and  C11_11 
REMARK    5  A    between atoms: C9_9  and  C11_11 
REMARK    6  A    between atoms: C10_10  and  C11_11 
ROOT
HETATM    1  C11 UNL     1     -35.129  15.866  -3.858  1.00 20.00    -0.025 C 
ENDROOT
BRANCH   1   2
HETATM    2  C6  UNL     1     -34.165  15.206  -4.916  1.00 20.00     0.006 C 
HETATM    3  C2  UNL     1     -32.907  14.541  -4.366  1.00 20.00     0.006 C 
ENDBRANCH   1   2
BRANCH   1   4
HETATM    4  C8  UNL     1     -34.389  15.857  -2.475  1.00 20.00     0.011 C 
BRANCH   4   5
HETATM    5  C7  UNL     1     -34.959  16.788  -1.391  1.00 20.00     0.000 C 
BRANCH   5   6
HETATM    6  C5  UNL     1     -33.910  17.807  -0.937  1.00 20.00    -0.005 C 
HETATM    7  C1  UNL     1     -32.656  17.735  -1.793  1.00 20.00     0.005 C 
ENDBRANCH   5   6
ENDBRANCH   4   5
ENDBRANCH   1   4
BRANCH   1   8
HETATM    8  C9  UNL     1     -36.428  14.994  -3.833  1.00 20.00     0.124 C 
HETATM    9 CL12 UNL     1     -36.362  13.451  -4.727  1.00 20.00    -0.130 Cl
ENDBRANCH   1   8
BRANCH   1  10
HETATM   10  C10 UNL     1     -35.469  17.358  -4.296  1.00 20.00    -0.013 C 
HETATM   11  C3  UNL     1     -34.395  18.002  -5.191  1.00 20.00     0.010 C 
HETATM   12  C4  UNL     1     -36.827  17.557  -4.984  1.00 20.00     0.010 C 
ENDBRANCH   1  10
TORSDOF 6
ENDMDL
MODEL 7
REMARK VINA RESULT:      -3.7      1.336      4.184
REMARK  6 active torsions:
REMARK  status: ('A' for Active; 'I' for Inactive)
REMARK    1  A    between atoms: C5_5  and  C7_7 
REMARK    2  A    between atoms: C6_6  and  C11_11 
REMARK    3  A    between atoms: C7_7  and  C8_8 
REMARK    4  A    between atoms: C8_8  and  C11_11 
REMARK    5  A    between atoms: C9_9  and  C11_11 
REMARK    6  A    between atoms: C10_10  and  C11_11 
ROOT
HETATM    1  C11 UNL     1     -34.368  17.422  -1.636  1.00 20.00    -0.025 C 
ENDROOT
BRANCH   1   2
HETATM    2  C6  UNL     1     -32.862  17.832  -1.424  1.00 20.00     0.006 C 
HETATM    3  C2  UNL     1     -32.411  19.130  -2.088  1.00 20.00     0.006 C 
ENDBRANCH   1   2
BRANCH   1   4
HETATM    4  C8  UNL     1     -34.380  16.037  -2.371  1.00 20.00     0.011 C 
BRANCH   4   5
HETATM    5  C7  UNL     1     -33.269  15.807  -3.410  1.00 20.00     0.000 C 
BRANCH   5   6
HETATM    6  C5  UNL     1     -33.579  14.588  -4.284  1.00 20.00    -0.005 C 
HETATM    7  C1  UNL     1     -35.005  14.103  -4.079  1.00 20.00     0.005 C 
ENDBRANCH   5   6
ENDBRANCH   4   5
ENDBRANCH   1   4
BRANCH   1   8
HETATM    8  C9  UNL     1     -35.020  18.551  -2.501  1.00 20.00     0.124 C 
HETATM    9 CL12 UNL     1     -36.099  18.016  -3.817  1.00 20.00    -0.130 Cl
ENDBRANCH   1   8
BRANCH   1  10
HETATM   10  C10 UNL     1     -35.099  17.308  -0.227  1.00 20.00    -0.013 C 
HETATM   11  C3  UNL     1     -34.317  17.951   0.932  1.00 20.00     0.010 C 
HETATM   12  C4  UNL     1     -36.534  17.852  -0.175  1.00 20.00     0.010 C 
ENDBRANCH   1  10
TORSDOF 6
ENDMDL
MODEL 8
REMARK VINA RESULT:      -3.7      1.528      2.834
REMARK  6 active torsions:
REMARK  status: ('A' for Active; 'I' for Inactive)
REMARK    1  A    between atoms: C5_5  and  C7_7 
REMARK    2  A    between atoms: C6_6  and  C11_11 
REMARK    3  A    between atoms: C7_7  and  C8_8 
REMARK    4  A    between atoms: C8_8  and  C11_11 
REMARK    5  A    between atoms: C9_9  and  C11_11 
REMARK    6  A    between atoms: C10_10  and  C11_11 
ROOT
HETATM    1  C11 UNL     1     -34.700  15.688  -4.342  1.00 20.00    -0.025 C 
ENDROOT
BRANCH   1   2
HETATM    2  C6  UNL     1     -34.953  17.061  -5.073  1.00 20.00     0.006 C 
HETATM    3  C2  UNL     1     -33.890  18.139  -4.880  1.00 20.00     0.006 C 
ENDBRANCH   1   2
BRANCH   1   4
HETATM    4  C8  UNL     1     -33.983  16.002  -2.983  1.00 20.00     0.011 C 
BRANCH   4   5
HETATM    5  C7  UNL     1     -34.898  16.324  -1.789  1.00 20.00     0.000 C 
BRANCH   5   6
HETATM    6  C5  UNL     1     -34.372  17.528  -1.003  1.00 20.00    -0.005 C 
HETATM    7  C1  UNL     1     -32.933  17.848  -1.371  1.00 20.00     0.005 C 
ENDBRANCH   5   6
ENDBRANCH   4   5
ENDBRANCH   1   4
BRANCH   1   8
HETATM    8  C9  UNL     1     -33.800  14.835  -5.296  1.00 20.00     0.124 C 
HETATM    9 CL12 UNL     1     -33.953  15.174  -7.041  1.00 20.00    -0.130 Cl
ENDBRANCH   1   8
BRANCH   1  10
HETATM   10  C10 UNL     1     -36.087  14.953  -4.081  1.00 20.00    -0.013 C 
HETATM   11  C3  UNL     1     -37.302  15.690  -4.672  1.00 20.00     0.010 C 
HETATM   12  C4  UNL     1     -36.163  13.490  -4.541  1.00 20.00     0.010 C 
ENDBRANCH   1  10
TORSDOF 6
ENDMDL
MODEL 9
REMARK VINA RESULT:      -3.7      2.213      4.627
REMARK  6 active torsions:
REMARK  status: ('A' for Active; 'I' for Inactive)
REMARK    1  A    between atoms: C5_5  and  C7_7 
REMARK    2  A    between atoms: C6_6  and  C11_11 
REMARK    3  A    between atoms: C7_7  and  C8_8 
REMARK    4  A    between atoms: C8_8  and  C11_11 
REMARK    5  A    between atoms: C9_9  and  C11_11 
REMARK    6  A    between atoms: C10_10  and  C11_11 
ROOT
HETATM    1  C11 UNL     1     -34.720  15.680  -3.676  1.00 20.00    -0.025 C 
ENDROOT
BRANCH   1   2
HETATM    2  C6  UNL     1     -35.032  14.137  -3.752  1.00 20.00     0.006 C 
HETATM    3  C2  UNL     1     -36.249  13.729  -4.578  1.00 20.00     0.006 C 
ENDBRANCH   1   2
BRANCH   1   4
HETATM    4  C8  UNL     1     -35.371  16.354  -4.933  1.00 20.00     0.011 C 
BRANCH   4   5
HETATM    5  C7  UNL     1     -34.427  17.168  -5.835  1.00 20.00     0.000 C 
BRANCH   5   6
HETATM    6  C5  UNL     1     -34.467  16.653  -7.276  1.00 20.00    -0.005 C 
HETATM    7  C1  UNL     1     -33.956  15.225  -7.373  1.00 20.00     0.005 C 
ENDBRANCH   5   6
ENDBRANCH   4   5
ENDBRANCH   1   4
BRANCH   1   8
HETATM    8  C9  UNL     1     -33.162  15.819  -3.676  1.00 20.00     0.124 C 
HETATM    9 CL12 UNL     1     -32.243  14.426  -4.306  1.00 20.00    -0.130 Cl
ENDBRANCH   1   8
BRANCH   1  10
HETATM   10  C10 UNL     1     -35.334  16.288  -2.340  1.00 20.00    -0.013 C 
HETATM   11  C3  UNL     1     -34.305  17.020  -1.460  1.00 20.00     0.010 C 
HETATM   12  C4  UNL     1     -36.535  17.227  -2.525  1.00 20.00     0.010 C 
ENDBRANCH   1  10
TORSDOF 6
ENDMDL
