MODEL 1
REMARK VINA RESULT:      -3.8      0.000      0.000
REMARK  4 active torsions:
REMARK  status: ('A' for Active; 'I' for Inactive)
REMARK    1  A    between atoms: C1_1  and  C9_9 
REMARK    2  A    between atoms: C1_1  and  C10_10 
REMARK    3  A    between atoms: C7_7  and  C9_9 
REMARK    4  A    between atoms: C8_8  and  C9_9 
ROOT
HETATM    1  C1  UNL     1     -35.451  16.087  -4.334  1.00 20.00     0.138 C 
HETATM    2  O11 UNL     1     -35.326  17.271  -4.663  1.00 20.00    -0.297 OA
ENDROOT
BRANCH   1   3
HETATM    3  C9  UNL     1     -34.672  15.543  -3.128  1.00 20.00     0.055 C 
BRANCH   3   4
HETATM    4  C7  UNL     1     -33.168  15.670  -3.436  1.00 20.00     0.007 C 
HETATM    5  C2  UNL     1     -32.659  14.606  -4.399  1.00 20.00     0.006 C 
ENDBRANCH   3   4
BRANCH   3   6
HETATM    6  C8  UNL     1     -35.054  16.305  -1.845  1.00 20.00     0.007 C 
HETATM    7  C3  UNL     1     -34.001  17.317  -1.414  1.00 20.00     0.006 C 
ENDBRANCH   3   6
ENDBRANCH   1   3
BRANCH   1   8
HETATM    8  C10 UNL     1     -36.370  15.127  -5.124  1.00 20.00     0.010 C 
HETATM    9  C4  UNL     1     -37.823  15.616  -5.091  1.00 20.00     0.022 C 
HETATM   10  C5  UNL     1     -35.882  15.012  -6.575  1.00 20.00     0.022 C 
HETATM   11  C6  UNL     1     -36.317  13.728  -4.482  1.00 20.00     0.022 C 
ENDBRANCH   1   8
TORSDOF 4
ENDMDL
MODEL 2
REMARK VINA RESULT:      -3.7      1.534      3.851
REMARK  4 active torsions:
REMARK  status: ('A' for Active; 'I' for Inactive)
REMARK    1  A    between atoms: C1_1  and  C9_9 
REMARK    2  A    between atoms: C1_1  and  C10_10 
REMARK    3  A    between atoms: C7_7  and  C9_9 
REMARK    4  A    between atoms: C8_8  and  C9_9 
ROOT
HETATM    1  C1  UNL     1     -34.835  14.936  -4.142  1.00 20.00     0.138 C 
HETATM    2  O11 UNL     1     -34.175  13.893  -4.100  1.00 20.00    -0.297 OA
ENDROOT
BRANCH   1   3
HETATM    3  C9  UNL     1     -36.066  15.024  -5.056  1.00 20.00     0.055 C 
BRANCH   3   4
HETATM    4  C7  UNL     1     -35.658  14.522  -6.454  1.00 20.00     0.007 C 
HETATM    5  C2  UNL     1     -34.664  15.438  -7.155  1.00 20.00     0.006 C 
ENDBRANCH   3   4
BRANCH   3   6
HETATM    6  C8  UNL     1     -37.234  14.202  -4.477  1.00 20.00     0.007 C 
HETATM    7  C3  UNL     1     -38.495  15.027  -4.256  1.00 20.00     0.006 C 
ENDBRANCH   3   6
ENDBRANCH   1   3
BRANCH   1   8
HETATM    8  C10 UNL     1     -34.441  16.172  -3.301  1.00 20.00     0.010 C 
HETATM    9  C4  UNL     1     -35.052  16.089  -1.897  1.00 20.00     0.022 C 
HETATM   10  C5  UNL     1     -32.912  16.274  -3.208  1.00 20.00     0.022 C 
HETATM   11  C6  UNL     1     -34.973  17.445  -3.984  1.00 20.00     0.022 C 
ENDBRANCH   1   8
TORSDOF 4
ENDMDL
MODEL 3
REMARK VINA RESULT:      -3.7      1.881      2.900
REMARK  4 active torsions:
REMARK  status: ('A' for Active; 'I' for Inactive)
REMARK    1  A    between atoms: C1_1  and  C9_9 
REMARK    2  A    between atoms: C1_1  and  C10_10 
REMARK    3  A    between atoms: C7_7  and  C9_9 
REMARK    4  A    between atoms: C8_8  and  C9_9 
ROOT
HETATM    1  C1  UNL     1     -34.333  15.435  -5.838  1.00 20.00     0.138 C 
HETATM    2  O11 UNL     1     -33.597  14.646  -6.439  1.00 20.00    -0.297 OA
ENDROOT
BRANCH   1   3
HETATM    3  C9  UNL     1     -34.455  15.354  -4.309  1.00 20.00     0.055 C 
BRANCH   3   4
HETATM    4  C7  UNL     1     -34.967  13.947  -3.946  1.00 20.00     0.007 C 
HETATM    5  C2  UNL     1     -36.351  13.648  -4.504  1.00 20.00     0.006 C 
ENDBRANCH   3   4
BRANCH   3   6
HETATM    6  C8  UNL     1     -33.100  15.655  -3.639  1.00 20.00     0.007 C 
HETATM    7  C3  UNL     1     -33.160  16.828  -2.670  1.00 20.00     0.006 C 
ENDBRANCH   3   6
ENDBRANCH   1   3
BRANCH   1   8
HETATM    8  C10 UNL     1     -35.155  16.504  -6.596  1.00 20.00     0.010 C 
HETATM    9  C4  UNL     1     -34.230  17.450  -7.370  1.00 20.00     0.022 C 
HETATM   10  C5  UNL     1     -36.139  15.821  -7.555  1.00 20.00     0.022 C 
HETATM   11  C6  UNL     1     -35.963  17.338  -5.584  1.00 20.00     0.022 C 
ENDBRANCH   1   8
TORSDOF 4
ENDMDL
MODEL 4
REMARK VINA RESULT:      -3.7      1.539      3.845
REMARK  4 active torsions:
REMARK  status: ('A' for Active; 'I' for Inactive)
REMARK    1  A    between atoms: C1_1  and  C9_9 
REMARK    2  A    between atoms: C1_1  and  C10_10 
REMARK    3  A    between atoms: C7_7  and  C9_9 
REMARK    4  A    between atoms: C8_8  and  C9_9 
ROOT
HETATM    1  C1  UNL     1     -34.802  14.956  -4.192  1.00 20.00     0.138 C 
HETATM    2  O11 UNL     1     -34.113  13.932  -4.165  1.00 20.00    -0.297 OA
ENDROOT
BRANCH   1   3
HETATM    3  C9  UNL     1     -36.046  15.016  -5.090  1.00 20.00     0.055 C 
BRANCH   3   4
HETATM    4  C7  UNL     1     -35.641  14.539  -6.498  1.00 20.00     0.007 C 
HETATM    5  C2  UNL     1     -34.650  15.468  -7.185  1.00 20.00     0.006 C 
ENDBRANCH   3   4
BRANCH   3   6
HETATM    6  C8  UNL     1     -37.182  14.154  -4.505  1.00 20.00     0.007 C 
HETATM    7  C3  UNL     1     -38.452  14.947  -4.228  1.00 20.00     0.006 C 
ENDBRANCH   3   6
ENDBRANCH   1   3
BRANCH   1   8
HETATM    8  C10 UNL     1     -34.432  16.197  -3.348  1.00 20.00     0.010 C 
HETATM    9  C4  UNL     1     -32.911  16.307  -3.184  1.00 20.00     0.022 C 
HETATM   10  C5  UNL     1     -34.986  17.465  -4.012  1.00 20.00     0.022 C 
HETATM   11  C6  UNL     1     -35.060  16.068  -1.948  1.00 20.00     0.022 C 
ENDBRANCH   1   8
TORSDOF 4
ENDMDL
MODEL 5
REMARK VINA RESULT:      -3.6      1.863      3.541
REMARK  4 active torsions:
REMARK  status: ('A' for Active; 'I' for Inactive)
REMARK    1  A    between atoms: C1_1  and  C9_9 
REMARK    2  A    between atoms: C1_1  and  C10_10 
REMARK    3  A    between atoms: C7_7  and  C9_9 
REMARK    4  A    between atoms: C8_8  and  C9_9 
ROOT
HETATM    1  C1  UNL     1     -37.308  14.811  -4.571  1.00 20.00     0.138 C 
HETATM    2  O11 UNL     1     -37.617  13.627  -4.406  1.00 20.00    -0.297 OA
ENDROOT
BRANCH   1   3
HETATM    3  C9  UNL     1     -35.855  15.183  -4.900  1.00 20.00     0.055 C 
BRANCH   3   4
HETATM    4  C7  UNL     1     -34.951  14.583  -3.807  1.00 20.00     0.007 C 
HETATM    5  C2  UNL     1     -34.471  15.610  -2.792  1.00 20.00     0.006 C 
ENDBRANCH   3   4
BRANCH   3   6
HETATM    6  C8  UNL     1     -35.467  14.673  -6.301  1.00 20.00     0.007 C 
HETATM    7  C3  UNL     1     -34.055  15.069  -6.712  1.00 20.00     0.006 C 
ENDBRANCH   3   6
ENDBRANCH   1   3
BRANCH   1   8
HETATM    8  C10 UNL     1     -38.356  15.941  -4.438  1.00 20.00     0.010 C 
HETATM    9  C4  UNL     1     -39.677  15.393  -3.886  1.00 20.00     0.022 C 
HETATM   10  C5  UNL     1     -37.817  17.048  -3.522  1.00 20.00     0.022 C 
HETATM   11  C6  UNL     1     -38.628  16.549  -5.827  1.00 20.00     0.022 C 
ENDBRANCH   1   8
TORSDOF 4
ENDMDL
MODEL 6
REMARK VINA RESULT:      -3.6      1.818      2.742
REMARK  4 active torsions:
REMARK  status: ('A' for Active; 'I' for Inactive)
REMARK    1  A    between atoms: C1_1  and  C9_9 
REMARK    2  A    between atoms: C1_1  and  C10_10 
REMARK    3  A    between atoms: C7_7  and  C9_9 
REMARK    4  A    between atoms: C8_8  and  C9_9 
ROOT
HETATM    1  C1  UNL     1     -34.048  15.144  -5.105  1.00 20.00     0.138 C 
HETATM    2  O11 UNL     1     -33.454  14.081  -4.901  1.00 20.00    -0.297 OA
ENDROOT
BRANCH   1   3
HETATM    3  C9  UNL     1     -34.274  16.128  -3.948  1.00 20.00     0.055 C 
BRANCH   3   4
HETATM    4  C7  UNL     1     -35.472  15.624  -3.122  1.00 20.00     0.007 C 
HETATM    5  C2  UNL     1     -36.768  16.362  -3.429  1.00 20.00     0.006 C 
ENDBRANCH   3   4
BRANCH   3   6
HETATM    6  C8  UNL     1     -33.003  16.255  -3.086  1.00 20.00     0.007 C 
HETATM    7  C3  UNL     1     -33.080  17.388  -2.071  1.00 20.00     0.006 C 
ENDBRANCH   3   6
ENDBRANCH   1   3
BRANCH   1   8
HETATM    8  C10 UNL     1     -34.588  15.505  -6.508  1.00 20.00     0.010 C 
HETATM    9  C4  UNL     1     -34.848  17.013  -6.617  1.00 20.00     0.022 C 
HETATM   10  C5  UNL     1     -33.588  15.061  -7.584  1.00 20.00     0.022 C 
HETATM   11  C6  UNL     1     -35.919  14.767  -6.748  1.00 20.00     0.022 C 
ENDBRANCH   1   8
TORSDOF 4
ENDMDL
MODEL 7
REMARK VINA RESULT:      -3.5      1.518      2.444
REMARK  4 active torsions:
REMARK  status: ('A' for Active; 'I' for Inactive)
REMARK    1  A    between atoms: C1_1  and  C9_9 
REMARK    2  A    between atoms: C1_1  and  C10_10 
REMARK    3  A    between atoms: C7_7  and  C9_9 
REMARK    4  A    between atoms: C8_8  and  C9_9 
ROOT
HETATM    1  C1  UNL     1     -34.390  16.404  -3.923  1.00 20.00     0.138 C 
HETATM    2  O11 UNL     1     -34.910  17.357  -4.511  1.00 20.00    -0.297 OA
ENDROOT
BRANCH   1   3
HETATM    3  C9  UNL     1     -33.940  16.560  -2.463  1.00 20.00     0.055 C 
BRANCH   3   4
HETATM    4  C7  UNL     1     -33.382  17.985  -2.287  1.00 20.00     0.007 C 
HETATM    5  C2  UNL     1     -32.091  18.030  -1.481  1.00 20.00     0.006 C 
ENDBRANCH   3   4
BRANCH   3   6
HETATM    6  C8  UNL     1     -35.111  16.287  -1.500  1.00 20.00     0.007 C 
HETATM    7  C3  UNL     1     -35.576  17.531  -0.755  1.00 20.00     0.006 C 
ENDBRANCH   3   6
ENDBRANCH   1   3
BRANCH   1   8
HETATM    8  C10 UNL     1     -34.165  15.048  -4.632  1.00 20.00     0.010 C 
HETATM    9  C4  UNL     1     -35.184  14.009  -4.150  1.00 20.00     0.022 C 
HETATM   10  C5  UNL     1     -34.271  15.229  -6.152  1.00 20.00     0.022 C 
HETATM   11  C6  UNL     1     -32.753  14.528  -4.302  1.00 20.00     0.022 C 
ENDBRANCH   1   8
TORSDOF 4
ENDMDL
MODEL 8
REMARK VINA RESULT:      -3.5      1.121      4.076
REMARK  4 active torsions:
REMARK  status: ('A' for Active; 'I' for Inactive)
REMARK    1  A    between atoms: C1_1  and  C9_9 
REMARK    2  A    between atoms: C1_1  and  C10_10 
REMARK    3  A    between atoms: C7_7  and  C9_9 
REMARK    4  A    between atoms: C8_8  and  C9_9 
ROOT
HETATM    1  C1  UNL     1     -35.184  16.371  -4.706  1.00 20.00     0.138 C 
HETATM    2  O11 UNL     1     -35.086  17.599  -4.791  1.00 20.00    -0.297 OA
ENDROOT
BRANCH   1   3
HETATM    3  C9  UNL     1     -36.028  15.599  -5.731  1.00 20.00     0.055 C 
BRANCH   3   4
HETATM    4  C7  UNL     1     -37.488  16.071  -5.598  1.00 20.00     0.007 C 
HETATM    5  C2  UNL     1     -38.244  15.379  -4.472  1.00 20.00     0.006 C 
ENDBRANCH   3   4
BRANCH   3   6
HETATM    6  C8  UNL     1     -35.489  15.820  -7.157  1.00 20.00     0.007 C 
HETATM    7  C3  UNL     1     -34.067  15.308  -7.346  1.00 20.00     0.006 C 
ENDBRANCH   3   6
ENDBRANCH   1   3
BRANCH   1   8
HETATM    8  C10 UNL     1     -34.483  15.585  -3.574  1.00 20.00     0.010 C 
HETATM    9  C4  UNL     1     -34.605  14.074  -3.807  1.00 20.00     0.022 C 
HETATM   10  C5  UNL     1     -33.006  15.991  -3.493  1.00 20.00     0.022 C 
HETATM   11  C6  UNL     1     -35.154  15.921  -2.229  1.00 20.00     0.022 C 
ENDBRANCH   1   8
TORSDOF 4
ENDMDL
MODEL 9
REMARK VINA RESULT:      -3.5      1.575      2.519
REMARK  4 active torsions:
REMARK  status: ('A' for Active; 'I' for Inactive)
REMARK    1  A    between atoms: C1_1  and  C9_9 
REMARK    2  A    between atoms: C1_1  and  C10_10 
REMARK    3  A    between atoms: C7_7  and  C9_9 
REMARK    4  A    between atoms: C8_8  and  C9_9 
ROOT
HETATM    1  C1  UNL     1     -34.895  15.137  -3.942  1.00 20.00     0.138 C 
HETATM    2  O11 UNL     1     -34.252  14.089  -3.824  1.00 20.00    -0.297 OA
ENDROOT
BRANCH   1   3
HETATM    3  C9  UNL     1     -34.516  16.365  -3.102  1.00 20.00     0.055 C 
BRANCH   3   4
HETATM    4  C7  UNL     1     -35.152  16.203  -1.708  1.00 20.00     0.007 C 
HETATM    5  C2  UNL     1     -36.055  17.365  -1.319  1.00 20.00     0.006 C 
ENDBRANCH   3   4
BRANCH   3   6
HETATM    6  C8  UNL     1     -32.985  16.513  -3.013  1.00 20.00     0.007 C 
HETATM    7  C3  UNL     1     -32.546  17.681  -2.140  1.00 20.00     0.006 C 
ENDBRANCH   3   6
ENDBRANCH   1   3
BRANCH   1   8
HETATM    8  C10 UNL     1     -36.093  15.240  -4.915  1.00 20.00     0.010 C 
HETATM    9  C4  UNL     1     -37.321  14.524  -4.340  1.00 20.00     0.022 C 
HETATM   10  C5  UNL     1     -36.418  16.714  -5.189  1.00 20.00     0.022 C 
HETATM   11  C6  UNL     1     -35.724  14.567  -6.251  1.00 20.00     0.022 C 
ENDBRANCH   1   8
TORSDOF 4
ENDMDL
