MODEL 1
REMARK VINA RESULT:      -4.0      0.000      0.000
REMARK  5 active torsions:
REMARK  status: ('A' for Active; 'I' for Inactive)
REMARK    1  A    between atoms: C1_1  and  C7_7 
REMARK    2  A    between atoms: C1_1  and  C11_11 
REMARK    3  A    between atoms: C7_7  and  C10_10 
REMARK    4  A    between atoms: C8_8  and  C10_10 
REMARK    5  A    between atoms: C9_9  and  C10_10 
ROOT
HETATM    1  C1  UNL     1     -33.699  15.066  -4.771  1.00 20.00     0.134 C 
HETATM    2  O12 UNL     1     -33.369  13.905  -4.516  1.00 20.00    -0.297 OA
ENDROOT
BRANCH   1   3
HETATM    3  C7  UNL     1     -33.345  16.208  -3.818  1.00 20.00     0.083 C 
BRANCH   3   4
HETATM    4  C10 UNL     1     -34.026  16.094  -2.438  1.00 20.00    -0.008 C 
BRANCH   4   5
HETATM    5  C8  UNL     1     -35.544  15.859  -2.597  1.00 20.00     0.000 C 
HETATM    6  C2  UNL     1     -36.375  17.114  -2.824  1.00 20.00     0.005 C 
ENDBRANCH   4   5
BRANCH   4   7
HETATM    7  C9  UNL     1     -33.675  17.320  -1.565  1.00 20.00     0.000 C 
HETATM    8  C3  UNL     1     -32.477  18.110  -2.074  1.00 20.00     0.005 C 
ENDBRANCH   4   7
ENDBRANCH   3   4
ENDBRANCH   1   3
BRANCH   1   9
HETATM    9  C11 UNL     1     -34.488  15.411  -6.051  1.00 20.00     0.009 C 
HETATM   10  C4  UNL     1     -34.732  16.926  -6.093  1.00 20.00     0.022 C 
HETATM   11  C5  UNL     1     -33.665  15.006  -7.287  1.00 20.00     0.022 C 
HETATM   12  C6  UNL     1     -35.822  14.654  -6.086  1.00 20.00     0.022 C 
ENDBRANCH   1   9
TORSDOF 5
ENDMDL
MODEL 2
REMARK VINA RESULT:      -4.0      1.260      1.883
REMARK  5 active torsions:
REMARK  status: ('A' for Active; 'I' for Inactive)
REMARK    1  A    between atoms: C1_1  and  C7_7 
REMARK    2  A    between atoms: C1_1  and  C11_11 
REMARK    3  A    between atoms: C7_7  and  C10_10 
REMARK    4  A    between atoms: C8_8  and  C10_10 
REMARK    5  A    between atoms: C9_9  and  C10_10 
ROOT
HETATM    1  C1  UNL     1     -34.575  14.789  -4.425  1.00 20.00     0.134 C 
HETATM    2  O12 UNL     1     -34.215  13.647  -4.130  1.00 20.00    -0.297 OA
ENDROOT
BRANCH   1   3
HETATM    3  C7  UNL     1     -33.745  16.004  -4.010  1.00 20.00     0.083 C 
BRANCH   3   4
HETATM    4  C10 UNL     1     -33.678  16.213  -2.483  1.00 20.00    -0.008 C 
BRANCH   4   5
HETATM    5  C8  UNL     1     -35.094  16.199  -1.868  1.00 20.00     0.000 C 
HETATM    6  C2  UNL     1     -35.259  17.019  -0.596  1.00 20.00     0.005 C 
ENDBRANCH   4   5
BRANCH   4   7
HETATM    7  C9  UNL     1     -32.869  17.487  -2.152  1.00 20.00     0.000 C 
HETATM    8  C3  UNL     1     -32.865  18.517  -3.273  1.00 20.00     0.005 C 
ENDBRANCH   4   7
ENDBRANCH   3   4
ENDBRANCH   1   3
BRANCH   1   9
HETATM    9  C11 UNL     1     -35.879  15.039  -5.214  1.00 20.00     0.009 C 
HETATM   10  C4  UNL     1     -37.038  14.337  -4.495  1.00 20.00     0.022 C 
HETATM   11  C5  UNL     1     -36.166  16.550  -5.265  1.00 20.00     0.022 C 
HETATM   12  C6  UNL     1     -35.750  14.520  -6.652  1.00 20.00     0.022 C 
ENDBRANCH   1   9
TORSDOF 5
ENDMDL
MODEL 3
REMARK VINA RESULT:      -4.0      1.286      1.530
REMARK  5 active torsions:
REMARK  status: ('A' for Active; 'I' for Inactive)
REMARK    1  A    between atoms: C1_1  and  C7_7 
REMARK    2  A    between atoms: C1_1  and  C11_11 
REMARK    3  A    between atoms: C7_7  and  C10_10 
REMARK    4  A    between atoms: C8_8  and  C10_10 
REMARK    5  A    between atoms: C9_9  and  C10_10 
ROOT
HETATM    1  C1  UNL     1     -34.650  14.753  -4.392  1.00 20.00     0.134 C 
HETATM    2  O12 UNL     1     -34.357  13.603  -4.056  1.00 20.00    -0.297 OA
ENDROOT
BRANCH   1   3
HETATM    3  C7  UNL     1     -33.752  15.931  -4.013  1.00 20.00     0.083 C 
BRANCH   3   4
HETATM    4  C10 UNL     1     -33.684  16.193  -2.494  1.00 20.00    -0.008 C 
BRANCH   4   5
HETATM    5  C8  UNL     1     -35.100  16.194  -1.878  1.00 20.00     0.000 C 
HETATM    6  C2  UNL     1     -35.254  17.010  -0.602  1.00 20.00     0.005 C 
ENDBRANCH   4   5
BRANCH   4   7
HETATM    7  C9  UNL     1     -32.882  17.482  -2.209  1.00 20.00     0.000 C 
HETATM    8  C3  UNL     1     -32.871  18.466  -3.371  1.00 20.00     0.005 C 
ENDBRANCH   4   7
ENDBRANCH   3   4
ENDBRANCH   1   3
BRANCH   1   9
HETATM    9  C11 UNL     1     -35.934  15.051  -5.194  1.00 20.00     0.009 C 
HETATM   10  C4  UNL     1     -36.126  16.571  -5.280  1.00 20.00     0.022 C 
HETATM   11  C5  UNL     1     -35.793  14.485  -6.618  1.00 20.00     0.022 C 
HETATM   12  C6  UNL     1     -37.152  14.395  -4.530  1.00 20.00     0.022 C 
ENDBRANCH   1   9
TORSDOF 5
ENDMDL
MODEL 4
REMARK VINA RESULT:      -3.9      1.700      3.065
REMARK  5 active torsions:
REMARK  status: ('A' for Active; 'I' for Inactive)
REMARK    1  A    between atoms: C1_1  and  C7_7 
REMARK    2  A    between atoms: C1_1  and  C11_11 
REMARK    3  A    between atoms: C7_7  and  C10_10 
REMARK    4  A    between atoms: C8_8  and  C10_10 
REMARK    5  A    between atoms: C9_9  and  C10_10 
ROOT
HETATM    1  C1  UNL     1     -33.825  16.499  -3.988  1.00 20.00     0.134 C 
HETATM    2  O12 UNL     1     -34.253  17.466  -4.622  1.00 20.00    -0.297 OA
ENDROOT
BRANCH   1   3
HETATM    3  C7  UNL     1     -33.185  16.686  -2.612  1.00 20.00     0.083 C 
BRANCH   3   4
HETATM    4  C10 UNL     1     -34.011  17.578  -1.663  1.00 20.00    -0.008 C 
BRANCH   4   5
HETATM    5  C8  UNL     1     -33.101  18.233  -0.601  1.00 20.00     0.000 C 
HETATM    6  C2  UNL     1     -31.623  18.287  -0.956  1.00 20.00     0.005 C 
ENDBRANCH   4   5
BRANCH   4   7
HETATM    7  C9  UNL     1     -35.187  16.775  -1.063  1.00 20.00     0.000 C 
HETATM    8  C3  UNL     1     -35.538  17.176   0.363  1.00 20.00     0.005 C 
ENDBRANCH   4   7
ENDBRANCH   3   4
ENDBRANCH   1   3
BRANCH   1   9
HETATM    9  C11 UNL     1     -33.907  15.067  -4.559  1.00 20.00     0.009 C 
HETATM   10  C4  UNL     1     -35.044  14.315  -3.855  1.00 20.00     0.022 C 
HETATM   11  C5  UNL     1     -34.211  15.132  -6.066  1.00 20.00     0.022 C 
HETATM   12  C6  UNL     1     -32.576  14.329  -4.363  1.00 20.00     0.022 C 
ENDBRANCH   1   9
TORSDOF 5
ENDMDL
MODEL 5
REMARK VINA RESULT:      -3.9      2.034      3.571
REMARK  5 active torsions:
REMARK  status: ('A' for Active; 'I' for Inactive)
REMARK    1  A    between atoms: C1_1  and  C7_7 
REMARK    2  A    between atoms: C1_1  and  C11_11 
REMARK    3  A    between atoms: C7_7  and  C10_10 
REMARK    4  A    between atoms: C8_8  and  C10_10 
REMARK    5  A    between atoms: C9_9  and  C10_10 
ROOT
HETATM    1  C1  UNL     1     -36.763  14.583  -4.152  1.00 20.00     0.134 C 
HETATM    2  O12 UNL     1     -36.971  13.440  -4.566  1.00 20.00    -0.297 OA
ENDROOT
BRANCH   1   3
HETATM    3  C7  UNL     1     -35.530  14.897  -3.303  1.00 20.00     0.083 C 
BRANCH   3   4
HETATM    4  C10 UNL     1     -34.409  15.613  -4.085  1.00 20.00    -0.008 C 
BRANCH   4   5
HETATM    5  C8  UNL     1     -33.777  14.662  -5.125  1.00 20.00     0.000 C 
HETATM    6  C2  UNL     1     -34.012  15.041  -6.580  1.00 20.00     0.005 C 
ENDBRANCH   4   5
BRANCH   4   7
HETATM    7  C9  UNL     1     -33.386  16.232  -3.106  1.00 20.00     0.000 C 
HETATM    8  C3  UNL     1     -34.024  16.895  -1.894  1.00 20.00     0.005 C 
ENDBRANCH   4   7
ENDBRANCH   3   4
ENDBRANCH   1   3
BRANCH   1   9
HETATM    9  C11 UNL     1     -37.740  15.737  -4.462  1.00 20.00     0.009 C 
HETATM   10  C4  UNL     1     -39.179  15.228  -4.304  1.00 20.00     0.022 C 
HETATM   11  C5  UNL     1     -37.507  16.888  -3.468  1.00 20.00     0.022 C 
HETATM   12  C6  UNL     1     -37.515  16.270  -5.883  1.00 20.00     0.022 C 
ENDBRANCH   1   9
TORSDOF 5
ENDMDL
MODEL 6
REMARK VINA RESULT:      -3.8      2.530      4.127
REMARK  5 active torsions:
REMARK  status: ('A' for Active; 'I' for Inactive)
REMARK    1  A    between atoms: C1_1  and  C7_7 
REMARK    2  A    between atoms: C1_1  and  C11_11 
REMARK    3  A    between atoms: C7_7  and  C10_10 
REMARK    4  A    between atoms: C8_8  and  C10_10 
REMARK    5  A    between atoms: C9_9  and  C10_10 
ROOT
HETATM    1  C1  UNL     1     -37.495  14.982  -4.472  1.00 20.00     0.134 C 
HETATM    2  O12 UNL     1     -37.670  13.763  -4.398  1.00 20.00    -0.297 OA
ENDROOT
BRANCH   1   3
HETATM    3  C7  UNL     1     -36.085  15.567  -4.557  1.00 20.00     0.083 C 
BRANCH   3   4
HETATM    4  C10 UNL     1     -35.093  14.932  -3.559  1.00 20.00    -0.008 C 
BRANCH   4   5
HETATM    5  C8  UNL     1     -34.895  15.848  -2.331  1.00 20.00     0.000 C 
HETATM    6  C2  UNL     1     -33.634  16.699  -2.352  1.00 20.00     0.005 C 
ENDBRANCH   4   5
BRANCH   4   7
HETATM    7  C9  UNL     1     -33.776  14.562  -4.277  1.00 20.00     0.000 C 
HETATM    8  C3  UNL     1     -33.796  14.840  -5.773  1.00 20.00     0.005 C 
ENDBRANCH   4   7
ENDBRANCH   3   4
ENDBRANCH   1   3
BRANCH   1   9
HETATM    9  C11 UNL     1     -38.686  15.964  -4.472  1.00 20.00     0.009 C 
HETATM   10  C4  UNL     1     -39.957  15.205  -4.068  1.00 20.00     0.022 C 
HETATM   11  C5  UNL     1     -38.429  17.083  -3.448  1.00 20.00     0.022 C 
HETATM   12  C6  UNL     1     -38.862  16.603  -5.856  1.00 20.00     0.022 C 
ENDBRANCH   1   9
TORSDOF 5
ENDMDL
MODEL 7
REMARK VINA RESULT:      -3.8      1.441      2.659
REMARK  5 active torsions:
REMARK  status: ('A' for Active; 'I' for Inactive)
REMARK    1  A    between atoms: C1_1  and  C7_7 
REMARK    2  A    between atoms: C1_1  and  C11_11 
REMARK    3  A    between atoms: C7_7  and  C10_10 
REMARK    4  A    between atoms: C8_8  and  C10_10 
REMARK    5  A    between atoms: C9_9  and  C10_10 
ROOT
HETATM    1  C1  UNL     1     -34.182  15.031  -3.887  1.00 20.00     0.134 C 
HETATM    2  O12 UNL     1     -33.189  14.409  -4.273  1.00 20.00    -0.297 OA
ENDROOT
BRANCH   1   3
HETATM    3  C7  UNL     1     -34.128  15.879  -2.616  1.00 20.00     0.083 C 
BRANCH   3   4
HETATM    4  C10 UNL     1     -33.081  17.011  -2.673  1.00 20.00    -0.008 C 
BRANCH   4   5
HETATM    5  C8  UNL     1     -33.066  17.806  -1.349  1.00 20.00     0.000 C 
HETATM    6  C2  UNL     1     -31.698  18.306  -0.906  1.00 20.00     0.005 C 
ENDBRANCH   4   5
BRANCH   4   7
HETATM    7  C9  UNL     1     -33.310  17.890  -3.923  1.00 20.00     0.000 C 
HETATM    8  C3  UNL     1     -34.315  19.012  -3.705  1.00 20.00     0.005 C 
ENDBRANCH   4   7
ENDBRANCH   3   4
ENDBRANCH   1   3
BRANCH   1   9
HETATM    9  C11 UNL     1     -35.516  14.971  -4.660  1.00 20.00     0.009 C 
HETATM   10  C4  UNL     1     -35.246  15.259  -6.143  1.00 20.00     0.022 C 
HETATM   11  C5  UNL     1     -36.123  13.563  -4.529  1.00 20.00     0.022 C 
HETATM   12  C6  UNL     1     -36.517  15.986  -4.093  1.00 20.00     0.022 C 
ENDBRANCH   1   9
TORSDOF 5
ENDMDL
MODEL 8
REMARK VINA RESULT:      -3.8      1.914      3.235
REMARK  5 active torsions:
REMARK  status: ('A' for Active; 'I' for Inactive)
REMARK    1  A    between atoms: C1_1  and  C7_7 
REMARK    2  A    between atoms: C1_1  and  C11_11 
REMARK    3  A    between atoms: C7_7  and  C10_10 
REMARK    4  A    between atoms: C8_8  and  C10_10 
REMARK    5  A    between atoms: C9_9  and  C10_10 
ROOT
HETATM    1  C1  UNL     1     -35.730  16.019  -3.162  1.00 20.00     0.134 C 
HETATM    2  O12 UNL     1     -36.750  16.708  -3.234  1.00 20.00    -0.297 OA
ENDROOT
BRANCH   1   3
HETATM    3  C7  UNL     1     -34.839  16.068  -1.920  1.00 20.00     0.083 C 
BRANCH   3   4
HETATM    4  C10 UNL     1     -34.271  17.471  -1.623  1.00 20.00    -0.008 C 
BRANCH   4   5
HETATM    5  C8  UNL     1     -32.811  17.582  -2.114  1.00 20.00     0.000 C 
HETATM    6  C2  UNL     1     -31.845  18.241  -1.140  1.00 20.00     0.005 C 
ENDBRANCH   4   5
BRANCH   4   7
HETATM    7  C9  UNL     1     -34.451  17.816  -0.128  1.00 20.00     0.000 C 
HETATM    8  C3  UNL     1     -35.774  17.338   0.455  1.00 20.00     0.005 C 
ENDBRANCH   4   7
ENDBRANCH   3   4
ENDBRANCH   1   3
BRANCH   1   9
HETATM    9  C11 UNL     1     -35.306  15.091  -4.320  1.00 20.00     0.009 C 
HETATM   10  C4  UNL     1     -33.896  14.555  -4.038  1.00 20.00     0.022 C 
HETATM   11  C5  UNL     1     -36.281  13.903  -4.409  1.00 20.00     0.022 C 
HETATM   12  C6  UNL     1     -35.334  15.844  -5.656  1.00 20.00     0.022 C 
ENDBRANCH   1   9
TORSDOF 5
ENDMDL
MODEL 9
REMARK VINA RESULT:      -3.6      1.510      2.659
REMARK  5 active torsions:
REMARK  status: ('A' for Active; 'I' for Inactive)
REMARK    1  A    between atoms: C1_1  and  C7_7 
REMARK    2  A    between atoms: C1_1  and  C11_11 
REMARK    3  A    between atoms: C7_7  and  C10_10 
REMARK    4  A    between atoms: C8_8  and  C10_10 
REMARK    5  A    between atoms: C9_9  and  C10_10 
ROOT
HETATM    1  C1  UNL     1     -35.937  15.266  -5.668  1.00 20.00     0.134 C 
HETATM    2  O12 UNL     1     -36.289  14.085  -5.722  1.00 20.00    -0.297 OA
ENDROOT
BRANCH   1   3
HETATM    3  C7  UNL     1     -35.904  16.013  -4.335  1.00 20.00     0.083 C 
BRANCH   3   4
HETATM    4  C10 UNL     1     -34.868  15.452  -3.338  1.00 20.00    -0.008 C 
BRANCH   4   5
HETATM    5  C8  UNL     1     -35.064  16.077  -1.939  1.00 20.00     0.000 C 
HETATM    6  C2  UNL     1     -34.038  17.131  -1.549  1.00 20.00     0.005 C 
ENDBRANCH   4   5
BRANCH   4   7
HETATM    7  C9  UNL     1     -33.439  15.621  -3.900  1.00 20.00     0.000 C 
HETATM    8  C3  UNL     1     -32.793  14.312  -4.332  1.00 20.00     0.005 C 
ENDBRANCH   4   7
ENDBRANCH   3   4
ENDBRANCH   1   3
BRANCH   1   9
HETATM    9  C11 UNL     1     -35.526  16.038  -6.940  1.00 20.00     0.009 C 
HETATM   10  C4  UNL     1     -36.709  16.052  -7.918  1.00 20.00     0.022 C 
HETATM   11  C5  UNL     1     -35.171  17.488  -6.567  1.00 20.00     0.022 C 
HETATM   12  C6  UNL     1     -34.299  15.391  -7.594  1.00 20.00     0.022 C 
ENDBRANCH   1   9
TORSDOF 5
ENDMDL
