MODEL 1
REMARK VINA RESULT:      -3.7      0.000      0.000
REMARK  4 active torsions:
REMARK  status: ('A' for Active; 'I' for Inactive)
REMARK    1  A    between atoms: C5_5  and  C6_6 
REMARK    2  A    between atoms: C6_6  and  C9_9 
REMARK    3  A    between atoms: C7_7  and  C9_9 
REMARK    4  A    between atoms: C8_8  and  C9_9 
ROOT
HETATM    1  C4  UNL     1     -32.869  14.424  -4.520  1.00 20.00     0.016 C 
HETATM    2  C9  UNL     1     -34.198  15.065  -4.024  1.00 20.00    -0.029 C 
ENDROOT
BRANCH   2   3
HETATM    3  C6  UNL     1     -34.673  15.990  -5.196  1.00 20.00     0.010 C 
BRANCH   3   4
HETATM    4  C5  UNL     1     -34.223  15.635  -6.615  1.00 20.00    -0.004 C 
HETATM    5  C1  UNL     1     -35.389  15.118  -7.447  1.00 20.00     0.005 C 
ENDBRANCH   3   4
ENDBRANCH   2   3
BRANCH   2   6
HETATM    6  C7  UNL     1     -35.184  13.873  -3.823  1.00 20.00     0.124 C 
HETATM    7 CL10 UNL     1     -36.857  14.149  -4.369  1.00 20.00    -0.130 Cl
ENDBRANCH   2   6
BRANCH   2   8
HETATM    8  C8  UNL     1     -33.955  15.866  -2.686  1.00 20.00    -0.014 C 
HETATM    9  C2  UNL     1     -35.248  16.284  -1.967  1.00 20.00     0.010 C 
HETATM   10  C3  UNL     1     -33.078  17.119  -2.856  1.00 20.00     0.010 C 
ENDBRANCH   2   8
TORSDOF 4
ENDMDL
MODEL 2
REMARK VINA RESULT:      -3.7      2.162      4.493
REMARK  4 active torsions:
REMARK  status: ('A' for Active; 'I' for Inactive)
REMARK    1  A    between atoms: C5_5  and  C6_6 
REMARK    2  A    between atoms: C6_6  and  C9_9 
REMARK    3  A    between atoms: C7_7  and  C9_9 
REMARK    4  A    between atoms: C8_8  and  C9_9 
ROOT
HETATM    1  C4  UNL     1     -33.037  16.812  -2.765  1.00 20.00     0.016 C 
HETATM    2  C9  UNL     1     -34.452  16.210  -3.001  1.00 20.00    -0.029 C 
ENDROOT
BRANCH   2   3
HETATM    3  C6  UNL     1     -35.173  16.287  -1.612  1.00 20.00     0.010 C 
BRANCH   3   4
HETATM    4  C5  UNL     1     -34.762  17.408  -0.655  1.00 20.00    -0.004 C 
HETATM    5  C1  UNL     1     -35.467  17.269   0.688  1.00 20.00     0.005 C 
ENDBRANCH   3   4
ENDBRANCH   2   3
BRANCH   2   6
HETATM    6  C7  UNL     1     -35.139  17.155  -4.035  1.00 20.00     0.124 C 
HETATM    7 CL10 UNL     1     -34.042  18.104  -5.068  1.00 20.00    -0.130 Cl
ENDBRANCH   2   6
BRANCH   2   8
HETATM    8  C8  UNL     1     -34.336  14.729  -3.536  1.00 20.00    -0.014 C 
HETATM    9  C2  UNL     1     -33.142  14.499  -4.477  1.00 20.00     0.010 C 
HETATM   10  C3  UNL     1     -35.604  14.216  -4.241  1.00 20.00     0.010 C 
ENDBRANCH   2   8
TORSDOF 4
ENDMDL
MODEL 3
REMARK VINA RESULT:      -3.7      1.859      4.338
REMARK  4 active torsions:
REMARK  status: ('A' for Active; 'I' for Inactive)
REMARK    1  A    between atoms: C5_5  and  C6_6 
REMARK    2  A    between atoms: C6_6  and  C9_9 
REMARK    3  A    between atoms: C7_7  and  C9_9 
REMARK    4  A    between atoms: C8_8  and  C9_9 
ROOT
HETATM    1  C4  UNL     1     -33.083  16.833  -2.818  1.00 20.00     0.016 C 
HETATM    2  C9  UNL     1     -34.480  16.186  -3.043  1.00 20.00    -0.029 C 
ENDROOT
BRANCH   2   3
HETATM    3  C6  UNL     1     -35.205  16.272  -1.655  1.00 20.00     0.010 C 
BRANCH   3   4
HETATM    4  C5  UNL     1     -34.753  17.361  -0.680  1.00 20.00    -0.004 C 
HETATM    5  C1  UNL     1     -35.513  17.267   0.637  1.00 20.00     0.005 C 
ENDBRANCH   3   4
ENDBRANCH   2   3
BRANCH   2   6
HETATM    6  C7  UNL     1     -35.192  17.090  -4.096  1.00 20.00     0.124 C 
HETATM    7 CL10 UNL     1     -36.872  17.544  -3.722  1.00 20.00    -0.130 Cl
ENDBRANCH   2   6
BRANCH   2   8
HETATM    8  C8  UNL     1     -34.322  14.699  -3.547  1.00 20.00    -0.014 C 
HETATM    9  C2  UNL     1     -33.135  14.487  -4.501  1.00 20.00     0.010 C 
HETATM   10  C3  UNL     1     -35.581  14.128  -4.220  1.00 20.00     0.010 C 
ENDBRANCH   2   8
TORSDOF 4
ENDMDL
MODEL 4
REMARK VINA RESULT:      -3.7      1.333      1.744
REMARK  4 active torsions:
REMARK  status: ('A' for Active; 'I' for Inactive)
REMARK    1  A    between atoms: C5_5  and  C6_6 
REMARK    2  A    between atoms: C6_6  and  C9_9 
REMARK    3  A    between atoms: C7_7  and  C9_9 
REMARK    4  A    between atoms: C8_8  and  C9_9 
ROOT
HETATM    1  C4  UNL     1     -35.969  13.691  -4.536  1.00 20.00     0.016 C 
HETATM    2  C9  UNL     1     -35.729  15.189  -4.188  1.00 20.00    -0.029 C 
ENDROOT
BRANCH   2   3
HETATM    3  C6  UNL     1     -35.253  15.854  -5.525  1.00 20.00     0.010 C 
BRANCH   3   4
HETATM    4  C5  UNL     1     -35.173  14.971  -6.773  1.00 20.00    -0.004 C 
HETATM    5  C1  UNL     1     -33.859  15.189  -7.514  1.00 20.00     0.005 C 
ENDBRANCH   3   4
ENDBRANCH   2   3
BRANCH   2   6
HETATM    6  C7  UNL     1     -37.122  15.744  -3.758  1.00 20.00     0.124 C 
HETATM    7 CL10 UNL     1     -38.528  14.752  -4.214  1.00 20.00    -0.130 Cl
ENDBRANCH   2   6
BRANCH   2   8
HETATM    8  C8  UNL     1     -34.657  15.320  -3.037  1.00 20.00    -0.014 C 
HETATM    9  C2  UNL     1     -35.084  16.252  -1.891  1.00 20.00     0.010 C 
HETATM   10  C3  UNL     1     -33.268  15.768  -3.523  1.00 20.00     0.010 C 
ENDBRANCH   2   8
TORSDOF 4
ENDMDL
MODEL 5
REMARK VINA RESULT:      -3.7      1.596      3.204
REMARK  4 active torsions:
REMARK  status: ('A' for Active; 'I' for Inactive)
REMARK    1  A    between atoms: C5_5  and  C6_6 
REMARK    2  A    between atoms: C6_6  and  C9_9 
REMARK    3  A    between atoms: C7_7  and  C9_9 
REMARK    4  A    between atoms: C8_8  and  C9_9 
ROOT
HETATM    1  C4  UNL     1     -32.739  14.297  -4.493  1.00 20.00     0.016 C 
HETATM    2  C9  UNL     1     -34.092  15.051  -4.342  1.00 20.00    -0.029 C 
ENDROOT
BRANCH   2   3
HETATM    3  C6  UNL     1     -35.109  13.977  -3.822  1.00 20.00     0.010 C 
BRANCH   3   4
HETATM    4  C5  UNL     1     -36.322  13.658  -4.699  1.00 20.00    -0.004 C 
HETATM    5  C1  UNL     1     -37.533  14.481  -4.278  1.00 20.00     0.005 C 
ENDBRANCH   3   4
ENDBRANCH   2   3
BRANCH   2   6
HETATM    6  C7  UNL     1     -33.840  16.145  -3.260  1.00 20.00     0.124 C 
HETATM    7 CL10 UNL     1     -34.953  16.136  -1.870  1.00 20.00    -0.130 Cl
ENDBRANCH   2   6
BRANCH   2   8
HETATM    8  C8  UNL     1     -34.531  15.673  -5.724  1.00 20.00    -0.014 C 
HETATM    9  C2  UNL     1     -33.779  15.096  -6.935  1.00 20.00     0.010 C 
HETATM   10  C3  UNL     1     -34.423  17.206  -5.784  1.00 20.00     0.010 C 
ENDBRANCH   2   8
TORSDOF 4
ENDMDL
MODEL 6
REMARK VINA RESULT:      -3.6      1.900      2.598
REMARK  4 active torsions:
REMARK  status: ('A' for Active; 'I' for Inactive)
REMARK    1  A    between atoms: C5_5  and  C6_6 
REMARK    2  A    between atoms: C6_6  and  C9_9 
REMARK    3  A    between atoms: C7_7  and  C9_9 
REMARK    4  A    between atoms: C8_8  and  C9_9 
ROOT
HETATM    1  C4  UNL     1     -35.046  16.742  -4.813  1.00 20.00     0.016 C 
HETATM    2  C9  UNL     1     -34.659  15.488  -3.977  1.00 20.00    -0.029 C 
ENDROOT
BRANCH   2   3
HETATM    3  C6  UNL     1     -35.973  14.642  -3.865  1.00 20.00     0.010 C 
BRANCH   3   4
HETATM    4  C5  UNL     1     -37.099  14.937  -4.859  1.00 20.00    -0.004 C 
HETATM    5  C1  UNL     1     -38.465  14.732  -4.217  1.00 20.00     0.005 C 
ENDBRANCH   3   4
ENDBRANCH   2   3
BRANCH   2   6
HETATM    6  C7  UNL     1     -33.587  14.738  -4.826  1.00 20.00     0.124 C 
HETATM    7 CL10 UNL     1     -33.752  14.885  -6.592  1.00 20.00    -0.130 Cl
ENDBRANCH   2   6
BRANCH   2   8
HETATM    8  C8  UNL     1     -34.102  15.920  -2.565  1.00 20.00    -0.014 C 
HETATM    9  C2  UNL     1     -35.184  16.424  -1.596  1.00 20.00     0.010 C 
HETATM   10  C3  UNL     1     -32.988  16.979  -2.627  1.00 20.00     0.010 C 
ENDBRANCH   2   8
TORSDOF 4
ENDMDL
MODEL 7
REMARK VINA RESULT:      -3.6      1.878      3.817
REMARK  4 active torsions:
REMARK  status: ('A' for Active; 'I' for Inactive)
REMARK    1  A    between atoms: C5_5  and  C6_6 
REMARK    2  A    between atoms: C6_6  and  C9_9 
REMARK    3  A    between atoms: C7_7  and  C9_9 
REMARK    4  A    between atoms: C8_8  and  C9_9 
ROOT
HETATM    1  C4  UNL     1     -33.349  14.553  -4.430  1.00 20.00     0.016 C 
HETATM    2  C9  UNL     1     -34.381  15.581  -3.883  1.00 20.00    -0.029 C 
ENDROOT
BRANCH   2   3
HETATM    3  C6  UNL     1     -33.776  16.096  -2.532  1.00 20.00     0.010 C 
BRANCH   3   4
HETATM    4  C5  UNL     1     -34.402  17.340  -1.898  1.00 20.00    -0.004 C 
HETATM    5  C1  UNL     1     -35.279  16.967  -0.709  1.00 20.00     0.005 C 
ENDBRANCH   3   4
ENDBRANCH   2   3
BRANCH   2   6
HETATM    6  C7  UNL     1     -34.428  16.726  -4.942  1.00 20.00     0.124 C 
HETATM    7 CL10 UNL     1     -34.390  16.211  -6.646  1.00 20.00    -0.130 Cl
ENDBRANCH   2   6
BRANCH   2   8
HETATM    8  C8  UNL     1     -35.789  14.894  -3.688  1.00 20.00    -0.014 C 
HETATM    9  C2  UNL     1     -35.955  13.580  -4.469  1.00 20.00     0.010 C 
HETATM   10  C3  UNL     1     -36.982  15.804  -4.027  1.00 20.00     0.010 C 
ENDBRANCH   2   8
TORSDOF 4
ENDMDL
MODEL 8
REMARK VINA RESULT:      -3.6      2.306      3.512
REMARK  4 active torsions:
REMARK  status: ('A' for Active; 'I' for Inactive)
REMARK    1  A    between atoms: C5_5  and  C6_6 
REMARK    2  A    between atoms: C6_6  and  C9_9 
REMARK    3  A    between atoms: C7_7  and  C9_9 
REMARK    4  A    between atoms: C8_8  and  C9_9 
ROOT
HETATM    1  C4  UNL     1     -35.127  16.307  -1.655  1.00 20.00     0.016 C 
HETATM    2  C9  UNL     1     -34.411  16.239  -3.035  1.00 20.00    -0.029 C 
ENDROOT
BRANCH   2   3
HETATM    3  C6  UNL     1     -35.274  17.130  -3.993  1.00 20.00     0.010 C 
BRANCH   3   4
HETATM    4  C5  UNL     1     -34.540  17.964  -5.046  1.00 20.00    -0.004 C 
HETATM    5  C1  UNL     1     -34.594  17.291  -6.412  1.00 20.00     0.005 C 
ENDBRANCH   3   4
ENDBRANCH   2   3
BRANCH   2   6
HETATM    6  C7  UNL     1     -33.004  16.872  -2.805  1.00 20.00     0.124 C 
HETATM    7 CL10 UNL     1     -32.820  17.838  -1.321  1.00 20.00    -0.130 Cl
ENDBRANCH   2   6
BRANCH   2   8
HETATM    8  C8  UNL     1     -34.316  14.743  -3.530  1.00 20.00    -0.014 C 
HETATM    9  C2  UNL     1     -33.115  14.467  -4.450  1.00 20.00     0.010 C 
HETATM   10  C3  UNL     1     -35.584  14.235  -4.237  1.00 20.00     0.010 C 
ENDBRANCH   2   8
TORSDOF 4
ENDMDL
MODEL 9
REMARK VINA RESULT:      -3.5      2.242      3.034
REMARK  4 active torsions:
REMARK  status: ('A' for Active; 'I' for Inactive)
REMARK    1  A    between atoms: C5_5  and  C6_6 
REMARK    2  A    between atoms: C6_6  and  C9_9 
REMARK    3  A    between atoms: C7_7  and  C9_9 
REMARK    4  A    between atoms: C8_8  and  C9_9 
ROOT
HETATM    1  C4  UNL     1     -34.890  17.168  -4.382  1.00 20.00     0.016 C 
HETATM    2  C9  UNL     1     -34.368  16.466  -3.095  1.00 20.00    -0.029 C 
ENDROOT
BRANCH   2   3
HETATM    3  C6  UNL     1     -35.297  15.220  -2.897  1.00 20.00     0.010 C 
BRANCH   3   4
HETATM    4  C5  UNL     1     -36.437  15.013  -3.897  1.00 20.00    -0.004 C 
HETATM    5  C1  UNL     1     -36.302  13.675  -4.614  1.00 20.00     0.005 C 
ENDBRANCH   3   4
ENDBRANCH   2   3
BRANCH   2   6
HETATM    6  C7  UNL     1     -32.909  16.024  -3.425  1.00 20.00     0.124 C 
HETATM    7 CL10 UNL     1     -32.748  14.534  -4.387  1.00 20.00    -0.130 Cl
ENDBRANCH   2   6
BRANCH   2   8
HETATM    8  C8  UNL     1     -34.425  17.457  -1.868  1.00 20.00    -0.014 C 
HETATM    9  C2  UNL     1     -33.043  17.853  -1.322  1.00 20.00     0.010 C 
HETATM   10  C3  UNL     1     -35.274  16.950  -0.690  1.00 20.00     0.010 C 
ENDBRANCH   2   8
TORSDOF 4
ENDMDL
