MODEL 1
REMARK VINA RESULT:      -4.2      0.000      0.000
REMARK  3 active torsions:
REMARK  status: ('A' for Active; 'I' for Inactive)
REMARK    1  A    between atoms: C6_6  and  C10_10 
REMARK    2  A    between atoms: C6_6  and  C11_11 
REMARK    3  A    between atoms: C9_9  and  N12_12 
ROOT
HETATM    1  C1  UNL     1     -30.785  18.261   0.613  1.00 20.00     0.013 C 
HETATM    2  C2  UNL     1     -31.373  18.467  -0.413  1.00 20.00    -0.087 C 
HETATM    3  C9  UNL     1     -32.087  18.724  -1.666  1.00 20.00     0.364 C 
ENDROOT
BRANCH   3   4
HETATM    4  N12 UNL     1     -32.834  17.546  -2.082  1.00 20.00     0.100 N 
HETATM    5  C4  UNL     1     -34.014  17.305  -1.249  1.00 20.00     0.274 C 
HETATM    6  C3  UNL     1     -34.925  16.431  -2.112  1.00 20.00     0.041 C 
HETATM    7  C6  UNL     1     -34.319  16.473  -3.527  1.00 20.00    -0.013 C 
HETATM    8  C5  UNL     1     -33.345  17.657  -3.449  1.00 20.00     0.283 C 
BRANCH   7   9
HETATM    9  C10 UNL     1     -35.385  16.694  -4.602  1.00 20.00     0.007 C 
HETATM   10  C7  UNL     1     -34.784  17.239  -5.851  1.00 20.00     0.006 C 
ENDBRANCH   7   9
BRANCH   7  11
HETATM   11  C11 UNL     1     -33.568  15.160  -3.822  1.00 20.00     0.007 C 
HETATM   12  C8  UNL     1     -34.506  14.006  -3.940  1.00 20.00     0.006 C 
ENDBRANCH   7  11
ENDBRANCH   3   4
TORSDOF 3
ENDMDL
MODEL 2
REMARK VINA RESULT:      -4.0      2.178      4.843
REMARK  3 active torsions:
REMARK  status: ('A' for Active; 'I' for Inactive)
REMARK    1  A    between atoms: C6_6  and  C10_10 
REMARK    2  A    between atoms: C6_6  and  C11_11 
REMARK    3  A    between atoms: C9_9  and  N12_12 
ROOT
HETATM    1  C1  UNL     1     -33.971  17.659  -7.918  1.00 20.00     0.013 C 
HETATM    2  C2  UNL     1     -34.776  17.036  -7.280  1.00 20.00    -0.087 C 
HETATM    3  C9  UNL     1     -35.761  16.277  -6.507  1.00 20.00     0.364 C 
ENDROOT
BRANCH   3   4
HETATM    4  N12 UNL     1     -35.193  15.840  -5.240  1.00 20.00     0.100 N 
HETATM    5  C4  UNL     1     -34.015  14.988  -5.416  1.00 20.00     0.274 C 
HETATM    6  C3  UNL     1     -33.267  15.083  -4.085  1.00 20.00     0.041 C 
HETATM    7  C6  UNL     1     -33.931  16.243  -3.319  1.00 20.00    -0.013 C 
HETATM    8  C5  UNL     1     -34.739  16.958  -4.411  1.00 20.00     0.283 C 
BRANCH   7   9
HETATM    9  C10 UNL     1     -32.900  17.177  -2.683  1.00 20.00     0.007 C 
HETATM   10  C7  UNL     1     -32.781  18.448  -3.448  1.00 20.00     0.006 C 
ENDBRANCH   7   9
BRANCH   7  11
HETATM   11  C11 UNL     1     -34.859  15.690  -2.219  1.00 20.00     0.007 C 
HETATM   12  C8  UNL     1     -35.237  16.749  -1.238  1.00 20.00     0.006 C 
ENDBRANCH   7  11
ENDBRANCH   3   4
TORSDOF 3
ENDMDL
MODEL 3
REMARK VINA RESULT:      -4.0      1.006      1.301
REMARK  3 active torsions:
REMARK  status: ('A' for Active; 'I' for Inactive)
REMARK    1  A    between atoms: C6_6  and  C10_10 
REMARK    2  A    between atoms: C6_6  and  C11_11 
REMARK    3  A    between atoms: C9_9  and  N12_12 
ROOT
HETATM    1  C1  UNL     1     -31.105  18.485   0.015  1.00 20.00     0.013 C 
HETATM    2  C2  UNL     1     -31.694  18.515  -1.031  1.00 20.00    -0.087 C 
HETATM    3  C9  UNL     1     -32.410  18.556  -2.308  1.00 20.00     0.364 C 
ENDROOT
BRANCH   3   4
HETATM    4  N12 UNL     1     -33.105  17.301  -2.547  1.00 20.00     0.100 N 
HETATM    5  C4  UNL     1     -34.098  17.001  -1.514  1.00 20.00     0.274 C 
HETATM    6  C3  UNL     1     -35.059  16.012  -2.175  1.00 20.00     0.041 C 
HETATM    7  C6  UNL     1     -34.710  16.036  -3.675  1.00 20.00    -0.013 C 
HETATM    8  C5  UNL     1     -33.850  17.301  -3.807  1.00 20.00     0.283 C 
BRANCH   7   9
HETATM    9  C10 UNL     1     -35.959  16.113  -4.554  1.00 20.00     0.007 C 
HETATM   10  C7  UNL     1     -37.022  15.195  -4.060  1.00 20.00     0.006 C 
ENDBRANCH   7   9
BRANCH   7  11
HETATM   11  C11 UNL     1     -33.902  14.779  -4.053  1.00 20.00     0.007 C 
HETATM   12  C8  UNL     1     -33.614  14.731  -5.516  1.00 20.00     0.006 C 
ENDBRANCH   7  11
ENDBRANCH   3   4
TORSDOF 3
ENDMDL
MODEL 4
REMARK VINA RESULT:      -4.0      2.268      5.029
REMARK  3 active torsions:
REMARK  status: ('A' for Active; 'I' for Inactive)
REMARK    1  A    between atoms: C6_6  and  C10_10 
REMARK    2  A    between atoms: C6_6  and  C11_11 
REMARK    3  A    between atoms: C9_9  and  N12_12 
ROOT
HETATM    1  C1  UNL     1     -35.646  14.864  -7.090  1.00 20.00     0.013 C 
HETATM    2  C2  UNL     1     -35.923  14.488  -5.984  1.00 20.00    -0.087 C 
HETATM    3  C9  UNL     1     -36.264  14.025  -4.637  1.00 20.00     0.364 C 
ENDROOT
BRANCH   3   4
HETATM    4  N12 UNL     1     -35.526  14.777  -3.633  1.00 20.00     0.100 N 
HETATM    5  C4  UNL     1     -34.076  14.683  -3.813  1.00 20.00     0.274 C 
HETATM    6  C3  UNL     1     -33.515  15.900  -3.077  1.00 20.00     0.041 C 
HETATM    7  C6  UNL     1     -34.731  16.792  -2.764  1.00 20.00    -0.013 C 
HETATM    8  C5  UNL     1     -35.826  16.209  -3.669  1.00 20.00     0.283 C 
BRANCH   7   9
HETATM    9  C10 UNL     1     -34.463  18.263  -3.084  1.00 20.00     0.007 C 
HETATM   10  C7  UNL     1     -33.264  18.415  -3.954  1.00 20.00     0.006 C 
ENDBRANCH   7   9
BRANCH   7  11
HETATM   11  C11 UNL     1     -35.117  16.660  -1.278  1.00 20.00     0.007 C 
HETATM   12  C8  UNL     1     -34.462  17.711  -0.446  1.00 20.00     0.006 C 
ENDBRANCH   7  11
ENDBRANCH   3   4
TORSDOF 3
ENDMDL
MODEL 5
REMARK VINA RESULT:      -3.9      1.019      2.451
REMARK  3 active torsions:
REMARK  status: ('A' for Active; 'I' for Inactive)
REMARK    1  A    between atoms: C6_6  and  C10_10 
REMARK    2  A    between atoms: C6_6  and  C11_11 
REMARK    3  A    between atoms: C9_9  and  N12_12 
ROOT
HETATM    1  C1  UNL     1     -31.695  18.740  -0.410  1.00 20.00     0.013 C 
HETATM    2  C2  UNL     1     -32.777  18.261  -0.616  1.00 20.00    -0.087 C 
HETATM    3  C9  UNL     1     -34.098  17.679  -0.862  1.00 20.00     0.364 C 
ENDROOT
BRANCH   3   4
HETATM    4  N12 UNL     1     -34.178  17.138  -2.210  1.00 20.00     0.100 N 
HETATM    5  C4  UNL     1     -32.875  16.713  -2.724  1.00 20.00     0.274 C 
HETATM    6  C3  UNL     1     -33.205  15.721  -3.841  1.00 20.00     0.041 C 
HETATM    7  C6  UNL     1     -34.707  15.416  -3.694  1.00 20.00    -0.013 C 
HETATM    8  C5  UNL     1     -35.030  15.951  -2.292  1.00 20.00     0.283 C 
BRANCH   7   9
HETATM    9  C10 UNL     1     -35.004  13.920  -3.806  1.00 20.00     0.007 C 
HETATM   10  C7  UNL     1     -36.267  13.676  -4.554  1.00 20.00     0.006 C 
ENDBRANCH   7   9
BRANCH   7  11
HETATM   11  C11 UNL     1     -35.510  16.172  -4.770  1.00 20.00     0.007 C 
HETATM   12  C8  UNL     1     -34.631  16.649  -5.877  1.00 20.00     0.006 C 
ENDBRANCH   7  11
ENDBRANCH   3   4
TORSDOF 3
ENDMDL
MODEL 6
REMARK VINA RESULT:      -3.9      1.758      3.336
REMARK  3 active torsions:
REMARK  status: ('A' for Active; 'I' for Inactive)
REMARK    1  A    between atoms: C6_6  and  C10_10 
REMARK    2  A    between atoms: C6_6  and  C11_11 
REMARK    3  A    between atoms: C9_9  and  N12_12 
ROOT
HETATM    1  C1  UNL     1     -37.234  18.139   0.044  1.00 20.00     0.013 C 
HETATM    2  C2  UNL     1     -36.086  17.888  -0.202  1.00 20.00    -0.087 C 
HETATM    3  C9  UNL     1     -34.684  17.583  -0.495  1.00 20.00     0.364 C 
ENDROOT
BRANCH   3   4
HETATM    4  N12 UNL     1     -34.524  17.191  -1.888  1.00 20.00     0.100 N 
HETATM    5  C4  UNL     1     -33.121  17.002  -2.262  1.00 20.00     0.274 C 
HETATM    6  C3  UNL     1     -33.168  16.108  -3.502  1.00 20.00     0.041 C 
HETATM    7  C6  UNL     1     -34.617  15.591  -3.584  1.00 20.00    -0.013 C 
HETATM    8  C5  UNL     1     -35.178  15.917  -2.193  1.00 20.00     0.283 C 
BRANCH   7   9
HETATM    9  C10 UNL     1     -34.677  14.091  -3.875  1.00 20.00     0.007 C 
HETATM   10  C7  UNL     1     -36.002  13.702  -4.432  1.00 20.00     0.006 C 
ENDBRANCH   7   9
BRANCH   7  11
HETATM   11  C11 UNL     1     -35.389  16.349  -4.681  1.00 20.00     0.007 C 
HETATM   12  C8  UNL     1     -34.472  16.873  -5.735  1.00 20.00     0.006 C 
ENDBRANCH   7  11
ENDBRANCH   3   4
TORSDOF 3
ENDMDL
MODEL 7
REMARK VINA RESULT:      -3.9      2.073      5.036
REMARK  3 active torsions:
REMARK  status: ('A' for Active; 'I' for Inactive)
REMARK    1  A    between atoms: C6_6  and  C10_10 
REMARK    2  A    between atoms: C6_6  and  C11_11 
REMARK    3  A    between atoms: C9_9  and  N12_12 
ROOT
HETATM    1  C1  UNL     1     -38.769  14.817  -4.171  1.00 20.00     0.013 C 
HETATM    2  C2  UNL     1     -37.657  14.414  -4.377  1.00 20.00    -0.087 C 
HETATM    3  C9  UNL     1     -36.303  13.918  -4.631  1.00 20.00     0.364 C 
ENDROOT
BRANCH   3   4
HETATM    4  N12 UNL     1     -35.328  14.664  -3.850  1.00 20.00     0.100 N 
HETATM    5  C4  UNL     1     -33.948  14.295  -4.173  1.00 20.00     0.274 C 
HETATM    6  C3  UNL     1     -33.110  15.488  -3.708  1.00 20.00     0.041 C 
HETATM    7  C6  UNL     1     -34.120  16.612  -3.410  1.00 20.00    -0.013 C 
HETATM    8  C5  UNL     1     -35.405  16.107  -4.082  1.00 20.00     0.283 C 
BRANCH   7   9
HETATM    9  C10 UNL     1     -33.674  17.955  -3.990  1.00 20.00     0.007 C 
HETATM   10  C7  UNL     1     -34.436  18.287  -5.226  1.00 20.00     0.006 C 
ENDBRANCH   7   9
BRANCH   7  11
HETATM   11  C11 UNL     1     -34.316  16.759  -1.888  1.00 20.00     0.007 C 
HETATM   12  C8  UNL     1     -33.335  17.715  -1.299  1.00 20.00     0.006 C 
ENDBRANCH   7  11
ENDBRANCH   3   4
TORSDOF 3
ENDMDL
MODEL 8
REMARK VINA RESULT:      -3.9      1.561      4.870
REMARK  3 active torsions:
REMARK  status: ('A' for Active; 'I' for Inactive)
REMARK    1  A    between atoms: C6_6  and  C10_10 
REMARK    2  A    between atoms: C6_6  and  C11_11 
REMARK    3  A    between atoms: C9_9  and  N12_12 
ROOT
HETATM    1  C1  UNL     1     -36.649  13.981  -4.523  1.00 20.00     0.013 C 
HETATM    2  C2  UNL     1     -35.468  14.157  -4.399  1.00 20.00    -0.087 C 
HETATM    3  C9  UNL     1     -34.026  14.367  -4.251  1.00 20.00     0.364 C 
ENDROOT
BRANCH   3   4
HETATM    4  N12 UNL     1     -33.754  15.677  -3.678  1.00 20.00     0.100 N 
HETATM    5  C4  UNL     1     -34.204  16.772  -4.538  1.00 20.00     0.274 C 
HETATM    6  C3  UNL     1     -34.347  17.970  -3.598  1.00 20.00     0.041 C 
HETATM    7  C6  UNL     1     -34.248  17.391  -2.174  1.00 20.00    -0.013 C 
HETATM    8  C5  UNL     1     -34.439  15.885  -2.400  1.00 20.00     0.283 C 
BRANCH   7   9
HETATM    9  C10 UNL     1     -35.324  17.959  -1.246  1.00 20.00     0.007 C 
HETATM   10  C7  UNL     1     -35.348  17.238   0.056  1.00 20.00     0.006 C 
ENDBRANCH   7   9
BRANCH   7  11
HETATM   11  C11 UNL     1     -32.859  17.687  -1.576  1.00 20.00     0.007 C 
HETATM   12  C8  UNL     1     -32.374  19.044  -1.960  1.00 20.00     0.006 C 
ENDBRANCH   7  11
ENDBRANCH   3   4
TORSDOF 3
ENDMDL
MODEL 9
REMARK VINA RESULT:      -3.9      1.365      2.425
REMARK  3 active torsions:
REMARK  status: ('A' for Active; 'I' for Inactive)
REMARK    1  A    between atoms: C6_6  and  C10_10 
REMARK    2  A    between atoms: C6_6  and  C11_11 
REMARK    3  A    between atoms: C9_9  and  N12_12 
ROOT
HETATM    1  C1  UNL     1     -31.868  18.194  -0.988  1.00 20.00     0.013 C 
HETATM    2  C2  UNL     1     -33.068  18.155  -0.977  1.00 20.00    -0.087 C 
HETATM    3  C9  UNL     1     -34.532  18.110  -0.959  1.00 20.00     0.364 C 
ENDROOT
BRANCH   3   4
HETATM    4  N12 UNL     1     -35.040  17.452  -2.153  1.00 20.00     0.100 N 
HETATM    5  C4  UNL     1     -34.509  18.036  -3.387  1.00 20.00     0.274 C 
HETATM    6  C3  UNL     1     -34.687  16.942  -4.441  1.00 20.00     0.041 C 
HETATM    7  C6  UNL     1     -35.049  15.666  -3.656  1.00 20.00    -0.013 C 
HETATM    8  C5  UNL     1     -34.679  16.034  -2.212  1.00 20.00     0.283 C 
BRANCH   7   9
HETATM    9  C10 UNL     1     -34.261  14.449  -4.143  1.00 20.00     0.007 C 
HETATM   10  C7  UNL     1     -32.812  14.764  -4.279  1.00 20.00     0.006 C 
ENDBRANCH   7   9
BRANCH   7  11
HETATM   11  C11 UNL     1     -36.557  15.376  -3.781  1.00 20.00     0.007 C 
HETATM   12  C8  UNL     1     -36.810  14.084  -4.483  1.00 20.00     0.006 C 
ENDBRANCH   7  11
ENDBRANCH   3   4
TORSDOF 3
ENDMDL
