MODEL 1
REMARK VINA RESULT:      -4.6      0.000      0.000
REMARK  2 active torsions:
REMARK  status: ('A' for Active; 'I' for Inactive)
REMARK    1  A    between atoms: C1_1  and  C6_6 
REMARK    2  A    between atoms: C1_1  and  C9_9 
ROOT
HETATM    1  C2  UNL     1     -34.409  17.274  -4.340  1.00 20.00     0.005 C 
HETATM    2  C3  UNL     1     -35.793  16.936  -3.769  1.00 20.00     0.006 C 
HETATM    3  C4  UNL     1     -33.778  14.851  -4.332  1.00 20.00     0.017 C 
HETATM    4  C5  UNL     1     -34.146  16.061  -2.308  1.00 20.00     0.010 C 
HETATM    5  C6  UNL     1     -35.150  14.471  -3.751  1.00 20.00     0.061 C 
HETATM    6  C7  UNL     1     -33.499  16.222  -3.684  1.00 20.00    -0.013 C 
HETATM    7  C8  UNL     1     -35.515  15.700  -2.892  1.00 20.00    -0.003 C 
ENDROOT
BRANCH   5   8
HETATM    8  C1  UNL     1     -36.167  14.144  -4.798  1.00 20.00     0.145 C 
HETATM    9  O10 UNL     1     -37.284  13.738  -4.482  1.00 20.00    -0.296 OA
BRANCH   8  10
HETATM   10  C9  UNL     1     -35.724  14.345  -6.229  1.00 20.00     0.193 C 
HETATM   11 CL11 UNL     1     -36.529  15.749  -6.943  1.00 20.00    -0.123 Cl
ENDBRANCH   8  10
ENDBRANCH   5   8
TORSDOF 2
ENDMDL
MODEL 2
REMARK VINA RESULT:      -4.4     16.241     17.806
REMARK  2 active torsions:
REMARK  status: ('A' for Active; 'I' for Inactive)
REMARK    1  A    between atoms: C1_1  and  C6_6 
REMARK    2  A    between atoms: C1_1  and  C9_9 
ROOT
HETATM    1  C2  UNL     1     -24.208  16.399  10.403  1.00 20.00     0.005 C 
HETATM    2  C3  UNL     1     -23.067  16.608   9.399  1.00 20.00     0.006 C 
HETATM    3  C4  UNL     1     -24.909  18.790  10.156  1.00 20.00     0.017 C 
HETATM    4  C5  UNL     1     -22.823  18.187  11.148  1.00 20.00     0.010 C 
HETATM    5  C6  UNL     1     -23.772  19.044   9.153  1.00 20.00     0.061 C 
HETATM    6  C7  UNL     1     -24.290  17.757  11.120  1.00 20.00    -0.013 C 
HETATM    7  C8  UNL     1     -22.667  18.079   9.629  1.00 20.00    -0.003 C 
ENDROOT
BRANCH   5   8
HETATM    8  C1  UNL     1     -24.181  18.836   7.729  1.00 20.00     0.145 C 
HETATM    9  O10 UNL     1     -23.339  18.607   6.862  1.00 20.00    -0.296 OA
BRANCH   8  10
HETATM   10  C9  UNL     1     -25.664  18.931   7.451  1.00 20.00     0.193 C 
HETATM   11 CL11 UNL     1     -25.969  19.063   5.713  1.00 20.00    -0.123 Cl
ENDBRANCH   8  10
ENDBRANCH   5   8
TORSDOF 2
ENDMDL
MODEL 3
REMARK VINA RESULT:      -4.4      1.276      1.335
REMARK  2 active torsions:
REMARK  status: ('A' for Active; 'I' for Inactive)
REMARK    1  A    between atoms: C1_1  and  C6_6 
REMARK    2  A    between atoms: C1_1  and  C9_9 
ROOT
HETATM    1  C2  UNL     1     -33.835  17.471  -3.846  1.00 20.00     0.005 C 
HETATM    2  C3  UNL     1     -35.320  17.203  -4.127  1.00 20.00     0.006 C 
HETATM    3  C4  UNL     1     -33.321  15.030  -4.056  1.00 20.00     0.017 C 
HETATM    4  C5  UNL     1     -34.659  15.884  -2.273  1.00 20.00     0.010 C 
HETATM    5  C6  UNL     1     -34.802  14.717  -4.331  1.00 20.00     0.061 C 
HETATM    6  C7  UNL     1     -33.399  16.215  -3.074  1.00 20.00    -0.013 C 
HETATM    7  C8  UNL     1     -35.541  15.803  -3.522  1.00 20.00    -0.003 C 
ENDROOT
BRANCH   5   8
HETATM    8  C1  UNL     1     -35.145  14.712  -5.788  1.00 20.00     0.145 C 
HETATM    9  O10 UNL     1     -36.293  14.474  -6.160  1.00 20.00    -0.296 OA
BRANCH   8  10
HETATM   10  C9  UNL     1     -34.004  15.010  -6.733  1.00 20.00     0.193 C 
HETATM   11 CL11 UNL     1     -34.231  16.582  -7.513  1.00 20.00    -0.123 Cl
ENDBRANCH   8  10
ENDBRANCH   5   8
TORSDOF 2
ENDMDL
MODEL 4
REMARK VINA RESULT:      -4.4      1.480      1.968
REMARK  2 active torsions:
REMARK  status: ('A' for Active; 'I' for Inactive)
REMARK    1  A    between atoms: C1_1  and  C6_6 
REMARK    2  A    between atoms: C1_1  and  C9_9 
ROOT
HETATM    1  C2  UNL     1     -35.535  17.234  -2.962  1.00 20.00     0.005 C 
HETATM    2  C3  UNL     1     -35.029  15.983  -2.232  1.00 20.00     0.006 C 
HETATM    3  C4  UNL     1     -34.442  16.479  -5.084  1.00 20.00     0.017 C 
HETATM    4  C5  UNL     1     -33.166  17.108  -3.168  1.00 20.00     0.010 C 
HETATM    5  C6  UNL     1     -33.908  15.216  -4.387  1.00 20.00     0.061 C 
HETATM    6  C7  UNL     1     -34.403  17.532  -3.960  1.00 20.00    -0.013 C 
HETATM    7  C8  UNL     1     -33.689  15.688  -2.935  1.00 20.00    -0.003 C 
ENDROOT
BRANCH   5   8
HETATM    8  C1  UNL     1     -34.825  14.040  -4.508  1.00 20.00     0.145 C 
HETATM    9  O10 UNL     1     -34.559  12.978  -3.947  1.00 20.00    -0.296 OA
BRANCH   8  10
HETATM   10  C9  UNL     1     -36.062  14.255  -5.349  1.00 20.00     0.193 C 
HETATM   11 CL11 UNL     1     -37.497  14.409  -4.324  1.00 20.00    -0.123 Cl
ENDBRANCH   8  10
ENDBRANCH   5   8
TORSDOF 2
ENDMDL
MODEL 5
REMARK VINA RESULT:      -4.3     11.025     12.160
REMARK  2 active torsions:
REMARK  status: ('A' for Active; 'I' for Inactive)
REMARK    1  A    between atoms: C1_1  and  C6_6 
REMARK    2  A    between atoms: C1_1  and  C9_9 
ROOT
HETATM    1  C2  UNL     1     -41.316   8.481  -0.602  1.00 20.00     0.005 C 
HETATM    2  C3  UNL     1     -42.381   7.912  -1.550  1.00 20.00     0.006 C 
HETATM    3  C4  UNL     1     -41.375   6.390   0.774  1.00 20.00     0.017 C 
HETATM    4  C5  UNL     1     -43.244   7.870   0.656  1.00 20.00     0.010 C 
HETATM    5  C6  UNL     1     -42.449   5.786  -0.146  1.00 20.00     0.061 C 
HETATM    6  C7  UNL     1     -41.718   7.892   0.761  1.00 20.00    -0.013 C 
HETATM    7  C8  UNL     1     -43.235   7.026  -0.622  1.00 20.00    -0.003 C 
ENDROOT
BRANCH   5   8
HETATM    8  C1  UNL     1     -41.881   4.968  -1.263  1.00 20.00     0.145 C 
HETATM    9  O10 UNL     1     -40.666   4.928  -1.455  1.00 20.00    -0.296 OA
BRANCH   8  10
HETATM   10  C9  UNL     1     -42.887   4.222  -2.108  1.00 20.00     0.193 C 
HETATM   11 CL11 UNL     1     -42.080   3.029  -3.137  1.00 20.00    -0.123 Cl
ENDBRANCH   8  10
ENDBRANCH   5   8
TORSDOF 2
ENDMDL
MODEL 6
REMARK VINA RESULT:      -4.3      1.609      2.023
REMARK  2 active torsions:
REMARK  status: ('A' for Active; 'I' for Inactive)
REMARK    1  A    between atoms: C1_1  and  C6_6 
REMARK    2  A    between atoms: C1_1  and  C9_9 
ROOT
HETATM    1  C2  UNL     1     -34.425  16.681  -3.176  1.00 20.00     0.005 C 
HETATM    2  C3  UNL     1     -35.013  15.365  -2.648  1.00 20.00     0.006 C 
HETATM    3  C4  UNL     1     -34.911  15.990  -5.533  1.00 20.00     0.017 C 
HETATM    4  C5  UNL     1     -33.295  14.850  -4.196  1.00 20.00     0.010 C 
HETATM    5  C6  UNL     1     -35.499  14.656  -5.046  1.00 20.00     0.061 C 
HETATM    6  C7  UNL     1     -33.788  16.262  -4.512  1.00 20.00    -0.013 C 
HETATM    7  C8  UNL     1     -34.683  14.362  -3.770  1.00 20.00    -0.003 C 
ENDROOT
BRANCH   5   8
HETATM    8  C1  UNL     1     -36.977  14.709  -4.817  1.00 20.00     0.145 C 
HETATM    9  O10 UNL     1     -37.581  13.724  -4.392  1.00 20.00    -0.296 OA
BRANCH   8  10
HETATM   10  C9  UNL     1     -37.645  16.025  -5.141  1.00 20.00     0.193 C 
HETATM   11 CL11 UNL     1     -38.127  16.864  -3.659  1.00 20.00    -0.123 Cl
ENDBRANCH   8  10
ENDBRANCH   5   8
TORSDOF 2
ENDMDL
MODEL 7
REMARK VINA RESULT:      -4.1      1.425      2.000
REMARK  2 active torsions:
REMARK  status: ('A' for Active; 'I' for Inactive)
REMARK    1  A    between atoms: C1_1  and  C6_6 
REMARK    2  A    between atoms: C1_1  and  C9_9 
ROOT
HETATM    1  C2  UNL     1     -33.957  14.991  -5.930  1.00 20.00     0.005 C 
HETATM    2  C3  UNL     1     -34.927  16.155  -5.688  1.00 20.00     0.006 C 
HETATM    3  C4  UNL     1     -34.738  13.861  -3.837  1.00 20.00     0.017 C 
HETATM    4  C5  UNL     1     -33.542  15.926  -3.779  1.00 20.00     0.010 C 
HETATM    5  C6  UNL     1     -35.717  15.012  -3.553  1.00 20.00     0.061 C 
HETATM    6  C7  UNL     1     -33.550  14.580  -4.505  1.00 20.00    -0.013 C 
HETATM    7  C8  UNL     1     -34.995  16.237  -4.151  1.00 20.00    -0.003 C 
ENDROOT
BRANCH   5   8
HETATM    8  C1  UNL     1     -37.083  14.782  -4.119  1.00 20.00     0.145 C 
HETATM    9  O10 UNL     1     -37.397  13.681  -4.571  1.00 20.00    -0.296 OA
BRANCH   8  10
HETATM   10  C9  UNL     1     -38.014  15.973  -4.094  1.00 20.00     0.193 C 
HETATM   11 CL11 UNL     1     -38.553  16.381  -5.729  1.00 20.00    -0.123 Cl
ENDBRANCH   8  10
ENDBRANCH   5   8
TORSDOF 2
ENDMDL
MODEL 8
REMARK VINA RESULT:      -4.0      3.558      4.688
REMARK  2 active torsions:
REMARK  status: ('A' for Active; 'I' for Inactive)
REMARK    1  A    between atoms: C1_1  and  C6_6 
REMARK    2  A    between atoms: C1_1  and  C9_9 
ROOT
HETATM    1  C2  UNL     1     -35.543  16.614  -4.305  1.00 20.00     0.005 C 
HETATM    2  C3  UNL     1     -34.154  17.238  -4.496  1.00 20.00     0.006 C 
HETATM    3  C4  UNL     1     -35.063  16.207  -1.882  1.00 20.00     0.017 C 
HETATM    4  C5  UNL     1     -33.880  15.059  -3.607  1.00 20.00     0.010 C 
HETATM    5  C6  UNL     1     -33.659  16.817  -2.033  1.00 20.00     0.061 C 
HETATM    6  C7  UNL     1     -35.290  15.528  -3.246  1.00 20.00    -0.013 C 
HETATM    7  C8  UNL     1     -33.283  16.464  -3.487  1.00 20.00    -0.003 C 
ENDROOT
BRANCH   5   8
HETATM    8  C1  UNL     1     -33.615  18.283  -1.737  1.00 20.00     0.145 C 
HETATM    9  O10 UNL     1     -34.645  18.900  -1.470  1.00 20.00    -0.296 OA
BRANCH   8  10
HETATM   10  C9  UNL     1     -32.247  18.923  -1.793  1.00 20.00     0.193 C 
HETATM   11 CL11 UNL     1     -31.182  18.234  -0.559  1.00 20.00    -0.123 Cl
ENDBRANCH   8  10
ENDBRANCH   5   8
TORSDOF 2
ENDMDL
MODEL 9
REMARK VINA RESULT:      -3.9      2.218      3.518
REMARK  2 active torsions:
REMARK  status: ('A' for Active; 'I' for Inactive)
REMARK    1  A    between atoms: C1_1  and  C6_6 
REMARK    2  A    between atoms: C1_1  and  C9_9 
ROOT
HETATM    1  C2  UNL     1     -34.401  16.738  -6.637  1.00 20.00     0.005 C 
HETATM    2  C3  UNL     1     -34.168  15.223  -6.719  1.00 20.00     0.006 C 
HETATM    3  C4  UNL     1     -36.290  16.393  -5.030  1.00 20.00     0.017 C 
HETATM    4  C5  UNL     1     -36.422  15.665  -7.300  1.00 20.00     0.010 C 
HETATM    5  C6  UNL     1     -36.095  14.869  -5.091  1.00 20.00     0.061 C 
HETATM    6  C7  UNL     1     -35.926  16.842  -6.459  1.00 20.00    -0.013 C 
HETATM    7  C8  UNL     1     -35.582  14.642  -6.529  1.00 20.00    -0.003 C 
ENDROOT
BRANCH   5   8
HETATM    8  C1  UNL     1     -35.175  14.346  -4.034  1.00 20.00     0.145 C 
HETATM    9  O10 UNL     1     -34.821  13.168  -4.037  1.00 20.00    -0.296 OA
BRANCH   8  10
HETATM   10  C9  UNL     1     -34.732  15.350  -2.994  1.00 20.00     0.193 C 
HETATM   11 CL11 UNL     1     -33.084  15.905  -3.321  1.00 20.00    -0.123 Cl
ENDBRANCH   8  10
ENDBRANCH   5   8
TORSDOF 2
ENDMDL
