MODEL 1
REMARK VINA RESULT:      -4.4      0.000      0.000
REMARK  3 active torsions:
REMARK  status: ('A' for Active; 'I' for Inactive)
REMARK    1  A    between atoms: C1_1  and  C5_5 
REMARK    2  A    between atoms: C1_1  and  C8_8 
REMARK    3  A    between atoms: C8_8  and  C9_9 
ROOT
HETATM    1  C2  UNL     1     -36.361  16.135  -6.868  1.00 20.00     0.029 C 
HETATM    2  C3  UNL     1     -36.034  16.207  -5.395  1.00 20.00     0.048 C 
HETATM    3  C4  UNL     1     -35.777  14.797  -7.254  1.00 20.00     0.169 C 
HETATM    4  C5  UNL     1     -36.148  14.752  -4.953  1.00 20.00     0.117 C 
HETATM    5  C6  UNL     1     -37.497  14.416  -4.333  1.00 20.00     0.054 C 
HETATM    6  O11 UNL     1     -35.966  13.938  -6.122  1.00 20.00    -0.373 OA
ENDROOT
BRANCH   4   7
HETATM    7  C1  UNL     1     -35.035  14.387  -4.016  1.00 20.00     0.160 C 
HETATM    8  O10 UNL     1     -34.472  13.296  -4.095  1.00 20.00    -0.295 OA
BRANCH   7   9
HETATM    9  C8  UNL     1     -34.657  15.436  -2.986  1.00 20.00     0.081 C 
BRANCH   9  10
HETATM   10  C9  UNL     1     -33.244  15.974  -3.190  1.00 20.00     0.003 C 
HETATM   11  C7  UNL     1     -32.980  17.191  -2.320  1.00 20.00     0.005 C 
ENDBRANCH   9  10
ENDBRANCH   7   9
ENDBRANCH   4   7
TORSDOF 3
ENDMDL
MODEL 2
REMARK VINA RESULT:      -4.2      1.851      2.810
REMARK  3 active torsions:
REMARK  status: ('A' for Active; 'I' for Inactive)
REMARK    1  A    between atoms: C1_1  and  C5_5 
REMARK    2  A    between atoms: C1_1  and  C8_8 
REMARK    3  A    between atoms: C8_8  and  C9_9 
ROOT
HETATM    1  C2  UNL     1     -36.181  13.605  -4.455  1.00 20.00     0.029 C 
HETATM    2  C3  UNL     1     -34.784  14.126  -4.218  1.00 20.00     0.048 C 
HETATM    3  C4  UNL     1     -36.959  14.880  -4.677  1.00 20.00     0.169 C 
HETATM    4  C5  UNL     1     -34.720  15.347  -5.128  1.00 20.00     0.117 C 
HETATM    5  C6  UNL     1     -34.064  15.062  -6.472  1.00 20.00     0.054 C 
HETATM    6  O11 UNL     1     -36.072  15.774  -5.360  1.00 20.00    -0.373 OA
ENDROOT
BRANCH   4   7
HETATM    7  C1  UNL     1     -34.035  16.493  -4.443  1.00 20.00     0.160 C 
HETATM    8  O10 UNL     1     -34.100  17.633  -4.898  1.00 20.00    -0.295 OA
BRANCH   7   9
HETATM    9  C8  UNL     1     -33.274  16.153  -3.174  1.00 20.00     0.081 C 
BRANCH   9  10
HETATM   10  C9  UNL     1     -33.747  16.967  -1.972  1.00 20.00     0.003 C 
HETATM   11  C7  UNL     1     -35.140  16.550  -1.530  1.00 20.00     0.005 C 
ENDBRANCH   9  10
ENDBRANCH   7   9
ENDBRANCH   4   7
TORSDOF 3
ENDMDL
MODEL 3
REMARK VINA RESULT:      -4.2     18.285     19.327
REMARK  3 active torsions:
REMARK  status: ('A' for Active; 'I' for Inactive)
REMARK    1  A    between atoms: C1_1  and  C5_5 
REMARK    2  A    between atoms: C1_1  and  C8_8 
REMARK    3  A    between atoms: C8_8  and  C9_9 
ROOT
HETATM    1  C2  UNL     1     -22.004  17.162   9.036  1.00 20.00     0.029 C 
HETATM    2  C3  UNL     1     -23.510  17.252   8.983  1.00 20.00     0.048 C 
HETATM    3  C4  UNL     1     -21.672  18.125  10.151  1.00 20.00     0.169 C 
HETATM    4  C5  UNL     1     -23.888  17.466  10.444  1.00 20.00     0.117 C 
HETATM    5  C6  UNL     1     -24.288  16.180  11.156  1.00 20.00     0.054 C 
HETATM    6  O11 UNL     1     -22.737  18.015  11.103  1.00 20.00    -0.373 OA
ENDROOT
BRANCH   4   7
HETATM    7  C1  UNL     1     -24.971  18.495  10.573  1.00 20.00     0.160 C 
HETATM    8  O10 UNL     1     -25.355  19.138   9.597  1.00 20.00    -0.295 OA
BRANCH   7   9
HETATM    9  C8  UNL     1     -25.551  18.684  11.964  1.00 20.00     0.081 C 
BRANCH   9  10
HETATM   10  C9  UNL     1     -27.075  18.768  11.956  1.00 20.00     0.003 C 
HETATM   11  C7  UNL     1     -27.708  17.439  12.332  1.00 20.00     0.005 C 
ENDBRANCH   9  10
ENDBRANCH   7   9
ENDBRANCH   4   7
TORSDOF 3
ENDMDL
MODEL 4
REMARK VINA RESULT:      -4.2     11.302     12.732
REMARK  3 active torsions:
REMARK  status: ('A' for Active; 'I' for Inactive)
REMARK    1  A    between atoms: C1_1  and  C5_5 
REMARK    2  A    between atoms: C1_1  and  C8_8 
REMARK    3  A    between atoms: C8_8  and  C9_9 
ROOT
HETATM    1  C2  UNL     1     -34.655   5.158   6.244  1.00 20.00     0.029 C 
HETATM    2  C3  UNL     1     -34.352   4.564   4.889  1.00 20.00     0.048 C 
HETATM    3  C4  UNL     1     -34.011   6.519   6.141  1.00 20.00     0.169 C 
HETATM    4  C5  UNL     1     -34.412   5.778   3.968  1.00 20.00     0.117 C 
HETATM    5  C6  UNL     1     -35.755   5.936   3.268  1.00 20.00     0.054 C 
HETATM    6  O11 UNL     1     -34.179   6.938   4.781  1.00 20.00    -0.373 OA
ENDROOT
BRANCH   4   7
HETATM    7  C1  UNL     1     -33.298   5.745   2.964  1.00 20.00     0.160 C 
HETATM    8  O10 UNL     1     -33.006   4.705   2.375  1.00 20.00    -0.295 OA
BRANCH   7   9
HETATM    9  C8  UNL     1     -32.572   7.058   2.728  1.00 20.00     0.081 C 
BRANCH   9  10
HETATM   10  C9  UNL     1     -32.477   7.416   1.247  1.00 20.00     0.003 C 
HETATM   11  C7  UNL     1     -32.921   8.846   0.990  1.00 20.00     0.005 C 
ENDBRANCH   9  10
ENDBRANCH   7   9
ENDBRANCH   4   7
TORSDOF 3
ENDMDL
MODEL 5
REMARK VINA RESULT:      -4.1      1.291      2.270
REMARK  3 active torsions:
REMARK  status: ('A' for Active; 'I' for Inactive)
REMARK    1  A    between atoms: C1_1  and  C5_5 
REMARK    2  A    between atoms: C1_1  and  C8_8 
REMARK    3  A    between atoms: C8_8  and  C9_9 
ROOT
HETATM    1  C2  UNL     1     -37.940  14.720  -4.408  1.00 20.00     0.029 C 
HETATM    2  C3  UNL     1     -36.636  13.960  -4.458  1.00 20.00     0.048 C 
HETATM    3  C4  UNL     1     -37.466  16.147  -4.266  1.00 20.00     0.169 C 
HETATM    4  C5  UNL     1     -35.711  14.924  -5.193  1.00 20.00     0.117 C 
HETATM    5  C6  UNL     1     -35.597  14.629  -6.682  1.00 20.00     0.054 C 
HETATM    6  O11 UNL     1     -36.255  16.242  -5.028  1.00 20.00    -0.373 OA
ENDROOT
BRANCH   4   7
HETATM    7  C1  UNL     1     -34.353  14.953  -4.558  1.00 20.00     0.160 C 
HETATM    8  O10 UNL     1     -33.689  13.925  -4.432  1.00 20.00    -0.295 OA
BRANCH   7   9
HETATM    9  C8  UNL     1     -33.861  16.313  -4.093  1.00 20.00     0.081 C 
BRANCH   9  10
HETATM   10  C9  UNL     1     -33.586  16.354  -2.593  1.00 20.00     0.003 C 
HETATM   11  C7  UNL     1     -34.869  16.242  -1.788  1.00 20.00     0.005 C 
ENDBRANCH   9  10
ENDBRANCH   7   9
ENDBRANCH   4   7
TORSDOF 3
ENDMDL
MODEL 6
REMARK VINA RESULT:      -4.0      1.408      3.666
REMARK  3 active torsions:
REMARK  status: ('A' for Active; 'I' for Inactive)
REMARK    1  A    between atoms: C1_1  and  C5_5 
REMARK    2  A    between atoms: C1_1  and  C8_8 
REMARK    3  A    between atoms: C8_8  and  C9_9 
ROOT
HETATM    1  C2  UNL     1     -33.104  15.755  -3.577  1.00 20.00     0.029 C 
HETATM    2  C3  UNL     1     -34.583  15.851  -3.864  1.00 20.00     0.048 C 
HETATM    3  C4  UNL     1     -32.717  14.507  -4.335  1.00 20.00     0.169 C 
HETATM    4  C5  UNL     1     -34.687  15.314  -5.287  1.00 20.00     0.117 C 
HETATM    5  C6  UNL     1     -34.714  16.410  -6.343  1.00 20.00     0.054 C 
HETATM    6  O11 UNL     1     -33.534  14.488  -5.513  1.00 20.00    -0.373 OA
ENDROOT
BRANCH   4   7
HETATM    7  C1  UNL     1     -35.877  14.414  -5.435  1.00 20.00     0.160 C 
HETATM    8  O10 UNL     1     -36.133  13.872  -6.510  1.00 20.00    -0.295 OA
BRANCH   7   9
HETATM    9  C8  UNL     1     -36.728  14.220  -4.192  1.00 20.00     0.081 C 
BRANCH   9  10
HETATM   10  C9  UNL     1     -38.159  14.714  -4.379  1.00 20.00     0.003 C 
HETATM   11  C7  UNL     1     -38.227  16.232  -4.392  1.00 20.00     0.005 C 
ENDBRANCH   9  10
ENDBRANCH   7   9
ENDBRANCH   4   7
TORSDOF 3
ENDMDL
MODEL 7
REMARK VINA RESULT:      -4.0      1.350      1.667
REMARK  3 active torsions:
REMARK  status: ('A' for Active; 'I' for Inactive)
REMARK    1  A    between atoms: C1_1  and  C5_5 
REMARK    2  A    between atoms: C1_1  and  C8_8 
REMARK    3  A    between atoms: C8_8  and  C9_9 
ROOT
HETATM    1  C2  UNL     1     -37.399  17.493  -5.093  1.00 20.00     0.029 C 
HETATM    2  C3  UNL     1     -37.052  16.547  -3.969  1.00 20.00     0.048 C 
HETATM    3  C4  UNL     1     -36.922  16.730  -6.305  1.00 20.00     0.169 C 
HETATM    4  C5  UNL     1     -37.270  15.177  -4.601  1.00 20.00     0.117 C 
HETATM    5  C6  UNL     1     -38.634  14.579  -4.285  1.00 20.00     0.054 C 
HETATM    6  O11 UNL     1     -37.162  15.345  -6.023  1.00 20.00    -0.373 OA
ENDROOT
BRANCH   4   7
HETATM    7  C1  UNL     1     -36.177  14.226  -4.212  1.00 20.00     0.160 C 
HETATM    8  O10 UNL     1     -36.152  13.077  -4.648  1.00 20.00    -0.295 OA
BRANCH   7   9
HETATM    9  C8  UNL     1     -35.125  14.770  -3.262  1.00 20.00     0.081 C 
BRANCH   9  10
HETATM   10  C9  UNL     1     -33.791  15.034  -3.956  1.00 20.00     0.003 C 
HETATM   11  C7  UNL     1     -33.067  16.218  -3.339  1.00 20.00     0.005 C 
ENDBRANCH   9  10
ENDBRANCH   7   9
ENDBRANCH   4   7
TORSDOF 3
ENDMDL
MODEL 8
REMARK VINA RESULT:      -4.0      2.111      2.931
REMARK  3 active torsions:
REMARK  status: ('A' for Active; 'I' for Inactive)
REMARK    1  A    between atoms: C1_1  and  C5_5 
REMARK    2  A    between atoms: C1_1  and  C8_8 
REMARK    3  A    between atoms: C8_8  and  C9_9 
ROOT
HETATM    1  C2  UNL     1     -36.056  14.038  -5.122  1.00 20.00     0.029 C 
HETATM    2  C3  UNL     1     -35.316  14.061  -3.806  1.00 20.00     0.048 C 
HETATM    3  C4  UNL     1     -35.922  15.470  -5.582  1.00 20.00     0.169 C 
HETATM    4  C5  UNL     1     -34.200  15.067  -4.064  1.00 20.00     0.117 C 
HETATM    5  C6  UNL     1     -32.880  14.415  -4.454  1.00 20.00     0.054 C 
HETATM    6  O11 UNL     1     -34.631  15.911  -5.143  1.00 20.00    -0.373 OA
ENDROOT
BRANCH   4   7
HETATM    7  C1  UNL     1     -34.009  15.971  -2.882  1.00 20.00     0.160 C 
HETATM    8  O10 UNL     1     -32.959  16.591  -2.722  1.00 20.00    -0.295 OA
BRANCH   7   9
HETATM    9  C8  UNL     1     -35.178  16.067  -1.918  1.00 20.00     0.081 C 
BRANCH   9  10
HETATM   10  C9  UNL     1     -35.274  17.435  -1.248  1.00 20.00     0.003 C 
HETATM   11  C7  UNL     1     -35.211  17.320   0.265  1.00 20.00     0.005 C 
ENDBRANCH   9  10
ENDBRANCH   7   9
ENDBRANCH   4   7
TORSDOF 3
ENDMDL
MODEL 9
REMARK VINA RESULT:      -3.9     11.006     12.852
REMARK  3 active torsions:
REMARK  status: ('A' for Active; 'I' for Inactive)
REMARK    1  A    between atoms: C1_1  and  C5_5 
REMARK    2  A    between atoms: C1_1  and  C8_8 
REMARK    3  A    between atoms: C8_8  and  C9_9 
ROOT
HETATM    1  C2  UNL     1     -41.734   8.538   0.548  1.00 20.00     0.029 C 
HETATM    2  C3  UNL     1     -41.113   7.177   0.337  1.00 20.00     0.048 C 
HETATM    3  C4  UNL     1     -42.861   8.528  -0.456  1.00 20.00     0.169 C 
HETATM    4  C5  UNL     1     -42.317   6.307  -0.004  1.00 20.00     0.117 C 
HETATM    5  C6  UNL     1     -42.865   5.541   1.193  1.00 20.00     0.054 C 
HETATM    6  O11 UNL     1     -43.345   7.179  -0.499  1.00 20.00    -0.373 OA
ENDROOT
BRANCH   4   7
HETATM    7  C1  UNL     1     -41.998   5.365  -1.127  1.00 20.00     0.160 C 
HETATM    8  O10 UNL     1     -40.836   5.044  -1.374  1.00 20.00    -0.295 OA
BRANCH   7   9
HETATM    9  C8  UNL     1     -43.183   4.845  -1.921  1.00 20.00     0.081 C 
BRANCH   9  10
HETATM   10  C9  UNL     1     -43.091   3.346  -2.196  1.00 20.00     0.003 C 
HETATM   11  C7  UNL     1     -42.808   3.064  -3.661  1.00 20.00     0.005 C 
ENDBRANCH   9  10
ENDBRANCH   7   9
ENDBRANCH   4   7
TORSDOF 3
ENDMDL
