MODEL 1
REMARK VINA RESULT:      -3.8      0.000      0.000
REMARK  1 active torsions:
REMARK  status: ('A' for Active; 'I' for Inactive)
REMARK    1  A    between atoms: C4_4  and  C6_6 
ROOT
HETATM    1  C1  UNL     1     -33.356   4.713   2.454  1.00 20.00     0.029 C 
HETATM    2  C2  UNL     1     -33.928   4.245   3.769  1.00 20.00     0.041 C 
HETATM    3  C3  UNL     1     -32.946   6.132   2.778  1.00 20.00     0.169 C 
HETATM    4  C4  UNL     1     -34.606   5.506   4.305  1.00 20.00     0.070 C 
HETATM    5  C5  UNL     1     -36.056   5.624   3.830  1.00 20.00     0.047 C 
HETATM    6  O7  UNL     1     -33.873   6.620   3.758  1.00 20.00    -0.379 OA
ENDROOT
BRANCH   4   7
HETATM    7  C6  UNL     1     -34.544   5.583   5.828  1.00 20.00     0.152 C 
HETATM    8 CL8  UNL     1     -33.742   7.081   6.332  1.00 20.00    -0.127 Cl
ENDBRANCH   4   7
TORSDOF 1
ENDMDL
MODEL 2
REMARK VINA RESULT:      -3.7     16.470     17.257
REMARK  1 active torsions:
REMARK  status: ('A' for Active; 'I' for Inactive)
REMARK    1  A    between atoms: C4_4  and  C6_6 
ROOT
HETATM    1  C1  UNL     1     -25.389  16.190  12.278  1.00 20.00     0.029 C 
HETATM    2  C2  UNL     1     -24.328  16.226  11.206  1.00 20.00     0.041 C 
HETATM    3  C3  UNL     1     -25.950  17.592  12.209  1.00 20.00     0.169 C 
HETATM    4  C4  UNL     1     -23.785  17.651  11.321  1.00 20.00     0.070 C 
HETATM    5  C5  UNL     1     -22.634  17.746  12.325  1.00 20.00     0.047 C 
HETATM    6  O7  UNL     1     -24.871  18.455  11.822  1.00 20.00    -0.379 OA
ENDROOT
BRANCH   4   7
HETATM    7  C6  UNL     1     -23.351  18.206   9.968  1.00 20.00     0.152 C 
HETATM    8 CL8  UNL     1     -22.552  16.943   9.016  1.00 20.00    -0.127 Cl
ENDBRANCH   4   7
TORSDOF 1
ENDMDL
MODEL 3
REMARK VINA RESULT:      -3.6     16.643     17.310
REMARK  1 active torsions:
REMARK  status: ('A' for Active; 'I' for Inactive)
REMARK    1  A    between atoms: C4_4  and  C6_6 
ROOT
HETATM    1  C1  UNL     1     -22.092  17.710  10.372  1.00 20.00     0.029 C 
HETATM    2  C2  UNL     1     -22.751  17.774  11.727  1.00 20.00     0.041 C 
HETATM    3  C3  UNL     1     -23.154  18.312   9.479  1.00 20.00     0.169 C 
HETATM    4  C4  UNL     1     -24.218  17.496  11.398  1.00 20.00     0.070 C 
HETATM    5  C5  UNL     1     -24.539  16.000  11.422  1.00 20.00     0.047 C 
HETATM    6  O7  UNL     1     -24.424  17.967  10.051  1.00 20.00    -0.379 OA
ENDROOT
BRANCH   4   7
HETATM    7  C6  UNL     1     -25.163  18.252  12.328  1.00 20.00     0.152 C 
HETATM    8 CL8  UNL     1     -26.271  19.263  11.384  1.00 20.00    -0.127 Cl
ENDBRANCH   4   7
TORSDOF 1
ENDMDL
MODEL 4
REMARK VINA RESULT:      -3.6     16.503     17.290
REMARK  1 active torsions:
REMARK  status: ('A' for Active; 'I' for Inactive)
REMARK    1  A    between atoms: C4_4  and  C6_6 
ROOT
HETATM    1  C1  UNL     1     -25.550  17.038  12.332  1.00 20.00     0.029 C 
HETATM    2  C2  UNL     1     -24.493  18.093  12.118  1.00 20.00     0.041 C 
HETATM    3  C3  UNL     1     -24.884  15.808  11.759  1.00 20.00     0.169 C 
HETATM    4  C4  UNL     1     -23.875  17.681  10.782  1.00 20.00     0.070 C 
HETATM    5  C5  UNL     1     -24.605  18.312   9.594  1.00 20.00     0.047 C 
HETATM    6  O7  UNL     1     -24.039  16.252  10.688  1.00 20.00    -0.379 OA
ENDROOT
BRANCH   4   7
HETATM    7  C6  UNL     1     -22.385  18.006  10.718  1.00 20.00     0.152 C 
HETATM    8 CL8  UNL     1     -21.647  17.804  12.316  1.00 20.00    -0.127 Cl
ENDBRANCH   4   7
TORSDOF 1
ENDMDL
MODEL 5
REMARK VINA RESULT:      -3.5     16.797     17.488
REMARK  1 active torsions:
REMARK  status: ('A' for Active; 'I' for Inactive)
REMARK    1  A    between atoms: C4_4  and  C6_6 
ROOT
HETATM    1  C1  UNL     1     -22.760  17.727   8.334  1.00 20.00     0.029 C 
HETATM    2  C2  UNL     1     -22.207  17.404   9.700  1.00 20.00     0.041 C 
HETATM    3  C3  UNL     1     -23.787  18.788   8.656  1.00 20.00     0.169 C 
HETATM    4  C4  UNL     1     -23.440  17.525  10.596  1.00 20.00     0.070 C 
HETATM    5  C5  UNL     1     -24.205  16.204  10.702  1.00 20.00     0.047 C 
HETATM    6  O7  UNL     1     -24.306  18.484   9.959  1.00 20.00    -0.379 OA
ENDROOT
BRANCH   4   7
HETATM    7  C6  UNL     1     -23.083  18.040  11.988  1.00 20.00     0.152 C 
HETATM    8 CL8  UNL     1     -21.371  17.737  12.332  1.00 20.00    -0.127 Cl
ENDBRANCH   4   7
TORSDOF 1
ENDMDL
MODEL 6
REMARK VINA RESULT:      -3.5     16.592     17.232
REMARK  1 active torsions:
REMARK  status: ('A' for Active; 'I' for Inactive)
REMARK    1  A    between atoms: C4_4  and  C6_6 
ROOT
HETATM    1  C1  UNL     1     -22.238  17.325   8.332  1.00 20.00     0.029 C 
HETATM    2  C2  UNL     1     -23.121  16.565   9.291  1.00 20.00     0.041 C 
HETATM    3  C3  UNL     1     -21.360  18.115   9.277  1.00 20.00     0.169 C 
HETATM    4  C4  UNL     1     -23.326  17.570  10.425  1.00 20.00     0.070 C 
HETATM    5  C5  UNL     1     -24.537  18.474  10.178  1.00 20.00     0.047 C 
HETATM    6  O7  UNL     1     -22.151  18.406  10.437  1.00 20.00    -0.379 OA
ENDROOT
BRANCH   4   7
HETATM    7  C6  UNL     1     -23.449  16.882  11.781  1.00 20.00     0.152 C 
HETATM    8 CL8  UNL     1     -24.635  15.568  11.694  1.00 20.00    -0.127 Cl
ENDBRANCH   4   7
TORSDOF 1
ENDMDL
MODEL 7
REMARK VINA RESULT:      -3.4      9.060      9.685
REMARK  1 active torsions:
REMARK  status: ('A' for Active; 'I' for Inactive)
REMARK    1  A    between atoms: C4_4  and  C6_6 
ROOT
HETATM    1  C1  UNL     1     -41.453   8.396  -0.251  1.00 20.00     0.029 C 
HETATM    2  C2  UNL     1     -41.746   7.153   0.552  1.00 20.00     0.041 C 
HETATM    3  C3  UNL     1     -42.575   8.385  -1.264  1.00 20.00     0.169 C 
HETATM    4  C4  UNL     1     -42.282   6.189  -0.507  1.00 20.00     0.070 C 
HETATM    5  C5  UNL     1     -41.163   5.380  -1.165  1.00 20.00     0.047 C 
HETATM    6  O7  UNL     1     -42.887   7.010  -1.526  1.00 20.00    -0.379 OA
ENDROOT
BRANCH   4   7
HETATM    7  C6  UNL     1     -43.346   5.253   0.061  1.00 20.00     0.152 C 
HETATM    8 CL8  UNL     1     -43.377   5.364   1.829  1.00 20.00    -0.127 Cl
ENDBRANCH   4   7
TORSDOF 1
ENDMDL
MODEL 8
REMARK VINA RESULT:      -3.4      8.816      9.561
REMARK  1 active torsions:
REMARK  status: ('A' for Active; 'I' for Inactive)
REMARK    1  A    between atoms: C4_4  and  C6_6 
ROOT
HETATM    1  C1  UNL     1     -42.983   8.759  -0.249  1.00 20.00     0.029 C 
HETATM    2  C2  UNL     1     -42.843   7.431  -0.952  1.00 20.00     0.041 C 
HETATM    3  C3  UNL     1     -41.609   8.936   0.358  1.00 20.00     0.169 C 
HETATM    4  C4  UNL     1     -41.933   6.647  -0.007  1.00 20.00     0.070 C 
HETATM    5  C5  UNL     1     -42.729   5.888   1.058  1.00 20.00     0.047 C 
HETATM    6  O7  UNL     1     -41.118   7.625   0.669  1.00 20.00    -0.379 OA
ENDROOT
BRANCH   4   7
HETATM    7  C6  UNL     1     -41.017   5.688  -0.763  1.00 20.00     0.152 C 
HETATM    8 CL8  UNL     1     -41.976   4.617  -1.800  1.00 20.00    -0.127 Cl
ENDBRANCH   4   7
TORSDOF 1
ENDMDL
MODEL 9
REMARK VINA RESULT:      -3.4      8.679      9.410
REMARK  1 active torsions:
REMARK  status: ('A' for Active; 'I' for Inactive)
REMARK    1  A    between atoms: C4_4  and  C6_6 
ROOT
HETATM    1  C1  UNL     1     -41.076   5.516  -0.522  1.00 20.00     0.029 C 
HETATM    2  C2  UNL     1     -41.169   6.783   0.291  1.00 20.00     0.041 C 
HETATM    3  C3  UNL     1     -42.184   5.712  -1.533  1.00 20.00     0.169 C 
HETATM    4  C4  UNL     1     -42.674   7.049   0.325  1.00 20.00     0.070 C 
HETATM    5  C5  UNL     1     -43.352   6.356   1.509  1.00 20.00     0.047 C 
HETATM    6  O7  UNL     1     -43.210   6.475  -0.884  1.00 20.00    -0.379 OA
ENDROOT
BRANCH   4   7
HETATM    7  C6  UNL     1     -42.989   8.542   0.337  1.00 20.00     0.152 C 
HETATM    8 CL8  UNL     1     -41.490   9.484   0.254  1.00 20.00    -0.127 Cl
ENDBRANCH   4   7
TORSDOF 1
ENDMDL
