MODEL 1
REMARK VINA RESULT:      -4.5      0.000      0.000
REMARK  2 active torsions:
REMARK  status: ('A' for Active; 'I' for Inactive)
REMARK    1  A    between atoms: C5_5  and  C7_7 
REMARK    2  A    between atoms: C7_7  and  N8_8 
ROOT
HETATM    1  C1  UNL     1     -22.193  17.486   8.224  1.00 20.00     0.332 C 
HETATM    2  N8  UNL     1     -22.263  17.178   9.358  1.00 20.00    -0.245 NA
HETATM    3  O9  UNL     1     -22.121  17.794   7.091  1.00 20.00    -0.260 OA
ENDROOT
BRANCH   2   4
HETATM    4  C7  UNL     1     -23.551  16.629   9.760  1.00 20.00     0.190 C 
BRANCH   4   5
HETATM    5  C5  UNL     1     -23.956  17.265  11.086  1.00 20.00     0.075 C 
HETATM    6  C3  UNL     1     -24.932  18.425  10.891  1.00 20.00     0.041 C 
HETATM    7  C2  UNL     1     -25.801  18.337  12.122  1.00 20.00     0.029 C 
HETATM    8  C4  UNL     1     -25.892  16.842  12.331  1.00 20.00     0.169 C 
HETATM    9  O10 UNL     1     -24.654  16.280  11.876  1.00 20.00    -0.379 OA
HETATM   10  C6  UNL     1     -22.711  17.691  11.870  1.00 20.00     0.048 C 
ENDBRANCH   4   5
ENDBRANCH   2   4
TORSDOF 2
ENDMDL
MODEL 2
REMARK VINA RESULT:      -4.3      1.675      2.211
REMARK  2 active torsions:
REMARK  status: ('A' for Active; 'I' for Inactive)
REMARK    1  A    between atoms: C5_5  and  C7_7 
REMARK    2  A    between atoms: C7_7  and  N8_8 
ROOT
HETATM    1  C1  UNL     1     -21.974  17.377   7.209  1.00 20.00     0.332 C 
HETATM    2  N8  UNL     1     -22.654  18.149   7.781  1.00 20.00    -0.245 NA
HETATM    3  O9  UNL     1     -21.295  16.605   6.636  1.00 20.00    -0.260 OA
ENDROOT
BRANCH   2   4
HETATM    4  C7  UNL     1     -22.303  18.348   9.181  1.00 20.00     0.190 C 
BRANCH   4   5
HETATM    5  C5  UNL     1     -23.513  17.991  10.039  1.00 20.00     0.075 C 
HETATM    6  C3  UNL     1     -23.845  16.500   9.968  1.00 20.00     0.041 C 
HETATM    7  C2  UNL     1     -24.372  16.213  11.353  1.00 20.00     0.029 C 
HETATM    8  C4  UNL     1     -23.505  17.110  12.208  1.00 20.00     0.169 C 
HETATM    9  O10 UNL     1     -23.197  18.268  11.419  1.00 20.00    -0.379 OA
HETATM   10  C6  UNL     1     -24.711  18.863   9.653  1.00 20.00     0.048 C 
ENDBRANCH   4   5
ENDBRANCH   2   4
TORSDOF 2
ENDMDL
MODEL 3
REMARK VINA RESULT:      -4.2     17.623     18.388
REMARK  2 active torsions:
REMARK  status: ('A' for Active; 'I' for Inactive)
REMARK    1  A    between atoms: C5_5  and  C7_7 
REMARK    2  A    between atoms: C7_7  and  N8_8 
ROOT
HETATM    1  C1  UNL     1     -36.520  13.879  -4.822  1.00 20.00     0.332 C 
HETATM    2  N8  UNL     1     -35.436  14.139  -5.198  1.00 20.00    -0.245 NA
HETATM    3  O9  UNL     1     -37.604  13.616  -4.447  1.00 20.00    -0.260 OA
ENDROOT
BRANCH   2   4
HETATM    4  C7  UNL     1     -35.078  15.547  -5.095  1.00 20.00     0.190 C 
BRANCH   4   5
HETATM    5  C5  UNL     1     -33.985  15.693  -4.040  1.00 20.00     0.075 C 
HETATM    6  C3  UNL     1     -33.408  17.108  -4.005  1.00 20.00     0.041 C 
HETATM    7  C2  UNL     1     -33.078  17.294  -2.544  1.00 20.00     0.029 C 
HETATM    8  C4  UNL     1     -34.209  16.548  -1.872  1.00 20.00     0.169 C 
HETATM    9  O10 UNL     1     -34.566  15.463  -2.740  1.00 20.00    -0.379 OA
HETATM   10  C6  UNL     1     -32.898  14.636  -4.256  1.00 20.00     0.048 C 
ENDBRANCH   4   5
ENDBRANCH   2   4
TORSDOF 2
ENDMDL
MODEL 4
REMARK VINA RESULT:      -4.2      2.078      2.626
REMARK  2 active torsions:
REMARK  status: ('A' for Active; 'I' for Inactive)
REMARK    1  A    between atoms: C5_5  and  C7_7 
REMARK    2  A    between atoms: C7_7  and  N8_8 
ROOT
HETATM    1  C1  UNL     1     -24.628  19.036   7.154  1.00 20.00     0.332 C 
HETATM    2  N8  UNL     1     -24.746  18.858   8.311  1.00 20.00    -0.245 NA
HETATM    3  O9  UNL     1     -24.512  19.213   5.996  1.00 20.00    -0.260 OA
ENDROOT
BRANCH   2   4
HETATM    4  C7  UNL     1     -23.529  19.065   9.085  1.00 20.00     0.190 C 
BRANCH   4   5
HETATM    5  C5  UNL     1     -23.167  17.756   9.779  1.00 20.00     0.075 C 
HETATM    6  C3  UNL     1     -22.749  17.975  11.233  1.00 20.00     0.041 C 
HETATM    7  C2  UNL     1     -23.250  16.724  11.914  1.00 20.00     0.029 C 
HETATM    8  C4  UNL     1     -24.537  16.458  11.165  1.00 20.00     0.169 C 
HETATM    9  O10 UNL     1     -24.340  16.917   9.821  1.00 20.00    -0.379 OA
HETATM   10  C6  UNL     1     -22.093  17.013   8.980  1.00 20.00     0.048 C 
ENDBRANCH   4   5
ENDBRANCH   2   4
TORSDOF 2
ENDMDL
MODEL 5
REMARK VINA RESULT:      -4.0     23.131     23.902
REMARK  2 active torsions:
REMARK  status: ('A' for Active; 'I' for Inactive)
REMARK    1  A    between atoms: C5_5  and  C7_7 
REMARK    2  A    between atoms: C7_7  and  N8_8 
ROOT
HETATM    1  C1  UNL     1     -41.485   9.173   0.481  1.00 20.00     0.332 C 
HETATM    2  N8  UNL     1     -41.465   8.014   0.688  1.00 20.00    -0.245 NA
HETATM    3  O9  UNL     1     -41.503  10.331   0.276  1.00 20.00    -0.260 OA
ENDROOT
BRANCH   2   4
HETATM    4  C7  UNL     1     -42.778   7.389   0.771  1.00 20.00     0.190 C 
BRANCH   4   5
HETATM    5  C5  UNL     1     -42.657   5.944   0.294  1.00 20.00     0.075 C 
HETATM    6  C3  UNL     1     -43.397   5.712  -1.023  1.00 20.00     0.041 C 
HETATM    7  C2  UNL     1     -42.540   4.673  -1.705  1.00 20.00     0.029 C 
HETATM    8  C4  UNL     1     -41.150   5.090  -1.280  1.00 20.00     0.169 C 
HETATM    9  O10 UNL     1     -41.268   5.661   0.031  1.00 20.00    -0.379 OA
HETATM   10  C6  UNL     1     -43.127   4.985   1.391  1.00 20.00     0.048 C 
ENDBRANCH   4   5
ENDBRANCH   2   4
TORSDOF 2
ENDMDL
MODEL 6
REMARK VINA RESULT:      -4.0     17.704     18.526
REMARK  2 active torsions:
REMARK  status: ('A' for Active; 'I' for Inactive)
REMARK    1  A    between atoms: C5_5  and  C7_7 
REMARK    2  A    between atoms: C7_7  and  N8_8 
ROOT
HETATM    1  C1  UNL     1     -36.459  13.934  -4.715  1.00 20.00     0.332 C 
HETATM    2  N8  UNL     1     -35.370  14.309  -4.960  1.00 20.00    -0.245 NA
HETATM    3  O9  UNL     1     -37.548  13.559  -4.473  1.00 20.00    -0.260 OA
ENDROOT
BRANCH   2   4
HETATM    4  C7  UNL     1     -34.478  14.376  -3.810  1.00 20.00     0.190 C 
BRANCH   4   5
HETATM    5  C5  UNL     1     -34.398  15.827  -3.343  1.00 20.00     0.075 C 
HETATM    6  C3  UNL     1     -32.953  16.299  -3.187  1.00 20.00     0.041 C 
HETATM    7  C2  UNL     1     -33.038  17.757  -3.569  1.00 20.00     0.029 C 
HETATM    8  C4  UNL     1     -34.076  17.729  -4.668  1.00 20.00     0.169 C 
HETATM    9  O10 UNL     1     -34.990  16.669  -4.354  1.00 20.00    -0.379 OA
HETATM   10  C6  UNL     1     -35.203  16.012  -2.054  1.00 20.00     0.048 C 
ENDBRANCH   4   5
ENDBRANCH   2   4
TORSDOF 2
ENDMDL
MODEL 7
REMARK VINA RESULT:      -4.0     18.854     19.726
REMARK  2 active torsions:
REMARK  status: ('A' for Active; 'I' for Inactive)
REMARK    1  A    between atoms: C5_5  and  C7_7 
REMARK    2  A    between atoms: C7_7  and  N8_8 
ROOT
HETATM    1  C1  UNL     1     -38.289  14.389  -4.353  1.00 20.00     0.332 C 
HETATM    2  N8  UNL     1     -37.201  14.059  -4.048  1.00 20.00    -0.245 NA
HETATM    3  O9  UNL     1     -39.377  14.719  -4.656  1.00 20.00    -0.260 OA
ENDROOT
BRANCH   2   4
HETATM    4  C7  UNL     1     -36.265  13.951  -5.158  1.00 20.00     0.190 C 
BRANCH   4   5
HETATM    5  C5  UNL     1     -35.171  14.999  -4.972  1.00 20.00     0.075 C 
HETATM    6  C3  UNL     1     -34.973  15.365  -3.501  1.00 20.00     0.041 C 
HETATM    7  C2  UNL     1     -33.492  15.647  -3.428  1.00 20.00     0.029 C 
HETATM    8  C4  UNL     1     -32.933  14.629  -4.396  1.00 20.00     0.169 C 
HETATM    9  O10 UNL     1     -33.919  14.443  -5.421  1.00 20.00    -0.379 OA
HETATM   10  C6  UNL     1     -35.467  16.231  -5.833  1.00 20.00     0.048 C 
ENDBRANCH   4   5
ENDBRANCH   2   4
TORSDOF 2
ENDMDL
MODEL 8
REMARK VINA RESULT:      -3.9     17.655     18.467
REMARK  2 active torsions:
REMARK  status: ('A' for Active; 'I' for Inactive)
REMARK    1  A    between atoms: C5_5  and  C7_7 
REMARK    2  A    between atoms: C7_7  and  N8_8 
ROOT
HETATM    1  C1  UNL     1     -36.110  13.705  -4.503  1.00 20.00     0.332 C 
HETATM    2  N8  UNL     1     -36.379  14.851  -4.484  1.00 20.00    -0.245 NA
HETATM    3  O9  UNL     1     -35.843  12.560  -4.521  1.00 20.00    -0.260 OA
ENDROOT
BRANCH   2   4
HETATM    4  C7  UNL     1     -35.298  15.736  -4.898  1.00 20.00     0.190 C 
BRANCH   4   5
HETATM    5  C5  UNL     1     -34.956  16.660  -3.733  1.00 20.00     0.075 C 
HETATM    6  C3  UNL     1     -34.027  15.988  -2.722  1.00 20.00     0.041 C 
HETATM    7  C2  UNL     1     -33.188  17.141  -2.227  1.00 20.00     0.029 C 
HETATM    8  C4  UNL     1     -33.037  17.975  -3.480  1.00 20.00     0.169 C 
HETATM    9  O10 UNL     1     -34.236  17.800  -4.245  1.00 20.00    -0.379 OA
HETATM   10  C6  UNL     1     -36.239  17.178  -3.075  1.00 20.00     0.048 C 
ENDBRANCH   4   5
ENDBRANCH   2   4
TORSDOF 2
ENDMDL
MODEL 9
REMARK VINA RESULT:      -3.8     15.331     16.192
REMARK  2 active torsions:
REMARK  status: ('A' for Active; 'I' for Inactive)
REMARK    1  A    between atoms: C5_5  and  C7_7 
REMARK    2  A    between atoms: C7_7  and  N8_8 
ROOT
HETATM    1  C1  UNL     1     -31.361  18.262  -0.680  1.00 20.00     0.332 C 
HETATM    2  N8  UNL     1     -32.424  18.053  -1.140  1.00 20.00    -0.245 NA
HETATM    3  O9  UNL     1     -30.299  18.471  -0.218  1.00 20.00    -0.260 OA
ENDROOT
BRANCH   2   4
HETATM    4  C7  UNL     1     -32.578  18.467  -2.528  1.00 20.00     0.190 C 
BRANCH   4   5
HETATM    5  C5  UNL     1     -33.610  17.561  -3.192  1.00 20.00     0.075 C 
HETATM    6  C3  UNL     1     -33.118  16.117  -3.302  1.00 20.00     0.041 C 
HETATM    7  C2  UNL     1     -34.391  15.321  -3.142  1.00 20.00     0.029 C 
HETATM    8  C4  UNL     1     -35.153  16.153  -2.134  1.00 20.00     0.169 C 
HETATM    9  O10 UNL     1     -34.790  17.521  -2.363  1.00 20.00    -0.379 OA
HETATM   10  C6  UNL     1     -34.017  18.132  -4.553  1.00 20.00     0.048 C 
ENDBRANCH   4   5
ENDBRANCH   2   4
TORSDOF 2
ENDMDL
