MODEL 1
REMARK VINA RESULT:      -4.4      0.000      0.000
REMARK  3 active torsions:
REMARK  status: ('A' for Active; 'I' for Inactive)
REMARK    1  A    between atoms: C4_4  and  C9_9 
REMARK    2  A    between atoms: C8_8  and  C9_9 
REMARK    3  A    between atoms: C9_9  and  O11_11 
ROOT
HETATM    1  C1  UNL     1     -36.920  14.269  -4.777  1.00 20.00     0.066 C 
HETATM    2  C6  UNL     1     -35.753  14.727  -6.871  1.00 20.00     0.028 C 
HETATM    3  C8  UNL     1     -35.616  14.684  -5.342  1.00 20.00     0.123 C 
HETATM    4  N10 UNL     1     -37.940  13.944  -4.328  1.00 20.00    -0.197 NA
ENDROOT
BRANCH   3   5
HETATM    5  C9  UNL     1     -35.123  16.030  -4.729  1.00 20.00     0.077 C 
HETATM    6  C7  UNL     1     -34.774  17.030  -5.815  1.00 20.00     0.048 C 
BRANCH   5   7
HETATM    7  C4  UNL     1     -33.889  15.828  -3.829  1.00 20.00    -0.012 A 
HETATM    8  C2  UNL     1     -34.035  16.112  -2.352  1.00 20.00     0.013 A 
HETATM    9  C3  UNL     1     -33.249  17.053  -3.220  1.00 20.00     0.013 A 
HETATM   10  C5  UNL     1     -32.990  14.696  -4.245  1.00 20.00     0.018 C 
ENDBRANCH   5   7
BRANCH   5  11
HETATM   11  O11 UNL     1     -36.169  16.587  -3.926  1.00 20.00    -0.388 OA
HETATM   12  H26 UNL     1     -36.213  17.528  -4.155  1.00 20.00     0.210 HD
ENDBRANCH   5  11
ENDBRANCH   3   5
TORSDOF 3
ENDMDL
MODEL 2
REMARK VINA RESULT:      -4.4      1.490      2.203
REMARK  3 active torsions:
REMARK  status: ('A' for Active; 'I' for Inactive)
REMARK    1  A    between atoms: C4_4  and  C9_9 
REMARK    2  A    between atoms: C8_8  and  C9_9 
REMARK    3  A    between atoms: C9_9  and  O11_11 
ROOT
HETATM    1  C1  UNL     1     -35.284  13.724  -4.153  1.00 20.00     0.066 C 
HETATM    2  C6  UNL     1     -32.995  14.516  -4.455  1.00 20.00     0.028 C 
HETATM    3  C8  UNL     1     -34.288  14.697  -3.647  1.00 20.00     0.123 C 
HETATM    4  N10 UNL     1     -36.068  12.963  -4.546  1.00 20.00    -0.197 NA
ENDROOT
BRANCH   3   5
HETATM    5  C9  UNL     1     -34.838  16.155  -3.680  1.00 20.00     0.077 C 
HETATM    6  C7  UNL     1     -34.311  16.911  -4.884  1.00 20.00     0.048 C 
BRANCH   5   7
HETATM    7  C4  UNL     1     -34.464  16.934  -2.405  1.00 20.00    -0.012 A 
HETATM    8  C2  UNL     1     -35.210  16.610  -1.132  1.00 20.00     0.013 A 
HETATM    9  C3  UNL     1     -35.476  17.904  -1.845  1.00 20.00     0.013 A 
HETATM   10  C5  UNL     1     -33.007  17.295  -2.297  1.00 20.00     0.018 C 
ENDBRANCH   5   7
BRANCH   5  11
HETATM   11  O11 UNL     1     -36.266  16.112  -3.768  1.00 20.00    -0.388 OA
HETATM   12  H26 UNL     1     -36.482  16.219  -4.707  1.00 20.00     0.210 HD
ENDBRANCH   5  11
ENDBRANCH   3   5
TORSDOF 3
ENDMDL
MODEL 3
REMARK VINA RESULT:      -4.3      1.641      3.279
REMARK  3 active torsions:
REMARK  status: ('A' for Active; 'I' for Inactive)
REMARK    1  A    between atoms: C4_4  and  C9_9 
REMARK    2  A    between atoms: C8_8  and  C9_9 
REMARK    3  A    between atoms: C9_9  and  O11_11 
ROOT
HETATM    1  C1  UNL     1     -37.150  14.657  -4.320  1.00 20.00     0.066 C 
HETATM    2  C6  UNL     1     -35.338  15.523  -2.933  1.00 20.00     0.028 C 
HETATM    3  C8  UNL     1     -35.920  15.480  -4.353  1.00 20.00     0.123 C 
HETATM    4  N10 UNL     1     -38.116  14.013  -4.299  1.00 20.00    -0.197 NA
ENDROOT
BRANCH   3   5
HETATM    5  C9  UNL     1     -34.908  14.963  -5.420  1.00 20.00     0.077 C 
HETATM    6  C7  UNL     1     -33.562  14.652  -4.792  1.00 20.00     0.048 C 
BRANCH   5   7
HETATM    7  C4  UNL     1     -34.700  15.986  -6.552  1.00 20.00    -0.012 A 
HETATM    8  C2  UNL     1     -35.449  15.773  -7.846  1.00 20.00     0.013 A 
HETATM    9  C3  UNL     1     -33.968  15.530  -7.792  1.00 20.00     0.013 A 
HETATM   10  C5  UNL     1     -34.484  17.400  -6.086  1.00 20.00     0.018 C 
ENDBRANCH   5   7
BRANCH   5  11
HETATM   11  O11 UNL     1     -35.419  13.758  -6.001  1.00 20.00    -0.388 OA
HETATM   12  H26 UNL     1     -34.665  13.154  -6.074  1.00 20.00     0.210 HD
ENDBRANCH   5  11
ENDBRANCH   3   5
TORSDOF 3
ENDMDL
MODEL 4
REMARK VINA RESULT:      -4.2      1.489      2.015
REMARK  3 active torsions:
REMARK  status: ('A' for Active; 'I' for Inactive)
REMARK    1  A    between atoms: C4_4  and  C9_9 
REMARK    2  A    between atoms: C8_8  and  C9_9 
REMARK    3  A    between atoms: C9_9  and  O11_11 
ROOT
HETATM    1  C1  UNL     1     -35.473  13.763  -4.421  1.00 20.00     0.066 C 
HETATM    2  C6  UNL     1     -34.503  15.439  -5.908  1.00 20.00     0.028 C 
HETATM    3  C8  UNL     1     -34.739  15.049  -4.441  1.00 20.00     0.123 C 
HETATM    4  N10 UNL     1     -36.048  12.755  -4.400  1.00 20.00    -0.197 NA
ENDROOT
BRANCH   3   5
HETATM    5  C9  UNL     1     -35.480  16.150  -3.622  1.00 20.00     0.077 C 
HETATM    6  C7  UNL     1     -35.975  17.263  -4.525  1.00 20.00     0.048 C 
BRANCH   5   7
HETATM    7  C4  UNL     1     -34.573  16.760  -2.537  1.00 20.00    -0.012 A 
HETATM    8  C2  UNL     1     -33.690  17.923  -2.923  1.00 20.00     0.013 A 
HETATM    9  C3  UNL     1     -33.081  16.573  -2.674  1.00 20.00     0.013 A 
HETATM   10  C5  UNL     1     -35.161  16.750  -1.152  1.00 20.00     0.018 C 
ENDBRANCH   5   7
BRANCH   5  11
HETATM   11  O11 UNL     1     -36.613  15.563  -2.973  1.00 20.00    -0.388 OA
HETATM   12  H26 UNL     1     -37.269  16.270  -2.883  1.00 20.00     0.210 HD
ENDBRANCH   5  11
ENDBRANCH   3   5
TORSDOF 3
ENDMDL
MODEL 5
REMARK VINA RESULT:      -4.1      2.298      2.932
REMARK  3 active torsions:
REMARK  status: ('A' for Active; 'I' for Inactive)
REMARK    1  A    between atoms: C4_4  and  C9_9 
REMARK    2  A    between atoms: C8_8  and  C9_9 
REMARK    3  A    between atoms: C9_9  and  O11_11 
ROOT
HETATM    1  C1  UNL     1     -34.200  15.468  -6.793  1.00 20.00     0.066 C 
HETATM    2  C6  UNL     1     -36.332  15.564  -5.609  1.00 20.00     0.028 C 
HETATM    3  C8  UNL     1     -34.838  15.911  -5.533  1.00 20.00     0.123 C 
HETATM    4  N10 UNL     1     -33.694  15.123  -7.780  1.00 20.00    -0.197 NA
ENDROOT
BRANCH   3   5
HETATM    5  C9  UNL     1     -34.127  15.309  -4.283  1.00 20.00     0.077 C 
HETATM    6  C7  UNL     1     -34.805  14.030  -3.832  1.00 20.00     0.048 C 
BRANCH   5   7
HETATM    7  C4  UNL     1     -34.109  16.301  -3.104  1.00 20.00    -0.012 A 
HETATM    8  C2  UNL     1     -33.782  17.746  -3.399  1.00 20.00     0.013 A 
HETATM    9  C3  UNL     1     -32.778  16.883  -2.689  1.00 20.00     0.013 A 
HETATM   10  C5  UNL     1     -35.118  16.011  -2.027  1.00 20.00     0.018 C 
ENDBRANCH   5   7
BRANCH   5  11
HETATM   11  O11 UNL     1     -32.771  15.001  -4.622  1.00 20.00    -0.388 OA
HETATM   12  H26 UNL     1     -32.696  14.036  -4.585  1.00 20.00     0.210 HD
ENDBRANCH   5  11
ENDBRANCH   3   5
TORSDOF 3
ENDMDL
MODEL 6
REMARK VINA RESULT:      -4.1      2.797      4.107
REMARK  3 active torsions:
REMARK  status: ('A' for Active; 'I' for Inactive)
REMARK    1  A    between atoms: C4_4  and  C9_9 
REMARK    2  A    between atoms: C8_8  and  C9_9 
REMARK    3  A    between atoms: C9_9  and  O11_11 
ROOT
HETATM    1  C1  UNL     1     -32.969  17.508  -1.977  1.00 20.00     0.066 C 
HETATM    2  C6  UNL     1     -35.171  16.723  -1.275  1.00 20.00     0.028 C 
HETATM    3  C8  UNL     1     -34.002  16.481  -2.241  1.00 20.00     0.123 C 
HETATM    4  N10 UNL     1     -32.155  18.311  -1.775  1.00 20.00    -0.197 NA
ENDROOT
BRANCH   3   5
HETATM    5  C9  UNL     1     -34.433  16.466  -3.740  1.00 20.00     0.077 C 
HETATM    6  C7  UNL     1     -35.843  16.997  -3.908  1.00 20.00     0.048 C 
BRANCH   5   7
HETATM    7  C4  UNL     1     -34.364  15.049  -4.339  1.00 20.00    -0.012 A 
HETATM    8  C2  UNL     1     -33.009  14.390  -4.445  1.00 20.00     0.013 A 
HETATM    9  C3  UNL     1     -33.700  14.881  -5.685  1.00 20.00     0.013 A 
HETATM   10  C5  UNL     1     -35.550  14.178  -4.024  1.00 20.00     0.018 C 
ENDBRANCH   5   7
BRANCH   5  11
HETATM   11  O11 UNL     1     -33.546  17.306  -4.487  1.00 20.00    -0.388 OA
HETATM   12  H26 UNL     1     -33.092  16.726  -5.116  1.00 20.00     0.210 HD
ENDBRANCH   5  11
ENDBRANCH   3   5
TORSDOF 3
ENDMDL
MODEL 7
REMARK VINA RESULT:      -4.1      1.761      2.518
REMARK  3 active torsions:
REMARK  status: ('A' for Active; 'I' for Inactive)
REMARK    1  A    between atoms: C4_4  and  C9_9 
REMARK    2  A    between atoms: C8_8  and  C9_9 
REMARK    3  A    between atoms: C9_9  and  O11_11 
ROOT
HETATM    1  C1  UNL     1     -35.918  14.867  -6.626  1.00 20.00     0.066 C 
HETATM    2  C6  UNL     1     -36.052  13.641  -4.519  1.00 20.00     0.028 C 
HETATM    3  C8  UNL     1     -35.729  14.997  -5.163  1.00 20.00     0.123 C 
HETATM    4  N10 UNL     1     -36.064  14.770  -7.773  1.00 20.00    -0.197 NA
ENDROOT
BRANCH   3   5
HETATM    5  C9  UNL     1     -34.306  15.526  -4.809  1.00 20.00     0.077 C 
HETATM    6  C7  UNL     1     -33.398  14.395  -4.364  1.00 20.00     0.048 C 
BRANCH   5   7
HETATM    7  C4  UNL     1     -34.353  16.589  -3.695  1.00 20.00    -0.012 A 
HETATM    8  C2  UNL     1     -33.156  16.712  -2.782  1.00 20.00     0.013 A 
HETATM    9  C3  UNL     1     -34.431  16.112  -2.264  1.00 20.00     0.013 A 
HETATM   10  C5  UNL     1     -35.095  17.846  -4.060  1.00 20.00     0.018 C 
ENDBRANCH   5   7
BRANCH   5  11
HETATM   11  O11 UNL     1     -33.731  16.130  -5.972  1.00 20.00    -0.388 OA
HETATM   12  H26 UNL     1     -32.840  15.760  -6.056  1.00 20.00     0.210 HD
ENDBRANCH   5  11
ENDBRANCH   3   5
TORSDOF 3
ENDMDL
MODEL 8
REMARK VINA RESULT:      -4.0      1.773      3.249
REMARK  3 active torsions:
REMARK  status: ('A' for Active; 'I' for Inactive)
REMARK    1  A    between atoms: C4_4  and  C9_9 
REMARK    2  A    between atoms: C8_8  and  C9_9 
REMARK    3  A    between atoms: C9_9  and  O11_11 
ROOT
HETATM    1  C1  UNL     1     -35.592  13.813  -4.278  1.00 20.00     0.066 C 
HETATM    2  C6  UNL     1     -35.226  15.513  -2.564  1.00 20.00     0.028 C 
HETATM    3  C8  UNL     1     -35.327  15.256  -4.075  1.00 20.00     0.123 C 
HETATM    4  N10 UNL     1     -35.800  12.684  -4.443  1.00 20.00    -0.197 NA
ENDROOT
BRANCH   3   5
HETATM    5  C9  UNL     1     -34.071  15.730  -4.867  1.00 20.00     0.077 C 
HETATM    6  C7  UNL     1     -33.104  16.473  -3.965  1.00 20.00     0.048 C 
BRANCH   5   7
HETATM    7  C4  UNL     1     -34.451  16.647  -6.044  1.00 20.00    -0.012 A 
HETATM    8  C2  UNL     1     -35.571  16.202  -6.956  1.00 20.00     0.013 A 
HETATM    9  C3  UNL     1     -34.151  16.164  -7.444  1.00 20.00     0.013 A 
HETATM   10  C5  UNL     1     -34.314  18.118  -5.762  1.00 20.00     0.018 C 
ENDBRANCH   5   7
BRANCH   5  11
HETATM   11  O11 UNL     1     -33.396  14.584  -5.399  1.00 20.00    -0.388 OA
HETATM   12  H26 UNL     1     -34.089  13.956  -5.649  1.00 20.00     0.210 HD
ENDBRANCH   5  11
ENDBRANCH   3   5
TORSDOF 3
ENDMDL
MODEL 9
REMARK VINA RESULT:      -4.0      1.639      2.289
REMARK  3 active torsions:
REMARK  status: ('A' for Active; 'I' for Inactive)
REMARK    1  A    between atoms: C4_4  and  C9_9 
REMARK    2  A    between atoms: C8_8  and  C9_9 
REMARK    3  A    between atoms: C9_9  and  O11_11 
ROOT
HETATM    1  C1  UNL     1     -36.445  15.487  -5.803  1.00 20.00     0.066 C 
HETATM    2  C6  UNL     1     -35.917  13.523  -4.454  1.00 20.00     0.028 C 
HETATM    3  C8  UNL     1     -35.825  15.054  -4.530  1.00 20.00     0.123 C 
HETATM    4  N10 UNL     1     -36.931  15.833  -6.799  1.00 20.00    -0.197 NA
ENDROOT
BRANCH   3   5
HETATM    5  C9  UNL     1     -34.370  15.593  -4.384  1.00 20.00     0.077 C 
HETATM    6  C7  UNL     1     -33.372  14.455  -4.294  1.00 20.00     0.048 C 
BRANCH   5   7
HETATM    7  C4  UNL     1     -34.215  16.485  -3.138  1.00 20.00    -0.012 A 
HETATM    8  C2  UNL     1     -33.963  17.960  -3.349  1.00 20.00     0.013 A 
HETATM    9  C3  UNL     1     -32.854  17.076  -2.855  1.00 20.00     0.013 A 
HETATM   10  C5  UNL     1     -35.062  16.074  -1.965  1.00 20.00     0.018 C 
ENDBRANCH   5   7
BRANCH   5  11
HETATM   11  O11 UNL     1     -34.047  16.381  -5.535  1.00 20.00    -0.388 OA
HETATM   12  H26 UNL     1     -34.330  17.285  -5.331  1.00 20.00     0.210 HD
ENDBRANCH   5  11
ENDBRANCH   3   5
TORSDOF 3
ENDMDL
