MODEL 1
REMARK VINA RESULT:      -5.3      0.000      0.000
REMARK  1 active torsions:
REMARK  status: ('A' for Active; 'I' for Inactive)
REMARK    1  A    between atoms: C3_3  and  C8_8 
ROOT
HETATM    1  C1  UNL     1     -24.268  18.911   7.392  1.00 20.00     0.089 C 
HETATM    2  C2  UNL     1     -24.649  18.481   8.692  1.00 20.00     0.113 C 
HETATM    3  C3  UNL     1     -23.771  18.172   9.658  1.00 20.00     0.030 C 
HETATM    4  N10 UNL     1     -23.967  19.263   6.329  1.00 20.00    -0.192 NA
HETATM    5 CL11 UNL     1     -22.069  18.300   9.317  1.00 20.00    -0.087 Cl
ENDROOT
BRANCH   3   6
HETATM    6  C8  UNL     1     -24.084  17.703  11.077  1.00 20.00    -0.005 C 
HETATM    7  C6  UNL     1     -25.212  18.523  11.733  1.00 20.00     0.015 C 
HETATM    8  C4  UNL     1     -26.226  17.508  12.264  1.00 20.00     0.001 C 
HETATM    9  C5  UNL     1     -25.472  16.192  12.332  1.00 20.00     0.001 C 
HETATM   10  C7  UNL     1     -24.574  16.249  11.106  1.00 20.00     0.015 C 
HETATM   11  C9  UNL     1     -22.815  17.836  11.881  1.00 20.00     0.021 C 
ENDBRANCH   3   6
TORSDOF 1
ENDMDL
MODEL 2
REMARK VINA RESULT:      -4.8     12.905     14.944
REMARK  1 active torsions:
REMARK  status: ('A' for Active; 'I' for Inactive)
REMARK    1  A    between atoms: C3_3  and  C8_8 
ROOT
HETATM    1  C1  UNL     1     -30.747  18.579   0.328  1.00 20.00     0.089 C 
HETATM    2  C2  UNL     1     -31.549  18.178  -0.775  1.00 20.00     0.113 C 
HETATM    3  C3  UNL     1     -32.884  18.066  -0.719  1.00 20.00     0.030 C 
HETATM    4  N10 UNL     1     -30.085  18.906   1.222  1.00 20.00    -0.192 NA
HETATM    5 CL11 UNL     1     -33.695  18.429   0.777  1.00 20.00    -0.087 Cl
ENDROOT
BRANCH   3   6
HETATM    6  C8  UNL     1     -33.825  17.645  -1.845  1.00 20.00    -0.005 C 
HETATM    7  C6  UNL     1     -33.102  16.855  -2.954  1.00 20.00     0.015 C 
HETATM    8  C4  UNL     1     -33.914  15.577  -3.169  1.00 20.00     0.001 C 
HETATM    9  C5  UNL     1     -35.276  15.866  -2.564  1.00 20.00     0.001 C 
HETATM   10  C7  UNL     1     -34.936  16.711  -1.346  1.00 20.00     0.015 C 
HETATM   11  C9  UNL     1     -34.427  18.903  -2.419  1.00 20.00     0.021 C 
ENDBRANCH   3   6
TORSDOF 1
ENDMDL
MODEL 3
REMARK VINA RESULT:      -4.7     15.106     16.856
REMARK  1 active torsions:
REMARK  status: ('A' for Active; 'I' for Inactive)
REMARK    1  A    between atoms: C3_3  and  C8_8 
ROOT
HETATM    1  C1  UNL     1     -35.809  13.859  -4.142  1.00 20.00     0.089 C 
HETATM    2  C2  UNL     1     -35.715  15.105  -3.465  1.00 20.00     0.113 C 
HETATM    3  C3  UNL     1     -34.565  15.776  -3.302  1.00 20.00     0.030 C 
HETATM    4  N10 UNL     1     -35.896  12.842  -4.693  1.00 20.00    -0.192 NA
HETATM    5 CL11 UNL     1     -33.099  15.097  -3.949  1.00 20.00    -0.087 Cl
ENDROOT
BRANCH   3   6
HETATM    6  C8  UNL     1     -34.367  17.113  -2.593  1.00 20.00    -0.005 C 
HETATM    7  C6  UNL     1     -35.204  17.228  -1.304  1.00 20.00     0.015 C 
HETATM    8  C4  UNL     1     -34.235  17.655  -0.200  1.00 20.00     0.001 C 
HETATM    9  C5  UNL     1     -33.028  18.218  -0.929  1.00 20.00     0.001 C 
HETATM   10  C7  UNL     1     -32.912  17.317  -2.148  1.00 20.00     0.015 C 
HETATM   11  C9  UNL     1     -34.766  18.197  -3.564  1.00 20.00     0.021 C 
ENDBRANCH   3   6
TORSDOF 1
ENDMDL
MODEL 4
REMARK VINA RESULT:      -4.7     15.507     17.457
REMARK  1 active torsions:
REMARK  status: ('A' for Active; 'I' for Inactive)
REMARK    1  A    between atoms: C3_3  and  C8_8 
ROOT
HETATM    1  C1  UNL     1     -32.728  17.792  -1.748  1.00 20.00     0.089 C 
HETATM    2  C2  UNL     1     -32.867  16.895  -2.841  1.00 20.00     0.113 C 
HETATM    3  C3  UNL     1     -33.909  16.063  -2.990  1.00 20.00     0.030 C 
HETATM    4  N10 UNL     1     -32.606  18.528  -0.859  1.00 20.00    -0.192 NA
HETATM    5 CL11 UNL     1     -35.167  16.071  -1.788  1.00 20.00    -0.087 Cl
ENDROOT
BRANCH   3   6
HETATM    6  C8  UNL     1     -34.144  15.069  -4.125  1.00 20.00    -0.005 C 
HETATM    7  C6  UNL     1     -35.159  13.972  -3.747  1.00 20.00     0.015 C 
HETATM    8  C4  UNL     1     -36.198  13.945  -4.870  1.00 20.00     0.001 C 
HETATM    9  C5  UNL     1     -35.534  14.645  -6.042  1.00 20.00     0.001 C 
HETATM   10  C7  UNL     1     -34.731  15.749  -5.370  1.00 20.00     0.015 C 
HETATM   11  C9  UNL     1     -32.812  14.445  -4.456  1.00 20.00     0.021 C 
ENDBRANCH   3   6
TORSDOF 1
ENDMDL
MODEL 5
REMARK VINA RESULT:      -4.6     16.479     18.164
REMARK  1 active torsions:
REMARK  status: ('A' for Active; 'I' for Inactive)
REMARK    1  A    between atoms: C3_3  and  C8_8 
ROOT
HETATM    1  C1  UNL     1     -37.840  14.768  -4.260  1.00 20.00     0.089 C 
HETATM    2  C2  UNL     1     -36.663  15.546  -4.092  1.00 20.00     0.113 C 
HETATM    3  C3  UNL     1     -35.434  15.020  -3.992  1.00 20.00     0.030 C 
HETATM    4  N10 UNL     1     -38.806  14.140  -4.398  1.00 20.00    -0.192 NA
HETATM    5 CL11 UNL     1     -35.252  13.291  -4.071  1.00 20.00    -0.087 Cl
ENDROOT
BRANCH   3   6
HETATM    6  C8  UNL     1     -34.117  15.772  -3.811  1.00 20.00    -0.005 C 
HETATM    7  C6  UNL     1     -34.058  17.067  -4.644  1.00 20.00     0.015 C 
HETATM    8  C4  UNL     1     -33.654  18.181  -3.678  1.00 20.00     0.001 C 
HETATM    9  C5  UNL     1     -33.048  17.468  -2.481  1.00 20.00     0.001 C 
HETATM   10  C7  UNL     1     -33.907  16.219  -2.357  1.00 20.00     0.015 C 
HETATM   11  C9  UNL     1     -33.008  14.839  -4.230  1.00 20.00     0.021 C 
ENDBRANCH   3   6
TORSDOF 1
ENDMDL
MODEL 6
REMARK VINA RESULT:      -4.6     15.725     17.644
REMARK  1 active torsions:
REMARK  status: ('A' for Active; 'I' for Inactive)
REMARK    1  A    between atoms: C3_3  and  C8_8 
ROOT
HETATM    1  C1  UNL     1     -35.113  16.994  -0.766  1.00 20.00     0.089 C 
HETATM    2  C2  UNL     1     -35.240  16.141  -1.896  1.00 20.00     0.113 C 
HETATM    3  C3  UNL     1     -34.280  15.984  -2.819  1.00 20.00     0.030 C 
HETATM    4  N10 UNL     1     -35.017  17.687   0.159  1.00 20.00    -0.192 NA
HETATM    5 CL11 UNL     1     -32.791  16.866  -2.638  1.00 20.00    -0.087 Cl
ENDROOT
BRANCH   3   6
HETATM    6  C8  UNL     1     -34.326  15.095  -4.059  1.00 20.00    -0.005 C 
HETATM    7  C6  UNL     1     -35.235  13.865  -3.870  1.00 20.00     0.015 C 
HETATM    8  C4  UNL     1     -36.186  13.847  -5.068  1.00 20.00     0.001 C 
HETATM    9  C5  UNL     1     -35.527  14.732  -6.111  1.00 20.00     0.001 C 
HETATM   10  C7  UNL     1     -34.899  15.836  -5.275  1.00 20.00     0.015 C 
HETATM   11  C9  UNL     1     -32.913  14.651  -4.344  1.00 20.00     0.021 C 
ENDBRANCH   3   6
TORSDOF 1
ENDMDL
MODEL 7
REMARK VINA RESULT:      -4.6     13.693     15.376
REMARK  1 active torsions:
REMARK  status: ('A' for Active; 'I' for Inactive)
REMARK    1  A    between atoms: C3_3  and  C8_8 
ROOT
HETATM    1  C1  UNL     1     -33.333  15.076  -4.003  1.00 20.00     0.089 C 
HETATM    2  C2  UNL     1     -32.962  16.265  -3.317  1.00 20.00     0.113 C 
HETATM    3  C3  UNL     1     -33.679  16.798  -2.317  1.00 20.00     0.030 C 
HETATM    4  N10 UNL     1     -33.628  14.108  -4.568  1.00 20.00    -0.192 NA
HETATM    5 CL11 UNL     1     -35.146  16.005  -1.821  1.00 20.00    -0.087 Cl
ENDROOT
BRANCH   3   6
HETATM    6  C8  UNL     1     -33.362  18.064  -1.525  1.00 20.00    -0.005 C 
HETATM    7  C6  UNL     1     -34.051  18.085  -0.146  1.00 20.00     0.015 C 
HETATM    8  C4  UNL     1     -32.956  18.392   0.876  1.00 20.00     0.001 C 
HETATM    9  C5  UNL     1     -31.816  18.988   0.070  1.00 20.00     0.001 C 
HETATM   10  C7  UNL     1     -31.862  18.193  -1.226  1.00 20.00     0.015 C 
HETATM   11  C9  UNL     1     -33.827  19.237  -2.351  1.00 20.00     0.021 C 
ENDBRANCH   3   6
TORSDOF 1
ENDMDL
MODEL 8
REMARK VINA RESULT:      -4.5     23.976     24.525
REMARK  1 active torsions:
REMARK  status: ('A' for Active; 'I' for Inactive)
REMARK    1  A    between atoms: C3_3  and  C8_8 
ROOT
HETATM    1  C1  UNL     1     -43.162   3.612  -2.359  1.00 20.00     0.089 C 
HETATM    2  C2  UNL     1     -43.411   4.736  -1.526  1.00 20.00     0.113 C 
HETATM    3  C3  UNL     1     -42.442   5.445  -0.928  1.00 20.00     0.030 C 
HETATM    4  N10 UNL     1     -42.968   2.694  -3.041  1.00 20.00    -0.192 NA
HETATM    5 CL11 UNL     1     -40.785   4.978  -1.177  1.00 20.00    -0.087 Cl
ENDROOT
BRANCH   3   6
HETATM    6  C8  UNL     1     -42.612   6.661  -0.020  1.00 20.00    -0.005 C 
HETATM    7  C6  UNL     1     -41.265   7.308   0.357  1.00 20.00     0.015 C 
HETATM    8  C4  UNL     1     -41.401   8.798   0.039  1.00 20.00     0.001 C 
HETATM    9  C5  UNL     1     -42.895   9.050  -0.052  1.00 20.00     0.001 C 
HETATM   10  C7  UNL     1     -43.417   7.777  -0.701  1.00 20.00     0.015 C 
HETATM   11  C9  UNL     1     -43.325   6.194   1.224  1.00 20.00     0.021 C 
ENDBRANCH   3   6
TORSDOF 1
ENDMDL
MODEL 9
REMARK VINA RESULT:      -4.5     15.973     17.739
REMARK  1 active torsions:
REMARK  status: ('A' for Active; 'I' for Inactive)
REMARK    1  A    between atoms: C3_3  and  C8_8 
ROOT
HETATM    1  C1  UNL     1     -37.147  14.316  -4.248  1.00 20.00     0.089 C 
HETATM    2  C2  UNL     1     -35.794  14.711  -4.067  1.00 20.00     0.113 C 
HETATM    3  C3  UNL     1     -35.427  15.928  -3.638  1.00 20.00     0.030 C 
HETATM    4  N10 UNL     1     -38.248  13.985  -4.398  1.00 20.00    -0.192 NA
HETATM    5 CL11 UNL     1     -36.663  17.098  -3.279  1.00 20.00    -0.087 Cl
ENDROOT
BRANCH   3   6
HETATM    6  C8  UNL     1     -34.007  16.440  -3.414  1.00 20.00    -0.005 C 
HETATM    7  C6  UNL     1     -33.712  17.727  -4.210  1.00 20.00     0.015 C 
HETATM    8  C4  UNL     1     -33.144  18.732  -3.206  1.00 20.00     0.001 C 
HETATM    9  C5  UNL     1     -32.694  17.897  -2.021  1.00 20.00     0.001 C 
HETATM   10  C7  UNL     1     -33.754  16.809  -1.946  1.00 20.00     0.015 C 
HETATM   11  C9  UNL     1     -33.063  15.343  -3.840  1.00 20.00     0.021 C 
ENDBRANCH   3   6
TORSDOF 1
ENDMDL
