MODEL 1
REMARK VINA RESULT:      -4.8      0.000      0.000
REMARK  3 active torsions:
REMARK  status: ('A' for Active; 'I' for Inactive)
REMARK    1  A    between atoms: C1_1  and  C10_10 
REMARK    2  A    between atoms: C5_5  and  C10_10 
REMARK    3  A    between atoms: C10_10  and  O11_11 
ROOT
HETATM    1  C9  UNL     1     -34.604  13.834  -3.920  1.00 20.00     0.051 C 
HETATM    2  C10 UNL     1     -33.916  14.954  -4.667  1.00 20.00     0.079 C 
ENDROOT
BRANCH   2   3
HETATM    3  C1  UNL     1     -33.277  15.975  -3.741  1.00 20.00     0.013 C 
HETATM    4  C2  UNL     1     -33.741  16.493  -2.585  1.00 20.00    -0.088 C 
HETATM    5  C6  UNL     1     -32.924  17.505  -1.825  1.00 20.00     0.042 C 
HETATM    6  C7  UNL     1     -35.064  16.169  -1.951  1.00 20.00     0.042 C 
ENDBRANCH   2   3
BRANCH   2   7
HETATM    7  C5  UNL     1     -34.923  15.666  -5.586  1.00 20.00    -0.010 A 
HETATM    8  C3  UNL     1     -36.392  15.381  -5.384  1.00 20.00     0.013 A 
HETATM    9  C4  UNL     1     -35.683  14.830  -6.588  1.00 20.00     0.013 A 
HETATM   10  C8  UNL     1     -34.523  17.060  -5.989  1.00 20.00     0.018 C 
ENDBRANCH   2   7
BRANCH   2  11
HETATM   11  O11 UNL     1     -32.917  14.392  -5.525  1.00 20.00    -0.385 OA
HETATM   12  H29 UNL     1     -32.100  14.876  -5.341  1.00 20.00     0.211 HD
ENDBRANCH   2  11
TORSDOF 3
ENDMDL
MODEL 2
REMARK VINA RESULT:      -4.5      1.372      1.891
REMARK  3 active torsions:
REMARK  status: ('A' for Active; 'I' for Inactive)
REMARK    1  A    between atoms: C1_1  and  C10_10 
REMARK    2  A    between atoms: C5_5  and  C10_10 
REMARK    3  A    between atoms: C10_10  and  O11_11 
ROOT
HETATM    1  C9  UNL     1     -33.179  14.485  -4.307  1.00 20.00     0.051 C 
HETATM    2  C10 UNL     1     -34.372  15.407  -4.407  1.00 20.00     0.079 C 
ENDROOT
BRANCH   2   3
HETATM    3  C1  UNL     1     -34.891  15.849  -3.049  1.00 20.00     0.013 C 
HETATM    4  C2  UNL     1     -34.305  16.632  -2.120  1.00 20.00    -0.088 C 
HETATM    5  C6  UNL     1     -35.016  16.940  -0.829  1.00 20.00     0.042 C 
HETATM    6  C7  UNL     1     -32.936  17.242  -2.229  1.00 20.00     0.042 C 
ENDBRANCH   2   3
BRANCH   2   7
HETATM    7  C5  UNL     1     -35.507  14.713  -5.179  1.00 20.00    -0.010 A 
HETATM    8  C3  UNL     1     -36.894  14.748  -4.584  1.00 20.00     0.013 A 
HETATM    9  C4  UNL     1     -36.112  13.466  -4.581  1.00 20.00     0.013 A 
HETATM   10  C8  UNL     1     -35.380  14.786  -6.677  1.00 20.00     0.018 C 
ENDBRANCH   2   7
BRANCH   2  11
HETATM   11  O11 UNL     1     -34.006  16.557  -5.179  1.00 20.00    -0.385 OA
HETATM   12  H29 UNL     1     -34.571  17.279  -4.871  1.00 20.00     0.211 HD
ENDBRANCH   2  11
TORSDOF 3
ENDMDL
MODEL 3
REMARK VINA RESULT:      -4.4      1.324      2.054
REMARK  3 active torsions:
REMARK  status: ('A' for Active; 'I' for Inactive)
REMARK    1  A    between atoms: C1_1  and  C10_10 
REMARK    2  A    between atoms: C5_5  and  C10_10 
REMARK    3  A    between atoms: C10_10  and  O11_11 
ROOT
HETATM    1  C9  UNL     1     -33.246  14.414  -4.321  1.00 20.00     0.051 C 
HETATM    2  C10 UNL     1     -34.379  15.409  -4.423  1.00 20.00     0.079 C 
ENDROOT
BRANCH   2   3
HETATM    3  C1  UNL     1     -34.918  15.831  -3.066  1.00 20.00     0.013 C 
HETATM    4  C2  UNL     1     -34.350  16.609  -2.122  1.00 20.00    -0.088 C 
HETATM    5  C6  UNL     1     -35.080  16.895  -0.836  1.00 20.00     0.042 C 
HETATM    6  C7  UNL     1     -32.987  17.234  -2.209  1.00 20.00     0.042 C 
ENDBRANCH   2   3
BRANCH   2   7
HETATM    7  C5  UNL     1     -35.525  14.813  -5.259  1.00 20.00    -0.010 A 
HETATM    8  C3  UNL     1     -35.389  14.832  -6.763  1.00 20.00     0.013 A 
HETATM    9  C4  UNL     1     -36.361  15.757  -6.090  1.00 20.00     0.013 A 
HETATM   10  C8  UNL     1     -36.211  13.633  -4.626  1.00 20.00     0.018 C 
ENDBRANCH   2   7
BRANCH   2  11
HETATM   11  O11 UNL     1     -33.919  16.562  -5.137  1.00 20.00    -0.385 OA
HETATM   12  H29 UNL     1     -34.663  17.182  -5.155  1.00 20.00     0.211 HD
ENDBRANCH   2  11
TORSDOF 3
ENDMDL
MODEL 4
REMARK VINA RESULT:      -4.3      1.165      1.757
REMARK  3 active torsions:
REMARK  status: ('A' for Active; 'I' for Inactive)
REMARK    1  A    between atoms: C1_1  and  C10_10 
REMARK    2  A    between atoms: C5_5  and  C10_10 
REMARK    3  A    between atoms: C10_10  and  O11_11 
ROOT
HETATM    1  C9  UNL     1     -36.277  13.446  -4.565  1.00 20.00     0.051 C 
HETATM    2  C10 UNL     1     -35.278  14.573  -4.445  1.00 20.00     0.079 C 
ENDROOT
BRANCH   2   3
HETATM    3  C1  UNL     1     -35.419  15.351  -3.147  1.00 20.00     0.013 C 
HETATM    4  C2  UNL     1     -34.525  16.143  -2.521  1.00 20.00    -0.088 C 
HETATM    5  C6  UNL     1     -34.889  16.822  -1.227  1.00 20.00     0.042 C 
HETATM    6  C7  UNL     1     -33.124  16.419  -2.987  1.00 20.00     0.042 C 
ENDBRANCH   2   3
BRANCH   2   7
HETATM    7  C5  UNL     1     -35.434  15.539  -5.632  1.00 20.00    -0.010 A 
HETATM    8  C3  UNL     1     -35.433  14.956  -7.025  1.00 20.00     0.013 A 
HETATM    9  C4  UNL     1     -34.247  15.741  -6.543  1.00 20.00     0.013 A 
HETATM   10  C8  UNL     1     -36.325  16.721  -5.362  1.00 20.00     0.018 C 
ENDBRANCH   2   7
BRANCH   2  11
HETATM   11  O11 UNL     1     -33.956  14.031  -4.540  1.00 20.00    -0.385 OA
HETATM   12  H29 UNL     1     -33.990  13.356  -5.233  1.00 20.00     0.211 HD
ENDBRANCH   2  11
TORSDOF 3
ENDMDL
MODEL 5
REMARK VINA RESULT:      -4.2      1.821      2.636
REMARK  3 active torsions:
REMARK  status: ('A' for Active; 'I' for Inactive)
REMARK    1  A    between atoms: C1_1  and  C10_10 
REMARK    2  A    between atoms: C5_5  and  C10_10 
REMARK    3  A    between atoms: C10_10  and  O11_11 
ROOT
HETATM    1  C9  UNL     1     -35.506  17.279  -3.773  1.00 20.00     0.051 C 
HETATM    2  C10 UNL     1     -34.651  16.267  -3.047  1.00 20.00     0.079 C 
ENDROOT
BRANCH   2   3
HETATM    3  C1  UNL     1     -33.362  16.864  -2.506  1.00 20.00     0.013 C 
HETATM    4  C2  UNL     1     -33.178  17.715  -1.476  1.00 20.00    -0.088 C 
HETATM    5  C6  UNL     1     -31.792  18.179  -1.115  1.00 20.00     0.042 C 
HETATM    6  C7  UNL     1     -34.265  18.300  -0.620  1.00 20.00     0.042 C 
ENDBRANCH   2   3
BRANCH   2   7
HETATM    7  C5  UNL     1     -34.310  15.099  -3.988  1.00 20.00    -0.010 A 
HETATM    8  C3  UNL     1     -35.228  14.841  -5.159  1.00 20.00     0.013 A 
HETATM    9  C4  UNL     1     -35.227  13.899  -3.990  1.00 20.00     0.013 A 
HETATM   10  C8  UNL     1     -32.837  14.861  -4.180  1.00 20.00     0.018 C 
ENDBRANCH   2   7
BRANCH   2  11
HETATM   11  O11 UNL     1     -35.411  15.706  -1.970  1.00 20.00    -0.385 OA
HETATM   12  H29 UNL     1     -36.274  15.476  -2.342  1.00 20.00     0.211 HD
ENDBRANCH   2  11
TORSDOF 3
ENDMDL
MODEL 6
REMARK VINA RESULT:      -4.1      1.925      2.727
REMARK  3 active torsions:
REMARK  status: ('A' for Active; 'I' for Inactive)
REMARK    1  A    between atoms: C1_1  and  C10_10 
REMARK    2  A    between atoms: C5_5  and  C10_10 
REMARK    3  A    between atoms: C10_10  and  O11_11 
ROOT
HETATM    1  C9  UNL     1     -35.694  17.044  -4.077  1.00 20.00     0.051 C 
HETATM    2  C10 UNL     1     -34.850  16.071  -3.286  1.00 20.00     0.079 C 
ENDROOT
BRANCH   2   3
HETATM    3  C1  UNL     1     -33.567  16.695  -2.761  1.00 20.00     0.013 C 
HETATM    4  C2  UNL     1     -33.380  17.511  -1.704  1.00 20.00    -0.088 C 
HETATM    5  C6  UNL     1     -32.001  18.013  -1.368  1.00 20.00     0.042 C 
HETATM    6  C7  UNL     1     -34.460  18.021  -0.792  1.00 20.00     0.042 C 
ENDBRANCH   2   3
BRANCH   2   7
HETATM    7  C5  UNL     1     -34.500  14.853  -4.157  1.00 20.00    -0.010 A 
HETATM    8  C3  UNL     1     -33.040  14.518  -4.353  1.00 20.00     0.013 A 
HETATM    9  C4  UNL     1     -33.831  15.102  -5.488  1.00 20.00     0.013 A 
HETATM   10  C8  UNL     1     -35.479  13.715  -4.062  1.00 20.00     0.018 C 
ENDBRANCH   2   7
BRANCH   2  11
HETATM   11  O11 UNL     1     -35.625  15.572  -2.190  1.00 20.00    -0.385 OA
HETATM   12  H29 UNL     1     -35.957  14.706  -2.468  1.00 20.00     0.211 HD
ENDBRANCH   2  11
TORSDOF 3
ENDMDL
MODEL 7
REMARK VINA RESULT:      -4.1      1.543      3.841
REMARK  3 active torsions:
REMARK  status: ('A' for Active; 'I' for Inactive)
REMARK    1  A    between atoms: C1_1  and  C10_10 
REMARK    2  A    between atoms: C5_5  and  C10_10 
REMARK    3  A    between atoms: C10_10  and  O11_11 
ROOT
HETATM    1  C9  UNL     1     -34.749  14.840  -5.805  1.00 20.00     0.051 C 
HETATM    2  C10 UNL     1     -35.080  14.559  -4.358  1.00 20.00     0.079 C 
ENDROOT
BRANCH   2   3
HETATM    3  C1  UNL     1     -36.575  14.449  -4.105  1.00 20.00     0.013 C 
HETATM    4  C2  UNL     1     -37.582  15.212  -4.576  1.00 20.00    -0.088 C 
HETATM    5  C6  UNL     1     -39.006  14.913  -4.187  1.00 20.00     0.042 C 
HETATM    6  C7  UNL     1     -37.428  16.405  -5.476  1.00 20.00     0.042 C 
ENDBRANCH   2   3
BRANCH   2   7
HETATM    7  C5  UNL     1     -34.497  15.666  -3.463  1.00 20.00    -0.010 A 
HETATM    8  C3  UNL     1     -33.917  16.888  -4.135  1.00 20.00     0.013 A 
HETATM    9  C4  UNL     1     -33.003  15.886  -3.490  1.00 20.00     0.013 A 
HETATM   10  C8  UNL     1     -35.214  15.853  -2.153  1.00 20.00     0.018 C 
ENDBRANCH   2   7
BRANCH   2  11
HETATM   11  O11 UNL     1     -34.435  13.343  -3.963  1.00 20.00    -0.385 OA
HETATM   12  H29 UNL     1     -33.494  13.463  -4.153  1.00 20.00     0.211 HD
ENDBRANCH   2  11
TORSDOF 3
ENDMDL
MODEL 8
REMARK VINA RESULT:      -3.9      1.920      4.079
REMARK  3 active torsions:
REMARK  status: ('A' for Active; 'I' for Inactive)
REMARK    1  A    between atoms: C1_1  and  C10_10 
REMARK    2  A    between atoms: C5_5  and  C10_10 
REMARK    3  A    between atoms: C10_10  and  O11_11 
ROOT
HETATM    1  C9  UNL     1     -35.264  13.737  -3.892  1.00 20.00     0.051 C 
HETATM    2  C10 UNL     1     -36.122  14.970  -4.061  1.00 20.00     0.079 C 
ENDROOT
BRANCH   2   3
HETATM    3  C1  UNL     1     -36.354  15.331  -5.519  1.00 20.00     0.013 C 
HETATM    4  C2  UNL     1     -35.472  15.395  -6.538  1.00 20.00    -0.088 C 
HETATM    5  C6  UNL     1     -35.934  15.781  -7.918  1.00 20.00     0.042 C 
HETATM    6  C7  UNL     1     -33.996  15.131  -6.434  1.00 20.00     0.042 C 
ENDBRANCH   2   3
BRANCH   2   7
HETATM    7  C5  UNL     1     -35.470  16.164  -3.343  1.00 20.00    -0.010 A 
HETATM    8  C3  UNL     1     -34.041  16.017  -2.878  1.00 20.00     0.013 A 
HETATM    9  C4  UNL     1     -35.155  16.020  -1.873  1.00 20.00     0.013 A 
HETATM   10  C8  UNL     1     -35.916  17.512  -3.840  1.00 20.00     0.018 C 
ENDBRANCH   2   7
BRANCH   2  11
HETATM   11  O11 UNL     1     -37.380  14.750  -3.414  1.00 20.00    -0.385 OA
HETATM   12  H29 UNL     1     -37.428  15.392  -2.692  1.00 20.00     0.211 HD
ENDBRANCH   2  11
TORSDOF 3
ENDMDL
MODEL 9
REMARK VINA RESULT:      -3.8      1.357      3.814
REMARK  3 active torsions:
REMARK  status: ('A' for Active; 'I' for Inactive)
REMARK    1  A    between atoms: C1_1  and  C10_10 
REMARK    2  A    between atoms: C5_5  and  C10_10 
REMARK    3  A    between atoms: C10_10  and  O11_11 
ROOT
HETATM    1  C9  UNL     1     -34.426  17.907  -5.140  1.00 20.00     0.051 C 
HETATM    2  C10 UNL     1     -34.729  16.439  -4.946  1.00 20.00     0.079 C 
ENDROOT
BRANCH   2   3
HETATM    3  C1  UNL     1     -36.189  16.177  -4.615  1.00 20.00     0.013 C 
HETATM    4  C2  UNL     1     -36.857  15.008  -4.551  1.00 20.00    -0.088 C 
HETATM    5  C6  UNL     1     -38.321  14.989  -4.199  1.00 20.00     0.042 C 
HETATM    6  C7  UNL     1     -36.274  13.651  -4.831  1.00 20.00     0.042 C 
ENDBRANCH   2   3
BRANCH   2   7
HETATM    7  C5  UNL     1     -33.847  15.867  -3.823  1.00 20.00    -0.010 A 
HETATM    8  C3  UNL     1     -34.394  15.879  -2.416  1.00 20.00     0.013 A 
HETATM    9  C4  UNL     1     -33.294  16.827  -2.797  1.00 20.00     0.013 A 
HETATM   10  C8  UNL     1     -32.986  14.704  -4.236  1.00 20.00     0.018 C 
ENDBRANCH   2   7
BRANCH   2  11
HETATM   11  O11 UNL     1     -34.371  15.731  -6.138  1.00 20.00    -0.385 OA
HETATM   12  H29 UNL     1     -33.431  15.517  -6.052  1.00 20.00     0.211 HD
ENDBRANCH   2  11
TORSDOF 3
ENDMDL
