MODEL 1
REMARK VINA RESULT:      -5.1      0.000      0.000
REMARK  3 active torsions:
REMARK  status: ('A' for Active; 'I' for Inactive)
REMARK    1  A    between atoms: C1_1  and  C3_3 
REMARK    2  A    between atoms: C2_2  and  C8_8 
REMARK    3  A    between atoms: C8_8  and  C10_10 
ROOT
HETATM    1  C4  UNL     1     -33.635  18.005  -0.617  1.00 20.00     0.002 C 
HETATM    2  C5  UNL     1     -32.481  17.812  -1.601  1.00 20.00     0.002 C 
HETATM    3  C6  UNL     1     -34.801  17.179  -1.159  1.00 20.00     0.022 C 
HETATM    4  C7  UNL     1     -33.004  16.876  -2.691  1.00 20.00     0.022 C 
HETATM    5  C8  UNL     1     -34.528  17.041  -2.662  1.00 20.00     0.024 C 
ENDROOT
BRANCH   5   6
HETATM    6  C2  UNL     1     -35.246  15.835  -3.265  1.00 20.00    -0.085 C 
HETATM    7  C1  UNL     1     -35.809  14.887  -3.739  1.00 20.00     0.005 C 
BRANCH   7   8
HETATM    8  C3  UNL     1     -36.533  13.670  -4.347  1.00 20.00     0.258 C 
HETATM    9  O11 UNL     1     -35.806  12.670  -4.612  1.00 20.00    -0.637 OA
HETATM   10  O12 UNL     1     -37.781  13.797  -4.517  1.00 20.00    -0.637 OA
ENDBRANCH   7   8
ENDBRANCH   5   6
BRANCH   5  11
HETATM   11  C10 UNL     1     -34.938  18.265  -3.384  1.00 20.00     0.018 C 
HETATM   12  C9  UNL     1     -34.448  18.262  -4.795  1.00 20.00     0.007 C 
ENDBRANCH   5  11
TORSDOF 3
ENDMDL
MODEL 2
REMARK VINA RESULT:      -4.9      0.800      2.172
REMARK  3 active torsions:
REMARK  status: ('A' for Active; 'I' for Inactive)
REMARK    1  A    between atoms: C1_1  and  C3_3 
REMARK    2  A    between atoms: C2_2  and  C8_8 
REMARK    3  A    between atoms: C8_8  and  C10_10 
ROOT
HETATM    1  C4  UNL     1     -32.522  18.207  -2.161  1.00 20.00     0.002 C 
HETATM    2  C5  UNL     1     -33.657  19.160  -2.540  1.00 20.00     0.002 C 
HETATM    3  C6  UNL     1     -33.055  16.794  -2.397  1.00 20.00     0.022 C 
HETATM    4  C7  UNL     1     -34.822  18.277  -2.987  1.00 20.00     0.022 C 
HETATM    5  C8  UNL     1     -34.580  16.923  -2.309  1.00 20.00     0.024 C 
ENDROOT
BRANCH   5   6
HETATM    6  C2  UNL     1     -35.294  15.784  -3.035  1.00 20.00    -0.085 C 
HETATM    7  C1  UNL     1     -35.854  14.890  -3.607  1.00 20.00     0.005 C 
BRANCH   7   8
HETATM    8  C3  UNL     1     -36.573  13.741  -4.341  1.00 20.00     0.258 C 
HETATM    9  O11 UNL     1     -37.805  13.914  -4.566  1.00 20.00    -0.637 OA
HETATM   10  O12 UNL     1     -35.855  12.743  -4.642  1.00 20.00    -0.637 OA
ENDBRANCH   7   8
ENDBRANCH   5   6
BRANCH   5  11
HETATM   11  C10 UNL     1     -35.024  16.957  -0.898  1.00 20.00     0.018 C 
HETATM   12  C9  UNL     1     -36.329  17.668  -0.748  1.00 20.00     0.007 C 
ENDBRANCH   5  11
TORSDOF 3
ENDMDL
MODEL 3
REMARK VINA RESULT:      -4.7      0.930      1.460
REMARK  3 active torsions:
REMARK  status: ('A' for Active; 'I' for Inactive)
REMARK    1  A    between atoms: C1_1  and  C3_3 
REMARK    2  A    between atoms: C2_2  and  C8_8 
REMARK    3  A    between atoms: C8_8  and  C10_10 
ROOT
HETATM    1  C4  UNL     1     -34.258  18.011   0.080  1.00 20.00     0.002 C 
HETATM    2  C5  UNL     1     -33.005  18.123  -0.790  1.00 20.00     0.002 C 
HETATM    3  C6  UNL     1     -35.194  17.044  -0.645  1.00 20.00     0.022 C 
HETATM    4  C7  UNL     1     -33.243  17.218  -1.999  1.00 20.00     0.022 C 
HETATM    5  C8  UNL     1     -34.768  17.103  -2.117  1.00 20.00     0.024 C 
ENDROOT
BRANCH   5   6
HETATM    6  C2  UNL     1     -35.189  15.852  -2.884  1.00 20.00    -0.085 C 
HETATM    7  C1  UNL     1     -35.520  14.868  -3.488  1.00 20.00     0.005 C 
BRANCH   7   8
HETATM    8  C3  UNL     1     -35.945  13.605  -4.262  1.00 20.00     0.258 C 
HETATM    9  O11 UNL     1     -36.998  13.708  -4.954  1.00 20.00    -0.637 OA
HETATM   10  O12 UNL     1     -35.194  12.595  -4.125  1.00 20.00    -0.637 OA
ENDBRANCH   7   8
ENDBRANCH   5   6
BRANCH   5  11
HETATM   11  C10 UNL     1     -35.335  18.298  -2.780  1.00 20.00     0.018 C 
HETATM   12  C9  UNL     1     -36.825  18.330  -2.678  1.00 20.00     0.007 C 
ENDBRANCH   5  11
TORSDOF 3
ENDMDL
MODEL 4
REMARK VINA RESULT:      -4.7      3.889      5.414
REMARK  3 active torsions:
REMARK  status: ('A' for Active; 'I' for Inactive)
REMARK    1  A    between atoms: C1_1  and  C3_3 
REMARK    2  A    between atoms: C2_2  and  C8_8 
REMARK    3  A    between atoms: C8_8  and  C10_10 
ROOT
HETATM    1  C4  UNL     1     -34.153  14.393  -4.348  1.00 20.00     0.002 C 
HETATM    2  C5  UNL     1     -35.436  14.724  -3.584  1.00 20.00     0.002 C 
HETATM    3  C6  UNL     1     -33.073  15.319  -3.789  1.00 20.00     0.022 C 
HETATM    4  C7  UNL     1     -35.070  15.833  -2.597  1.00 20.00     0.022 C 
HETATM    5  C8  UNL     1     -33.835  16.513  -3.202  1.00 20.00     0.024 C 
ENDROOT
BRANCH   5   6
HETATM    6  C2  UNL     1     -33.015  17.252  -2.147  1.00 20.00    -0.085 C 
HETATM    7  C1  UNL     1     -32.370  17.833  -1.318  1.00 20.00     0.005 C 
BRANCH   7   8
HETATM    8  C3  UNL     1     -31.542  18.579  -0.253  1.00 20.00     0.258 C 
HETATM    9  O11 UNL     1     -32.201  19.263   0.582  1.00 20.00    -0.637 OA
HETATM   10  O12 UNL     1     -30.287  18.428  -0.324  1.00 20.00    -0.637 OA
ENDBRANCH   7   8
ENDBRANCH   5   6
BRANCH   5  11
HETATM   11  C10 UNL     1     -34.228  17.460  -4.268  1.00 20.00     0.018 C 
HETATM   12  C9  UNL     1     -35.161  18.510  -3.756  1.00 20.00     0.007 C 
ENDBRANCH   5  11
TORSDOF 3
ENDMDL
MODEL 5
REMARK VINA RESULT:      -4.5      1.170      1.882
REMARK  3 active torsions:
REMARK  status: ('A' for Active; 'I' for Inactive)
REMARK    1  A    between atoms: C1_1  and  C3_3 
REMARK    2  A    between atoms: C2_2  and  C8_8 
REMARK    3  A    between atoms: C8_8  and  C10_10 
ROOT
HETATM    1  C4  UNL     1     -35.451  19.053  -1.165  1.00 20.00     0.002 C 
HETATM    2  C5  UNL     1     -35.304  18.043  -0.027  1.00 20.00     0.002 C 
HETATM    3  C6  UNL     1     -35.523  18.236  -2.454  1.00 20.00     0.022 C 
HETATM    4  C7  UNL     1     -35.296  16.662  -0.682  1.00 20.00     0.022 C 
HETATM    5  C8  UNL     1     -34.833  16.907  -2.123  1.00 20.00     0.024 C 
ENDROOT
BRANCH   5   6
HETATM    6  C2  UNL     1     -35.271  15.785  -3.063  1.00 20.00    -0.085 C 
HETATM    7  C1  UNL     1     -35.616  14.903  -3.801  1.00 20.00     0.005 C 
BRANCH   7   8
HETATM    8  C3  UNL     1     -36.058  13.771  -4.749  1.00 20.00     0.258 C 
HETATM    9  O11 UNL     1     -35.982  12.598  -4.283  1.00 20.00    -0.637 OA
HETATM   10  O12 UNL     1     -36.452  14.134  -5.896  1.00 20.00    -0.637 OA
ENDBRANCH   7   8
ENDBRANCH   5   6
BRANCH   5  11
HETATM   11  C10 UNL     1     -33.362  17.049  -2.185  1.00 20.00     0.018 C 
HETATM   12  C9  UNL     1     -32.925  17.720  -3.446  1.00 20.00     0.007 C 
ENDBRANCH   5  11
TORSDOF 3
ENDMDL
MODEL 6
REMARK VINA RESULT:      -4.5      3.896      5.325
REMARK  3 active torsions:
REMARK  status: ('A' for Active; 'I' for Inactive)
REMARK    1  A    between atoms: C1_1  and  C3_3 
REMARK    2  A    between atoms: C2_2  and  C8_8 
REMARK    3  A    between atoms: C8_8  and  C10_10 
ROOT
HETATM    1  C4  UNL     1     -34.479  16.017  -5.796  1.00 20.00     0.002 C 
HETATM    2  C5  UNL     1     -33.779  14.737  -5.340  1.00 20.00     0.002 C 
HETATM    3  C6  UNL     1     -34.219  17.057  -4.706  1.00 20.00     0.022 C 
HETATM    4  C7  UNL     1     -33.126  15.064  -3.997  1.00 20.00     0.022 C 
HETATM    5  C8  UNL     1     -33.932  16.243  -3.438  1.00 20.00     0.024 C 
ENDROOT
BRANCH   5   6
HETATM    6  C2  UNL     1     -33.135  17.046  -2.412  1.00 20.00    -0.085 C 
HETATM    7  C1  UNL     1     -32.508  17.677  -1.606  1.00 20.00     0.005 C 
BRANCH   7   8
HETATM    8  C3  UNL     1     -31.703  18.487  -0.571  1.00 20.00     0.258 C 
HETATM    9  O11 UNL     1     -30.453  18.294  -0.568  1.00 20.00    -0.637 OA
HETATM   10  O12 UNL     1     -32.377  19.262   0.169  1.00 20.00    -0.637 OA
ENDBRANCH   7   8
ENDBRANCH   5   6
BRANCH   5  11
HETATM   11  C10 UNL     1     -35.191  15.773  -2.820  1.00 20.00     0.018 C 
HETATM   12  C9  UNL     1     -36.233  16.844  -2.809  1.00 20.00     0.007 C 
ENDBRANCH   5  11
TORSDOF 3
ENDMDL
MODEL 7
REMARK VINA RESULT:      -4.2      1.658      2.453
REMARK  3 active torsions:
REMARK  status: ('A' for Active; 'I' for Inactive)
REMARK    1  A    between atoms: C1_1  and  C3_3 
REMARK    2  A    between atoms: C2_2  and  C8_8 
REMARK    3  A    between atoms: C8_8  and  C10_10 
ROOT
HETATM    1  C4  UNL     1     -32.868  18.037  -3.414  1.00 20.00     0.002 C 
HETATM    2  C5  UNL     1     -32.935  17.426  -2.014  1.00 20.00     0.002 C 
HETATM    3  C6  UNL     1     -34.073  17.487  -4.177  1.00 20.00     0.022 C 
HETATM    4  C7  UNL     1     -34.178  16.536  -1.997  1.00 20.00     0.022 C 
HETATM    5  C8  UNL     1     -34.432  16.177  -3.466  1.00 20.00     0.024 C 
ENDROOT
BRANCH   5   6
HETATM    6  C2  UNL     1     -35.884  15.772  -3.713  1.00 20.00    -0.085 C 
HETATM    7  C1  UNL     1     -37.025  15.453  -3.907  1.00 20.00     0.005 C 
BRANCH   7   8
HETATM    8  C3  UNL     1     -38.490  15.044  -4.156  1.00 20.00     0.258 C 
HETATM    9  O11 UNL     1     -38.677  13.843  -4.506  1.00 20.00    -0.637 OA
HETATM   10  O12 UNL     1     -39.354  15.953  -3.985  1.00 20.00    -0.637 OA
ENDBRANCH   7   8
ENDBRANCH   5   6
BRANCH   5  11
HETATM   11  C10 UNL     1     -33.538  15.082  -3.900  1.00 20.00     0.018 C 
HETATM   12  C9  UNL     1     -33.606  14.867  -5.377  1.00 20.00     0.007 C 
ENDBRANCH   5  11
TORSDOF 3
ENDMDL
MODEL 8
REMARK VINA RESULT:      -4.1      3.454      4.742
REMARK  3 active torsions:
REMARK  status: ('A' for Active; 'I' for Inactive)
REMARK    1  A    between atoms: C1_1  and  C3_3 
REMARK    2  A    between atoms: C2_2  and  C8_8 
REMARK    3  A    between atoms: C8_8  and  C10_10 
ROOT
HETATM    1  C4  UNL     1     -33.058  15.146  -4.177  1.00 20.00     0.002 C 
HETATM    2  C5  UNL     1     -34.377  14.373  -4.211  1.00 20.00     0.002 C 
HETATM    3  C6  UNL     1     -33.170  16.128  -3.012  1.00 20.00     0.022 C 
HETATM    4  C7  UNL     1     -35.223  14.924  -3.064  1.00 20.00     0.022 C 
HETATM    5  C8  UNL     1     -34.675  16.333  -2.805  1.00 20.00     0.024 C 
ENDROOT
BRANCH   5   6
HETATM    6  C2  UNL     1     -34.998  16.822  -1.395  1.00 20.00    -0.085 C 
HETATM    7  C1  UNL     1     -35.251  17.206  -0.286  1.00 20.00     0.005 C 
BRANCH   7   8
HETATM    8  C3  UNL     1     -35.577  17.700   1.137  1.00 20.00     0.258 C 
HETATM    9  O11 UNL     1     -36.805  17.833   1.409  1.00 20.00    -0.637 OA
HETATM   10  O12 UNL     1     -34.581  17.922   1.886  1.00 20.00    -0.637 OA
ENDBRANCH   7   8
ENDBRANCH   5   6
BRANCH   5  11
HETATM   11  C10 UNL     1     -35.215  17.295  -3.791  1.00 20.00     0.018 C 
HETATM   12  C9  UNL     1     -36.709  17.302  -3.793  1.00 20.00     0.007 C 
ENDBRANCH   5  11
TORSDOF 3
ENDMDL
MODEL 9
REMARK VINA RESULT:      -4.0      4.125      5.440
REMARK  3 active torsions:
REMARK  status: ('A' for Active; 'I' for Inactive)
REMARK    1  A    between atoms: C1_1  and  C3_3 
REMARK    2  A    between atoms: C2_2  and  C8_8 
REMARK    3  A    between atoms: C8_8  and  C10_10 
ROOT
HETATM    1  C4  UNL     1     -33.093  16.271  -3.422  1.00 20.00     0.002 C 
HETATM    2  C5  UNL     1     -34.414  15.515  -3.278  1.00 20.00     0.002 C 
HETATM    3  C6  UNL     1     -32.968  17.149  -2.177  1.00 20.00     0.022 C 
HETATM    4  C7  UNL     1     -35.024  15.970  -1.953  1.00 20.00     0.022 C 
HETATM    5  C8  UNL     1     -34.405  17.347  -1.681  1.00 20.00     0.024 C 
ENDROOT
BRANCH   5   6
HETATM    6  C2  UNL     1     -34.454  17.713  -0.199  1.00 20.00    -0.085 C 
HETATM    7  C1  UNL     1     -34.492  18.000   0.966  1.00 20.00     0.005 C 
BRANCH   7   8
HETATM    8  C3  UNL     1     -34.541  18.369   2.462  1.00 20.00     0.258 C 
HETATM    9  O11 UNL     1     -35.691  18.588   2.940  1.00 20.00    -0.637 OA
HETATM   10  O12 UNL     1     -33.424  18.412   3.056  1.00 20.00    -0.637 OA
ENDBRANCH   7   8
ENDBRANCH   5   6
BRANCH   5  11
HETATM   11  C10 UNL     1     -35.092  18.395  -2.466  1.00 20.00     0.018 C 
HETATM   12  C9  UNL     1     -36.568  18.377  -2.237  1.00 20.00     0.007 C 
ENDBRANCH   5  11
TORSDOF 3
ENDMDL
