MODEL 1
REMARK VINA RESULT:      -4.3      0.000      0.000
REMARK  1 active torsions:
REMARK  status: ('A' for Active; 'I' for Inactive)
REMARK    1  A    between atoms: C4_4  and  C5_5 
ROOT
HETATM    1  C1  UNL     1     -35.617   5.750   4.185  1.00 20.00     0.013 A 
HETATM    2  C2  UNL     1     -34.723   4.684   4.751  1.00 20.00     0.013 A 
HETATM    3  C4  UNL     1     -34.132   6.003   4.310  1.00 20.00    -0.011 A 
HETATM    4  C6  UNL     1     -33.701   6.945   5.407  1.00 20.00     0.018 C 
ENDROOT
BRANCH   3   5
HETATM    5  C5  UNL     1     -33.252   6.074   3.056  1.00 20.00     0.086 A 
HETATM    6  C3  UNL     1     -33.111   7.347   2.266  1.00 20.00     0.207 A 
HETATM    7  O8  UNL     1     -32.100   6.911   3.189  1.00 20.00    -0.375 OA
HETATM    8  C7  UNL     1     -32.970   4.773   2.377  1.00 20.00     0.049 C 
ENDBRANCH   3   5
TORSDOF 1
ENDMDL
MODEL 2
REMARK VINA RESULT:      -4.2      1.378      3.299
REMARK  1 active torsions:
REMARK  status: ('A' for Active; 'I' for Inactive)
REMARK    1  A    between atoms: C4_4  and  C5_5 
ROOT
HETATM    1  C1  UNL     1     -33.324   7.290   2.200  1.00 20.00     0.013 A 
HETATM    2  C2  UNL     1     -32.118   7.067   3.067  1.00 20.00     0.013 A 
HETATM    3  C4  UNL     1     -33.257   6.075   3.096  1.00 20.00    -0.011 A 
HETATM    4  C6  UNL     1     -33.012   4.750   2.415  1.00 20.00     0.018 C 
ENDROOT
BRANCH   3   5
HETATM    5  C5  UNL     1     -34.162   5.973   4.330  1.00 20.00     0.086 A 
HETATM    6  C3  UNL     1     -35.587   5.503   4.223  1.00 20.00     0.207 A 
HETATM    7  O8  UNL     1     -34.535   4.639   4.682  1.00 20.00    -0.375 OA
HETATM    8  C7  UNL     1     -33.770   6.813   5.502  1.00 20.00     0.049 C 
ENDBRANCH   3   5
TORSDOF 1
ENDMDL
MODEL 3
REMARK VINA RESULT:      -4.0     16.098     17.436
REMARK  1 active torsions:
REMARK  status: ('A' for Active; 'I' for Inactive)
REMARK    1  A    between atoms: C4_4  and  C5_5 
ROOT
HETATM    1  C1  UNL     1     -21.350  18.137   9.343  1.00 20.00     0.013 A 
HETATM    2  C2  UNL     1     -22.164  17.130   8.581  1.00 20.00     0.013 A 
HETATM    3  C4  UNL     1     -22.831  18.007   9.615  1.00 20.00    -0.011 A 
HETATM    4  C6  UNL     1     -23.711  19.115   9.090  1.00 20.00     0.018 C 
ENDROOT
BRANCH   3   5
HETATM    5  C5  UNL     1     -23.325  17.404  10.936  1.00 20.00     0.086 A 
HETATM    6  C3  UNL     1     -22.580  17.619  12.226  1.00 20.00     0.207 A 
HETATM    7  O8  UNL     1     -23.763  18.366  11.899  1.00 20.00    -0.375 OA
HETATM    8  C7  UNL     1     -24.230  16.220  10.820  1.00 20.00     0.049 C 
ENDBRANCH   3   5
TORSDOF 1
ENDMDL
MODEL 4
REMARK VINA RESULT:      -4.0     15.695     16.939
REMARK  1 active torsions:
REMARK  status: ('A' for Active; 'I' for Inactive)
REMARK    1  A    between atoms: C4_4  and  C5_5 
ROOT
HETATM    1  C1  UNL     1     -22.801  17.671  12.332  1.00 20.00     0.013 A 
HETATM    2  C2  UNL     1     -24.158  18.286  12.141  1.00 20.00     0.013 A 
HETATM    3  C4  UNL     1     -23.657  17.253  11.159  1.00 20.00    -0.011 A 
HETATM    4  C6  UNL     1     -24.288  15.885  11.242  1.00 20.00     0.018 C 
ENDROOT
BRANCH   3   5
HETATM    5  C5  UNL     1     -23.271  17.667   9.734  1.00 20.00     0.086 A 
HETATM    6  C3  UNL     1     -21.834  17.712   9.290  1.00 20.00     0.207 A 
HETATM    7  O8  UNL     1     -22.699  16.618   8.947  1.00 20.00    -0.375 OA
HETATM    8  C7  UNL     1     -24.276  18.488   8.993  1.00 20.00     0.049 C 
ENDBRANCH   3   5
TORSDOF 1
ENDMDL
MODEL 5
REMARK VINA RESULT:      -3.8     16.081     16.893
REMARK  1 active torsions:
REMARK  status: ('A' for Active; 'I' for Inactive)
REMARK    1  A    between atoms: C4_4  and  C5_5 
ROOT
HETATM    1  C1  UNL     1     -24.877  17.680  11.200  1.00 20.00     0.013 A 
HETATM    2  C2  UNL     1     -24.283  16.316  10.996  1.00 20.00     0.013 A 
HETATM    3  C4  UNL     1     -23.453  17.546  10.715  1.00 20.00    -0.011 A 
HETATM    4  C6  UNL     1     -22.369  17.868  11.714  1.00 20.00     0.018 C 
ENDROOT
BRANCH   3   5
HETATM    5  C5  UNL     1     -23.088  17.919   9.272  1.00 20.00     0.086 A 
HETATM    6  C3  UNL     1     -23.886  18.932   8.496  1.00 20.00     0.207 A 
HETATM    7  O8  UNL     1     -22.628  19.263   9.106  1.00 20.00    -0.375 OA
HETATM    8  C7  UNL     1     -22.280  16.914   8.518  1.00 20.00     0.049 C 
ENDBRANCH   3   5
TORSDOF 1
ENDMDL
MODEL 6
REMARK VINA RESULT:      -3.7     11.723     12.492
REMARK  1 active torsions:
REMARK  status: ('A' for Active; 'I' for Inactive)
REMARK    1  A    between atoms: C4_4  and  C5_5 
ROOT
HETATM    1  C1  UNL     1     -34.473  16.726  -3.524  1.00 20.00     0.013 A 
HETATM    2  C2  UNL     1     -34.769  15.585  -2.593  1.00 20.00     0.013 A 
HETATM    3  C4  UNL     1     -34.358  15.303  -4.019  1.00 20.00    -0.011 A 
HETATM    4  C6  UNL     1     -32.959  14.774  -4.222  1.00 20.00     0.018 C 
ENDROOT
BRANCH   3   5
HETATM    5  C5  UNL     1     -35.377  14.748  -5.021  1.00 20.00     0.086 A 
HETATM    6  C3  UNL     1     -35.781  15.526  -6.244  1.00 20.00     0.207 A 
HETATM    7  O8  UNL     1     -34.836  14.446  -6.310  1.00 20.00    -0.375 OA
HETATM    8  C7  UNL     1     -36.303  13.697  -4.502  1.00 20.00     0.049 C 
ENDBRANCH   3   5
TORSDOF 1
ENDMDL
MODEL 7
REMARK VINA RESULT:      -3.6     11.095     12.158
REMARK  1 active torsions:
REMARK  status: ('A' for Active; 'I' for Inactive)
REMARK    1  A    between atoms: C4_4  and  C5_5 
ROOT
HETATM    1  C1  UNL     1     -34.867  16.086  -2.036  1.00 20.00     0.013 A 
HETATM    2  C2  UNL     1     -33.541  16.619  -2.497  1.00 20.00     0.013 A 
HETATM    3  C4  UNL     1     -34.492  16.007  -3.498  1.00 20.00    -0.011 A 
HETATM    4  C6  UNL     1     -35.199  16.964  -4.426  1.00 20.00     0.018 C 
ENDROOT
BRANCH   3   5
HETATM    5  C5  UNL     1     -34.169  14.652  -4.141  1.00 20.00     0.086 A 
HETATM    6  C3  UNL     1     -35.103  13.479  -4.013  1.00 20.00     0.207 A 
HETATM    7  O8  UNL     1     -35.048  14.278  -5.206  1.00 20.00    -0.375 OA
HETATM    8  C7  UNL     1     -32.728  14.392  -4.436  1.00 20.00     0.049 C 
ENDBRANCH   3   5
TORSDOF 1
ENDMDL
MODEL 8
REMARK VINA RESULT:      -3.6      1.190      2.239
REMARK  1 active torsions:
REMARK  status: ('A' for Active; 'I' for Inactive)
REMARK    1  A    between atoms: C4_4  and  C5_5 
ROOT
HETATM    1  C1  UNL     1     -34.159   5.027   5.797  1.00 20.00     0.013 A 
HETATM    2  C2  UNL     1     -34.260   6.525   5.773  1.00 20.00     0.013 A 
HETATM    3  C4  UNL     1     -34.488   5.737   4.504  1.00 20.00    -0.011 A 
HETATM    4  C6  UNL     1     -35.916   5.635   4.025  1.00 20.00     0.018 C 
ENDROOT
BRANCH   3   5
HETATM    5  C5  UNL     1     -33.461   5.789   3.367  1.00 20.00     0.086 A 
HETATM    6  C3  UNL     1     -32.947   4.535   2.713  1.00 20.00     0.207 A 
HETATM    7  O8  UNL     1     -33.958   5.352   2.099  1.00 20.00    -0.375 OA
HETATM    8  C7  UNL     1     -32.631   7.030   3.287  1.00 20.00     0.049 C 
ENDBRANCH   3   5
TORSDOF 1
ENDMDL
MODEL 9
REMARK VINA RESULT:      -3.6      8.699      9.657
REMARK  1 active torsions:
REMARK  status: ('A' for Active; 'I' for Inactive)
REMARK    1  A    between atoms: C4_4  and  C5_5 
ROOT
HETATM    1  C1  UNL     1     -42.623   5.534   1.057  1.00 20.00     0.013 A 
HETATM    2  C2  UNL     1     -43.351   5.238  -0.222  1.00 20.00     0.013 A 
HETATM    3  C4  UNL     1     -42.146   6.149  -0.238  1.00 20.00    -0.011 A 
HETATM    4  C6  UNL     1     -40.880   5.579  -0.827  1.00 20.00     0.018 C 
ENDROOT
BRANCH   3   5
HETATM    5  C5  UNL     1     -42.319   7.652  -0.490  1.00 20.00     0.086 A 
HETATM    6  C3  UNL     1     -41.808   8.677   0.486  1.00 20.00     0.207 A 
HETATM    7  O8  UNL     1     -41.096   8.358  -0.720  1.00 20.00    -0.375 OA
HETATM    8  C7  UNL     1     -43.417   8.040  -1.426  1.00 20.00     0.049 C 
ENDBRANCH   3   5
TORSDOF 1
ENDMDL
