MODEL 1
REMARK VINA RESULT:      -4.8      0.000      0.000
REMARK  1 active torsions:
REMARK  status: ('A' for Active; 'I' for Inactive)
REMARK    1  A    between atoms: C3_3  and  C8_8 
ROOT
HETATM    1  C1  UNL     1     -33.646  18.199   0.764  1.00 20.00     0.017 A 
HETATM    2  C2  UNL     1     -32.682  18.648   1.713  1.00 20.00     0.032 A 
HETATM    3  C3  UNL     1     -33.088  17.984  -0.478  1.00 20.00    -0.012 A 
HETATM    4  C4  UNL     1     -31.425  18.761   1.161  1.00 20.00     0.075 A 
HETATM    5  S10 UNL     1     -31.409  18.325  -0.495  1.00 20.00    -0.082 SA
HETATM    6 CL11 UNL     1     -29.980  19.263   1.933  1.00 20.00    -0.076 Cl
ENDROOT
BRANCH   3   7
HETATM    7  C8  UNL     1     -33.764  17.508  -1.745  1.00 20.00     0.027 C 
HETATM    8  C5  UNL     1     -35.016  16.636  -1.507  1.00 20.00     0.011 C 
HETATM    9  C6  UNL     1     -35.080  15.632  -2.664  1.00 20.00     0.021 C 
HETATM   10  C9  UNL     1     -33.987  16.068  -3.629  1.00 20.00     0.083 C 
HETATM   11  C7  UNL     1     -32.926  16.661  -2.714  1.00 20.00     0.030 C 
HETATM   12 CL12 UNL     1     -33.366  14.726  -4.599  1.00 20.00    -0.125 Cl
ENDBRANCH   3   7
TORSDOF 1
ENDMDL
MODEL 2
REMARK VINA RESULT:      -4.7      2.178      5.724
REMARK  1 active torsions:
REMARK  status: ('A' for Active; 'I' for Inactive)
REMARK    1  A    between atoms: C3_3  and  C8_8 
ROOT
HETATM    1  C1  UNL     1     -32.868  16.172  -3.315  1.00 20.00     0.017 A 
HETATM    2  C2  UNL     1     -33.452  15.096  -4.046  1.00 20.00     0.032 A 
HETATM    3  C3  UNL     1     -33.746  16.713  -2.402  1.00 20.00    -0.012 A 
HETATM    4  C4  UNL     1     -34.754  14.858  -3.665  1.00 20.00     0.075 A 
HETATM    5  S10 UNL     1     -35.268  15.927  -2.429  1.00 20.00    -0.082 SA
HETATM    6 CL11 UNL     1     -35.827  13.670  -4.276  1.00 20.00    -0.076 Cl
ENDROOT
BRANCH   3   7
HETATM    7  C8  UNL     1     -33.517  17.858  -1.439  1.00 20.00     0.027 C 
HETATM    8  C5  UNL     1     -32.034  18.105  -1.089  1.00 20.00     0.011 C 
HETATM    9  C6  UNL     1     -32.001  18.622   0.354  1.00 20.00     0.021 C 
HETATM   10  C9  UNL     1     -33.460  18.837   0.731  1.00 20.00     0.083 C 
HETATM   11  C7  UNL     1     -34.191  17.764  -0.062  1.00 20.00     0.030 C 
HETATM   12 CL12 UNL     1     -33.736  18.694   2.472  1.00 20.00    -0.125 Cl
ENDBRANCH   3   7
TORSDOF 1
ENDMDL
MODEL 3
REMARK VINA RESULT:      -4.7      1.173      1.421
REMARK  1 active torsions:
REMARK  status: ('A' for Active; 'I' for Inactive)
REMARK    1  A    between atoms: C3_3  and  C8_8 
ROOT
HETATM    1  C1  UNL     1     -31.369  18.506  -0.547  1.00 20.00     0.017 A 
HETATM    2  C2  UNL     1     -30.907  18.908   0.740  1.00 20.00     0.032 A 
HETATM    3  C3  UNL     1     -32.697  18.138  -0.528  1.00 20.00    -0.012 A 
HETATM    4  C4  UNL     1     -31.899  18.830   1.694  1.00 20.00     0.075 A 
HETATM    5  S10 UNL     1     -33.380  18.276   1.036  1.00 20.00    -0.082 SA
HETATM    6 CL11 UNL     1     -31.786  19.213   3.360  1.00 20.00    -0.076 Cl
ENDROOT
BRANCH   3   7
HETATM    7  C8  UNL     1     -33.557  17.655  -1.676  1.00 20.00     0.027 C 
HETATM    8  C5  UNL     1     -34.864  16.959  -1.240  1.00 20.00     0.011 C 
HETATM    9  C6  UNL     1     -35.167  15.888  -2.293  1.00 20.00     0.021 C 
HETATM   10  C9  UNL     1     -34.144  16.115  -3.396  1.00 20.00     0.083 C 
HETATM   11  C7  UNL     1     -32.929  16.642  -2.646  1.00 20.00     0.030 C 
HETATM   12 CL12 UNL     1     -33.788  14.639  -4.303  1.00 20.00    -0.125 Cl
ENDBRANCH   3   7
TORSDOF 1
ENDMDL
MODEL 4
REMARK VINA RESULT:      -4.6      9.853     13.344
REMARK  1 active torsions:
REMARK  status: ('A' for Active; 'I' for Inactive)
REMARK    1  A    between atoms: C3_3  and  C8_8 
ROOT
HETATM    1  C1  UNL     1     -26.315  19.055   7.367  1.00 20.00     0.017 A 
HETATM    2  C2  UNL     1     -26.864  19.123   6.053  1.00 20.00     0.032 A 
HETATM    3  C3  UNL     1     -24.937  19.058   7.353  1.00 20.00    -0.012 A 
HETATM    4  C4  UNL     1     -25.885  19.174   5.085  1.00 20.00     0.075 A 
HETATM    5  S10 UNL     1     -24.311  19.142   5.761  1.00 20.00    -0.082 SA
HETATM    6 CL11 UNL     1     -26.090  19.262   3.387  1.00 20.00    -0.076 Cl
ENDROOT
BRANCH   3   7
HETATM    7  C8  UNL     1     -23.983  18.999   8.526  1.00 20.00     0.027 C 
HETATM    8  C5  UNL     1     -22.687  18.206   8.250  1.00 20.00     0.011 C 
HETATM    9  C6  UNL     1     -22.275  17.557   9.576  1.00 20.00     0.021 C 
HETATM   10  C9  UNL     1     -23.225  18.138  10.613  1.00 20.00     0.083 C 
HETATM   11  C7  UNL     1     -24.506  18.371   9.827  1.00 20.00     0.030 C 
HETATM   12 CL12 UNL     1     -23.468  17.054  11.990  1.00 20.00    -0.125 Cl
ENDBRANCH   3   7
TORSDOF 1
ENDMDL
MODEL 5
REMARK VINA RESULT:      -4.6     10.100     12.626
REMARK  1 active torsions:
REMARK  status: ('A' for Active; 'I' for Inactive)
REMARK    1  A    between atoms: C3_3  and  C8_8 
ROOT
HETATM    1  C1  UNL     1     -22.633  18.336   8.434  1.00 20.00     0.017 A 
HETATM    2  C2  UNL     1     -22.217  17.883   9.720  1.00 20.00     0.032 A 
HETATM    3  C3  UNL     1     -23.955  18.722   8.424  1.00 20.00    -0.012 A 
HETATM    4  C4  UNL     1     -23.238  17.939  10.644  1.00 20.00     0.075 A 
HETATM    5  S10 UNL     1     -24.690  18.537   9.961  1.00 20.00    -0.082 SA
HETATM    6 CL11 UNL     1     -23.183  17.495  12.298  1.00 20.00    -0.076 Cl
ENDROOT
BRANCH   3   7
HETATM    7  C8  UNL     1     -24.772  19.258   7.268  1.00 20.00     0.027 C 
HETATM    8  C5  UNL     1     -26.246  18.799   7.268  1.00 20.00     0.011 C 
HETATM    9  C6  UNL     1     -26.674  18.690   5.799  1.00 20.00     0.021 C 
HETATM   10  C9  UNL     1     -25.509  19.263   5.004  1.00 20.00     0.083 C 
HETATM   11  C7  UNL     1     -24.296  18.908   5.850  1.00 20.00     0.030 C 
HETATM   12 CL12 UNL     1     -25.411  18.592   3.370  1.00 20.00    -0.125 Cl
ENDBRANCH   3   7
TORSDOF 1
ENDMDL
MODEL 6
REMARK VINA RESULT:      -4.6      1.371      5.494
REMARK  1 active torsions:
REMARK  status: ('A' for Active; 'I' for Inactive)
REMARK    1  A    between atoms: C3_3  and  C8_8 
ROOT
HETATM    1  C1  UNL     1     -34.981  16.632  -1.489  1.00 20.00     0.017 A 
HETATM    2  C2  UNL     1     -35.242  15.692  -2.529  1.00 20.00     0.032 A 
HETATM    3  C3  UNL     1     -33.764  17.257  -1.652  1.00 20.00    -0.012 A 
HETATM    4  C4  UNL     1     -34.215  15.634  -3.445  1.00 20.00     0.075 A 
HETATM    5  S10 UNL     1     -32.943  16.711  -3.052  1.00 20.00    -0.082 SA
HETATM    6 CL11 UNL     1     -34.109  14.650  -4.843  1.00 20.00    -0.076 Cl
ENDROOT
BRANCH   3   7
HETATM    7  C8  UNL     1     -33.122  18.310  -0.775  1.00 20.00     0.027 C 
HETATM    8  C5  UNL     1     -31.578  18.315  -0.817  1.00 20.00     0.011 C 
HETATM    9  C6  UNL     1     -31.100  18.754   0.572  1.00 20.00     0.021 C 
HETATM   10  C9  UNL     1     -32.363  19.170   1.313  1.00 20.00     0.083 C 
HETATM   11  C7  UNL     1     -33.431  18.256   0.729  1.00 20.00     0.030 C 
HETATM   12 CL12 UNL     1     -32.209  18.991   3.066  1.00 20.00    -0.125 Cl
ENDBRANCH   3   7
TORSDOF 1
ENDMDL
MODEL 7
REMARK VINA RESULT:      -4.3      2.407      3.201
REMARK  1 active torsions:
REMARK  status: ('A' for Active; 'I' for Inactive)
REMARK    1  A    between atoms: C3_3  and  C8_8 
ROOT
HETATM    1  C1  UNL     1     -32.928  17.402  -1.947  1.00 20.00     0.017 A 
HETATM    2  C2  UNL     1     -32.984  18.299  -0.840  1.00 20.00     0.032 A 
HETATM    3  C3  UNL     1     -34.081  16.658  -2.069  1.00 20.00    -0.012 A 
HETATM    4  C4  UNL     1     -34.177  18.205  -0.158  1.00 20.00     0.075 A 
HETATM    5  S10 UNL     1     -35.224  17.040  -0.851  1.00 20.00    -0.082 SA
HETATM    6 CL11 UNL     1     -34.669  19.090   1.224  1.00 20.00    -0.076 Cl
ENDROOT
BRANCH   3   7
HETATM    7  C8  UNL     1     -34.417  15.604  -3.101  1.00 20.00     0.027 C 
HETATM    8  C5  UNL     1     -33.221  15.167  -3.975  1.00 20.00     0.011 C 
HETATM    9  C6  UNL     1     -33.788  14.815  -5.355  1.00 20.00     0.021 C 
HETATM   10  C9  UNL     1     -35.300  14.875  -5.190  1.00 20.00     0.083 C 
HETATM   11  C7  UNL     1     -35.497  15.955  -4.136  1.00 20.00     0.030 C 
HETATM   12 CL12 UNL     1     -36.132  15.251  -6.705  1.00 20.00    -0.125 Cl
ENDBRANCH   3   7
TORSDOF 1
ENDMDL
MODEL 8
REMARK VINA RESULT:      -4.2      2.469      5.967
REMARK  1 active torsions:
REMARK  status: ('A' for Active; 'I' for Inactive)
REMARK    1  A    between atoms: C3_3  and  C8_8 
ROOT
HETATM    1  C1  UNL     1     -34.801  15.135  -3.025  1.00 20.00     0.017 A 
HETATM    2  C2  UNL     1     -35.136  14.427  -4.216  1.00 20.00     0.032 A 
HETATM    3  C3  UNL     1     -34.556  16.469  -3.268  1.00 20.00    -0.012 A 
HETATM    4  C4  UNL     1     -35.134  15.247  -5.323  1.00 20.00     0.075 A 
HETATM    5  S10 UNL     1     -34.730  16.863  -4.926  1.00 20.00    -0.082 SA
HETATM    6 CL11 UNL     1     -35.477  14.820  -6.947  1.00 20.00    -0.076 Cl
ENDROOT
BRANCH   3   7
HETATM    7  C8  UNL     1     -34.174  17.552  -2.281  1.00 20.00     0.027 C 
HETATM    8  C5  UNL     1     -32.654  17.802  -2.173  1.00 20.00     0.011 C 
HETATM    9  C6  UNL     1     -32.378  18.221  -0.724  1.00 20.00     0.021 C 
HETATM   10  C9  UNL     1     -33.752  18.384  -0.090  1.00 20.00     0.083 C 
HETATM   11  C7  UNL     1     -34.601  17.353  -0.820  1.00 20.00     0.030 C 
HETATM   12 CL12 UNL     1     -33.727  18.120   1.659  1.00 20.00    -0.125 Cl
ENDBRANCH   3   7
TORSDOF 1
ENDMDL
MODEL 9
REMARK VINA RESULT:      -4.2      1.988      2.799
REMARK  1 active torsions:
REMARK  status: ('A' for Active; 'I' for Inactive)
REMARK    1  A    between atoms: C3_3  and  C8_8 
ROOT
HETATM    1  C1  UNL     1     -35.136  16.973  -0.838  1.00 20.00     0.017 A 
HETATM    2  C2  UNL     1     -34.398  17.894  -0.040  1.00 20.00     0.032 A 
HETATM    3  C3  UNL     1     -34.454  16.613  -1.980  1.00 20.00    -0.012 A 
HETATM    4  C4  UNL     1     -33.179  18.205  -0.603  1.00 20.00     0.075 A 
HETATM    5  S10 UNL     1     -32.929  17.386  -2.086  1.00 20.00    -0.082 SA
HETATM    6 CL11 UNL     1     -31.979  19.263   0.010  1.00 20.00    -0.076 Cl
ENDROOT
BRANCH   3   7
HETATM    7  C8  UNL     1     -34.886  15.666  -3.078  1.00 20.00     0.027 C 
HETATM    8  C5  UNL     1     -33.719  14.981  -3.820  1.00 20.00     0.011 C 
HETATM    9  C6  UNL     1     -34.180  14.770  -5.267  1.00 20.00     0.021 C 
HETATM   10  C9  UNL     1     -35.650  15.161  -5.276  1.00 20.00     0.083 C 
HETATM   11  C7  UNL     1     -35.731  16.252  -4.219  1.00 20.00     0.030 C 
HETATM   12 CL12 UNL     1     -36.192  15.721  -6.864  1.00 20.00    -0.125 Cl
ENDBRANCH   3   7
TORSDOF 1
ENDMDL
