MODEL 1
REMARK VINA RESULT:      -4.3      0.000      0.000
REMARK  4 active torsions:
REMARK  status: ('A' for Active; 'I' for Inactive)
REMARK    1  A    between atoms: C3_3  and  C10_10 
REMARK    2  A    between atoms: C8_8  and  C9_9 
REMARK    3  A    between atoms: C9_9  and  C10_10 
REMARK    4  A    between atoms: C10_10  and  O11_11 
ROOT
HETATM    1  C7  UNL     1     -34.556  13.598  -3.940  1.00 20.00     0.047 C 
HETATM    2  C10 UNL     1     -34.023  14.870  -4.568  1.00 20.00     0.065 C 
ENDROOT
BRANCH   2   3
HETATM    3  C3  UNL     1     -34.673  15.082  -5.940  1.00 20.00    -0.013 A 
HETATM    4  C1  UNL     1     -33.770  15.157  -7.148  1.00 20.00     0.013 A 
HETATM    5  C2  UNL     1     -34.438  16.402  -6.639  1.00 20.00     0.013 A 
HETATM    6  C4  UNL     1     -36.018  14.428  -6.104  1.00 20.00     0.018 C 
ENDBRANCH   2   3
BRANCH   2   7
HETATM    7  C9  UNL     1     -34.177  16.100  -3.610  1.00 20.00     0.016 C 
HETATM    8  C6  UNL     1     -35.099  15.787  -2.419  1.00 20.00     0.013 C 
BRANCH   7   9
HETATM    9  C8  UNL     1     -32.822  16.664  -3.122  1.00 20.00     0.002 C 
HETATM   10  C5  UNL     1     -32.936  17.542  -1.881  1.00 20.00     0.005 C 
ENDBRANCH   7   9
ENDBRANCH   2   7
BRANCH   2  11
HETATM   11  O11 UNL     1     -32.625  14.659  -4.817  1.00 20.00    -0.389 OA
HETATM   12  H31 UNL     1     -32.221  14.506  -3.951  1.00 20.00     0.210 HD
ENDBRANCH   2  11
TORSDOF 4
ENDMDL
MODEL 2
REMARK VINA RESULT:      -4.1      1.872      2.950
REMARK  4 active torsions:
REMARK  status: ('A' for Active; 'I' for Inactive)
REMARK    1  A    between atoms: C3_3  and  C10_10 
REMARK    2  A    between atoms: C8_8  and  C9_9 
REMARK    3  A    between atoms: C9_9  and  C10_10 
REMARK    4  A    between atoms: C10_10  and  O11_11 
ROOT
HETATM    1  C7  UNL     1     -35.451  17.297  -4.401  1.00 20.00     0.047 C 
HETATM    2  C10 UNL     1     -35.503  15.996  -3.627  1.00 20.00     0.065 C 
ENDROOT
BRANCH   2   3
HETATM    3  C3  UNL     1     -35.251  14.818  -4.575  1.00 20.00    -0.013 A 
HETATM    4  C1  UNL     1     -36.261  13.695  -4.594  1.00 20.00     0.013 A 
HETATM    5  C2  UNL     1     -34.914  13.477  -3.965  1.00 20.00     0.013 A 
HETATM    6  C4  UNL     1     -34.585  15.189  -5.872  1.00 20.00     0.018 C 
ENDBRANCH   2   3
BRANCH   2   7
HETATM    7  C9  UNL     1     -34.541  16.016  -2.391  1.00 20.00     0.016 C 
HETATM    8  C6  UNL     1     -33.166  16.608  -2.745  1.00 20.00     0.013 C 
BRANCH   7   9
HETATM    9  C8  UNL     1     -35.146  16.730  -1.160  1.00 20.00     0.002 C 
HETATM   10  C5  UNL     1     -34.276  17.858  -0.617  1.00 20.00     0.005 C 
ENDBRANCH   7   9
ENDBRANCH   2   7
BRANCH   2  11
HETATM   11  O11 UNL     1     -36.850  15.845  -3.152  1.00 20.00    -0.389 OA
HETATM   12  H31 UNL     1     -37.420  15.977  -3.922  1.00 20.00     0.210 HD
ENDBRANCH   2  11
TORSDOF 4
ENDMDL
MODEL 3
REMARK VINA RESULT:      -4.1      0.637      1.226
REMARK  4 active torsions:
REMARK  status: ('A' for Active; 'I' for Inactive)
REMARK    1  A    between atoms: C3_3  and  C10_10 
REMARK    2  A    between atoms: C8_8  and  C9_9 
REMARK    3  A    between atoms: C9_9  and  C10_10 
REMARK    4  A    between atoms: C10_10  and  O11_11 
ROOT
HETATM    1  C7  UNL     1     -34.822  13.917  -4.082  1.00 20.00     0.047 C 
HETATM    2  C10 UNL     1     -34.069  15.164  -4.498  1.00 20.00     0.065 C 
ENDROOT
BRANCH   2   3
HETATM    3  C3  UNL     1     -34.564  15.635  -5.870  1.00 20.00    -0.013 A 
HETATM    4  C1  UNL     1     -35.032  17.066  -6.001  1.00 20.00     0.013 A 
HETATM    5  C2  UNL     1     -36.035  15.948  -6.023  1.00 20.00     0.013 A 
HETATM    6  C4  UNL     1     -33.849  15.017  -7.040  1.00 20.00     0.018 C 
ENDBRANCH   2   3
BRANCH   2   7
HETATM    7  C9  UNL     1     -34.134  16.277  -3.398  1.00 20.00     0.016 C 
HETATM    8  C6  UNL     1     -35.021  15.859  -2.212  1.00 20.00     0.013 C 
BRANCH   7   9
HETATM    9  C8  UNL     1     -32.740  16.730  -2.907  1.00 20.00     0.002 C 
HETATM   10  C5  UNL     1     -32.790  17.726  -1.754  1.00 20.00     0.005 C 
ENDBRANCH   7   9
ENDBRANCH   2   7
BRANCH   2  11
HETATM   11  O11 UNL     1     -32.696  14.783  -4.678  1.00 20.00    -0.389 OA
HETATM   12  H31 UNL     1     -32.601  14.568  -5.616  1.00 20.00     0.210 HD
ENDBRANCH   2  11
TORSDOF 4
ENDMDL
MODEL 4
REMARK VINA RESULT:      -3.9      1.882      2.687
REMARK  4 active torsions:
REMARK  status: ('A' for Active; 'I' for Inactive)
REMARK    1  A    between atoms: C3_3  and  C10_10 
REMARK    2  A    between atoms: C8_8  and  C9_9 
REMARK    3  A    between atoms: C9_9  and  C10_10 
REMARK    4  A    between atoms: C10_10  and  O11_11 
ROOT
HETATM    1  C7  UNL     1     -35.361  17.203  -4.428  1.00 20.00     0.047 C 
HETATM    2  C10 UNL     1     -35.302  15.992  -3.519  1.00 20.00     0.065 C 
ENDROOT
BRANCH   2   3
HETATM    3  C3  UNL     1     -34.915  14.752  -4.333  1.00 20.00    -0.013 A 
HETATM    4  C1  UNL     1     -33.484  14.274  -4.259  1.00 20.00     0.013 A 
HETATM    5  C2  UNL     1     -33.985  14.937  -5.510  1.00 20.00     0.013 A 
HETATM    6  C4  UNL     1     -36.000  13.716  -4.448  1.00 20.00     0.018 C 
ENDBRANCH   2   3
BRANCH   2   7
HETATM    7  C9  UNL     1     -34.372  16.239  -2.283  1.00 20.00     0.016 C 
HETATM    8  C6  UNL     1     -33.236  17.224  -2.608  1.00 20.00     0.013 C 
BRANCH   7   9
HETATM    9  C8  UNL     1     -35.145  16.688  -1.021  1.00 20.00     0.002 C 
HETATM   10  C5  UNL     1     -34.473  17.830  -0.266  1.00 20.00     0.005 C 
ENDBRANCH   7   9
ENDBRANCH   2   7
BRANCH   2  11
HETATM   11  O11 UNL     1     -36.637  15.760  -3.045  1.00 20.00    -0.389 OA
HETATM   12  H31 UNL     1     -37.112  15.350  -3.781  1.00 20.00     0.210 HD
ENDBRANCH   2  11
TORSDOF 4
ENDMDL
MODEL 5
REMARK VINA RESULT:      -3.8      1.592      3.888
REMARK  4 active torsions:
REMARK  status: ('A' for Active; 'I' for Inactive)
REMARK    1  A    between atoms: C3_3  and  C10_10 
REMARK    2  A    between atoms: C8_8  and  C9_9 
REMARK    3  A    between atoms: C9_9  and  C10_10 
REMARK    4  A    between atoms: C10_10  and  O11_11 
ROOT
HETATM    1  C7  UNL     1     -36.866  16.212  -3.750  1.00 20.00     0.047 C 
HETATM    2  C10 UNL     1     -35.463  16.115  -4.316  1.00 20.00     0.065 C 
ENDROOT
BRANCH   2   3
HETATM    3  C3  UNL     1     -34.437  16.295  -3.192  1.00 20.00    -0.013 A 
HETATM    4  C1  UNL     1     -33.296  17.258  -3.422  1.00 20.00     0.013 A 
HETATM    5  C2  UNL     1     -33.035  15.779  -3.422  1.00 20.00     0.013 A 
HETATM    6  C4  UNL     1     -35.005  16.195  -1.803  1.00 20.00     0.018 C 
ENDBRANCH   2   3
BRANCH   2   7
HETATM    7  C9  UNL     1     -35.258  14.799  -5.139  1.00 20.00     0.016 C 
HETATM    8  C6  UNL     1     -36.285  13.718  -4.757  1.00 20.00     0.013 C 
BRANCH   7   9
HETATM    9  C8  UNL     1     -35.251  15.032  -6.668  1.00 20.00     0.002 C 
HETATM   10  C5  UNL     1     -33.853  15.073  -7.275  1.00 20.00     0.005 C 
ENDBRANCH   7   9
ENDBRANCH   2   7
BRANCH   2  11
HETATM   11  O11 UNL     1     -35.290  17.235  -5.198  1.00 20.00    -0.389 OA
HETATM   12  H31 UNL     1     -35.652  18.000  -4.731  1.00 20.00     0.210 HD
ENDBRANCH   2  11
TORSDOF 4
ENDMDL
MODEL 6
REMARK VINA RESULT:      -3.8      1.686      2.406
REMARK  4 active torsions:
REMARK  status: ('A' for Active; 'I' for Inactive)
REMARK    1  A    between atoms: C3_3  and  C10_10 
REMARK    2  A    between atoms: C8_8  and  C9_9 
REMARK    3  A    between atoms: C9_9  and  C10_10 
REMARK    4  A    between atoms: C10_10  and  O11_11 
ROOT
HETATM    1  C7  UNL     1     -34.049  15.051  -6.618  1.00 20.00     0.047 C 
HETATM    2  C10 UNL     1     -34.508  15.767  -5.364  1.00 20.00     0.065 C 
ENDROOT
BRANCH   2   3
HETATM    3  C3  UNL     1     -36.037  15.877  -5.361  1.00 20.00    -0.013 A 
HETATM    4  C1  UNL     1     -36.694  16.656  -6.476  1.00 20.00     0.013 A 
HETATM    5  C2  UNL     1     -36.649  17.232  -5.090  1.00 20.00     0.013 A 
HETATM    6  C4  UNL     1     -36.751  14.663  -4.833  1.00 20.00     0.018 C 
ENDBRANCH   2   3
BRANCH   2   7
HETATM    7  C9  UNL     1     -33.930  15.100  -4.070  1.00 20.00     0.016 C 
HETATM    8  C6  UNL     1     -32.650  14.298  -4.362  1.00 20.00     0.013 C 
BRANCH   7   9
HETATM    9  C8  UNL     1     -33.696  16.107  -2.920  1.00 20.00     0.002 C 
HETATM   10  C5  UNL     1     -34.853  16.185  -1.930  1.00 20.00     0.005 C 
ENDBRANCH   7   9
ENDBRANCH   2   7
BRANCH   2  11
HETATM   11  O11 UNL     1     -34.010  17.111  -5.445  1.00 20.00    -0.389 OA
HETATM   12  H31 UNL     1     -34.767  17.660  -5.690  1.00 20.00     0.210 HD
ENDBRANCH   2  11
TORSDOF 4
ENDMDL
MODEL 7
REMARK VINA RESULT:      -3.8      1.738      3.894
REMARK  4 active torsions:
REMARK  status: ('A' for Active; 'I' for Inactive)
REMARK    1  A    between atoms: C3_3  and  C10_10 
REMARK    2  A    between atoms: C8_8  and  C9_9 
REMARK    3  A    between atoms: C9_9  and  C10_10 
REMARK    4  A    between atoms: C10_10  and  O11_11 
ROOT
HETATM    1  C7  UNL     1     -34.035  18.119  -4.969  1.00 20.00     0.047 C 
HETATM    2  C10 UNL     1     -34.427  16.656  -4.941  1.00 20.00     0.065 C 
ENDROOT
BRANCH   2   3
HETATM    3  C3  UNL     1     -33.683  15.941  -3.807  1.00 20.00    -0.013 A 
HETATM    4  C1  UNL     1     -34.321  15.930  -2.437  1.00 20.00     0.013 A 
HETATM    5  C2  UNL     1     -33.113  16.786  -2.690  1.00 20.00     0.013 A 
HETATM    6  C4  UNL     1     -32.911  14.724  -4.234  1.00 20.00     0.018 C 
ENDBRANCH   2   3
BRANCH   2   7
HETATM    7  C9  UNL     1     -35.981  16.472  -4.877  1.00 20.00     0.016 C 
HETATM    8  C6  UNL     1     -36.727  17.705  -5.417  1.00 20.00     0.013 C 
BRANCH   7   9
HETATM    9  C8  UNL     1     -36.471  15.184  -5.578  1.00 20.00     0.002 C 
HETATM   10  C5  UNL     1     -36.678  14.010  -4.627  1.00 20.00     0.005 C 
ENDBRANCH   7   9
ENDBRANCH   2   7
BRANCH   2  11
HETATM   11  O11 UNL     1     -33.951  16.072  -6.163  1.00 20.00    -0.389 OA
HETATM   12  H31 UNL     1     -34.736  15.898  -6.698  1.00 20.00     0.210 HD
ENDBRANCH   2  11
TORSDOF 4
ENDMDL
MODEL 8
REMARK VINA RESULT:      -3.8      2.035      3.842
REMARK  4 active torsions:
REMARK  status: ('A' for Active; 'I' for Inactive)
REMARK    1  A    between atoms: C3_3  and  C10_10 
REMARK    2  A    between atoms: C8_8  and  C9_9 
REMARK    3  A    between atoms: C9_9  and  C10_10 
REMARK    4  A    between atoms: C10_10  and  O11_11 
ROOT
HETATM    1  C7  UNL     1     -35.119  13.728  -4.009  1.00 20.00     0.047 C 
HETATM    2  C10 UNL     1     -35.575  15.173  -3.980  1.00 20.00     0.065 C 
ENDROOT
BRANCH   2   3
HETATM    3  C3  UNL     1     -34.596  16.010  -3.150  1.00 20.00    -0.013 A 
HETATM    4  C1  UNL     1     -33.813  17.092  -3.856  1.00 20.00     0.013 A 
HETATM    5  C2  UNL     1     -33.117  15.837  -3.411  1.00 20.00     0.013 A 
HETATM    6  C4  UNL     1     -35.036  16.267  -1.734  1.00 20.00     0.018 C 
ENDBRANCH   2   3
BRANCH   2   7
HETATM    7  C9  UNL     1     -35.806  15.738  -5.423  1.00 20.00     0.016 C 
HETATM    8  C6  UNL     1     -35.612  14.656  -6.500  1.00 20.00     0.013 C 
BRANCH   7   9
HETATM    9  C8  UNL     1     -37.175  16.438  -5.590  1.00 20.00     0.002 C 
HETATM   10  C5  UNL     1     -37.107  17.955  -5.454  1.00 20.00     0.005 C 
ENDBRANCH   7   9
ENDBRANCH   2   7
BRANCH   2  11
HETATM   11  O11 UNL     1     -36.825  15.203  -3.275  1.00 20.00    -0.389 OA
HETATM   12  H31 UNL     1     -36.599  15.236  -2.335  1.00 20.00     0.210 HD
ENDBRANCH   2  11
TORSDOF 4
ENDMDL
MODEL 9
REMARK VINA RESULT:      -3.7      1.553      3.902
REMARK  4 active torsions:
REMARK  status: ('A' for Active; 'I' for Inactive)
REMARK    1  A    between atoms: C3_3  and  C10_10 
REMARK    2  A    between atoms: C8_8  and  C9_9 
REMARK    3  A    between atoms: C9_9  and  C10_10 
REMARK    4  A    between atoms: C10_10  and  O11_11 
ROOT
HETATM    1  C7  UNL     1     -35.762  17.640  -4.072  1.00 20.00     0.047 C 
HETATM    2  C10 UNL     1     -34.738  16.752  -4.749  1.00 20.00     0.065 C 
ENDROOT
BRANCH   2   3
HETATM    3  C3  UNL     1     -34.186  15.736  -3.741  1.00 20.00    -0.013 A 
HETATM    4  C1  UNL     1     -33.199  14.707  -4.241  1.00 20.00     0.013 A 
HETATM    5  C2  UNL     1     -34.599  14.290  -3.894  1.00 20.00     0.013 A 
HETATM    6  C4  UNL     1     -34.000  16.273  -2.349  1.00 20.00     0.018 C 
ENDBRANCH   2   3
BRANCH   2   7
HETATM    7  C9  UNL     1     -35.310  16.090  -6.048  1.00 20.00     0.016 C 
HETATM    8  C6  UNL     1     -36.805  16.400  -6.238  1.00 20.00     0.013 C 
BRANCH   7   9
HETATM    9  C8  UNL     1     -34.509  16.452  -7.320  1.00 20.00     0.002 C 
HETATM   10  C5  UNL     1     -33.745  15.276  -7.918  1.00 20.00     0.005 C 
ENDBRANCH   7   9
ENDBRANCH   2   7
BRANCH   2  11
HETATM   11  O11 UNL     1     -33.633  17.592  -5.116  1.00 20.00    -0.389 OA
HETATM   12  H31 UNL     1     -33.946  18.137  -5.851  1.00 20.00     0.210 HD
ENDBRANCH   2  11
TORSDOF 4
ENDMDL
