MODEL 1
REMARK VINA RESULT:      -4.7      0.000      0.000
REMARK  2 active torsions:
REMARK  status: ('A' for Active; 'I' for Inactive)
REMARK    1  A    between atoms: C1_1  and  C4_4 
REMARK    2  A    between atoms: C1_1  and  C6_6 
ROOT
HETATM    1  C2  UNL     1     -34.661   4.586   4.847  1.00 20.00     0.018 A 
HETATM    2  C3  UNL     1     -35.577   5.595   4.225  1.00 20.00     0.018 A 
HETATM    3  C4  UNL     1     -34.109   5.924   4.400  1.00 20.00     0.018 A 
HETATM    4  C5  UNL     1     -33.753   6.914   5.481  1.00 20.00     0.023 C 
ENDROOT
BRANCH   3   5
HETATM    5  C1  UNL     1     -33.271   5.929   3.177  1.00 20.00     0.148 C 
HETATM    6  O7  UNL     1     -33.328   5.000   2.373  1.00 20.00    -0.296 OA
BRANCH   5   7
HETATM    7  C6  UNL     1     -32.370   7.131   3.005  1.00 20.00     0.193 C 
HETATM    8 CL8  UNL     1     -32.609   7.870   1.414  1.00 20.00    -0.123 Cl
ENDBRANCH   5   7
ENDBRANCH   3   5
TORSDOF 2
ENDMDL
MODEL 2
REMARK VINA RESULT:      -4.1     11.601     12.068
REMARK  2 active torsions:
REMARK  status: ('A' for Active; 'I' for Inactive)
REMARK    1  A    between atoms: C1_1  and  C4_4 
REMARK    2  A    between atoms: C1_1  and  C6_6 
ROOT
HETATM    1  C2  UNL     1     -34.025  15.361  -5.067  1.00 20.00     0.018 A 
HETATM    2  C3  UNL     1     -33.438  14.238  -4.268  1.00 20.00     0.018 A 
HETATM    3  C4  UNL     1     -34.817  14.763  -3.922  1.00 20.00     0.018 A 
HETATM    4  C5  UNL     1     -34.940  15.591  -2.668  1.00 20.00     0.023 C 
ENDROOT
BRANCH   3   5
HETATM    5  C1  UNL     1     -35.971  13.905  -4.281  1.00 20.00     0.148 C 
HETATM    6  O7  UNL     1     -35.807  12.721  -4.571  1.00 20.00    -0.296 OA
BRANCH   5   7
HETATM    7  C6  UNL     1     -37.323  14.582  -4.264  1.00 20.00     0.193 C 
HETATM    8 CL8  UNL     1     -37.427  15.803  -5.542  1.00 20.00    -0.123 Cl
ENDBRANCH   5   7
ENDBRANCH   3   5
TORSDOF 2
ENDMDL
MODEL 3
REMARK VINA RESULT:      -4.1      1.466      2.033
REMARK  2 active torsions:
REMARK  status: ('A' for Active; 'I' for Inactive)
REMARK    1  A    between atoms: C1_1  and  C4_4 
REMARK    2  A    between atoms: C1_1  and  C6_6 
ROOT
HETATM    1  C2  UNL     1     -35.514   5.558   4.047  1.00 20.00     0.018 A 
HETATM    2  C3  UNL     1     -34.634   4.742   4.944  1.00 20.00     0.018 A 
HETATM    3  C4  UNL     1     -34.029   5.467   3.760  1.00 20.00     0.018 A 
HETATM    4  C5  UNL     1     -33.609   4.624   2.582  1.00 20.00     0.023 C 
ENDROOT
BRANCH   3   5
HETATM    5  C1  UNL     1     -33.214   6.670   4.055  1.00 20.00     0.148 C 
HETATM    6  O7  UNL     1     -33.378   7.299   5.098  1.00 20.00    -0.296 OA
BRANCH   5   7
HETATM    7  C6  UNL     1     -32.198   7.048   3.000  1.00 20.00     0.193 C 
HETATM    8 CL8  UNL     1     -32.948   8.033   1.734  1.00 20.00    -0.123 Cl
ENDBRANCH   5   7
ENDBRANCH   3   5
TORSDOF 2
ENDMDL
MODEL 4
REMARK VINA RESULT:      -4.1      1.404      1.434
REMARK  2 active torsions:
REMARK  status: ('A' for Active; 'I' for Inactive)
REMARK    1  A    between atoms: C1_1  and  C4_4 
REMARK    2  A    between atoms: C1_1  and  C6_6 
ROOT
HETATM    1  C2  UNL     1     -34.488   4.429   4.381  1.00 20.00     0.018 A 
HETATM    2  C3  UNL     1     -35.509   5.458   4.003  1.00 20.00     0.018 A 
HETATM    3  C4  UNL     1     -34.271   5.878   4.767  1.00 20.00     0.018 A 
HETATM    4  C5  UNL     1     -34.450   6.234   6.222  1.00 20.00     0.023 C 
ENDROOT
BRANCH   3   5
HETATM    5  C1  UNL     1     -33.237   6.626   4.012  1.00 20.00     0.148 C 
HETATM    6  O7  UNL     1     -32.569   7.499   4.561  1.00 20.00    -0.296 OA
BRANCH   5   7
HETATM    7  C6  UNL     1     -33.079   6.241   2.558  1.00 20.00     0.193 C 
HETATM    8 CL8  UNL     1     -32.426   7.593   1.620  1.00 20.00    -0.123 Cl
ENDBRANCH   5   7
ENDBRANCH   3   5
TORSDOF 2
ENDMDL
MODEL 5
REMARK VINA RESULT:      -4.1      2.603      3.763
REMARK  2 active torsions:
REMARK  status: ('A' for Active; 'I' for Inactive)
REMARK    1  A    between atoms: C1_1  and  C4_4 
REMARK    2  A    between atoms: C1_1  and  C6_6 
ROOT
HETATM    1  C2  UNL     1     -31.853   7.126   2.753  1.00 20.00     0.018 A 
HETATM    2  C3  UNL     1     -33.116   7.461   2.020  1.00 20.00     0.018 A 
HETATM    3  C4  UNL     1     -33.093   6.284   2.972  1.00 20.00     0.018 A 
HETATM    4  C5  UNL     1     -33.102   4.905   2.359  1.00 20.00     0.023 C 
ENDROOT
BRANCH   3   5
HETATM    5  C1  UNL     1     -33.799   6.452   4.265  1.00 20.00     0.148 C 
HETATM    6  O7  UNL     1     -33.430   7.299   5.075  1.00 20.00    -0.296 OA
BRANCH   5   7
HETATM    7  C6  UNL     1     -34.970   5.524   4.498  1.00 20.00     0.193 C 
HETATM    8 CL8  UNL     1     -35.003   4.969   6.179  1.00 20.00    -0.123 Cl
ENDBRANCH   5   7
ENDBRANCH   3   5
TORSDOF 2
ENDMDL
MODEL 6
REMARK VINA RESULT:      -4.0     11.431     11.962
REMARK  2 active torsions:
REMARK  status: ('A' for Active; 'I' for Inactive)
REMARK    1  A    between atoms: C1_1  and  C4_4 
REMARK    2  A    between atoms: C1_1  and  C6_6 
ROOT
HETATM    1  C2  UNL     1     -35.044  15.769  -2.303  1.00 20.00     0.018 A 
HETATM    2  C3  UNL     1     -35.326  16.492  -3.585  1.00 20.00     0.018 A 
HETATM    3  C4  UNL     1     -34.463  15.247  -3.601  1.00 20.00     0.018 A 
HETATM    4  C5  UNL     1     -32.983  15.442  -3.817  1.00 20.00     0.023 C 
ENDROOT
BRANCH   3   5
HETATM    5  C1  UNL     1     -35.071  14.016  -4.161  1.00 20.00     0.148 C 
HETATM    6  O7  UNL     1     -34.604  12.910  -3.896  1.00 20.00    -0.296 OA
BRANCH   5   7
HETATM    7  C6  UNL     1     -36.270  14.225  -5.058  1.00 20.00     0.193 C 
HETATM    8 CL8  UNL     1     -35.757  14.590  -6.713  1.00 20.00    -0.123 Cl
ENDBRANCH   5   7
ENDBRANCH   3   5
TORSDOF 2
ENDMDL
MODEL 7
REMARK VINA RESULT:      -3.9      9.113      9.847
REMARK  2 active torsions:
REMARK  status: ('A' for Active; 'I' for Inactive)
REMARK    1  A    between atoms: C1_1  and  C4_4 
REMARK    2  A    between atoms: C1_1  and  C6_6 
ROOT
HETATM    1  C2  UNL     1     -40.963   5.727  -0.815  1.00 20.00     0.018 A 
HETATM    2  C3  UNL     1     -42.166   5.057  -1.407  1.00 20.00     0.018 A 
HETATM    3  C4  UNL     1     -42.348   6.123  -0.347  1.00 20.00     0.018 A 
HETATM    4  C5  UNL     1     -42.766   5.659   1.027  1.00 20.00     0.023 C 
ENDROOT
BRANCH   3   5
HETATM    5  C1  UNL     1     -42.859   7.439  -0.799  1.00 20.00     0.148 C 
HETATM    6  O7  UNL     1     -43.230   7.603  -1.960  1.00 20.00    -0.296 OA
BRANCH   5   7
HETATM    7  C6  UNL     1     -42.885   8.528   0.249  1.00 20.00     0.193 C 
HETATM    8 CL8  UNL     1     -41.362   9.431   0.251  1.00 20.00    -0.123 Cl
ENDBRANCH   5   7
ENDBRANCH   3   5
TORSDOF 2
ENDMDL
MODEL 8
REMARK VINA RESULT:      -3.8     11.425     12.037
REMARK  2 active torsions:
REMARK  status: ('A' for Active; 'I' for Inactive)
REMARK    1  A    between atoms: C1_1  and  C4_4 
REMARK    2  A    between atoms: C1_1  and  C6_6 
ROOT
HETATM    1  C2  UNL     1     -33.946  16.569  -4.296  1.00 20.00     0.018 A 
HETATM    2  C3  UNL     1     -32.983  15.896  -3.367  1.00 20.00     0.018 A 
HETATM    3  C4  UNL     1     -34.432  15.458  -3.388  1.00 20.00     0.018 A 
HETATM    4  C5  UNL     1     -35.287  15.860  -2.212  1.00 20.00     0.023 C 
ENDROOT
BRANCH   3   5
HETATM    5  C1  UNL     1     -34.731  14.153  -4.025  1.00 20.00     0.148 C 
HETATM    6  O7  UNL     1     -33.907  13.241  -4.001  1.00 20.00    -0.296 OA
BRANCH   5   7
HETATM    7  C6  UNL     1     -36.085  14.041  -4.688  1.00 20.00     0.193 C 
HETATM    8 CL8  UNL     1     -35.989  14.509  -6.392  1.00 20.00    -0.123 Cl
ENDBRANCH   5   7
ENDBRANCH   3   5
TORSDOF 2
ENDMDL
MODEL 9
REMARK VINA RESULT:      -3.8      0.609      1.492
REMARK  2 active torsions:
REMARK  status: ('A' for Active; 'I' for Inactive)
REMARK    1  A    between atoms: C1_1  and  C4_4 
REMARK    2  A    between atoms: C1_1  and  C6_6 
ROOT
HETATM    1  C2  UNL     1     -34.318   6.238   5.745  1.00 20.00     0.018 A 
HETATM    2  C3  UNL     1     -34.395   4.749   5.597  1.00 20.00     0.018 A 
HETATM    3  C4  UNL     1     -34.601   5.634   4.385  1.00 20.00     0.018 A 
HETATM    4  C5  UNL     1     -36.010   5.760   3.860  1.00 20.00     0.023 C 
ENDROOT
BRANCH   3   5
HETATM    5  C1  UNL     1     -33.504   5.676   3.389  1.00 20.00     0.148 C 
HETATM    6  O7  UNL     1     -33.262   4.700   2.682  1.00 20.00    -0.296 OA
BRANCH   5   7
HETATM    7  C6  UNL     1     -32.730   6.973   3.319  1.00 20.00     0.193 C 
HETATM    8 CL8  UNL     1     -32.572   7.517   1.643  1.00 20.00    -0.123 Cl
ENDBRANCH   5   7
ENDBRANCH   3   5
TORSDOF 2
ENDMDL
