MODEL 1
REMARK VINA RESULT:      -4.7      0.000      0.000
REMARK  3 active torsions:
REMARK  status: ('A' for Active; 'I' for Inactive)
REMARK    1  A    between atoms: C3_3  and  C6_6 
REMARK    2  A    between atoms: C6_6  and  C7_7 
REMARK    3  A    between atoms: C6_6  and  O8_8 
ROOT
HETATM    1  C5  UNL     1     -25.533  18.682  11.274  1.00 20.00     0.056 C 
HETATM    2  C6  UNL     1     -24.226  17.932  11.093  1.00 20.00     0.158 C 
ENDROOT
BRANCH   2   3
HETATM    3  C3  UNL     1     -23.706  18.067   9.689  1.00 20.00    -0.004 A 
HETATM    4  C1  UNL     1     -22.622  17.115   9.239  1.00 20.00     0.013 A 
HETATM    5  C2  UNL     1     -22.288  18.555   9.502  1.00 20.00     0.013 A 
HETATM    6  C4  UNL     1     -24.737  18.490   8.678  1.00 20.00     0.018 C 
ENDBRANCH   2   3
BRANCH   2   7
HETATM    7  C7  UNL     1     -24.407  16.462  11.495  1.00 20.00     0.418 C 
HETATM    8  F9  UNL     1     -23.310  16.005  12.138  1.00 20.00    -0.168 F 
HETATM    9  F10 UNL     1     -24.615  15.659  10.428  1.00 20.00    -0.168 F 
HETATM   10  F11 UNL     1     -25.459  16.314  12.329  1.00 20.00    -0.168 F 
ENDBRANCH   2   7
BRANCH   2  11
HETATM   11  O8  UNL     1     -23.278  18.509  12.006  1.00 20.00    -0.380 OA
HETATM   12  H22 UNL     1     -23.637  18.359  12.890  1.00 20.00     0.211 HD
ENDBRANCH   2  11
TORSDOF 3
ENDMDL
MODEL 2
REMARK VINA RESULT:      -4.6     22.781     23.655
REMARK  3 active torsions:
REMARK  status: ('A' for Active; 'I' for Inactive)
REMARK    1  A    between atoms: C3_3  and  C6_6 
REMARK    2  A    between atoms: C6_6  and  C7_7 
REMARK    3  A    between atoms: C6_6  and  O8_8 
ROOT
HETATM    1  C5  UNL     1     -43.321   7.888  -1.622  1.00 20.00     0.056 C 
HETATM    2  C6  UNL     1     -42.029   7.464  -0.949  1.00 20.00     0.158 C 
ENDROOT
BRANCH   2   3
HETATM    3  C3  UNL     1     -42.050   6.002  -0.596  1.00 20.00    -0.004 A 
HETATM    4  C1  UNL     1     -43.374   5.276  -0.658  1.00 20.00     0.013 A 
HETATM    5  C2  UNL     1     -42.757   5.590   0.675  1.00 20.00     0.013 A 
HETATM    6  C4  UNL     1     -40.811   5.245  -0.991  1.00 20.00     0.018 C 
ENDBRANCH   2   3
BRANCH   2   7
HETATM    7  C7  UNL     1     -41.765   8.343   0.280  1.00 20.00     0.418 C 
HETATM    8  F9  UNL     1     -41.161   9.497  -0.080  1.00 20.00    -0.168 F 
HETATM    9  F10 UNL     1     -40.968   7.734   1.186  1.00 20.00    -0.168 F 
HETATM   10  F11 UNL     1     -42.920   8.665   0.902  1.00 20.00    -0.168 F 
ENDBRANCH   2   7
BRANCH   2  11
HETATM   11  O8  UNL     1     -40.965   7.708  -1.884  1.00 20.00    -0.380 OA
HETATM   12  H22 UNL     1     -41.025   7.004  -2.543  1.00 20.00     0.211 HD
ENDBRANCH   2  11
TORSDOF 3
ENDMDL
MODEL 3
REMARK VINA RESULT:      -4.3     17.619     18.870
REMARK  3 active torsions:
REMARK  status: ('A' for Active; 'I' for Inactive)
REMARK    1  A    between atoms: C3_3  and  C6_6 
REMARK    2  A    between atoms: C6_6  and  C7_7 
REMARK    3  A    between atoms: C6_6  and  O8_8 
ROOT
HETATM    1  C5  UNL     1     -34.490  15.097  -6.340  1.00 20.00     0.056 C 
HETATM    2  C6  UNL     1     -34.937  15.272  -4.901  1.00 20.00     0.158 C 
ENDROOT
BRANCH   2   3
HETATM    3  C3  UNL     1     -33.766  15.528  -3.991  1.00 20.00    -0.004 A 
HETATM    4  C1  UNL     1     -34.054  15.944  -2.567  1.00 20.00     0.013 A 
HETATM    5  C2  UNL     1     -33.515  16.950  -3.544  1.00 20.00     0.013 A 
HETATM    6  C4  UNL     1     -32.574  14.646  -4.242  1.00 20.00     0.018 C 
ENDBRANCH   2   3
BRANCH   2   7
HETATM    7  C7  UNL     1     -35.750  14.051  -4.453  1.00 20.00     0.418 C 
HETATM    8  F9  UNL     1     -36.760  14.424  -3.636  1.00 20.00    -0.168 F 
HETATM    9  F10 UNL     1     -34.998  13.151  -3.782  1.00 20.00    -0.168 F 
HETATM   10  F11 UNL     1     -36.297  13.418  -5.513  1.00 20.00    -0.168 F 
ENDBRANCH   2   7
BRANCH   2  11
HETATM   11  O8  UNL     1     -35.818  16.407  -4.868  1.00 20.00    -0.380 OA
HETATM   12  H22 UNL     1     -36.229  16.397  -3.993  1.00 20.00     0.211 HD
ENDBRANCH   2  11
TORSDOF 3
ENDMDL
MODEL 4
REMARK VINA RESULT:      -4.3     17.682     18.955
REMARK  3 active torsions:
REMARK  status: ('A' for Active; 'I' for Inactive)
REMARK    1  A    between atoms: C3_3  and  C6_6 
REMARK    2  A    between atoms: C6_6  and  C7_7 
REMARK    3  A    between atoms: C6_6  and  O8_8 
ROOT
HETATM    1  C5  UNL     1     -33.079  16.122  -3.783  1.00 20.00     0.056 C 
HETATM    2  C6  UNL     1     -33.884  15.111  -4.579  1.00 20.00     0.158 C 
ENDROOT
BRANCH   2   3
HETATM    3  C3  UNL     1     -34.406  15.710  -5.856  1.00 20.00    -0.004 A 
HETATM    4  C1  UNL     1     -35.244  14.834  -6.758  1.00 20.00     0.013 A 
HETATM    5  C2  UNL     1     -33.843  15.195  -7.161  1.00 20.00     0.013 A 
HETATM    6  C4  UNL     1     -34.756  17.170  -5.766  1.00 20.00     0.018 C 
ENDBRANCH   2   3
BRANCH   2   7
HETATM    7  C7  UNL     1     -35.015  14.543  -3.712  1.00 20.00     0.418 C 
HETATM    8  F9  UNL     1     -34.976  13.193  -3.701  1.00 20.00    -0.168 F 
HETATM    9  F10 UNL     1     -36.237  14.910  -4.157  1.00 20.00    -0.168 F 
HETATM   10  F11 UNL     1     -34.903  14.964  -2.433  1.00 20.00    -0.168 F 
ENDBRANCH   2   7
BRANCH   2  11
HETATM   11  O8  UNL     1     -33.001  14.022  -4.893  1.00 20.00    -0.380 OA
HETATM   12  H22 UNL     1     -32.195  14.179  -4.383  1.00 20.00     0.211 HD
ENDBRANCH   2  11
TORSDOF 3
ENDMDL
MODEL 5
REMARK VINA RESULT:      -4.3     17.995     19.088
REMARK  3 active torsions:
REMARK  status: ('A' for Active; 'I' for Inactive)
REMARK    1  A    between atoms: C3_3  and  C6_6 
REMARK    2  A    between atoms: C6_6  and  C7_7 
REMARK    3  A    between atoms: C6_6  and  O8_8 
ROOT
HETATM    1  C5  UNL     1     -36.521  14.353  -4.135  1.00 20.00     0.056 C 
HETATM    2  C6  UNL     1     -35.045  14.603  -4.382  1.00 20.00     0.158 C 
ENDROOT
BRANCH   2   3
HETATM    3  C3  UNL     1     -34.516  15.691  -3.488  1.00 20.00    -0.004 A 
HETATM    4  C1  UNL     1     -35.204  15.916  -2.162  1.00 20.00     0.013 A 
HETATM    5  C2  UNL     1     -35.378  16.913  -3.272  1.00 20.00     0.013 A 
HETATM    6  C4  UNL     1     -33.025  15.882  -3.551  1.00 20.00     0.018 C 
ENDBRANCH   2   3
BRANCH   2   7
HETATM    7  C7  UNL     1     -34.808  14.919  -5.865  1.00 20.00     0.418 C 
HETATM    8  F9  UNL     1     -33.559  14.563  -6.235  1.00 20.00    -0.168 F 
HETATM    9  F10 UNL     1     -34.953  16.234  -6.140  1.00 20.00    -0.168 F 
HETATM   10  F11 UNL     1     -35.674  14.240  -6.648  1.00 20.00    -0.168 F 
ENDBRANCH   2   7
BRANCH   2  11
HETATM   11  O8  UNL     1     -34.355  13.376  -4.093  1.00 20.00    -0.380 OA
HETATM   12  H22 UNL     1     -34.921  12.893  -3.477  1.00 20.00     0.211 HD
ENDBRANCH   2  11
TORSDOF 3
ENDMDL
MODEL 6
REMARK VINA RESULT:      -4.3     17.905     18.972
REMARK  3 active torsions:
REMARK  status: ('A' for Active; 'I' for Inactive)
REMARK    1  A    between atoms: C3_3  and  C6_6 
REMARK    2  A    between atoms: C6_6  and  C7_7 
REMARK    3  A    between atoms: C6_6  and  O8_8 
ROOT
HETATM    1  C5  UNL     1     -34.934  13.490  -4.047  1.00 20.00     0.056 C 
HETATM    2  C6  UNL     1     -34.294  14.747  -4.606  1.00 20.00     0.158 C 
ENDROOT
BRANCH   2   3
HETATM    3  C3  UNL     1     -34.215  15.831  -3.567  1.00 20.00    -0.004 A 
HETATM    4  C1  UNL     1     -33.741  17.198  -4.004  1.00 20.00     0.013 A 
HETATM    5  C2  UNL     1     -32.846  16.330  -3.166  1.00 20.00     0.013 A 
HETATM    6  C4  UNL     1     -35.278  15.759  -2.505  1.00 20.00     0.018 C 
ENDBRANCH   2   3
BRANCH   2   7
HETATM    7  C7  UNL     1     -35.055  15.210  -5.856  1.00 20.00     0.418 C 
HETATM    8  F9  UNL     1     -34.223  15.840  -6.715  1.00 20.00    -0.168 F 
HETATM    9  F10 UNL     1     -36.057  16.067  -5.560  1.00 20.00    -0.168 F 
HETATM   10  F11 UNL     1     -35.595  14.159  -6.511  1.00 20.00    -0.168 F 
ENDBRANCH   2   7
BRANCH   2  11
HETATM   11  O8  UNL     1     -32.965  14.394  -5.024  1.00 20.00    -0.380 OA
HETATM   12  H22 UNL     1     -32.831  14.829  -5.876  1.00 20.00     0.211 HD
ENDBRANCH   2  11
TORSDOF 3
ENDMDL
MODEL 7
REMARK VINA RESULT:      -4.3     17.895     19.173
REMARK  3 active torsions:
REMARK  status: ('A' for Active; 'I' for Inactive)
REMARK    1  A    between atoms: C3_3  and  C6_6 
REMARK    2  A    between atoms: C6_6  and  C7_7 
REMARK    3  A    between atoms: C6_6  and  O8_8 
ROOT
HETATM    1  C5  UNL     1     -33.736  15.674  -3.381  1.00 20.00     0.056 C 
HETATM    2  C6  UNL     1     -34.147  14.879  -4.607  1.00 20.00     0.158 C 
ENDROOT
BRANCH   2   3
HETATM    3  C3  UNL     1     -34.460  15.784  -5.767  1.00 20.00    -0.004 A 
HETATM    4  C1  UNL     1     -34.371  17.276  -5.546  1.00 20.00     0.013 A 
HETATM    5  C2  UNL     1     -35.716  16.622  -5.692  1.00 20.00     0.013 A 
HETATM    6  C4  UNL     1     -34.052  15.243  -7.110  1.00 20.00     0.018 C 
ENDBRANCH   2   3
BRANCH   2   7
HETATM    7  C7  UNL     1     -35.328  13.962  -4.264  1.00 20.00     0.418 C 
HETATM    8  F9  UNL     1     -34.893  12.814  -3.699  1.00 20.00    -0.168 F 
HETATM    9  F10 UNL     1     -36.053  13.628  -5.355  1.00 20.00    -0.168 F 
HETATM   10  F11 UNL     1     -36.163  14.557  -3.384  1.00 20.00    -0.168 F 
ENDBRANCH   2   7
BRANCH   2  11
HETATM   11  O8  UNL     1     -33.038  14.033  -4.953  1.00 20.00    -0.380 OA
HETATM   12  H22 UNL     1     -33.121  13.247  -4.398  1.00 20.00     0.211 HD
ENDBRANCH   2  11
TORSDOF 3
ENDMDL
MODEL 8
REMARK VINA RESULT:      -4.2      2.262      3.455
REMARK  3 active torsions:
REMARK  status: ('A' for Active; 'I' for Inactive)
REMARK    1  A    between atoms: C3_3  and  C6_6 
REMARK    2  A    between atoms: C6_6  and  C7_7 
REMARK    3  A    between atoms: C6_6  and  O8_8 
ROOT
HETATM    1  C5  UNL     1     -24.348  18.135   9.011  1.00 20.00     0.056 C 
HETATM    2  C6  UNL     1     -23.560  17.250   9.958  1.00 20.00     0.158 C 
ENDROOT
BRANCH   2   3
HETATM    3  C3  UNL     1     -24.223  17.162  11.306  1.00 20.00    -0.004 A 
HETATM    4  C1  UNL     1     -25.369  18.104  11.595  1.00 20.00     0.013 A 
HETATM    5  C2  UNL     1     -24.040  18.319  12.261  1.00 20.00     0.013 A 
HETATM    6  C4  UNL     1     -24.289  15.774  11.882  1.00 20.00     0.018 C 
ENDBRANCH   2   3
BRANCH   2   7
HETATM    7  C7  UNL     1     -22.115  17.753  10.066  1.00 20.00     0.418 C 
HETATM    8  F9  UNL     1     -21.293  17.014   9.290  1.00 20.00    -0.168 F 
HETATM    9  F10 UNL     1     -21.642  17.692  11.331  1.00 20.00    -0.168 F 
HETATM   10  F11 UNL     1     -22.018  19.036   9.655  1.00 20.00    -0.168 F 
ENDBRANCH   2   7
BRANCH   2  11
HETATM   11  O8  UNL     1     -23.512  15.939   9.370  1.00 20.00    -0.380 OA
HETATM   12  H22 UNL     1     -24.410  15.588   9.433  1.00 20.00     0.211 HD
ENDBRANCH   2  11
TORSDOF 3
ENDMDL
MODEL 9
REMARK VINA RESULT:      -4.2     17.253     18.511
REMARK  3 active torsions:
REMARK  status: ('A' for Active; 'I' for Inactive)
REMARK    1  A    between atoms: C3_3  and  C6_6 
REMARK    2  A    between atoms: C6_6  and  C7_7 
REMARK    3  A    between atoms: C6_6  and  O8_8 
ROOT
HETATM    1  C5  UNL     1     -34.551  17.560  -4.990  1.00 20.00     0.056 C 
HETATM    2  C6  UNL     1     -34.289  16.090  -4.719  1.00 20.00     0.158 C 
ENDROOT
BRANCH   2   3
HETATM    3  C3  UNL     1     -35.570  15.340  -4.477  1.00 20.00    -0.004 A 
HETATM    4  C1  UNL     1     -35.481  13.858  -4.193  1.00 20.00     0.013 A 
HETATM    5  C2  UNL     1     -36.009  14.335  -5.516  1.00 20.00     0.013 A 
HETATM    6  C4  UNL     1     -36.634  16.132  -3.767  1.00 20.00     0.018 C 
ENDBRANCH   2   3
BRANCH   2   7
HETATM    7  C7  UNL     1     -33.312  15.941  -3.546  1.00 20.00     0.418 C 
HETATM    8  F9  UNL     1     -32.396  14.982  -3.807  1.00 20.00    -0.168 F 
HETATM    9  F10 UNL     1     -33.936  15.602  -2.396  1.00 20.00    -0.168 F 
HETATM   10  F11 UNL     1     -32.642  17.093  -3.324  1.00 20.00    -0.168 F 
ENDBRANCH   2   7
BRANCH   2  11
HETATM   11  O8  UNL     1     -33.641  15.555  -5.884  1.00 20.00    -0.380 OA
HETATM   12  H22 UNL     1     -34.299  14.998  -6.321  1.00 20.00     0.211 HD
ENDBRANCH   2  11
TORSDOF 3
ENDMDL
