MODEL 1
REMARK VINA RESULT:      -3.9      0.000      0.000
REMARK  4 active torsions:
REMARK  status: ('A' for Active; 'I' for Inactive)
REMARK    1  A    between atoms: C2_2  and  C7_7 
REMARK    2  A    between atoms: C7_7  and  O11_11 
REMARK    3  A    between atoms: C8_8  and  C9_9 
REMARK    4  A    between atoms: C9_9  and  O11_11 
ROOT
HETATM    1  O11 UNL     1     -35.266  15.458  -2.760  1.00 20.00    -0.383 OA
ENDROOT
BRANCH   1   2
HETATM    2  C7  UNL     1     -35.008  14.441  -3.716  1.00 20.00     0.208 C 
BRANCH   2   3
HETATM    3  C2  UNL     1     -36.154  14.392  -4.704  1.00 20.00     0.100 A 
HETATM    4  C1  UNL     1     -35.862  14.416  -6.185  1.00 20.00     0.208 A 
HETATM    5  O10 UNL     1     -36.185  13.198  -5.497  1.00 20.00    -0.373 OA
HETATM    6  C3  UNL     1     -37.498  14.823  -4.211  1.00 20.00     0.050 C 
ENDBRANCH   2   3
ENDBRANCH   1   2
BRANCH   1   7
HETATM    7  C9  UNL     1     -34.056  16.085  -2.333  1.00 20.00     0.120 C 
HETATM    8  C6  UNL     1     -33.202  16.347  -3.570  1.00 20.00     0.040 C 
BRANCH   7   9
HETATM    9  C8  UNL     1     -34.414  17.367  -1.552  1.00 20.00     0.006 C 
HETATM   10  C4  UNL     1     -33.180  18.073  -0.988  1.00 20.00     0.012 C 
HETATM   11  C5  UNL     1     -35.389  17.056  -0.409  1.00 20.00     0.012 C 
ENDBRANCH   7   9
ENDBRANCH   1   7
TORSDOF 4
ENDMDL
MODEL 2
REMARK VINA RESULT:      -3.8      1.531      1.803
REMARK  4 active torsions:
REMARK  status: ('A' for Active; 'I' for Inactive)
REMARK    1  A    between atoms: C2_2  and  C7_7 
REMARK    2  A    between atoms: C7_7  and  O11_11 
REMARK    3  A    between atoms: C8_8  and  C9_9 
REMARK    4  A    between atoms: C9_9  and  O11_11 
ROOT
HETATM    1  O11 UNL     1     -33.718  15.968  -2.579  1.00 20.00    -0.383 OA
ENDROOT
BRANCH   1   2
HETATM    2  C7  UNL     1     -33.134  15.551  -3.803  1.00 20.00     0.208 C 
BRANCH   2   3
HETATM    3  C2  UNL     1     -34.212  14.956  -4.684  1.00 20.00     0.100 A 
HETATM    4  C1  UNL     1     -34.563  15.630  -5.989  1.00 20.00     0.208 A 
HETATM    5  O10 UNL     1     -33.727  14.464  -5.940  1.00 20.00    -0.373 OA
HETATM    6  C3  UNL     1     -35.209  14.057  -4.028  1.00 20.00     0.050 C 
ENDBRANCH   2   3
ENDBRANCH   1   2
BRANCH   1   7
HETATM    7  C9  UNL     1     -33.162  17.208  -2.137  1.00 20.00     0.120 C 
HETATM    8  C6  UNL     1     -32.904  18.071  -3.368  1.00 20.00     0.040 C 
BRANCH   7   9
HETATM    9  C8  UNL     1     -34.136  17.854  -1.128  1.00 20.00     0.006 C 
HETATM   10  C4  UNL     1     -33.439  18.292   0.161  1.00 20.00     0.012 C 
HETATM   11  C5  UNL     1     -35.283  16.895  -0.787  1.00 20.00     0.012 C 
ENDBRANCH   7   9
ENDBRANCH   1   7
TORSDOF 4
ENDMDL
MODEL 3
REMARK VINA RESULT:      -3.8      1.089      1.340
REMARK  4 active torsions:
REMARK  status: ('A' for Active; 'I' for Inactive)
REMARK    1  A    between atoms: C2_2  and  C7_7 
REMARK    2  A    between atoms: C7_7  and  O11_11 
REMARK    3  A    between atoms: C8_8  and  C9_9 
REMARK    4  A    between atoms: C9_9  and  O11_11 
ROOT
HETATM    1  O11 UNL     1     -35.514  16.685  -3.513  1.00 20.00    -0.383 OA
ENDROOT
BRANCH   1   2
HETATM    2  C7  UNL     1     -36.605  15.783  -3.414  1.00 20.00     0.208 C 
BRANCH   2   3
HETATM    3  C2  UNL     1     -36.623  14.897  -4.642  1.00 20.00     0.100 A 
HETATM    4  C1  UNL     1     -36.140  13.471  -4.539  1.00 20.00     0.208 A 
HETATM    5  O10 UNL     1     -37.538  13.797  -4.549  1.00 20.00    -0.373 OA
HETATM    6  C3  UNL     1     -36.632  15.577  -5.973  1.00 20.00     0.050 C 
ENDBRANCH   2   3
ENDBRANCH   1   2
BRANCH   1   7
HETATM    7  C9  UNL     1     -34.475  16.342  -2.593  1.00 20.00     0.120 C 
HETATM    8  C6  UNL     1     -33.256  15.910  -3.401  1.00 20.00     0.040 C 
BRANCH   7   9
HETATM    9  C8  UNL     1     -34.207  17.556  -1.678  1.00 20.00     0.006 C 
HETATM   10  C4  UNL     1     -32.713  17.818  -1.475  1.00 20.00     0.012 C 
HETATM   11  C5  UNL     1     -34.883  17.373  -0.314  1.00 20.00     0.012 C 
ENDBRANCH   7   9
ENDBRANCH   1   7
TORSDOF 4
ENDMDL
MODEL 4
REMARK VINA RESULT:      -3.7      1.572      2.507
REMARK  4 active torsions:
REMARK  status: ('A' for Active; 'I' for Inactive)
REMARK    1  A    between atoms: C2_2  and  C7_7 
REMARK    2  A    between atoms: C7_7  and  O11_11 
REMARK    3  A    between atoms: C8_8  and  C9_9 
REMARK    4  A    between atoms: C9_9  and  O11_11 
ROOT
HETATM    1  O11 UNL     1     -34.627  15.506  -2.410  1.00 20.00    -0.383 OA
ENDROOT
BRANCH   1   2
HETATM    2  C7  UNL     1     -35.394  15.330  -3.591  1.00 20.00     0.208 C 
BRANCH   2   3
HETATM    3  C2  UNL     1     -34.457  15.069  -4.751  1.00 20.00     0.100 A 
HETATM    4  C1  UNL     1     -35.023  14.890  -6.140  1.00 20.00     0.208 A 
HETATM    5  O10 UNL     1     -34.426  16.126  -5.720  1.00 20.00    -0.373 OA
HETATM    6  C3  UNL     1     -33.110  14.509  -4.427  1.00 20.00     0.050 C 
ENDBRANCH   2   3
ENDBRANCH   1   2
BRANCH   1   7
HETATM    7  C9  UNL     1     -34.609  16.876  -2.005  1.00 20.00     0.120 C 
HETATM    8  C6  UNL     1     -35.280  16.968  -0.638  1.00 20.00     0.040 C 
BRANCH   7   9
HETATM    9  C8  UNL     1     -33.148  17.372  -2.006  1.00 20.00     0.006 C 
HETATM   10  C4  UNL     1     -32.813  18.210  -0.771  1.00 20.00     0.012 C 
HETATM   11  C5  UNL     1     -32.849  18.186  -3.271  1.00 20.00     0.012 C 
ENDBRANCH   7   9
ENDBRANCH   1   7
TORSDOF 4
ENDMDL
MODEL 5
REMARK VINA RESULT:      -3.7      1.371      2.293
REMARK  4 active torsions:
REMARK  status: ('A' for Active; 'I' for Inactive)
REMARK    1  A    between atoms: C2_2  and  C7_7 
REMARK    2  A    between atoms: C7_7  and  O11_11 
REMARK    3  A    between atoms: C8_8  and  C9_9 
REMARK    4  A    between atoms: C9_9  and  O11_11 
ROOT
HETATM    1  O11 UNL     1     -35.744  16.990  -3.840  1.00 20.00    -0.383 OA
ENDROOT
BRANCH   1   2
HETATM    2  C7  UNL     1     -36.624  15.918  -3.540  1.00 20.00     0.208 C 
BRANCH   2   3
HETATM    3  C2  UNL     1     -36.634  14.950  -4.704  1.00 20.00     0.100 A 
HETATM    4  C1  UNL     1     -36.170  13.529  -4.494  1.00 20.00     0.208 A 
HETATM    5  O10 UNL     1     -37.563  13.869  -4.549  1.00 20.00    -0.373 OA
HETATM    6  C3  UNL     1     -36.613  15.536  -6.078  1.00 20.00     0.050 C 
ENDBRANCH   2   3
ENDBRANCH   1   2
BRANCH   1   7
HETATM    7  C9  UNL     1     -34.933  17.325  -2.712  1.00 20.00     0.120 C 
HETATM    8  C6  UNL     1     -35.305  16.381  -1.572  1.00 20.00     0.040 C 
BRANCH   7   9
HETATM    9  C8  UNL     1     -33.449  17.233  -3.126  1.00 20.00     0.006 C 
HETATM   10  C4  UNL     1     -33.036  15.812  -3.515  1.00 20.00     0.012 C 
HETATM   11  C5  UNL     1     -32.536  17.739  -2.002  1.00 20.00     0.012 C 
ENDBRANCH   7   9
ENDBRANCH   1   7
TORSDOF 4
ENDMDL
MODEL 6
REMARK VINA RESULT:      -3.7      0.998      1.368
REMARK  4 active torsions:
REMARK  status: ('A' for Active; 'I' for Inactive)
REMARK    1  A    between atoms: C2_2  and  C7_7 
REMARK    2  A    between atoms: C7_7  and  O11_11 
REMARK    3  A    between atoms: C8_8  and  C9_9 
REMARK    4  A    between atoms: C9_9  and  O11_11 
ROOT
HETATM    1  O11 UNL     1     -35.586  15.413  -3.150  1.00 20.00    -0.383 OA
ENDROOT
BRANCH   1   2
HETATM    2  C7  UNL     1     -35.102  14.615  -4.220  1.00 20.00     0.208 C 
BRANCH   2   3
HETATM    3  C2  UNL     1     -35.886  14.945  -5.472  1.00 20.00     0.100 A 
HETATM    4  C1  UNL     1     -35.181  14.966  -6.808  1.00 20.00     0.208 A 
HETATM    5  O10 UNL     1     -35.988  13.853  -6.396  1.00 20.00    -0.373 OA
HETATM    6  C3  UNL     1     -37.158  15.710  -5.299  1.00 20.00     0.050 C 
ENDBRANCH   2   3
ENDBRANCH   1   2
BRANCH   1   7
HETATM    7  C9  UNL     1     -34.525  15.806  -2.278  1.00 20.00     0.120 C 
HETATM    8  C6  UNL     1     -33.378  16.326  -3.139  1.00 20.00     0.040 C 
BRANCH   7   9
HETATM    9  C8  UNL     1     -35.068  16.854  -1.283  1.00 20.00     0.006 C 
HETATM   10  C4  UNL     1     -36.260  17.632  -1.842  1.00 20.00     0.012 C 
HETATM   11  C5  UNL     1     -33.966  17.838  -0.870  1.00 20.00     0.012 C 
ENDBRANCH   7   9
ENDBRANCH   1   7
TORSDOF 4
ENDMDL
MODEL 7
REMARK VINA RESULT:      -3.7      1.602      2.533
REMARK  4 active torsions:
REMARK  status: ('A' for Active; 'I' for Inactive)
REMARK    1  A    between atoms: C2_2  and  C7_7 
REMARK    2  A    between atoms: C7_7  and  O11_11 
REMARK    3  A    between atoms: C8_8  and  C9_9 
REMARK    4  A    between atoms: C9_9  and  O11_11 
ROOT
HETATM    1  O11 UNL     1     -35.264  17.067  -4.554  1.00 20.00    -0.383 OA
ENDROOT
BRANCH   1   2
HETATM    2  C7  UNL     1     -36.104  16.156  -5.246  1.00 20.00     0.208 C 
BRANCH   2   3
HETATM    3  C2  UNL     1     -35.386  14.829  -5.379  1.00 20.00     0.100 A 
HETATM    4  C1  UNL     1     -35.912  13.620  -4.643  1.00 20.00     0.208 A 
HETATM    5  O10 UNL     1     -36.154  13.819  -6.044  1.00 20.00    -0.373 OA
HETATM    6  C3  UNL     1     -33.951  14.869  -5.797  1.00 20.00     0.050 C 
ENDBRANCH   2   3
ENDBRANCH   1   2
BRANCH   1   7
HETATM    7  C9  UNL     1     -35.775  17.353  -3.251  1.00 20.00     0.120 C 
HETATM    8  C6  UNL     1     -37.280  17.104  -3.273  1.00 20.00     0.040 C 
BRANCH   7   9
HETATM    9  C8  UNL     1     -35.024  16.481  -2.224  1.00 20.00     0.006 C 
HETATM   10  C4  UNL     1     -35.272  16.928  -0.782  1.00 20.00     0.012 C 
HETATM   11  C5  UNL     1     -33.516  16.482  -2.505  1.00 20.00     0.012 C 
ENDBRANCH   7   9
ENDBRANCH   1   7
TORSDOF 4
ENDMDL
MODEL 8
REMARK VINA RESULT:      -3.6      1.665      2.400
REMARK  4 active torsions:
REMARK  status: ('A' for Active; 'I' for Inactive)
REMARK    1  A    between atoms: C2_2  and  C7_7 
REMARK    2  A    between atoms: C7_7  and  O11_11 
REMARK    3  A    between atoms: C8_8  and  C9_9 
REMARK    4  A    between atoms: C9_9  and  O11_11 
ROOT
HETATM    1  O11 UNL     1     -35.845  14.974  -4.331  1.00 20.00    -0.383 OA
ENDROOT
BRANCH   1   2
HETATM    2  C7  UNL     1     -35.679  14.369  -5.604  1.00 20.00     0.208 C 
BRANCH   2   3
HETATM    3  C2  UNL     1     -36.049  15.371  -6.676  1.00 20.00     0.100 A 
HETATM    4  C1  UNL     1     -35.196  15.482  -7.918  1.00 20.00     0.208 A 
HETATM    5  O10 UNL     1     -36.444  14.772  -7.918  1.00 20.00    -0.373 OA
HETATM    6  C3  UNL     1     -36.904  16.526  -6.265  1.00 20.00     0.050 C 
ENDBRANCH   2   3
ENDBRANCH   1   2
BRANCH   1   7
HETATM    7  C9  UNL     1     -34.719  14.722  -3.488  1.00 20.00     0.120 C 
HETATM    8  C6  UNL     1     -33.490  14.574  -4.380  1.00 20.00     0.040 C 
BRANCH   7   9
HETATM    9  C8  UNL     1     -34.601  15.873  -2.467  1.00 20.00     0.006 C 
HETATM   10  C4  UNL     1     -35.784  16.841  -2.535  1.00 20.00     0.012 C 
HETATM   11  C5  UNL     1     -33.294  16.650  -2.668  1.00 20.00     0.012 C 
ENDBRANCH   7   9
ENDBRANCH   1   7
TORSDOF 4
ENDMDL
MODEL 9
REMARK VINA RESULT:      -3.6      2.190      3.394
REMARK  4 active torsions:
REMARK  status: ('A' for Active; 'I' for Inactive)
REMARK    1  A    between atoms: C2_2  and  C7_7 
REMARK    2  A    between atoms: C7_7  and  O11_11 
REMARK    3  A    between atoms: C8_8  and  C9_9 
REMARK    4  A    between atoms: C9_9  and  O11_11 
ROOT
HETATM    1  O11 UNL     1     -35.864  16.170  -4.734  1.00 20.00    -0.383 OA
ENDROOT
BRANCH   1   2
HETATM    2  C7  UNL     1     -36.074  15.619  -6.025  1.00 20.00     0.208 C 
BRANCH   2   3
HETATM    3  C2  UNL     1     -34.989  16.119  -6.955  1.00 20.00     0.100 A 
HETATM    4  C1  UNL     1     -35.291  17.244  -7.916  1.00 20.00     0.208 A 
HETATM    5  O10 UNL     1     -34.576  17.467  -6.692  1.00 20.00    -0.373 OA
HETATM    6  C3  UNL     1     -33.857  15.187  -7.245  1.00 20.00     0.050 C 
ENDBRANCH   2   3
ENDBRANCH   1   2
BRANCH   1   7
HETATM    7  C9  UNL     1     -35.971  15.168  -3.722  1.00 20.00     0.120 C 
HETATM    8  C6  UNL     1     -35.983  13.806  -4.409  1.00 20.00     0.040 C 
BRANCH   7   9
HETATM    9  C8  UNL     1     -34.804  15.344  -2.728  1.00 20.00     0.006 C 
HETATM   10  C4  UNL     1     -35.125  16.345  -1.617  1.00 20.00     0.012 C 
HETATM   11  C5  UNL     1     -33.528  15.784  -3.457  1.00 20.00     0.012 C 
ENDBRANCH   7   9
ENDBRANCH   1   7
TORSDOF 4
ENDMDL
