MODEL 1
REMARK VINA RESULT:      -4.6      0.000      0.000
REMARK  3 active torsions:
REMARK  status: ('A' for Active; 'I' for Inactive)
REMARK    1  A    between atoms: C3_3  and  C6_6 
REMARK    2  A    between atoms: C4_4  and  O8_8 
REMARK    3  A    between atoms: C6_6  and  C7_7 
ROOT
HETATM    1  C1  UNL     1     -34.333   6.442   4.469  1.00 20.00     0.036 C 
HETATM    2  C2  UNL     1     -34.354   4.366   3.982  1.00 20.00     0.036 C 
HETATM    3  C3  UNL     1     -34.113   5.652   3.156  1.00 20.00    -0.010 C 
HETATM    4  C4  UNL     1     -35.144   5.234   4.989  1.00 20.00     0.118 C 
ENDROOT
BRANCH   3   5
HETATM    5  C6  UNL     1     -32.756   5.791   2.499  1.00 20.00     0.004 C 
BRANCH   5   6
HETATM    6  C7  UNL     1     -32.243   7.231   2.557  1.00 20.00    -0.004 C 
HETATM    7  C5  UNL     1     -32.617   8.010   1.307  1.00 20.00     0.005 C 
ENDBRANCH   5   6
ENDBRANCH   3   5
BRANCH   4   8
HETATM    8  O8  UNL     1     -34.968   4.911   6.378  1.00 20.00    -0.396 OA
HETATM    9  H22 UNL     1     -35.534   4.147   6.546  1.00 20.00     0.210 HD
ENDBRANCH   4   8
TORSDOF 3
ENDMDL
MODEL 2
REMARK VINA RESULT:      -4.1      2.478      4.003
REMARK  3 active torsions:
REMARK  status: ('A' for Active; 'I' for Inactive)
REMARK    1  A    between atoms: C3_3  and  C6_6 
REMARK    2  A    between atoms: C4_4  and  O8_8 
REMARK    3  A    between atoms: C6_6  and  C7_7 
ROOT
HETATM    1  C1  UNL     1     -33.146   7.083   3.581  1.00 20.00     0.036 C 
HETATM    2  C2  UNL     1     -33.343   5.564   2.097  1.00 20.00     0.036 C 
HETATM    3  C3  UNL     1     -33.512   5.580   3.635  1.00 20.00    -0.010 C 
HETATM    4  C4  UNL     1     -32.420   6.796   2.247  1.00 20.00     0.118 C 
ENDROOT
BRANCH   3   5
HETATM    5  C6  UNL     1     -34.887   5.235   4.169  1.00 20.00     0.004 C 
BRANCH   5   6
HETATM    6  C7  UNL     1     -34.878   5.070   5.689  1.00 20.00    -0.004 C 
HETATM    7  C5  UNL     1     -34.395   6.331   6.388  1.00 20.00     0.005 C 
ENDBRANCH   5   6
ENDBRANCH   3   5
BRANCH   4   8
HETATM    8  O8  UNL     1     -32.545   7.808   1.234  1.00 20.00    -0.396 OA
HETATM    9  H22 UNL     1     -31.644   8.089   1.028  1.00 20.00     0.210 HD
ENDBRANCH   4   8
TORSDOF 3
ENDMDL
MODEL 3
REMARK VINA RESULT:      -4.1     11.525     12.227
REMARK  3 active torsions:
REMARK  status: ('A' for Active; 'I' for Inactive)
REMARK    1  A    between atoms: C3_3  and  C6_6 
REMARK    2  A    between atoms: C4_4  and  O8_8 
REMARK    3  A    between atoms: C6_6  and  C7_7 
ROOT
HETATM    1  C1  UNL     1     -34.782  14.393  -3.784  1.00 20.00     0.036 C 
HETATM    2  C2  UNL     1     -33.100  15.681  -3.540  1.00 20.00     0.036 C 
HETATM    3  C3  UNL     1     -34.620  15.856  -3.305  1.00 20.00    -0.010 C 
HETATM    4  C4  UNL     1     -33.447  14.556  -4.545  1.00 20.00     0.118 C 
ENDROOT
BRANCH   3   5
HETATM    5  C6  UNL     1     -35.055  16.158  -1.887  1.00 20.00     0.004 C 
BRANCH   5   6
HETATM    6  C7  UNL     1     -34.357  17.402  -1.334  1.00 20.00    -0.004 C 
HETATM    7  C5  UNL     1     -34.742  17.665   0.113  1.00 20.00     0.005 C 
ENDBRANCH   5   6
ENDBRANCH   3   5
BRANCH   4   8
HETATM    8  O8  UNL     1     -32.577  13.412  -4.540  1.00 20.00    -0.396 OA
HETATM    9  H22 UNL     1     -31.695  13.752  -4.345  1.00 20.00     0.210 HD
ENDBRANCH   4   8
TORSDOF 3
ENDMDL
MODEL 4
REMARK VINA RESULT:      -3.9     15.803     16.646
REMARK  3 active torsions:
REMARK  status: ('A' for Active; 'I' for Inactive)
REMARK    1  A    between atoms: C3_3  and  C6_6 
REMARK    2  A    between atoms: C4_4  and  O8_8 
REMARK    3  A    between atoms: C6_6  and  C7_7 
ROOT
HETATM    1  C1  UNL     1     -24.392  16.012  11.299  1.00 20.00     0.036 C 
HETATM    2  C2  UNL     1     -24.643  17.923  12.211  1.00 20.00     0.036 C 
HETATM    3  C3  UNL     1     -23.406  17.120  11.741  1.00 20.00    -0.010 C 
HETATM    4  C4  UNL     1     -25.396  16.577  12.329  1.00 20.00     0.118 C 
ENDROOT
BRANCH   3   5
HETATM    5  C6  UNL     1     -22.562  17.751  10.654  1.00 20.00     0.004 C 
BRANCH   5   6
HETATM    6  C7  UNL     1     -22.795  17.085   9.297  1.00 20.00    -0.004 C 
HETATM    7  C5  UNL     1     -21.682  17.407   8.315  1.00 20.00     0.005 C 
ENDBRANCH   5   6
ENDBRANCH   3   5
BRANCH   4   8
HETATM    8  O8  UNL     1     -26.774  16.584  11.924  1.00 20.00    -0.396 OA
HETATM    9  H22 UNL     1     -27.267  16.189  12.654  1.00 20.00     0.210 HD
ENDBRANCH   4   8
TORSDOF 3
ENDMDL
MODEL 5
REMARK VINA RESULT:      -3.9     11.229     12.128
REMARK  3 active torsions:
REMARK  status: ('A' for Active; 'I' for Inactive)
REMARK    1  A    between atoms: C3_3  and  C6_6 
REMARK    2  A    between atoms: C4_4  and  O8_8 
REMARK    3  A    between atoms: C6_6  and  C7_7 
ROOT
HETATM    1  C1  UNL     1     -35.902  15.477  -4.743  1.00 20.00     0.036 C 
HETATM    2  C2  UNL     1     -35.164  13.626  -3.984  1.00 20.00     0.036 C 
HETATM    3  C3  UNL     1     -34.487  14.954  -4.399  1.00 20.00    -0.010 C 
HETATM    4  C4  UNL     1     -36.339  14.005  -4.916  1.00 20.00     0.118 C 
ENDROOT
BRANCH   3   5
HETATM    5  C6  UNL     1     -33.732  15.696  -3.316  1.00 20.00     0.004 C 
BRANCH   5   6
HETATM    6  C7  UNL     1     -34.654  16.113  -2.168  1.00 20.00    -0.004 C 
HETATM    7  C5  UNL     1     -34.118  17.329  -1.431  1.00 20.00     0.005 C 
ENDBRANCH   5   6
ENDBRANCH   3   5
BRANCH   4   8
HETATM    8  O8  UNL     1     -37.656  13.681  -4.440  1.00 20.00    -0.396 OA
HETATM    9  H22 UNL     1     -37.947  12.922  -4.962  1.00 20.00     0.210 HD
ENDBRANCH   4   8
TORSDOF 3
ENDMDL
MODEL 6
REMARK VINA RESULT:      -3.9     11.880     12.814
REMARK  3 active torsions:
REMARK  status: ('A' for Active; 'I' for Inactive)
REMARK    1  A    between atoms: C3_3  and  C6_6 
REMARK    2  A    between atoms: C4_4  and  O8_8 
REMARK    3  A    between atoms: C6_6  and  C7_7 
ROOT
HETATM    1  C1  UNL     1     -34.023  14.288  -4.015  1.00 20.00     0.036 C 
HETATM    2  C2  UNL     1     -34.521  16.180  -4.864  1.00 20.00     0.036 C 
HETATM    3  C3  UNL     1     -34.870  15.487  -3.525  1.00 20.00    -0.010 C 
HETATM    4  C4  UNL     1     -34.282  14.772  -5.460  1.00 20.00     0.118 C 
ENDROOT
BRANCH   3   5
HETATM    5  C6  UNL     1     -34.401  16.179  -2.262  1.00 20.00     0.004 C 
BRANCH   5   6
HETATM    6  C7  UNL     1     -33.085  16.927  -2.483  1.00 20.00    -0.004 C 
HETATM    7  C5  UNL     1     -32.809  17.918  -1.364  1.00 20.00     0.005 C 
ENDBRANCH   5   6
ENDBRANCH   3   5
BRANCH   4   8
HETATM    8  O8  UNL     1     -33.178  14.649  -6.371  1.00 20.00    -0.396 OA
HETATM    9  H22 UNL     1     -32.416  15.030  -5.917  1.00 20.00     0.210 HD
ENDBRANCH   4   8
TORSDOF 3
ENDMDL
MODEL 7
REMARK VINA RESULT:      -3.9     16.183     17.282
REMARK  3 active torsions:
REMARK  status: ('A' for Active; 'I' for Inactive)
REMARK    1  A    between atoms: C3_3  and  C6_6 
REMARK    2  A    between atoms: C4_4  and  O8_8 
REMARK    3  A    between atoms: C6_6  and  C7_7 
ROOT
HETATM    1  C1  UNL     1     -23.915  16.633  10.003  1.00 20.00     0.036 C 
HETATM    2  C2  UNL     1     -22.551  18.258  10.216  1.00 20.00     0.036 C 
HETATM    3  C3  UNL     1     -24.032  18.050  10.613  1.00 20.00    -0.010 C 
HETATM    4  C4  UNL     1     -22.751  17.167   9.138  1.00 20.00     0.118 C 
ENDROOT
BRANCH   3   5
HETATM    5  C6  UNL     1     -24.355  18.129  12.091  1.00 20.00     0.004 C 
BRANCH   5   6
HETATM    6  C7  UNL     1     -25.830  18.452  12.332  1.00 20.00    -0.004 C 
HETATM    7  C5  UNL     1     -26.437  19.208  11.161  1.00 20.00     0.005 C 
ENDBRANCH   5   6
ENDBRANCH   3   5
BRANCH   4   8
HETATM    8  O8  UNL     1     -21.650  16.264   8.940  1.00 20.00    -0.396 OA
HETATM    9  H22 UNL     1     -21.158  16.608   8.184  1.00 20.00     0.210 HD
ENDBRANCH   4   8
TORSDOF 3
ENDMDL
MODEL 8
REMARK VINA RESULT:      -3.7      9.212      9.840
REMARK  3 active torsions:
REMARK  status: ('A' for Active; 'I' for Inactive)
REMARK    1  A    between atoms: C3_3  and  C6_6 
REMARK    2  A    between atoms: C4_4  and  O8_8 
REMARK    3  A    between atoms: C6_6  and  C7_7 
ROOT
HETATM    1  C1  UNL     1     -41.814   6.993   0.700  1.00 20.00     0.036 C 
HETATM    2  C2  UNL     1     -41.503   7.841  -1.232  1.00 20.00     0.036 C 
HETATM    3  C3  UNL     1     -40.948   6.586  -0.516  1.00 20.00    -0.010 C 
HETATM    4  C4  UNL     1     -41.775   8.443   0.167  1.00 20.00     0.118 C 
ENDROOT
BRANCH   3   5
HETATM    5  C6  UNL     1     -41.260   5.249  -1.155  1.00 20.00     0.004 C 
BRANCH   5   6
HETATM    6  C7  UNL     1     -42.762   5.063  -1.374  1.00 20.00    -0.004 C 
HETATM    7  C5  UNL     1     -43.055   3.879  -2.281  1.00 20.00     0.005 C 
ENDBRANCH   5   6
ENDBRANCH   3   5
BRANCH   4   8
HETATM    8  O8  UNL     1     -42.990   9.197   0.306  1.00 20.00    -0.396 OA
HETATM    9  H22 UNL     1     -43.604   8.624   0.783  1.00 20.00     0.210 HD
ENDBRANCH   4   8
TORSDOF 3
ENDMDL
MODEL 9
REMARK VINA RESULT:      -3.7     16.715     17.411
REMARK  3 active torsions:
REMARK  status: ('A' for Active; 'I' for Inactive)
REMARK    1  A    between atoms: C3_3  and  C6_6 
REMARK    2  A    between atoms: C4_4  and  O8_8 
REMARK    3  A    between atoms: C6_6  and  C7_7 
ROOT
HETATM    1  C1  UNL     1     -23.601  18.862   9.076  1.00 20.00     0.036 C 
HETATM    2  C2  UNL     1     -22.638  16.993   9.436  1.00 20.00     0.036 C 
HETATM    3  C3  UNL     1     -23.417  17.982  10.336  1.00 20.00    -0.010 C 
HETATM    4  C4  UNL     1     -22.343  18.182   8.491  1.00 20.00     0.118 C 
ENDROOT
BRANCH   3   5
HETATM    5  C6  UNL     1     -24.679  17.455  10.988  1.00 20.00     0.004 C 
BRANCH   5   6
HETATM    6  C7  UNL     1     -25.087  18.300  12.195  1.00 20.00    -0.004 C 
HETATM    7  C5  UNL     1     -26.214  19.260  11.853  1.00 20.00     0.005 C 
ENDBRANCH   5   6
ENDBRANCH   3   5
BRANCH   4   8
HETATM    8  O8  UNL     1     -22.381  17.896   7.083  1.00 20.00    -0.396 OA
HETATM    9  H22 UNL     1     -21.855  18.587   6.659  1.00 20.00     0.210 HD
ENDBRANCH   4   8
TORSDOF 3
ENDMDL
