MODEL 1
REMARK VINA RESULT:      -4.4      0.000      0.000
REMARK  3 active torsions:
REMARK  status: ('A' for Active; 'I' for Inactive)
REMARK    1  A    between atoms: C4_4  and  O7_7 
REMARK    2  A    between atoms: C5_5  and  C6_6 
REMARK    3  A    between atoms: C6_6  and  O7_7 
ROOT
HETATM    1  C3  UNL     1     -33.650   4.854   2.961  1.00 20.00     0.040 C 
HETATM    2  C6  UNL     1     -34.019   6.232   3.501  1.00 20.00     0.122 C 
ENDROOT
BRANCH   2   3
HETATM    3  C5  UNL     1     -34.582   6.201   4.936  1.00 20.00     0.006 C 
HETATM    4  C1  UNL     1     -33.679   6.927   5.936  1.00 20.00     0.012 C 
HETATM    5  C2  UNL     1     -34.802   4.757   5.405  1.00 20.00     0.012 C 
ENDBRANCH   2   3
BRANCH   2   6
HETATM    6  O7  UNL     1     -32.839   7.038   3.491  1.00 20.00    -0.371 OA
BRANCH   6   7
HETATM    7  C4  UNL     1     -32.209   7.012   2.221  1.00 20.00     0.282 C 
HETATM    8 CL8  UNL     1     -32.803   8.384   1.269  1.00 20.00    -0.102 Cl
ENDBRANCH   6   7
ENDBRANCH   2   6
TORSDOF 3
ENDMDL
MODEL 2
REMARK VINA RESULT:      -4.2      0.439      1.320
REMARK  3 active torsions:
REMARK  status: ('A' for Active; 'I' for Inactive)
REMARK    1  A    between atoms: C4_4  and  O7_7 
REMARK    2  A    between atoms: C5_5  and  C6_6 
REMARK    3  A    between atoms: C6_6  and  O7_7 
ROOT
HETATM    1  C3  UNL     1     -33.380   5.002   2.526  1.00 20.00     0.040 C 
HETATM    2  C6  UNL     1     -33.801   6.160   3.424  1.00 20.00     0.122 C 
ENDROOT
BRANCH   2   3
HETATM    3  C5  UNL     1     -33.914   5.776   4.914  1.00 20.00     0.006 C 
HETATM    4  C1  UNL     1     -35.208   5.022   5.228  1.00 20.00     0.012 C 
HETATM    5  C2  UNL     1     -33.819   7.019   5.807  1.00 20.00     0.012 C 
ENDBRANCH   2   3
BRANCH   2   6
HETATM    6  O7  UNL     1     -32.823   7.194   3.293  1.00 20.00    -0.371 OA
BRANCH   6   7
HETATM    7  C4  UNL     1     -32.274   7.219   1.986  1.00 20.00     0.282 C 
HETATM    8 CL8  UNL     1     -32.911   8.636   1.132  1.00 20.00    -0.102 Cl
ENDBRANCH   6   7
ENDBRANCH   2   6
TORSDOF 3
ENDMDL
MODEL 3
REMARK VINA RESULT:      -4.1      1.268      1.655
REMARK  3 active torsions:
REMARK  status: ('A' for Active; 'I' for Inactive)
REMARK    1  A    between atoms: C4_4  and  O7_7 
REMARK    2  A    between atoms: C5_5  and  C6_6 
REMARK    3  A    between atoms: C6_6  and  O7_7 
ROOT
HETATM    1  C3  UNL     1     -31.833   7.586   3.725  1.00 20.00     0.040 C 
HETATM    2  C6  UNL     1     -32.847   6.553   3.246  1.00 20.00     0.122 C 
ENDROOT
BRANCH   2   3
HETATM    3  C5  UNL     1     -34.094   6.448   4.149  1.00 20.00     0.006 C 
HETATM    4  C1  UNL     1     -33.797   6.824   5.603  1.00 20.00     0.012 C 
HETATM    5  C2  UNL     1     -34.685   5.034   4.099  1.00 20.00     0.012 C 
ENDBRANCH   2   3
BRANCH   2   6
HETATM    6  O7  UNL     1     -33.266   6.928   1.932  1.00 20.00    -0.371 OA
BRANCH   6   7
HETATM    7  C4  UNL     1     -32.455   7.967   1.411  1.00 20.00     0.282 C 
HETATM    8 CL8  UNL     1     -33.257   8.649  -0.016  1.00 20.00    -0.102 Cl
ENDBRANCH   6   7
ENDBRANCH   2   6
TORSDOF 3
ENDMDL
MODEL 4
REMARK VINA RESULT:      -3.9      0.787      1.782
REMARK  3 active torsions:
REMARK  status: ('A' for Active; 'I' for Inactive)
REMARK    1  A    between atoms: C4_4  and  O7_7 
REMARK    2  A    between atoms: C5_5  and  C6_6 
REMARK    3  A    between atoms: C6_6  and  O7_7 
ROOT
HETATM    1  C3  UNL     1     -33.412   7.310   5.608  1.00 20.00     0.040 C 
HETATM    2  C6  UNL     1     -33.441   6.419   4.370  1.00 20.00     0.122 C 
ENDROOT
BRANCH   2   3
HETATM    3  C5  UNL     1     -34.587   5.387   4.380  1.00 20.00     0.006 C 
HETATM    4  C1  UNL     1     -35.060   5.050   5.796  1.00 20.00     0.012 C 
HETATM    5  C2  UNL     1     -34.167   4.098   3.663  1.00 20.00     0.012 C 
ENDBRANCH   2   3
BRANCH   2   6
HETATM    6  O7  UNL     1     -33.596   7.263   3.227  1.00 20.00    -0.371 OA
BRANCH   6   7
HETATM    7  C4  UNL     1     -32.470   7.178   2.369  1.00 20.00     0.282 C 
HETATM    8 CL8  UNL     1     -32.710   8.291   1.010  1.00 20.00    -0.102 Cl
ENDBRANCH   6   7
ENDBRANCH   2   6
TORSDOF 3
ENDMDL
MODEL 5
REMARK VINA RESULT:      -3.7      2.423      3.612
REMARK  3 active torsions:
REMARK  status: ('A' for Active; 'I' for Inactive)
REMARK    1  A    between atoms: C4_4  and  O7_7 
REMARK    2  A    between atoms: C5_5  and  C6_6 
REMARK    3  A    between atoms: C6_6  and  O7_7 
ROOT
HETATM    1  C3  UNL     1     -33.112   4.704   2.175  1.00 20.00     0.040 C 
HETATM    2  C6  UNL     1     -33.342   5.667   3.336  1.00 20.00     0.122 C 
ENDROOT
BRANCH   2   3
HETATM    3  C5  UNL     1     -33.002   7.134   2.996  1.00 20.00     0.006 C 
HETATM    4  C1  UNL     1     -32.577   7.314   1.537  1.00 20.00     0.012 C 
HETATM    5  C2  UNL     1     -31.897   7.664   3.918  1.00 20.00     0.012 C 
ENDBRANCH   2   3
BRANCH   2   6
HETATM    6  O7  UNL     1     -34.722   5.592   3.700  1.00 20.00    -0.371 OA
BRANCH   6   7
HETATM    7  C4  UNL     1     -34.881   5.036   4.995  1.00 20.00     0.282 C 
HETATM    8 CL8  UNL     1     -34.371   6.240   6.193  1.00 20.00    -0.102 Cl
ENDBRANCH   6   7
ENDBRANCH   2   6
TORSDOF 3
ENDMDL
MODEL 6
REMARK VINA RESULT:      -3.6     11.818     12.292
REMARK  3 active torsions:
REMARK  status: ('A' for Active; 'I' for Inactive)
REMARK    1  A    between atoms: C4_4  and  O7_7 
REMARK    2  A    between atoms: C5_5  and  C6_6 
REMARK    3  A    between atoms: C6_6  and  O7_7 
ROOT
HETATM    1  C3  UNL     1     -35.952  13.851  -4.468  1.00 20.00     0.040 C 
HETATM    2  C6  UNL     1     -34.882  14.935  -4.548  1.00 20.00     0.122 C 
ENDROOT
BRANCH   2   3
HETATM    3  C5  UNL     1     -34.249  15.276  -3.183  1.00 20.00     0.006 C 
HETATM    4  C1  UNL     1     -35.233  15.969  -2.237  1.00 20.00     0.012 C 
HETATM    5  C2  UNL     1     -33.009  16.161  -3.363  1.00 20.00     0.012 C 
ENDBRANCH   2   3
BRANCH   2   6
HETATM    6  O7  UNL     1     -33.853  14.472  -5.425  1.00 20.00    -0.371 OA
BRANCH   6   7
HETATM    7  C4  UNL     1     -34.006  15.013  -6.726  1.00 20.00     0.282 C 
HETATM    8 CL8  UNL     1     -34.693  16.641  -6.584  1.00 20.00    -0.102 Cl
ENDBRANCH   6   7
ENDBRANCH   2   6
TORSDOF 3
ENDMDL
MODEL 7
REMARK VINA RESULT:      -3.5     15.858     16.967
REMARK  3 active torsions:
REMARK  status: ('A' for Active; 'I' for Inactive)
REMARK    1  A    between atoms: C4_4  and  O7_7 
REMARK    2  A    between atoms: C5_5  and  C6_6 
REMARK    3  A    between atoms: C6_6  and  O7_7 
ROOT
HETATM    1  C3  UNL     1     -24.284  16.331  10.597  1.00 20.00     0.040 C 
HETATM    2  C6  UNL     1     -23.180  17.285  11.040  1.00 20.00     0.122 C 
ENDROOT
BRANCH   2   3
HETATM    3  C5  UNL     1     -22.627  18.161   9.897  1.00 20.00     0.006 C 
HETATM    4  C1  UNL     1     -23.736  18.842   9.092  1.00 20.00     0.012 C 
HETATM    5  C2  UNL     1     -21.747  17.333   8.953  1.00 20.00     0.012 C 
ENDBRANCH   2   3
BRANCH   2   6
HETATM    6  O7  UNL     1     -23.720  18.141  12.050  1.00 20.00    -0.371 OA
BRANCH   6   7
HETATM    7  C4  UNL     1     -25.071  17.813  12.332  1.00 20.00     0.282 C 
HETATM    8 CL8  UNL     1     -26.083  19.219  11.957  1.00 20.00    -0.102 Cl
ENDBRANCH   6   7
ENDBRANCH   2   6
TORSDOF 3
ENDMDL
MODEL 8
REMARK VINA RESULT:      -3.4     11.676     12.096
REMARK  3 active torsions:
REMARK  status: ('A' for Active; 'I' for Inactive)
REMARK    1  A    between atoms: C4_4  and  O7_7 
REMARK    2  A    between atoms: C5_5  and  C6_6 
REMARK    3  A    between atoms: C6_6  and  O7_7 
ROOT
HETATM    1  C3  UNL     1     -32.867  14.458  -4.447  1.00 20.00     0.040 C 
HETATM    2  C6  UNL     1     -34.147  15.004  -3.822  1.00 20.00     0.122 C 
ENDROOT
BRANCH   2   3
HETATM    3  C5  UNL     1     -33.895  15.945  -2.625  1.00 20.00     0.006 C 
HETATM    4  C1  UNL     1     -35.187  16.328  -1.900  1.00 20.00     0.012 C 
HETATM    5  C2  UNL     1     -33.168  17.217  -3.076  1.00 20.00     0.012 C 
ENDBRANCH   2   3
BRANCH   2   6
HETATM    6  O7  UNL     1     -34.852  15.729  -4.832  1.00 20.00    -0.371 OA
BRANCH   6   7
HETATM    7  C4  UNL     1     -35.703  14.875  -5.577  1.00 20.00     0.282 C 
HETATM    8 CL8  UNL     1     -36.408  13.678  -4.475  1.00 20.00    -0.102 Cl
ENDBRANCH   6   7
ENDBRANCH   2   6
TORSDOF 3
ENDMDL
MODEL 9
REMARK VINA RESULT:      -3.4      9.494     10.041
REMARK  3 active torsions:
REMARK  status: ('A' for Active; 'I' for Inactive)
REMARK    1  A    between atoms: C4_4  and  O7_7 
REMARK    2  A    between atoms: C5_5  and  C6_6 
REMARK    3  A    between atoms: C6_6  and  O7_7 
ROOT
HETATM    1  C3  UNL     1     -43.208   5.466   1.621  1.00 20.00     0.040 C 
HETATM    2  C6  UNL     1     -42.508   6.531   0.782  1.00 20.00     0.122 C 
ENDROOT
BRANCH   2   3
HETATM    3  C5  UNL     1     -42.334   6.133  -0.698  1.00 20.00     0.006 C 
HETATM    4  C1  UNL     1     -43.377   5.112  -1.157  1.00 20.00     0.012 C 
HETATM    5  C2  UNL     1     -40.928   5.574  -0.951  1.00 20.00     0.012 C 
ENDBRANCH   2   3
BRANCH   2   6
HETATM    6  O7  UNL     1     -43.294   7.724   0.845  1.00 20.00    -0.371 OA
BRANCH   6   7
HETATM    7  C4  UNL     1     -42.914   8.641  -0.167  1.00 20.00     0.282 C 
HETATM    8 CL8  UNL     1     -41.388   9.408   0.309  1.00 20.00    -0.102 Cl
ENDBRANCH   6   7
ENDBRANCH   2   6
TORSDOF 3
ENDMDL
