MODEL 1
REMARK VINA RESULT:      -4.5      0.000      0.000
REMARK  4 active torsions:
REMARK  status: ('A' for Active; 'I' for Inactive)
REMARK    1  A    between atoms: C2_2  and  C6_6 
REMARK    2  A    between atoms: C6_6  and  O10_10 
REMARK    3  A    between atoms: C7_7  and  C8_8 
REMARK    4  A    between atoms: C8_8  and  O10_10 
ROOT
HETATM    1  C5  UNL     1     -33.262   4.837   2.689  1.00 20.00     0.040 C 
HETATM    2  C8  UNL     1     -33.734   6.211   3.152  1.00 20.00     0.120 C 
ENDROOT
BRANCH   2   3
HETATM    3  C7  UNL     1     -34.463   6.186   4.511  1.00 20.00     0.006 C 
HETATM    4  C3  UNL     1     -33.660   6.869   5.619  1.00 20.00     0.012 C 
HETATM    5  C4  UNL     1     -34.787   4.746   4.930  1.00 20.00     0.012 C 
ENDBRANCH   2   3
BRANCH   2   6
HETATM    6  O10 UNL     1     -32.585   7.053   3.266  1.00 20.00    -0.383 OA
BRANCH   6   7
HETATM    7  C6  UNL     1     -32.132   7.480   1.991  1.00 20.00     0.202 C 
BRANCH   7   8
HETATM    8  C2  UNL     1     -33.185   8.369   1.366  1.00 20.00     0.169 A 
HETATM    9  C1  UNL     1     -33.221   8.608  -0.118  1.00 20.00     0.202 A 
HETATM   10  O9  UNL     1     -32.679   9.579   0.792  1.00 20.00    -0.379 OA
ENDBRANCH   7   8
ENDBRANCH   6   7
ENDBRANCH   2   6
TORSDOF 4
ENDMDL
MODEL 2
REMARK VINA RESULT:      -3.7     10.407     11.125
REMARK  4 active torsions:
REMARK  status: ('A' for Active; 'I' for Inactive)
REMARK    1  A    between atoms: C2_2  and  C6_6 
REMARK    2  A    between atoms: C6_6  and  O10_10 
REMARK    3  A    between atoms: C7_7  and  C8_8 
REMARK    4  A    between atoms: C8_8  and  O10_10 
ROOT
HETATM    1  C5  UNL     1     -32.997  17.358  -2.440  1.00 20.00     0.040 C 
HETATM    2  C8  UNL     1     -33.948  16.167  -2.456  1.00 20.00     0.120 C 
ENDROOT
BRANCH   2   3
HETATM    3  C7  UNL     1     -35.300  16.451  -1.768  1.00 20.00     0.006 C 
HETATM    4  C3  UNL     1     -36.245  17.268  -2.650  1.00 20.00     0.012 C 
HETATM    5  C4  UNL     1     -35.091  17.177  -0.434  1.00 20.00     0.012 C 
ENDBRANCH   2   3
BRANCH   2   6
HETATM    6  O10 UNL     1     -34.194  15.820  -3.820  1.00 20.00    -0.383 OA
BRANCH   6   7
HETATM    7  C6  UNL     1     -34.347  14.419  -3.976  1.00 20.00     0.202 C 
BRANCH   7   8
HETATM    8  C2  UNL     1     -35.500  14.151  -4.920  1.00 20.00     0.169 A 
HETATM    9  C1  UNL     1     -36.912  14.045  -4.414  1.00 20.00     0.202 A 
HETATM   10  O9  UNL     1     -36.135  12.881  -4.739  1.00 20.00    -0.379 OA
ENDBRANCH   7   8
ENDBRANCH   6   7
ENDBRANCH   2   6
TORSDOF 4
ENDMDL
MODEL 3
REMARK VINA RESULT:      -3.7     10.489     11.561
REMARK  4 active torsions:
REMARK  status: ('A' for Active; 'I' for Inactive)
REMARK    1  A    between atoms: C2_2  and  C6_6 
REMARK    2  A    between atoms: C6_6  and  O10_10 
REMARK    3  A    between atoms: C7_7  and  C8_8 
REMARK    4  A    between atoms: C8_8  and  O10_10 
ROOT
HETATM    1  C5  UNL     1     -34.456  14.151  -3.944  1.00 20.00     0.040 C 
HETATM    2  C8  UNL     1     -35.029  15.310  -3.135  1.00 20.00     0.120 C 
ENDROOT
BRANCH   2   3
HETATM    3  C7  UNL     1     -33.952  16.159  -2.429  1.00 20.00     0.006 C 
HETATM    4  C3  UNL     1     -34.538  17.066  -1.346  1.00 20.00     0.012 C 
HETATM    5  C4  UNL     1     -33.177  17.010  -3.442  1.00 20.00     0.012 C 
ENDBRANCH   2   3
BRANCH   2   6
HETATM    6  O10 UNL     1     -35.759  16.150  -4.031  1.00 20.00    -0.383 OA
BRANCH   6   7
HETATM    7  C6  UNL     1     -37.135  16.196  -3.688  1.00 20.00     0.202 C 
BRANCH   7   8
HETATM    8  C2  UNL     1     -37.918  15.373  -4.688  1.00 20.00     0.169 A 
HETATM    9  C1  UNL     1     -39.283  14.838  -4.355  1.00 20.00     0.202 A 
HETATM   10  O9  UNL     1     -38.112  14.006  -4.310  1.00 20.00    -0.379 OA
ENDBRANCH   7   8
ENDBRANCH   6   7
ENDBRANCH   2   6
TORSDOF 4
ENDMDL
MODEL 4
REMARK VINA RESULT:      -3.6     10.369     11.600
REMARK  4 active torsions:
REMARK  status: ('A' for Active; 'I' for Inactive)
REMARK    1  A    between atoms: C2_2  and  C6_6 
REMARK    2  A    between atoms: C6_6  and  O10_10 
REMARK    3  A    between atoms: C7_7  and  C8_8 
REMARK    4  A    between atoms: C8_8  and  O10_10 
ROOT
HETATM    1  C5  UNL     1     -34.917  16.189  -1.908  1.00 20.00     0.040 C 
HETATM    2  C8  UNL     1     -34.231  16.876  -3.084  1.00 20.00     0.120 C 
ENDROOT
BRANCH   2   3
HETATM    3  C7  UNL     1     -32.915  17.583  -2.701  1.00 20.00     0.006 C 
HETATM    4  C3  UNL     1     -32.848  17.931  -1.213  1.00 20.00     0.012 C 
HETATM    5  C4  UNL     1     -32.717  18.856  -3.533  1.00 20.00     0.012 C 
ENDBRANCH   2   3
BRANCH   2   6
HETATM    6  O10 UNL     1     -33.946  15.880  -4.067  1.00 20.00    -0.383 OA
BRANCH   6   7
HETATM    7  C6  UNL     1     -34.489  14.622  -3.699  1.00 20.00     0.202 C 
BRANCH   7   8
HETATM    8  C2  UNL     1     -35.431  14.154  -4.786  1.00 20.00     0.169 A 
HETATM    9  C1  UNL     1     -36.899  13.968  -4.518  1.00 20.00     0.202 A 
HETATM   10  O9  UNL     1     -35.992  12.855  -4.570  1.00 20.00    -0.379 OA
ENDBRANCH   7   8
ENDBRANCH   6   7
ENDBRANCH   2   6
TORSDOF 4
ENDMDL
MODEL 5
REMARK VINA RESULT:      -3.6      1.059      1.720
REMARK  4 active torsions:
REMARK  status: ('A' for Active; 'I' for Inactive)
REMARK    1  A    between atoms: C2_2  and  C6_6 
REMARK    2  A    between atoms: C6_6  and  O10_10 
REMARK    3  A    between atoms: C7_7  and  C8_8 
REMARK    4  A    between atoms: C8_8  and  O10_10 
ROOT
HETATM    1  C5  UNL     1     -33.381   7.322   5.587  1.00 20.00     0.040 C 
HETATM    2  C8  UNL     1     -33.474   6.418   4.362  1.00 20.00     0.120 C 
ENDROOT
BRANCH   2   3
HETATM    3  C7  UNL     1     -34.608   5.376   4.451  1.00 20.00     0.006 C 
HETATM    4  C3  UNL     1     -35.009   5.069   5.895  1.00 20.00     0.012 C 
HETATM    5  C4  UNL     1     -34.209   4.074   3.745  1.00 20.00     0.012 C 
ENDBRANCH   2   3
BRANCH   2   6
HETATM    6  O10 UNL     1     -33.705   7.248   3.222  1.00 20.00    -0.383 OA
BRANCH   6   7
HETATM    7  C6  UNL     1     -32.715   7.043   2.227  1.00 20.00     0.202 C 
BRANCH   7   8
HETATM    8  C2  UNL     1     -32.526   8.326   1.448  1.00 20.00     0.169 A 
HETATM    9  C1  UNL     1     -33.238   8.557   0.144  1.00 20.00     0.202 A 
HETATM   10  O9  UNL     1     -31.855   8.168   0.193  1.00 20.00    -0.379 OA
ENDBRANCH   7   8
ENDBRANCH   6   7
ENDBRANCH   2   6
TORSDOF 4
ENDMDL
MODEL 6
REMARK VINA RESULT:      -3.6     10.759     12.052
REMARK  4 active torsions:
REMARK  status: ('A' for Active; 'I' for Inactive)
REMARK    1  A    between atoms: C2_2  and  C6_6 
REMARK    2  A    between atoms: C6_6  and  O10_10 
REMARK    3  A    between atoms: C7_7  and  C8_8 
REMARK    4  A    between atoms: C8_8  and  O10_10 
ROOT
HETATM    1  C5  UNL     1     -34.379  18.268  -5.265  1.00 20.00     0.040 C 
HETATM    2  C8  UNL     1     -34.622  16.878  -4.687  1.00 20.00     0.120 C 
ENDROOT
BRANCH   2   3
HETATM    3  C7  UNL     1     -33.493  16.393  -3.754  1.00 20.00     0.006 C 
HETATM    4  C3  UNL     1     -33.027  14.974  -4.087  1.00 20.00     0.012 C 
HETATM    5  C4  UNL     1     -33.933  16.454  -2.286  1.00 20.00     0.012 C 
ENDBRANCH   2   3
BRANCH   2   6
HETATM    6  O10 UNL     1     -35.842  16.921  -3.943  1.00 20.00    -0.383 OA
BRANCH   6   7
HETATM    7  C6  UNL     1     -36.843  16.119  -4.550  1.00 20.00     0.202 C 
BRANCH   7   8
HETATM    8  C2  UNL     1     -36.821  14.743  -3.920  1.00 20.00     0.169 A 
HETATM    9  C1  UNL     1     -36.352  13.541  -4.692  1.00 20.00     0.202 A 
HETATM   10  O9  UNL     1     -37.748  13.813  -4.490  1.00 20.00    -0.379 OA
ENDBRANCH   7   8
ENDBRANCH   6   7
ENDBRANCH   2   6
TORSDOF 4
ENDMDL
MODEL 7
REMARK VINA RESULT:      -3.6     10.673     11.569
REMARK  4 active torsions:
REMARK  status: ('A' for Active; 'I' for Inactive)
REMARK    1  A    between atoms: C2_2  and  C6_6 
REMARK    2  A    between atoms: C6_6  and  O10_10 
REMARK    3  A    between atoms: C7_7  and  C8_8 
REMARK    4  A    between atoms: C8_8  and  O10_10 
ROOT
HETATM    1  C5  UNL     1     -34.476  17.360  -4.747  1.00 20.00     0.040 C 
HETATM    2  C8  UNL     1     -33.544  16.308  -4.156  1.00 20.00     0.120 C 
ENDROOT
BRANCH   2   3
HETATM    3  C7  UNL     1     -33.609  16.223  -2.617  1.00 20.00     0.006 C 
HETATM    4  C3  UNL     1     -35.041  16.072  -2.099  1.00 20.00     0.012 C 
HETATM    5  C4  UNL     1     -32.963  17.457  -1.974  1.00 20.00     0.012 C 
ENDBRANCH   2   3
BRANCH   2   6
HETATM    6  O10 UNL     1     -33.913  15.040  -4.699  1.00 20.00    -0.383 OA
BRANCH   6   7
HETATM    7  C6  UNL     1     -34.859  15.184  -5.747  1.00 20.00     0.202 C 
BRANCH   7   8
HETATM    8  C2  UNL     1     -35.900  14.093  -5.624  1.00 20.00     0.169 A 
HETATM    9  C1  UNL     1     -36.912  14.104  -4.511  1.00 20.00     0.202 A 
HETATM   10  O9  UNL     1     -35.752  13.256  -4.473  1.00 20.00    -0.379 OA
ENDBRANCH   7   8
ENDBRANCH   6   7
ENDBRANCH   2   6
TORSDOF 4
ENDMDL
MODEL 8
REMARK VINA RESULT:      -3.5     10.731     11.878
REMARK  4 active torsions:
REMARK  status: ('A' for Active; 'I' for Inactive)
REMARK    1  A    between atoms: C2_2  and  C6_6 
REMARK    2  A    between atoms: C6_6  and  O10_10 
REMARK    3  A    between atoms: C7_7  and  C8_8 
REMARK    4  A    between atoms: C8_8  and  O10_10 
ROOT
HETATM    1  C5  UNL     1     -34.928  15.822  -2.417  1.00 20.00     0.040 C 
HETATM    2  C8  UNL     1     -34.639  16.089  -3.890  1.00 20.00     0.120 C 
ENDROOT
BRANCH   2   3
HETATM    3  C7  UNL     1     -34.186  14.834  -4.665  1.00 20.00     0.006 C 
HETATM    4  C3  UNL     1     -32.745  14.435  -4.341  1.00 20.00     0.012 C 
HETATM    5  C4  UNL     1     -34.328  15.047  -6.178  1.00 20.00     0.012 C 
ENDBRANCH   2   3
BRANCH   2   6
HETATM    6  O10 UNL     1     -35.838  16.586  -4.488  1.00 20.00    -0.383 OA
BRANCH   6   7
HETATM    7  C6  UNL     1     -36.986  16.168  -3.765  1.00 20.00     0.202 C 
BRANCH   7   8
HETATM    8  C2  UNL     1     -37.891  15.384  -4.691  1.00 20.00     0.169 A 
HETATM    9  C1  UNL     1     -39.195  14.815  -4.205  1.00 20.00     0.202 A 
HETATM   10  O9  UNL     1     -38.023  13.998  -4.360  1.00 20.00    -0.379 OA
ENDBRANCH   7   8
ENDBRANCH   6   7
ENDBRANCH   2   6
TORSDOF 4
ENDMDL
MODEL 9
REMARK VINA RESULT:      -3.5     10.588     11.962
REMARK  4 active torsions:
REMARK  status: ('A' for Active; 'I' for Inactive)
REMARK    1  A    between atoms: C2_2  and  C6_6 
REMARK    2  A    between atoms: C6_6  and  O10_10 
REMARK    3  A    between atoms: C7_7  and  C8_8 
REMARK    4  A    between atoms: C8_8  and  O10_10 
ROOT
HETATM    1  C5  UNL     1     -36.023  13.581  -4.440  1.00 20.00     0.040 C 
HETATM    2  C8  UNL     1     -35.133  14.815  -4.551  1.00 20.00     0.120 C 
ENDROOT
BRANCH   2   3
HETATM    3  C7  UNL     1     -34.368  15.141  -3.252  1.00 20.00     0.006 C 
HETATM    4  C3  UNL     1     -35.202  15.972  -2.275  1.00 20.00     0.012 C 
HETATM    5  C4  UNL     1     -33.058  15.877  -3.559  1.00 20.00     0.012 C 
ENDBRANCH   2   3
BRANCH   2   6
HETATM    6  O10 UNL     1     -34.184  14.577  -5.593  1.00 20.00    -0.383 OA
BRANCH   6   7
HETATM    7  C6  UNL     1     -34.648  15.078  -6.836  1.00 20.00     0.202 C 
BRANCH   7   8
HETATM    8  C2  UNL     1     -35.196  16.474  -6.632  1.00 20.00     0.169 A 
HETATM    9  C1  UNL     1     -35.106  17.512  -7.716  1.00 20.00     0.202 A 
HETATM   10  O9  UNL     1     -34.203  17.504  -6.597  1.00 20.00    -0.379 OA
ENDBRANCH   7   8
ENDBRANCH   6   7
ENDBRANCH   2   6
TORSDOF 4
ENDMDL
