MODEL 1
REMARK VINA RESULT:      -4.2      0.000      0.000
REMARK  3 active torsions:
REMARK  status: ('A' for Active; 'I' for Inactive)
REMARK    1  A    between atoms: C4_4  and  C7_7 
REMARK    2  A    between atoms: C6_6  and  C7_7 
REMARK    3  A    between atoms: C6_6  and  O9_9 
ROOT
HETATM    1  C1  UNL     1     -36.143  14.136  -4.154  1.00 20.00     0.066 C 
HETATM    2  C7  UNL     1     -34.834  14.617  -3.685  1.00 20.00     0.120 C 
HETATM    3  N8  UNL     1     -37.174  13.751  -4.524  1.00 20.00    -0.197 NA
ENDROOT
BRANCH   2   4
HETATM    4  C4  UNL     1     -35.098  15.988  -3.129  1.00 20.00     0.005 A 
HETATM    5  C2  UNL     1     -35.010  16.236  -1.648  1.00 20.00     0.006 A 
HETATM    6  C3  UNL     1     -33.969  16.808  -2.569  1.00 20.00     0.006 A 
ENDBRANCH   2   4
BRANCH   2   7
HETATM    7  C6  UNL     1     -33.788  14.619  -4.798  1.00 20.00     0.186 C 
BRANCH   7   8
HETATM    8  O9  UNL     1     -34.387  14.363  -6.064  1.00 20.00    -0.395 OA
HETATM    9  C5  UNL     1     -33.998  15.331  -7.028  1.00 20.00     0.201 C 
ENDBRANCH   7   8
ENDBRANCH   2   7
TORSDOF 3
ENDMDL
MODEL 2
REMARK VINA RESULT:      -4.1     16.691     17.916
REMARK  3 active torsions:
REMARK  status: ('A' for Active; 'I' for Inactive)
REMARK    1  A    between atoms: C4_4  and  C7_7 
REMARK    2  A    between atoms: C6_6  and  C7_7 
REMARK    3  A    between atoms: C6_6  and  O9_9 
ROOT
HETATM    1  C1  UNL     1     -22.147  17.388   8.208  1.00 20.00     0.066 C 
HETATM    2  C7  UNL     1     -22.827  18.293   9.149  1.00 20.00     0.120 C 
HETATM    3  N8  UNL     1     -21.608  16.680   7.463  1.00 20.00    -0.197 NA
ENDROOT
BRANCH   2   4
HETATM    4  C4  UNL     1     -23.236  17.421  10.302  1.00 20.00     0.005 A 
HETATM    5  C2  UNL     1     -22.794  17.755  11.700  1.00 20.00     0.006 A 
HETATM    6  C3  UNL     1     -24.236  17.918  11.309  1.00 20.00     0.006 A 
ENDBRANCH   2   4
BRANCH   2   7
HETATM    7  C6  UNL     1     -24.008  19.014   8.502  1.00 20.00     0.186 C 
BRANCH   7   8
HETATM    8  O9  UNL     1     -23.924  18.964   7.082  1.00 20.00    -0.395 OA
HETATM    9  C5  UNL     1     -25.173  19.263   6.477  1.00 20.00     0.201 C 
ENDBRANCH   7   8
ENDBRANCH   2   7
TORSDOF 3
ENDMDL
MODEL 3
REMARK VINA RESULT:      -3.9      2.010      2.343
REMARK  3 active torsions:
REMARK  status: ('A' for Active; 'I' for Inactive)
REMARK    1  A    between atoms: C4_4  and  C7_7 
REMARK    2  A    between atoms: C6_6  and  C7_7 
REMARK    3  A    between atoms: C6_6  and  O9_9 
ROOT
HETATM    1  C1  UNL     1     -35.723  13.916  -4.337  1.00 20.00     0.066 C 
HETATM    2  C7  UNL     1     -35.501  15.345  -4.063  1.00 20.00     0.120 C 
HETATM    3  N8  UNL     1     -35.899  12.791  -4.559  1.00 20.00    -0.197 NA
ENDROOT
BRANCH   2   4
HETATM    4  C4  UNL     1     -34.552  15.376  -2.897  1.00 20.00     0.005 A 
HETATM    5  C2  UNL     1     -33.379  16.316  -2.899  1.00 20.00     0.006 A 
HETATM    6  C3  UNL     1     -34.534  16.558  -1.969  1.00 20.00     0.006 A 
ENDBRANCH   2   4
BRANCH   2   7
HETATM    7  C6  UNL     1     -36.807  16.087  -3.785  1.00 20.00     0.186 C 
BRANCH   7   8
HETATM    8  O9  UNL     1     -37.200  16.870  -4.907  1.00 20.00    -0.395 OA
HETATM    9  C5  UNL     1     -36.099  17.582  -5.455  1.00 20.00     0.201 C 
ENDBRANCH   7   8
ENDBRANCH   2   7
TORSDOF 3
ENDMDL
MODEL 4
REMARK VINA RESULT:      -3.9      2.118      2.866
REMARK  3 active torsions:
REMARK  status: ('A' for Active; 'I' for Inactive)
REMARK    1  A    between atoms: C4_4  and  C7_7 
REMARK    2  A    between atoms: C6_6  and  C7_7 
REMARK    3  A    between atoms: C6_6  and  O9_9 
ROOT
HETATM    1  C1  UNL     1     -34.432  14.834  -5.775  1.00 20.00     0.066 C 
HETATM    2  C7  UNL     1     -35.348  14.857  -4.623  1.00 20.00     0.120 C 
HETATM    3  N8  UNL     1     -33.715  14.818  -6.688  1.00 20.00    -0.197 NA
ENDROOT
BRANCH   2   4
HETATM    4  C4  UNL     1     -34.461  15.046  -3.424  1.00 20.00     0.005 A 
HETATM    5  C2  UNL     1     -33.844  16.387  -3.140  1.00 20.00     0.006 A 
HETATM    6  C3  UNL     1     -34.936  15.859  -2.253  1.00 20.00     0.006 A 
ENDBRANCH   2   4
BRANCH   2   7
HETATM    7  C6  UNL     1     -36.199  13.592  -4.539  1.00 20.00     0.186 C 
BRANCH   7   8
HETATM    8  O9  UNL     1     -37.541  13.900  -4.177  1.00 20.00    -0.395 OA
HETATM    9  C5  UNL     1     -37.883  15.230  -4.537  1.00 20.00     0.201 C 
ENDBRANCH   7   8
ENDBRANCH   2   7
TORSDOF 3
ENDMDL
MODEL 5
REMARK VINA RESULT:      -3.8      1.288      1.308
REMARK  3 active torsions:
REMARK  status: ('A' for Active; 'I' for Inactive)
REMARK    1  A    between atoms: C4_4  and  C7_7 
REMARK    2  A    between atoms: C6_6  and  C7_7 
REMARK    3  A    between atoms: C6_6  and  O9_9 
ROOT
HETATM    1  C1  UNL     1     -37.009  14.251  -4.348  1.00 20.00     0.066 C 
HETATM    2  C7  UNL     1     -35.571  14.564  -4.359  1.00 20.00     0.120 C 
HETATM    3  N8  UNL     1     -38.142  13.998  -4.340  1.00 20.00    -0.197 NA
ENDROOT
BRANCH   2   4
HETATM    4  C4  UNL     1     -35.444  15.839  -3.573  1.00 20.00     0.005 A 
HETATM    5  C2  UNL     1     -34.601  15.881  -2.329  1.00 20.00     0.006 A 
HETATM    6  C3  UNL     1     -34.146  16.598  -3.569  1.00 20.00     0.006 A 
ENDBRANCH   2   4
BRANCH   2   7
HETATM    7  C6  UNL     1     -35.019  14.684  -5.779  1.00 20.00     0.186 C 
BRANCH   7   8
HETATM    8  O9  UNL     1     -36.026  14.406  -6.745  1.00 20.00    -0.395 OA
HETATM    9  C5  UNL     1     -36.046  15.387  -7.772  1.00 20.00     0.201 C 
ENDBRANCH   7   8
ENDBRANCH   2   7
TORSDOF 3
ENDMDL
MODEL 6
REMARK VINA RESULT:      -3.8     11.169     11.678
REMARK  3 active torsions:
REMARK  status: ('A' for Active; 'I' for Inactive)
REMARK    1  A    between atoms: C4_4  and  C7_7 
REMARK    2  A    between atoms: C6_6  and  C7_7 
REMARK    3  A    between atoms: C6_6  and  O9_9 
ROOT
HETATM    1  C1  UNL     1     -33.308   5.208   2.689  1.00 20.00     0.066 C 
HETATM    2  C7  UNL     1     -32.981   6.267   3.657  1.00 20.00     0.120 C 
HETATM    3  N8  UNL     1     -33.561   4.371   1.925  1.00 20.00    -0.197 NA
ENDROOT
BRANCH   2   4
HETATM    4  C4  UNL     1     -34.234   6.459   4.464  1.00 20.00     0.005 A 
HETATM    5  C2  UNL     1     -34.673   5.408   5.446  1.00 20.00     0.006 A 
HETATM    6  C3  UNL     1     -34.149   6.727   5.941  1.00 20.00     0.006 A 
ENDBRANCH   2   4
BRANCH   2   7
HETATM    7  C6  UNL     1     -32.514   7.549   2.971  1.00 20.00     0.186 C 
BRANCH   7   8
HETATM    8  O9  UNL     1     -32.443   7.379   1.560  1.00 20.00    -0.395 OA
HETATM    9  C5  UNL     1     -32.781   8.576   0.875  1.00 20.00     0.201 C 
ENDBRANCH   7   8
ENDBRANCH   2   7
TORSDOF 3
ENDMDL
MODEL 7
REMARK VINA RESULT:      -3.7      1.688      3.245
REMARK  3 active torsions:
REMARK  status: ('A' for Active; 'I' for Inactive)
REMARK    1  A    between atoms: C4_4  and  C7_7 
REMARK    2  A    between atoms: C6_6  and  C7_7 
REMARK    3  A    between atoms: C6_6  and  O9_9 
ROOT
HETATM    1  C1  UNL     1     -36.985  14.387  -4.512  1.00 20.00     0.066 C 
HETATM    2  C7  UNL     1     -35.670  15.013  -4.727  1.00 20.00     0.120 C 
HETATM    3  N8  UNL     1     -38.023  13.898  -4.338  1.00 20.00    -0.197 NA
ENDROOT
BRANCH   2   4
HETATM    4  C4  UNL     1     -35.336  14.736  -6.166  1.00 20.00     0.005 A 
HETATM    5  C2  UNL     1     -35.111  15.872  -7.125  1.00 20.00     0.006 A 
HETATM    6  C3  UNL     1     -33.955  15.016  -6.689  1.00 20.00     0.006 A 
ENDBRANCH   2   4
BRANCH   2   7
HETATM    7  C6  UNL     1     -34.614  14.481  -3.759  1.00 20.00     0.186 C 
BRANCH   7   8
HETATM    8  O9  UNL     1     -34.282  15.455  -2.776  1.00 20.00    -0.395 OA
HETATM    9  C5  UNL     1     -33.191  16.262  -3.193  1.00 20.00     0.201 C 
ENDBRANCH   7   8
ENDBRANCH   2   7
TORSDOF 3
ENDMDL
MODEL 8
REMARK VINA RESULT:      -3.6     16.781     18.035
REMARK  3 active torsions:
REMARK  status: ('A' for Active; 'I' for Inactive)
REMARK    1  A    between atoms: C4_4  and  C7_7 
REMARK    2  A    between atoms: C6_6  and  C7_7 
REMARK    3  A    between atoms: C6_6  and  O9_9 
ROOT
HETATM    1  C1  UNL     1     -24.322  16.401  10.759  1.00 20.00     0.066 C 
HETATM    2  C7  UNL     1     -23.974  17.268   9.622  1.00 20.00     0.120 C 
HETATM    3  N8  UNL     1     -24.602  15.716  11.654  1.00 20.00    -0.197 NA
ENDROOT
BRANCH   2   4
HETATM    4  C4  UNL     1     -22.487  17.122   9.460  1.00 20.00     0.005 A 
HETATM    5  C2  UNL     1     -21.852  17.286   8.107  1.00 20.00     0.006 A 
HETATM    6  C3  UNL     1     -21.637  18.327   9.170  1.00 20.00     0.006 A 
ENDBRANCH   2   4
BRANCH   2   7
HETATM    7  C6  UNL     1     -24.408  18.715   9.849  1.00 20.00     0.186 C 
BRANCH   7   8
HETATM    8  O9  UNL     1     -25.512  19.056   9.018  1.00 20.00    -0.395 OA
HETATM    9  C5  UNL     1     -25.168  18.983   7.642  1.00 20.00     0.201 C 
ENDBRANCH   7   8
ENDBRANCH   2   7
TORSDOF 3
ENDMDL
MODEL 9
REMARK VINA RESULT:      -3.6     17.103     18.211
REMARK  3 active torsions:
REMARK  status: ('A' for Active; 'I' for Inactive)
REMARK    1  A    between atoms: C4_4  and  C7_7 
REMARK    2  A    between atoms: C6_6  and  C7_7 
REMARK    3  A    between atoms: C6_6  and  O9_9 
ROOT
HETATM    1  C1  UNL     1     -24.966  18.610   8.991  1.00 20.00     0.066 C 
HETATM    2  C7  UNL     1     -23.900  17.780   9.576  1.00 20.00     0.120 C 
HETATM    3  N8  UNL     1     -25.804  19.263   8.524  1.00 20.00    -0.197 NA
ENDROOT
BRANCH   2   4
HETATM    4  C4  UNL     1     -24.430  17.351  10.915  1.00 20.00     0.005 A 
HETATM    5  C2  UNL     1     -24.365  15.906  11.329  1.00 20.00     0.006 A 
HETATM    6  C3  UNL     1     -23.484  16.921  12.001  1.00 20.00     0.006 A 
ENDBRANCH   2   4
BRANCH   2   7
HETATM    7  C6  UNL     1     -22.574  18.533   9.676  1.00 20.00     0.186 C 
BRANCH   7   8
HETATM    8  O9  UNL     1     -21.871  18.499   8.439  1.00 20.00    -0.395 OA
HETATM    9  C5  UNL     1     -21.689  17.167   7.982  1.00 20.00     0.201 C 
ENDBRANCH   7   8
ENDBRANCH   2   7
TORSDOF 3
ENDMDL
