MODEL 1
REMARK VINA RESULT:      -6.3      0.000      0.000
REMARK  0 active torsions:
REMARK  status: ('A' for Active; 'I' for Inactive)
ROOT
HETATM    1  C1  UNL     1     -33.184   7.223   4.663  1.00 20.00     0.005 C 
HETATM    2  C2  UNL     1     -33.846   6.625   5.795  1.00 20.00     0.041 C 
HETATM    3  C3  UNL     1     -33.187   6.637   3.453  1.00 20.00    -0.081 C 
HETATM    4  C4  UNL     1     -34.675   5.586   5.641  1.00 20.00     0.128 C 
HETATM    5  C5  UNL     1     -33.909   5.327   3.222  1.00 20.00     0.078 C 
HETATM    6  C6  UNL     1     -34.951   4.978   4.300  1.00 20.00     0.235 C 
HETATM    7  C7  UNL     1     -32.463   7.221   2.277  1.00 20.00     0.043 C 
HETATM    8  F8  UNL     1     -35.283   5.067   6.731  1.00 20.00    -0.208 F 
HETATM    9  F9  UNL     1     -36.169   5.410   3.859  1.00 20.00    -0.242 F 
ENDROOT
TORSDOF 0
ENDMDL
MODEL 2
REMARK VINA RESULT:      -5.7      2.235      3.518
REMARK  0 active torsions:
REMARK  status: ('A' for Active; 'I' for Inactive)
ROOT
HETATM    1  C1  UNL     1     -33.364   6.905   5.004  1.00 20.00     0.005 C 
HETATM    2  C2  UNL     1     -32.718   7.410   3.819  1.00 20.00     0.041 C 
HETATM    3  C3  UNL     1     -34.213   5.864   4.956  1.00 20.00    -0.081 C 
HETATM    4  C4  UNL     1     -32.758   6.730   2.666  1.00 20.00     0.128 C 
HETATM    5  C5  UNL     1     -34.511   5.160   3.649  1.00 20.00     0.078 C 
HETATM    6  C6  UNL     1     -33.482   5.425   2.536  1.00 20.00     0.235 C 
HETATM    7  C7  UNL     1     -34.931   5.358   6.171  1.00 20.00     0.043 C 
HETATM    8  F8  UNL     1     -32.126   7.237   1.585  1.00 20.00    -0.208 F 
HETATM    9  F9  UNL     1     -32.570   4.408   2.558  1.00 20.00    -0.242 F 
ENDROOT
TORSDOF 0
ENDMDL
MODEL 3
REMARK VINA RESULT:      -5.6      0.971      2.172
REMARK  0 active torsions:
REMARK  status: ('A' for Active; 'I' for Inactive)
ROOT
HETATM    1  C1  UNL     1     -33.694   5.219   3.149  1.00 20.00     0.005 C 
HETATM    2  C2  UNL     1     -34.538   4.660   4.175  1.00 20.00     0.041 C 
HETATM    3  C3  UNL     1     -33.271   6.494   3.200  1.00 20.00    -0.081 C 
HETATM    4  C4  UNL     1     -34.749   5.309   5.326  1.00 20.00     0.128 C 
HETATM    5  C5  UNL     1     -33.647   7.395   4.357  1.00 20.00     0.078 C 
HETATM    6  C6  UNL     1     -34.140   6.648   5.609  1.00 20.00     0.235 C 
HETATM    7  C7  UNL     1     -32.433   7.105   2.117  1.00 20.00     0.043 C 
HETATM    8  F8  UNL     1     -35.537   4.739   6.264  1.00 20.00    -0.208 F 
HETATM    9  F9  UNL     1     -33.072   6.482   6.445  1.00 20.00    -0.242 F 
ENDROOT
TORSDOF 0
ENDMDL
MODEL 4
REMARK VINA RESULT:      -4.7      2.399      3.468
REMARK  0 active torsions:
REMARK  status: ('A' for Active; 'I' for Inactive)
ROOT
HETATM    1  C1  UNL     1     -34.579   5.316   4.700  1.00 20.00     0.005 C 
HETATM    2  C2  UNL     1     -34.248   4.491   3.564  1.00 20.00     0.041 C 
HETATM    3  C3  UNL     1     -33.893   6.437   4.981  1.00 20.00    -0.081 C 
HETATM    4  C4  UNL     1     -33.400   4.921   2.622  1.00 20.00     0.128 C 
HETATM    5  C5  UNL     1     -32.751   6.896   4.100  1.00 20.00     0.078 C 
HETATM    6  C6  UNL     1     -32.739   6.263   2.697  1.00 20.00     0.235 C 
HETATM    7  C7  UNL     1     -34.193   7.279   6.185  1.00 20.00     0.043 C 
HETATM    8  F8  UNL     1     -33.131   4.119   1.569  1.00 20.00    -0.208 F 
HETATM    9  F9  UNL     1     -33.377   7.120   1.846  1.00 20.00    -0.242 F 
ENDROOT
TORSDOF 0
ENDMDL
MODEL 5
REMARK VINA RESULT:      -4.5      8.771      9.744
REMARK  0 active torsions:
REMARK  status: ('A' for Active; 'I' for Inactive)
ROOT
HETATM    1  C1  UNL     1     -42.805   8.096  -1.055  1.00 20.00     0.005 C 
HETATM    2  C2  UNL     1     -43.323   6.805  -1.435  1.00 20.00     0.041 C 
HETATM    3  C3  UNL     1     -41.842   8.224  -0.126  1.00 20.00    -0.081 C 
HETATM    4  C4  UNL     1     -42.716   5.676  -1.050  1.00 20.00     0.128 C 
HETATM    5  C5  UNL     1     -41.241   7.008   0.548  1.00 20.00     0.078 C 
HETATM    6  C6  UNL     1     -41.485   5.684  -0.197  1.00 20.00     0.235 C 
HETATM    7  C7  UNL     1     -41.327   9.560   0.316  1.00 20.00     0.043 C 
HETATM    8  F8  UNL     1     -43.231   4.490  -1.442  1.00 20.00    -0.208 F 
HETATM    9  F9  UNL     1     -40.397   5.442  -0.986  1.00 20.00    -0.242 F 
ENDROOT
TORSDOF 0
ENDMDL
MODEL 6
REMARK VINA RESULT:      -4.5     11.902     12.591
REMARK  0 active torsions:
REMARK  status: ('A' for Active; 'I' for Inactive)
ROOT
HETATM    1  C1  UNL     1     -33.466  16.289  -2.683  1.00 20.00     0.005 C 
HETATM    2  C2  UNL     1     -32.989  15.782  -3.946  1.00 20.00     0.041 C 
HETATM    3  C3  UNL     1     -34.745  16.137  -2.299  1.00 20.00    -0.081 C 
HETATM    4  C4  UNL     1     -33.734  14.949  -4.682  1.00 20.00     0.128 C 
HETATM    5  C5  UNL     1     -35.740  15.403  -3.173  1.00 20.00     0.078 C 
HETATM    6  C6  UNL     1     -35.100  14.510  -4.251  1.00 20.00     0.235 C 
HETATM    7  C7  UNL     1     -35.268  16.701  -1.012  1.00 20.00     0.043 C 
HETATM    8  F8  UNL     1     -33.239  14.489  -5.852  1.00 20.00    -0.208 F 
HETATM    9  F9  UNL     1     -35.021  13.241  -3.750  1.00 20.00    -0.242 F 
ENDROOT
TORSDOF 0
ENDMDL
MODEL 7
REMARK VINA RESULT:      -4.3     16.996     17.444
REMARK  0 active torsions:
REMARK  status: ('A' for Active; 'I' for Inactive)
ROOT
HETATM    1  C1  UNL     1     -24.938  18.730  10.034  1.00 20.00     0.005 C 
HETATM    2  C2  UNL     1     -23.731  18.217   9.434  1.00 20.00     0.041 C 
HETATM    3  C3  UNL     1     -25.309  18.384  11.279  1.00 20.00    -0.081 C 
HETATM    4  C4  UNL     1     -22.821  17.563  10.165  1.00 20.00     0.128 C 
HETATM    5  C5  UNL     1     -24.458  17.454  12.117  1.00 20.00     0.078 C 
HETATM    6  C6  UNL     1     -23.006  17.311  11.629  1.00 20.00     0.235 C 
HETATM    7  C7  UNL     1     -26.585  18.869  11.899  1.00 20.00     0.043 C 
HETATM    8  F8  UNL     1     -21.699  17.113   9.561  1.00 20.00    -0.208 F 
HETATM    9  F9  UNL     1     -22.240  18.198  12.332  1.00 20.00    -0.242 F 
ENDROOT
TORSDOF 0
ENDMDL
MODEL 8
REMARK VINA RESULT:      -4.3     16.610     17.119
REMARK  0 active torsions:
REMARK  status: ('A' for Active; 'I' for Inactive)
ROOT
HETATM    1  C1  UNL     1     -23.816  18.525   9.520  1.00 20.00     0.005 C 
HETATM    2  C2  UNL     1     -25.012  18.583  10.323  1.00 20.00     0.041 C 
HETATM    3  C3  UNL     1     -22.639  18.130  10.035  1.00 20.00    -0.081 C 
HETATM    4  C4  UNL     1     -25.052  18.035  11.544  1.00 20.00     0.128 C 
HETATM    5  C5  UNL     1     -22.524  17.704  11.483  1.00 20.00     0.078 C 
HETATM    6  C6  UNL     1     -23.865  17.350  12.149  1.00 20.00     0.235 C 
HETATM    7  C7  UNL     1     -21.377  18.111   9.226  1.00 20.00     0.043 C 
HETATM    8  F8  UNL     1     -26.199  18.102  12.254  1.00 20.00    -0.208 F 
HETATM    9  F9  UNL     1     -24.036  15.998  12.052  1.00 20.00    -0.242 F 
ENDROOT
TORSDOF 0
ENDMDL
MODEL 9
REMARK VINA RESULT:      -4.3     11.908     12.614
REMARK  0 active torsions:
REMARK  status: ('A' for Active; 'I' for Inactive)
ROOT
HETATM    1  C1  UNL     1     -34.891  16.128  -2.432  1.00 20.00     0.005 C 
HETATM    2  C2  UNL     1     -35.620  15.024  -3.007  1.00 20.00     0.041 C 
HETATM    3  C3  UNL     1     -33.605  16.364  -2.746  1.00 20.00    -0.081 C 
HETATM    4  C4  UNL     1     -35.123  14.332  -4.039  1.00 20.00     0.128 C 
HETATM    5  C5  UNL     1     -32.871  15.490  -3.740  1.00 20.00     0.078 C 
HETATM    6  C6  UNL     1     -33.789  14.646  -4.642  1.00 20.00     0.235 C 
HETATM    7  C7  UNL     1     -32.819  17.477  -2.120  1.00 20.00     0.043 C 
HETATM    8  F8  UNL     1     -35.849  13.315  -4.554  1.00 20.00    -0.208 F 
HETATM    9  F9  UNL     1     -33.979  15.335  -5.806  1.00 20.00    -0.242 F 
ENDROOT
TORSDOF 0
ENDMDL
