MODEL 1
REMARK VINA RESULT:      -4.4      0.000      0.000
REMARK  4 active torsions:
REMARK  status: ('A' for Active; 'I' for Inactive)
REMARK    1  A    between atoms: C4_4  and  C7_7 
REMARK    2  A    between atoms: C4_4  and  C8_8 
REMARK    3  A    between atoms: C7_7  and  C9_9 
REMARK    4  A    between atoms: C8_8  and  C10_10 
ROOT
HETATM    1  C1  UNL     1     -37.275  14.368  -4.326  1.00 20.00     0.128 C 
HETATM    2  C2  UNL     1     -36.610  15.612  -3.711  1.00 20.00     0.088 C 
HETATM    3  C3  UNL     1     -35.913  13.713  -4.621  1.00 20.00     0.088 C 
HETATM    4  C4  UNL     1     -35.264  15.105  -4.325  1.00 20.00    -0.027 C 
HETATM    5  O11 UNL     1     -38.426  14.036  -4.515  1.00 20.00    -0.298 OA
ENDROOT
BRANCH   4   6
HETATM    6  C7  UNL     1     -34.860  15.859  -5.593  1.00 20.00     0.010 C 
BRANCH   6   7
HETATM    7  C9  UNL     1     -33.912  15.027  -6.449  1.00 20.00    -0.004 C 
HETATM    8  C5  UNL     1     -34.028  15.400  -7.917  1.00 20.00     0.005 C 
ENDBRANCH   6   7
ENDBRANCH   4   6
BRANCH   4   9
HETATM    9  C8  UNL     1     -34.118  15.044  -3.320  1.00 20.00     0.010 C 
BRANCH   9  10
HETATM   10  C10 UNL     1     -33.303  16.334  -3.330  1.00 20.00    -0.004 C 
HETATM   11  C6  UNL     1     -33.519  17.134  -2.056  1.00 20.00     0.005 C 
ENDBRANCH   9  10
ENDBRANCH   4   9
TORSDOF 4
ENDMDL
MODEL 2
REMARK VINA RESULT:      -4.3      0.652      3.308
REMARK  4 active torsions:
REMARK  status: ('A' for Active; 'I' for Inactive)
REMARK    1  A    between atoms: C4_4  and  C7_7 
REMARK    2  A    between atoms: C4_4  and  C8_8 
REMARK    3  A    between atoms: C7_7  and  C9_9 
REMARK    4  A    between atoms: C8_8  and  C10_10 
ROOT
HETATM    1  C1  UNL     1     -37.159  14.270  -4.490  1.00 20.00     0.128 C 
HETATM    2  C2  UNL     1     -35.817  13.526  -4.363  1.00 20.00     0.088 C 
HETATM    3  C3  UNL     1     -36.461  15.588  -4.868  1.00 20.00     0.088 C 
HETATM    4  C4  UNL     1     -35.123  14.927  -4.399  1.00 20.00    -0.027 C 
HETATM    5  O11 UNL     1     -38.318  13.945  -4.339  1.00 20.00    -0.298 OA
ENDROOT
BRANCH   4   6
HETATM    6  C7  UNL     1     -34.668  15.408  -3.020  1.00 20.00     0.010 C 
BRANCH   6   7
HETATM    7  C9  UNL     1     -33.292  16.060  -3.092  1.00 20.00    -0.004 C 
HETATM    8  C5  UNL     1     -33.196  17.245  -2.145  1.00 20.00     0.005 C 
ENDBRANCH   6   7
ENDBRANCH   4   6
BRANCH   4   9
HETATM    9  C8  UNL     1     -33.999  15.026  -5.426  1.00 20.00     0.010 C 
BRANCH   9  10
HETATM   10  C10 UNL     1     -34.375  15.960  -6.572  1.00 20.00    -0.004 C 
HETATM   11  C6  UNL     1     -33.984  15.370  -7.917  1.00 20.00     0.005 C 
ENDBRANCH   9  10
ENDBRANCH   4   9
TORSDOF 4
ENDMDL
MODEL 3
REMARK VINA RESULT:      -4.2      1.720      2.347
REMARK  4 active torsions:
REMARK  status: ('A' for Active; 'I' for Inactive)
REMARK    1  A    between atoms: C4_4  and  C7_7 
REMARK    2  A    between atoms: C4_4  and  C8_8 
REMARK    3  A    between atoms: C7_7  and  C9_9 
REMARK    4  A    between atoms: C8_8  and  C10_10 
ROOT
HETATM    1  C1  UNL     1     -35.515  13.742  -4.191  1.00 20.00     0.128 C 
HETATM    2  C2  UNL     1     -36.180  15.001  -3.607  1.00 20.00     0.088 C 
HETATM    3  C3  UNL     1     -34.103  14.308  -3.961  1.00 20.00     0.088 C 
HETATM    4  C4  UNL     1     -34.781  15.694  -3.704  1.00 20.00    -0.027 C 
HETATM    5  O11 UNL     1     -35.941  12.708  -4.661  1.00 20.00    -0.298 OA
ENDROOT
BRANCH   4   6
HETATM    6  C7  UNL     1     -34.664  16.647  -4.895  1.00 20.00     0.010 C 
BRANCH   6   7
HETATM    7  C9  UNL     1     -35.431  17.940  -4.641  1.00 20.00    -0.004 C 
HETATM    8  C5  UNL     1     -34.603  19.154  -5.030  1.00 20.00     0.005 C 
ENDBRANCH   6   7
ENDBRANCH   4   6
BRANCH   4   9
HETATM    9  C8  UNL     1     -34.338  16.362  -2.406  1.00 20.00     0.010 C 
BRANCH   9  10
HETATM   10  C10 UNL     1     -32.929  16.933  -2.530  1.00 20.00    -0.004 C 
HETATM   11  C6  UNL     1     -32.640  17.938  -1.427  1.00 20.00     0.005 C 
ENDBRANCH   9  10
ENDBRANCH   4   9
TORSDOF 4
ENDMDL
MODEL 4
REMARK VINA RESULT:      -4.1      1.887      3.649
REMARK  4 active torsions:
REMARK  status: ('A' for Active; 'I' for Inactive)
REMARK    1  A    between atoms: C4_4  and  C7_7 
REMARK    2  A    between atoms: C4_4  and  C8_8 
REMARK    3  A    between atoms: C7_7  and  C9_9 
REMARK    4  A    between atoms: C8_8  and  C10_10 
ROOT
HETATM    1  C1  UNL     1     -35.528  13.683  -4.286  1.00 20.00     0.128 C 
HETATM    2  C2  UNL     1     -34.189  14.429  -4.148  1.00 20.00     0.088 C 
HETATM    3  C3  UNL     1     -36.334  14.992  -4.204  1.00 20.00     0.088 C 
HETATM    4  C4  UNL     1     -35.018  15.684  -3.719  1.00 20.00    -0.027 C 
HETATM    5  O11 UNL     1     -35.832  12.515  -4.404  1.00 20.00    -0.298 OA
ENDROOT
BRANCH   4   6
HETATM    6  C7  UNL     1     -34.993  15.933  -2.210  1.00 20.00     0.010 C 
BRANCH   6   7
HETATM    7  C9  UNL     1     -33.892  16.918  -1.834  1.00 20.00    -0.004 C 
HETATM    8  C5  UNL     1     -34.304  17.774  -0.647  1.00 20.00     0.005 C 
ENDBRANCH   6   7
ENDBRANCH   4   6
BRANCH   4   9
HETATM    9  C8  UNL     1     -34.666  16.946  -4.501  1.00 20.00     0.010 C 
BRANCH   9  10
HETATM   10  C10 UNL     1     -35.870  17.873  -4.628  1.00 20.00    -0.004 C 
HETATM   11  C6  UNL     1     -35.557  19.263  -4.098  1.00 20.00     0.005 C 
ENDBRANCH   9  10
ENDBRANCH   4   9
TORSDOF 4
ENDMDL
MODEL 5
REMARK VINA RESULT:      -4.1      1.944      3.600
REMARK  4 active torsions:
REMARK  status: ('A' for Active; 'I' for Inactive)
REMARK    1  A    between atoms: C4_4  and  C7_7 
REMARK    2  A    between atoms: C4_4  and  C8_8 
REMARK    3  A    between atoms: C7_7  and  C9_9 
REMARK    4  A    between atoms: C8_8  and  C10_10 
ROOT
HETATM    1  C1  UNL     1     -35.554  13.841  -4.288  1.00 20.00     0.128 C 
HETATM    2  C2  UNL     1     -34.138  14.406  -4.073  1.00 20.00     0.088 C 
HETATM    3  C3  UNL     1     -36.197  15.230  -4.128  1.00 20.00     0.088 C 
HETATM    4  C4  UNL     1     -34.820  15.721  -3.571  1.00 20.00    -0.027 C 
HETATM    5  O11 UNL     1     -35.993  12.729  -4.494  1.00 20.00    -0.298 OA
ENDROOT
BRANCH   4   6
HETATM    6  C7  UNL     1     -34.806  15.861  -2.048  1.00 20.00     0.010 C 
BRANCH   6   7
HETATM    7  C9  UNL     1     -35.655  17.044  -1.597  1.00 20.00    -0.004 C 
HETATM    8  C5  UNL     1     -35.199  17.562  -0.242  1.00 20.00     0.005 C 
ENDBRANCH   6   7
ENDBRANCH   4   6
BRANCH   4   9
HETATM    9  C8  UNL     1     -34.298  16.980  -4.254  1.00 20.00     0.010 C 
BRANCH   9  10
HETATM   10  C10 UNL     1     -33.047  17.510  -3.559  1.00 20.00    -0.004 C 
HETATM   11  C6  UNL     1     -33.044  19.029  -3.508  1.00 20.00     0.005 C 
ENDBRANCH   9  10
ENDBRANCH   4   9
TORSDOF 4
ENDMDL
MODEL 6
REMARK VINA RESULT:      -4.0      1.271      1.621
REMARK  4 active torsions:
REMARK  status: ('A' for Active; 'I' for Inactive)
REMARK    1  A    between atoms: C4_4  and  C7_7 
REMARK    2  A    between atoms: C4_4  and  C8_8 
REMARK    3  A    between atoms: C7_7  and  C9_9 
REMARK    4  A    between atoms: C8_8  and  C10_10 
ROOT
HETATM    1  C1  UNL     1     -36.834  14.347  -4.165  1.00 20.00     0.128 C 
HETATM    2  C2  UNL     1     -36.623  15.790  -3.675  1.00 20.00     0.088 C 
HETATM    3  C3  UNL     1     -35.348  13.999  -3.966  1.00 20.00     0.088 C 
HETATM    4  C4  UNL     1     -35.087  15.534  -3.812  1.00 20.00    -0.027 C 
HETATM    5  O11 UNL     1     -37.797  13.726  -4.563  1.00 20.00    -0.298 OA
ENDROOT
BRANCH   4   6
HETATM    6  C7  UNL     1     -34.481  16.167  -5.066  1.00 20.00     0.010 C 
BRANCH   6   7
HETATM    7  C9  UNL     1     -35.217  17.447  -5.445  1.00 20.00    -0.004 C 
HETATM    8  C5  UNL     1     -34.242  18.580  -5.717  1.00 20.00     0.005 C 
ENDBRANCH   6   7
ENDBRANCH   4   6
BRANCH   4   9
HETATM    9  C8  UNL     1     -34.292  15.897  -2.562  1.00 20.00     0.010 C 
BRANCH   9  10
HETATM   10  C10 UNL     1     -32.966  16.560  -2.921  1.00 20.00    -0.004 C 
HETATM   11  C6  UNL     1     -32.706  17.782  -2.055  1.00 20.00     0.005 C 
ENDBRANCH   9  10
ENDBRANCH   4   9
TORSDOF 4
ENDMDL
MODEL 7
REMARK VINA RESULT:      -3.7      1.904      2.660
REMARK  4 active torsions:
REMARK  status: ('A' for Active; 'I' for Inactive)
REMARK    1  A    between atoms: C4_4  and  C7_7 
REMARK    2  A    between atoms: C4_4  and  C8_8 
REMARK    3  A    between atoms: C7_7  and  C9_9 
REMARK    4  A    between atoms: C8_8  and  C10_10 
ROOT
HETATM    1  C1  UNL     1     -36.142  14.277  -4.369  1.00 20.00     0.128 C 
HETATM    2  C2  UNL     1     -36.611  15.571  -3.681  1.00 20.00     0.088 C 
HETATM    3  C3  UNL     1     -34.766  14.340  -3.683  1.00 20.00     0.088 C 
HETATM    4  C4  UNL     1     -35.119  15.809  -3.277  1.00 20.00    -0.027 C 
HETATM    5  O11 UNL     1     -36.655  13.509  -5.157  1.00 20.00    -0.298 OA
ENDROOT
BRANCH   4   6
HETATM    6  C7  UNL     1     -34.420  16.855  -4.148  1.00 20.00     0.010 C 
BRANCH   6   7
HETATM    7  C9  UNL     1     -33.073  17.251  -3.555  1.00 20.00    -0.004 C 
HETATM    8  C5  UNL     1     -32.864  18.755  -3.626  1.00 20.00     0.005 C 
ENDBRANCH   6   7
ENDBRANCH   4   6
BRANCH   4   9
HETATM    9  C8  UNL     1     -34.926  16.097  -1.792  1.00 20.00     0.010 C 
BRANCH   9  10
HETATM   10  C10 UNL     1     -35.636  17.382  -1.379  1.00 20.00    -0.004 C 
HETATM   11  C6  UNL     1     -34.834  18.148  -0.340  1.00 20.00     0.005 C 
ENDBRANCH   9  10
ENDBRANCH   4   9
TORSDOF 4
ENDMDL
MODEL 8
REMARK VINA RESULT:      -3.7      2.300      3.998
REMARK  4 active torsions:
REMARK  status: ('A' for Active; 'I' for Inactive)
REMARK    1  A    between atoms: C4_4  and  C7_7 
REMARK    2  A    between atoms: C4_4  and  C8_8 
REMARK    3  A    between atoms: C7_7  and  C9_9 
REMARK    4  A    between atoms: C8_8  and  C10_10 
ROOT
HETATM    1  C1  UNL     1     -34.077  15.077  -5.258  1.00 20.00     0.128 C 
HETATM    2  C2  UNL     1     -34.773  16.380  -4.825  1.00 20.00     0.088 C 
HETATM    3  C3  UNL     1     -33.845  14.645  -3.799  1.00 20.00     0.088 C 
HETATM    4  C4  UNL     1     -34.227  16.105  -3.385  1.00 20.00    -0.027 C 
HETATM    5  O11 UNL     1     -33.806  14.586  -6.334  1.00 20.00    -0.298 OA
ENDROOT
BRANCH   4   6
HETATM    6  C7  UNL     1     -33.012  16.963  -3.030  1.00 20.00     0.010 C 
BRANCH   6   7
HETATM    7  C9  UNL     1     -33.120  17.507  -1.609  1.00 20.00    -0.004 C 
HETATM    8  C5  UNL     1     -31.901  18.337  -1.245  1.00 20.00     0.005 C 
ENDBRANCH   6   7
ENDBRANCH   4   6
BRANCH   4   9
HETATM    9  C8  UNL     1     -35.298  16.173  -2.302  1.00 20.00     0.010 C 
BRANCH   9  10
HETATM   10  C10 UNL     1     -36.346  17.235  -2.624  1.00 20.00    -0.004 C 
HETATM   11  C6  UNL     1     -36.803  17.959  -1.368  1.00 20.00     0.005 C 
ENDBRANCH   9  10
ENDBRANCH   4   9
TORSDOF 4
ENDMDL
MODEL 9
REMARK VINA RESULT:      -3.7      3.197      4.688
REMARK  4 active torsions:
REMARK  status: ('A' for Active; 'I' for Inactive)
REMARK    1  A    between atoms: C4_4  and  C7_7 
REMARK    2  A    between atoms: C4_4  and  C8_8 
REMARK    3  A    between atoms: C7_7  and  C9_9 
REMARK    4  A    between atoms: C8_8  and  C10_10 
ROOT
HETATM    1  C1  UNL     1     -32.637  17.702  -1.942  1.00 20.00     0.128 C 
HETATM    2  C2  UNL     1     -32.853  16.722  -3.110  1.00 20.00     0.088 C 
HETATM    3  C3  UNL     1     -34.067  17.485  -1.418  1.00 20.00     0.088 C 
HETATM    4  C4  UNL     1     -34.380  16.782  -2.779  1.00 20.00    -0.027 C 
HETATM    5  O11 UNL     1     -31.703  18.387  -1.582  1.00 20.00    -0.298 OA
ENDROOT
BRANCH   4   6
HETATM    6  C7  UNL     1     -35.169  17.669  -3.744  1.00 20.00     0.010 C 
BRANCH   6   7
HETATM    7  C9  UNL     1     -36.670  17.457  -3.584  1.00 20.00    -0.004 C 
HETATM    8  C5  UNL     1     -37.350  17.302  -4.934  1.00 20.00     0.005 C 
ENDBRANCH   6   7
ENDBRANCH   4   6
BRANCH   4   9
HETATM    9  C8  UNL     1     -35.027  15.409  -2.625  1.00 20.00     0.010 C 
BRANCH   9  10
HETATM   10  C10 UNL     1     -34.696  14.504  -3.808  1.00 20.00    -0.004 C 
HETATM   11  C6  UNL     1     -35.942  13.822  -4.348  1.00 20.00     0.005 C 
ENDBRANCH   9  10
ENDBRANCH   4   9
TORSDOF 4
ENDMDL
