MODEL 1
REMARK VINA RESULT:      -4.4      0.000      0.000
REMARK  3 active torsions:
REMARK  status: ('A' for Active; 'I' for Inactive)
REMARK    1  A    between atoms: C3_3  and  C6_6 
REMARK    2  A    between atoms: C5_5  and  C6_6 
REMARK    3  A    between atoms: C5_5  and  O7_7 
ROOT
HETATM    1  C6  UNL     1     -33.124   6.048   3.656  1.00 20.00     0.110 C 
HETATM    2 CL8  UNL     1     -33.565   4.927   2.314  1.00 20.00    -0.122 Cl
ENDROOT
BRANCH   1   3
HETATM    3  C3  UNL     1     -34.317   6.331   4.502  1.00 20.00     0.006 A 
HETATM    4  C1  UNL     1     -34.775   5.330   5.526  1.00 20.00     0.006 A 
HETATM    5  C2  UNL     1     -34.153   6.625   5.967  1.00 20.00     0.006 A 
ENDBRANCH   1   3
BRANCH   1   6
HETATM    6  C5  UNL     1     -32.515   7.321   3.044  1.00 20.00     0.187 C 
BRANCH   6   7
HETATM    7  O7  UNL     1     -32.462   7.224   1.626  1.00 20.00    -0.394 OA
HETATM    8  C4  UNL     1     -32.790   8.459   1.007  1.00 20.00     0.201 C 
ENDBRANCH   6   7
ENDBRANCH   1   6
TORSDOF 3
ENDMDL
MODEL 2
REMARK VINA RESULT:      -3.7      1.684      1.807
REMARK  3 active torsions:
REMARK  status: ('A' for Active; 'I' for Inactive)
REMARK    1  A    between atoms: C3_3  and  C6_6 
REMARK    2  A    between atoms: C5_5  and  C6_6 
REMARK    3  A    between atoms: C5_5  and  O7_7 
ROOT
HETATM    1  C6  UNL     1     -33.993   6.721   3.941  1.00 20.00     0.110 C 
HETATM    2 CL8  UNL     1     -33.129   7.251   5.432  1.00 20.00    -0.122 Cl
ENDROOT
BRANCH   1   3
HETATM    3  C3  UNL     1     -34.938   5.615   4.260  1.00 20.00     0.006 A 
HETATM    4  C1  UNL     1     -34.434   4.205   4.402  1.00 20.00     0.006 A 
HETATM    5  C2  UNL     1     -34.905   4.960   5.613  1.00 20.00     0.006 A 
ENDBRANCH   1   3
BRANCH   1   6
HETATM    6  C5  UNL     1     -32.945   6.322   2.889  1.00 20.00     0.187 C 
BRANCH   6   7
HETATM    7  O7  UNL     1     -32.148   7.441   2.520  1.00 20.00    -0.394 OA
HETATM    8  C4  UNL     1     -32.600   8.024   1.306  1.00 20.00     0.201 C 
ENDBRANCH   6   7
ENDBRANCH   1   6
TORSDOF 3
ENDMDL
MODEL 3
REMARK VINA RESULT:      -3.7     11.410     11.877
REMARK  3 active torsions:
REMARK  status: ('A' for Active; 'I' for Inactive)
REMARK    1  A    between atoms: C3_3  and  C6_6 
REMARK    2  A    between atoms: C5_5  and  C6_6 
REMARK    3  A    between atoms: C5_5  and  O7_7 
ROOT
HETATM    1  C6  UNL     1     -35.347  14.865  -4.578  1.00 20.00     0.110 C 
HETATM    2 CL8  UNL     1     -34.405  14.914  -6.114  1.00 20.00    -0.122 Cl
ENDROOT
BRANCH   1   3
HETATM    3  C3  UNL     1     -34.437  15.035  -3.411  1.00 20.00     0.006 A 
HETATM    4  C1  UNL     1     -33.766  16.356  -3.159  1.00 20.00     0.006 A 
HETATM    5  C2  UNL     1     -34.856  15.881  -2.242  1.00 20.00     0.006 A 
ENDBRANCH   1   3
BRANCH   1   6
HETATM    6  C5  UNL     1     -36.132  13.543  -4.531  1.00 20.00     0.187 C 
BRANCH   6   7
HETATM    7  O7  UNL     1     -37.533  13.788  -4.519  1.00 20.00    -0.394 OA
HETATM    8  C4  UNL     1     -37.818  15.179  -4.504  1.00 20.00     0.201 C 
ENDBRANCH   6   7
ENDBRANCH   1   6
TORSDOF 3
ENDMDL
MODEL 4
REMARK VINA RESULT:      -3.5     16.137     16.660
REMARK  3 active torsions:
REMARK  status: ('A' for Active; 'I' for Inactive)
REMARK    1  A    between atoms: C3_3  and  C6_6 
REMARK    2  A    between atoms: C5_5  and  C6_6 
REMARK    3  A    between atoms: C5_5  and  O7_7 
ROOT
HETATM    1  C6  UNL     1     -22.562  18.343   9.352  1.00 20.00     0.110 C 
HETATM    2 CL8  UNL     1     -21.719  17.364   8.095  1.00 20.00    -0.122 Cl
ENDROOT
BRANCH   1   3
HETATM    3  C3  UNL     1     -22.983  17.473  10.485  1.00 20.00     0.006 A 
HETATM    4  C1  UNL     1     -22.477  17.740  11.875  1.00 20.00     0.006 A 
HETATM    5  C2  UNL     1     -23.918  18.000  11.538  1.00 20.00     0.006 A 
ENDBRANCH   1   3
BRANCH   1   6
HETATM    6  C5  UNL     1     -23.746  19.068   8.689  1.00 20.00     0.187 C 
BRANCH   6   7
HETATM    7  O7  UNL     1     -23.796  18.783   7.297  1.00 20.00    -0.394 OA
HETATM    8  C4  UNL     1     -24.997  19.263   6.710  1.00 20.00     0.201 C 
ENDBRANCH   6   7
ENDBRANCH   1   6
TORSDOF 3
ENDMDL
MODEL 5
REMARK VINA RESULT:      -3.5     11.180     11.714
REMARK  3 active torsions:
REMARK  status: ('A' for Active; 'I' for Inactive)
REMARK    1  A    between atoms: C3_3  and  C6_6 
REMARK    2  A    between atoms: C5_5  and  C6_6 
REMARK    3  A    between atoms: C5_5  and  O7_7 
ROOT
HETATM    1  C6  UNL     1     -34.580  14.704  -3.629  1.00 20.00     0.110 C 
HETATM    2 CL8  UNL     1     -36.131  13.993  -4.212  1.00 20.00    -0.122 Cl
ENDROOT
BRANCH   1   3
HETATM    3  C3  UNL     1     -34.812  16.075  -3.096  1.00 20.00     0.006 A 
HETATM    4  C1  UNL     1     -35.055  16.286  -1.627  1.00 20.00     0.006 A 
HETATM    5  C2  UNL     1     -33.766  16.744  -2.248  1.00 20.00     0.006 A 
ENDBRANCH   1   3
BRANCH   1   6
HETATM    6  C5  UNL     1     -33.570  14.681  -4.788  1.00 20.00     0.187 C 
BRANCH   6   7
HETATM    7  O7  UNL     1     -34.214  14.349  -6.012  1.00 20.00    -0.394 OA
HETATM    8  C4  UNL     1     -34.087  15.393  -6.967  1.00 20.00     0.201 C 
ENDBRANCH   6   7
ENDBRANCH   1   6
TORSDOF 3
ENDMDL
MODEL 6
REMARK VINA RESULT:      -3.4      1.657      4.015
REMARK  3 active torsions:
REMARK  status: ('A' for Active; 'I' for Inactive)
REMARK    1  A    between atoms: C3_3  and  C6_6 
REMARK    2  A    between atoms: C5_5  and  C6_6 
REMARK    3  A    between atoms: C5_5  and  O7_7 
ROOT
HETATM    1  C6  UNL     1     -33.497   6.385   2.667  1.00 20.00     0.110 C 
HETATM    2 CL8  UNL     1     -32.973   4.679   2.411  1.00 20.00    -0.122 Cl
ENDROOT
BRANCH   1   3
HETATM    3  C3  UNL     1     -32.445   7.323   2.187  1.00 20.00     0.006 A 
HETATM    4  C1  UNL     1     -32.263   7.570   0.715  1.00 20.00     0.006 A 
HETATM    5  C2  UNL     1     -32.828   8.650   1.594  1.00 20.00     0.006 A 
ENDBRANCH   1   3
BRANCH   1   6
HETATM    6  C5  UNL     1     -33.824   6.573   4.158  1.00 20.00     0.187 C 
BRANCH   6   7
HETATM    7  O7  UNL     1     -34.893   5.720   4.552  1.00 20.00    -0.394 OA
HETATM    8  C4  UNL     1     -34.752   5.299   5.901  1.00 20.00     0.201 C 
ENDBRANCH   6   7
ENDBRANCH   1   6
TORSDOF 3
ENDMDL
MODEL 7
REMARK VINA RESULT:      -3.4     16.160     16.689
REMARK  3 active torsions:
REMARK  status: ('A' for Active; 'I' for Inactive)
REMARK    1  A    between atoms: C3_3  and  C6_6 
REMARK    2  A    between atoms: C5_5  and  C6_6 
REMARK    3  A    between atoms: C5_5  and  O7_7 
ROOT
HETATM    1  C6  UNL     1     -24.339  17.332  11.099  1.00 20.00     0.110 C 
HETATM    2 CL8  UNL     1     -24.613  15.613  11.567  1.00 20.00    -0.122 Cl
ENDROOT
BRANCH   1   3
HETATM    3  C3  UNL     1     -22.968  17.501  10.541  1.00 20.00     0.006 A 
HETATM    4  C1  UNL     1     -22.671  17.092   9.125  1.00 20.00     0.006 A 
HETATM    5  C2  UNL     1     -22.700  18.547   9.496  1.00 20.00     0.006 A 
ENDBRANCH   1   3
BRANCH   1   6
HETATM    6  C5  UNL     1     -24.590  18.217  12.332  1.00 20.00     0.187 C 
BRANCH   6   7
HETATM    7  O7  UNL     1     -25.859  18.855  12.245  1.00 20.00    -0.394 OA
HETATM    8  C4  UNL     1     -26.206  19.140  10.897  1.00 20.00     0.201 C 
ENDBRANCH   6   7
ENDBRANCH   1   6
TORSDOF 3
ENDMDL
MODEL 8
REMARK VINA RESULT:      -3.4     11.180     11.713
REMARK  3 active torsions:
REMARK  status: ('A' for Active; 'I' for Inactive)
REMARK    1  A    between atoms: C3_3  and  C6_6 
REMARK    2  A    between atoms: C5_5  and  C6_6 
REMARK    3  A    between atoms: C5_5  and  O7_7 
ROOT
HETATM    1  C6  UNL     1     -34.558  15.087  -4.014  1.00 20.00     0.110 C 
HETATM    2 CL8  UNL     1     -32.954  14.367  -4.415  1.00 20.00    -0.122 Cl
ENDROOT
BRANCH   1   3
HETATM    3  C3  UNL     1     -34.582  15.531  -2.593  1.00 20.00     0.006 A 
HETATM    4  C1  UNL     1     -33.943  16.832  -2.195  1.00 20.00     0.006 A 
HETATM    5  C2  UNL     1     -35.439  16.695  -2.178  1.00 20.00     0.006 A 
ENDBRANCH   1   3
BRANCH   1   6
HETATM    6  C5  UNL     1     -35.648  14.049  -4.330  1.00 20.00     0.187 C 
BRANCH   6   7
HETATM    7  O7  UNL     1     -35.662  13.738  -5.718  1.00 20.00    -0.394 OA
HETATM    8  C4  UNL     1     -35.801  14.907  -6.512  1.00 20.00     0.201 C 
ENDBRANCH   6   7
ENDBRANCH   1   6
TORSDOF 3
ENDMDL
MODEL 9
REMARK VINA RESULT:      -3.4     15.979     16.709
REMARK  3 active torsions:
REMARK  status: ('A' for Active; 'I' for Inactive)
REMARK    1  A    between atoms: C3_3  and  C6_6 
REMARK    2  A    between atoms: C5_5  and  C6_6 
REMARK    3  A    between atoms: C5_5  and  O7_7 
ROOT
HETATM    1  C6  UNL     1     -23.081  17.689   9.648  1.00 20.00     0.110 C 
HETATM    2 CL8  UNL     1     -21.453  17.285   8.986  1.00 20.00    -0.122 Cl
ENDROOT
BRANCH   1   3
HETATM    3  C3  UNL     1     -23.623  18.901   8.974  1.00 20.00     0.006 A 
HETATM    4  C1  UNL     1     -24.554  18.764   7.801  1.00 20.00     0.006 A 
HETATM    5  C2  UNL     1     -25.075  19.262   9.120  1.00 20.00     0.006 A 
ENDBRANCH   1   3
BRANCH   1   6
HETATM    6  C5  UNL     1     -22.957  17.862  11.171  1.00 20.00     0.187 C 
BRANCH   6   7
HETATM    7  O7  UNL     1     -23.230  16.637  11.842  1.00 20.00    -0.394 OA
HETATM    8  C4  UNL     1     -24.472  16.084  11.429  1.00 20.00     0.201 C 
ENDBRANCH   6   7
ENDBRANCH   1   6
TORSDOF 3
ENDMDL
