MODEL 1
REMARK VINA RESULT:      -4.5      0.000      0.000
REMARK  1 active torsions:
REMARK  status: ('A' for Active; 'I' for Inactive)
REMARK    1  A    between atoms: C6_6  and  O8_8 
ROOT
HETATM    1  C1  UNL     1     -34.507  16.753  -2.066  1.00 20.00     0.002 C 
HETATM    2  C2  UNL     1     -34.991  15.443  -2.740  1.00 20.00     0.010 C 
HETATM    3  C3  UNL     1     -33.150  16.567  -2.795  1.00 20.00     0.010 C 
HETATM    4  C4  UNL     1     -33.191  14.464  -4.345  1.00 20.00     0.041 C 
HETATM    5  C5  UNL     1     -34.259  16.178  -5.118  1.00 20.00     0.041 C 
HETATM    6  C6  UNL     1     -34.003  14.737  -5.643  1.00 20.00     0.119 C 
HETATM    7  C7  UNL     1     -33.884  15.659  -3.749  1.00 20.00    -0.036 C 
ENDROOT
BRANCH   6   8
HETATM    8  O8  UNL     1     -33.267  14.635  -6.873  1.00 20.00    -0.396 OA
HETATM    9  H20 UNL     1     -33.788  14.055  -7.445  1.00 20.00     0.210 HD
ENDBRANCH   6   8
TORSDOF 1
ENDMDL
MODEL 2
REMARK VINA RESULT:      -4.4      1.498      1.498
REMARK  1 active torsions:
REMARK  status: ('A' for Active; 'I' for Inactive)
REMARK    1  A    between atoms: C6_6  and  O8_8 
ROOT
HETATM    1  C1  UNL     1     -33.803  16.808  -2.273  1.00 20.00     0.002 C 
HETATM    2  C2  UNL     1     -35.037  15.869  -2.285  1.00 20.00     0.010 C 
HETATM    3  C3  UNL     1     -33.135  15.861  -3.304  1.00 20.00     0.010 C 
HETATM    4  C4  UNL     1     -34.745  13.916  -3.981  1.00 20.00     0.041 C 
HETATM    5  C5  UNL     1     -35.213  15.829  -4.873  1.00 20.00     0.041 C 
HETATM    6  C6  UNL     1     -35.851  14.413  -4.954  1.00 20.00     0.119 C 
HETATM    7  C7  UNL     1     -34.523  15.358  -3.614  1.00 20.00    -0.036 C 
ENDROOT
BRANCH   6   8
HETATM    8  O8  UNL     1     -35.861  13.799  -6.253  1.00 20.00    -0.396 OA
HETATM    9  H20 UNL     1     -35.018  14.035  -6.663  1.00 20.00     0.210 HD
ENDBRANCH   6   8
TORSDOF 1
ENDMDL
MODEL 3
REMARK VINA RESULT:      -4.2     17.695     18.419
REMARK  1 active torsions:
REMARK  status: ('A' for Active; 'I' for Inactive)
REMARK    1  A    between atoms: C6_6  and  O8_8 
ROOT
HETATM    1  C1  UNL     1     -22.074  17.978  10.085  1.00 20.00     0.002 C 
HETATM    2  C2  UNL     1     -22.519  17.654  11.534  1.00 20.00     0.010 C 
HETATM    3  C3  UNL     1     -23.122  16.949   9.586  1.00 20.00     0.010 C 
HETATM    4  C4  UNL     1     -24.482  15.944  11.579  1.00 20.00     0.041 C 
HETATM    5  C5  UNL     1     -25.045  17.957  11.024  1.00 20.00     0.041 C 
HETATM    6  C6  UNL     1     -25.534  16.958  12.111  1.00 20.00     0.119 C 
HETATM    7  C7  UNL     1     -23.795  17.113  10.925  1.00 20.00    -0.036 C 
ENDROOT
BRANCH   6   8
HETATM    8  O8  UNL     1     -26.906  16.542  12.014  1.00 20.00    -0.396 OA
HETATM    9  H20 UNL     1     -27.189  16.772  11.119  1.00 20.00     0.210 HD
ENDBRANCH   6   8
TORSDOF 1
ENDMDL
MODEL 4
REMARK VINA RESULT:      -4.2      2.339      2.886
REMARK  1 active torsions:
REMARK  status: ('A' for Active; 'I' for Inactive)
REMARK    1  A    between atoms: C6_6  and  O8_8 
ROOT
HETATM    1  C1  UNL     1     -33.217  16.260  -3.079  1.00 20.00     0.002 C 
HETATM    2  C2  UNL     1     -34.080  16.345  -4.365  1.00 20.00     0.010 C 
HETATM    3  C3  UNL     1     -34.518  15.973  -2.285  1.00 20.00     0.010 C 
HETATM    4  C4  UNL     1     -36.586  15.837  -3.876  1.00 20.00     0.041 C 
HETATM    5  C5  UNL     1     -35.300  14.099  -3.915  1.00 20.00     0.041 C 
HETATM    6  C6  UNL     1     -36.608  14.492  -4.658  1.00 20.00     0.119 C 
HETATM    7  C7  UNL     1     -35.132  15.568  -3.601  1.00 20.00    -0.036 C 
ENDROOT
BRANCH   6   8
HETATM    8  O8  UNL     1     -37.747  13.650  -4.419  1.00 20.00    -0.396 OA
HETATM    9  H20 UNL     1     -38.376  14.191  -3.922  1.00 20.00     0.210 HD
ENDBRANCH   6   8
TORSDOF 1
ENDMDL
MODEL 5
REMARK VINA RESULT:      -4.2      1.452      1.822
REMARK  1 active torsions:
REMARK  status: ('A' for Active; 'I' for Inactive)
REMARK    1  A    between atoms: C6_6  and  O8_8 
ROOT
HETATM    1  C1  UNL     1     -35.280  17.585  -2.506  1.00 20.00     0.002 C 
HETATM    2  C2  UNL     1     -35.318  16.937  -3.914  1.00 20.00     0.010 C 
HETATM    3  C3  UNL     1     -35.001  16.176  -1.920  1.00 20.00     0.010 C 
HETATM    4  C4  UNL     1     -34.796  14.388  -3.815  1.00 20.00     0.041 C 
HETATM    5  C5  UNL     1     -33.073  15.676  -3.596  1.00 20.00     0.041 C 
HETATM    6  C6  UNL     1     -33.430  14.500  -4.549  1.00 20.00     0.119 C 
HETATM    7  C7  UNL     1     -34.552  15.782  -3.304  1.00 20.00    -0.036 C 
ENDROOT
BRANCH   6   8
HETATM    8  O8  UNL     1     -32.581  13.342  -4.468  1.00 20.00    -0.396 OA
HETATM    9  H20 UNL     1     -32.038  13.468  -3.678  1.00 20.00     0.210 HD
ENDBRANCH   6   8
TORSDOF 1
ENDMDL
MODEL 6
REMARK VINA RESULT:      -4.2     11.537     12.604
REMARK  1 active torsions:
REMARK  status: ('A' for Active; 'I' for Inactive)
REMARK    1  A    between atoms: C6_6  and  O8_8 
ROOT
HETATM    1  C1  UNL     1     -42.371   4.835  -1.482  1.00 20.00     0.002 C 
HETATM    2  C2  UNL     1     -41.065   5.564  -1.071  1.00 20.00     0.010 C 
HETATM    3  C3  UNL     1     -43.124   5.700  -0.438  1.00 20.00     0.010 C 
HETATM    4  C4  UNL     1     -41.513   7.405   0.714  1.00 20.00     0.041 C 
HETATM    5  C5  UNL     1     -42.098   7.933  -1.300  1.00 20.00     0.041 C 
HETATM    6  C6  UNL     1     -41.183   8.595  -0.232  1.00 20.00     0.119 C 
HETATM    7  C7  UNL     1     -41.957   6.652  -0.511  1.00 20.00    -0.036 C 
ENDROOT
BRANCH   6   8
HETATM    8  O8  UNL     1     -41.590   9.893   0.232  1.00 20.00    -0.396 OA
HETATM    9  H20 UNL     1     -42.450  10.061  -0.177  1.00 20.00     0.210 HD
ENDBRANCH   6   8
TORSDOF 1
ENDMDL
MODEL 7
REMARK VINA RESULT:      -4.0     16.754     18.013
REMARK  1 active torsions:
REMARK  status: ('A' for Active; 'I' for Inactive)
REMARK    1  A    between atoms: C6_6  and  O8_8 
ROOT
HETATM    1  C1  UNL     1     -23.560  18.564   7.722  1.00 20.00     0.002 C 
HETATM    2  C2  UNL     1     -23.954  18.973   9.165  1.00 20.00     0.010 C 
HETATM    3  C3  UNL     1     -22.451  17.668   8.334  1.00 20.00     0.010 C 
HETATM    4  C4  UNL     1     -22.522  17.727  10.945  1.00 20.00     0.041 C 
HETATM    5  C5  UNL     1     -24.069  16.529  10.026  1.00 20.00     0.041 C 
HETATM    6  C6  UNL     1     -23.700  16.874  11.496  1.00 20.00     0.119 C 
HETATM    7  C7  UNL     1     -23.234  17.722   9.621  1.00 20.00    -0.036 C 
ENDROOT
BRANCH   6   8
HETATM    8  O8  UNL     1     -23.331  15.765  12.332  1.00 20.00    -0.396 OA
HETATM    9  H20 UNL     1     -23.471  16.062  13.241  1.00 20.00     0.210 HD
ENDBRANCH   6   8
TORSDOF 1
ENDMDL
MODEL 8
REMARK VINA RESULT:      -4.0     11.673     12.352
REMARK  1 active torsions:
REMARK  status: ('A' for Active; 'I' for Inactive)
REMARK    1  A    between atoms: C6_6  and  O8_8 
ROOT
HETATM    1  C1  UNL     1     -42.500   9.120   0.201  1.00 20.00     0.002 C 
HETATM    2  C2  UNL     1     -43.189   7.771  -0.126  1.00 20.00     0.010 C 
HETATM    3  C3  UNL     1     -41.269   8.315   0.696  1.00 20.00     0.010 C 
HETATM    4  C4  UNL     1     -41.623   5.748   0.357  1.00 20.00     0.041 C 
HETATM    5  C5  UNL     1     -41.159   6.843  -1.449  1.00 20.00     0.041 C 
HETATM    6  C6  UNL     1     -41.452   5.348  -1.136  1.00 20.00     0.119 C 
HETATM    7  C7  UNL     1     -41.802   7.164  -0.119  1.00 20.00    -0.036 C 
ENDROOT
BRANCH   6   8
HETATM    8  O8  UNL     1     -40.387   4.424  -1.417  1.00 20.00    -0.396 OA
HETATM    9  H20 UNL     1     -39.621   4.748  -0.926  1.00 20.00     0.210 HD
ENDBRANCH   6   8
TORSDOF 1
ENDMDL
MODEL 9
REMARK VINA RESULT:      -4.0     11.841     12.683
REMARK  1 active torsions:
REMARK  status: ('A' for Active; 'I' for Inactive)
REMARK    1  A    between atoms: C6_6  and  O8_8 
ROOT
HETATM    1  C1  UNL     1     -41.849   8.770   0.150  1.00 20.00     0.002 C 
HETATM    2  C2  UNL     1     -41.825   7.351   0.775  1.00 20.00     0.010 C 
HETATM    3  C3  UNL     1     -41.245   8.157  -1.141  1.00 20.00     0.010 C 
HETATM    4  C4  UNL     1     -40.971   5.568  -0.919  1.00 20.00     0.041 C 
HETATM    5  C5  UNL     1     -43.000   6.236  -1.253  1.00 20.00     0.041 C 
HETATM    6  C6  UNL     1     -42.340   4.843  -1.056  1.00 20.00     0.119 C 
HETATM    7  C7  UNL     1     -41.748   6.826  -0.643  1.00 20.00    -0.036 C 
ENDROOT
BRANCH   6   8
HETATM    8  O8  UNL     1     -42.454   3.928  -2.159  1.00 20.00    -0.396 OA
HETATM    9  H20 UNL     1     -43.312   4.111  -2.564  1.00 20.00     0.210 HD
ENDBRANCH   6   8
TORSDOF 1
ENDMDL
