MODEL 1
REMARK VINA RESULT:      -5.1      0.000      0.000
REMARK  0 active torsions:
REMARK  status: ('A' for Active; 'I' for Inactive)
ROOT
HETATM    1  C1  UNL     1     -21.979  17.236   8.300  1.00 20.00     0.128 C 
HETATM    2  C2  UNL     1     -23.177  16.712   9.107  1.00 20.00     0.088 C 
HETATM    3  C3  UNL     1     -21.695  18.340   9.330  1.00 20.00     0.088 C 
HETATM    4  C4  UNL     1     -25.793  19.256  11.327  1.00 20.00     0.000 C 
HETATM    5  C5  UNL     1     -25.482  18.152  12.332  1.00 20.00     0.000 C 
HETATM    6  C6  UNL     1     -25.559  18.891   9.864  1.00 20.00     0.001 C 
HETATM    7  C7  UNL     1     -24.324  17.216  12.002  1.00 20.00     0.001 C 
HETATM    8  C8  UNL     1     -24.115  19.130   9.426  1.00 20.00     0.010 C 
HETATM    9  C9  UNL     1     -23.078  17.900  11.445  1.00 20.00     0.010 C 
HETATM   10  C10 UNL     1     -23.128  18.059   9.919  1.00 20.00    -0.027 C 
HETATM   11  O11 UNL     1     -21.464  16.911   7.251  1.00 20.00    -0.298 OA
ENDROOT
TORSDOF 0
ENDMDL
MODEL 2
REMARK VINA RESULT:      -4.9     16.500     17.682
REMARK  0 active torsions:
REMARK  status: ('A' for Active; 'I' for Inactive)
ROOT
HETATM    1  C1  UNL     1     -35.590  14.497  -5.164  1.00 20.00     0.128 C 
HETATM    2  C2  UNL     1     -35.692  15.925  -4.606  1.00 20.00     0.088 C 
HETATM    3  C3  UNL     1     -34.980  13.969  -3.857  1.00 20.00     0.088 C 
HETATM    4  C4  UNL     1     -32.807  17.607  -1.944  1.00 20.00     0.000 C 
HETATM    5  C5  UNL     1     -34.124  17.958  -1.260  1.00 20.00     0.000 C 
HETATM    6  C6  UNL     1     -32.909  17.293  -3.433  1.00 20.00     0.001 C 
HETATM    7  C7  UNL     1     -35.378  17.249  -1.760  1.00 20.00     0.001 C 
HETATM    8  C8  UNL     1     -33.243  15.826  -3.699  1.00 20.00     0.010 C 
HETATM    9  C9  UNL     1     -35.213  15.756  -2.031  1.00 20.00     0.010 C 
HETATM   10  C10 UNL     1     -34.719  15.470  -3.457  1.00 20.00    -0.027 C 
HETATM   11  O11 UNL     1     -35.871  13.987  -6.227  1.00 20.00    -0.298 OA
ENDROOT
TORSDOF 0
ENDMDL
MODEL 3
REMARK VINA RESULT:      -4.9     16.712     17.968
REMARK  0 active torsions:
REMARK  status: ('A' for Active; 'I' for Inactive)
ROOT
HETATM    1  C1  UNL     1     -36.822  14.477  -4.279  1.00 20.00     0.128 C 
HETATM    2  C2  UNL     1     -35.498  14.449  -3.500  1.00 20.00     0.088 C 
HETATM    3  C3  UNL     1     -36.614  15.941  -4.692  1.00 20.00     0.088 C 
HETATM    4  C4  UNL     1     -33.980  17.812  -1.349  1.00 20.00     0.000 C 
HETATM    5  C5  UNL     1     -32.758  17.351  -2.137  1.00 20.00     0.000 C 
HETATM    6  C6  UNL     1     -35.070  16.762  -1.163  1.00 20.00     0.001 C 
HETATM    7  C7  UNL     1     -32.994  16.353  -3.266  1.00 20.00     0.001 C 
HETATM    8  C8  UNL     1     -36.050  16.722  -2.333  1.00 20.00     0.010 C 
HETATM    9  C9  UNL     1     -34.209  16.643  -4.143  1.00 20.00     0.010 C 
HETATM   10  C10 UNL     1     -35.497  16.020  -3.585  1.00 20.00    -0.027 C 
HETATM   11  O11 UNL     1     -37.697  13.662  -4.479  1.00 20.00    -0.298 OA
ENDROOT
TORSDOF 0
ENDMDL
MODEL 4
REMARK VINA RESULT:      -4.8     16.978     18.257
REMARK  0 active torsions:
REMARK  status: ('A' for Active; 'I' for Inactive)
ROOT
HETATM    1  C1  UNL     1     -35.700  13.784  -4.408  1.00 20.00     0.128 C 
HETATM    2  C2  UNL     1     -34.577  14.716  -4.889  1.00 20.00     0.088 C 
HETATM    3  C3  UNL     1     -36.480  14.951  -3.785  1.00 20.00     0.088 C 
HETATM    4  C4  UNL     1     -33.278  18.140  -2.691  1.00 20.00     0.000 C 
HETATM    5  C5  UNL     1     -33.441  18.701  -4.100  1.00 20.00     0.000 C 
HETATM    6  C6  UNL     1     -33.114  16.626  -2.607  1.00 20.00     0.001 C 
HETATM    7  C7  UNL     1     -34.196  17.840  -5.108  1.00 20.00     0.001 C 
HETATM    8  C8  UNL     1     -34.455  15.895  -2.560  1.00 20.00     0.010 C 
HETATM    9  C9  UNL     1     -35.456  17.169  -4.570  1.00 20.00     0.010 C 
HETATM   10  C10 UNL     1     -35.165  15.808  -3.921  1.00 20.00    -0.027 C 
HETATM   11  O11 UNL     1     -35.889  12.589  -4.481  1.00 20.00    -0.298 OA
ENDROOT
TORSDOF 0
ENDMDL
MODEL 5
REMARK VINA RESULT:      -4.7     16.722     17.869
REMARK  0 active torsions:
REMARK  status: ('A' for Active; 'I' for Inactive)
ROOT
HETATM    1  C1  UNL     1     -35.239  13.784  -4.131  1.00 20.00     0.128 C 
HETATM    2  C2  UNL     1     -35.636  15.028  -3.321  1.00 20.00     0.088 C 
HETATM    3  C3  UNL     1     -33.796  14.281  -4.296  1.00 20.00     0.088 C 
HETATM    4  C4  UNL     1     -34.048  18.919  -4.088  1.00 20.00     0.000 C 
HETATM    5  C5  UNL     1     -33.900  18.799  -2.575  1.00 20.00     0.000 C 
HETATM    6  C6  UNL     1     -35.075  17.983  -4.718  1.00 20.00     0.001 C 
HETATM    7  C7  UNL     1     -34.076  17.412  -1.966  1.00 20.00     0.001 C 
HETATM    8  C8  UNL     1     -34.488  16.613  -5.054  1.00 20.00     0.010 C 
HETATM    9  C9  UNL     1     -33.403  16.278  -2.734  1.00 20.00     0.010 C 
HETATM   10  C10 UNL     1     -34.306  15.697  -3.832  1.00 20.00    -0.027 C 
HETATM   11  O11 UNL     1     -35.838  12.798  -4.504  1.00 20.00    -0.298 OA
ENDROOT
TORSDOF 0
ENDMDL
MODEL 6
REMARK VINA RESULT:      -4.6     16.960     18.173
REMARK  0 active torsions:
REMARK  status: ('A' for Active; 'I' for Inactive)
ROOT
HETATM    1  C1  UNL     1     -36.543  14.354  -4.123  1.00 20.00     0.128 C 
HETATM    2  C2  UNL     1     -36.434  15.732  -3.451  1.00 20.00     0.088 C 
HETATM    3  C3  UNL     1     -35.023  14.146  -4.075  1.00 20.00     0.088 C 
HETATM    4  C4  UNL     1     -33.183  18.416  -4.140  1.00 20.00     0.000 C 
HETATM    5  C5  UNL     1     -33.293  18.422  -2.619  1.00 20.00     0.000 C 
HETATM    6  C6  UNL     1     -34.434  17.956  -4.883  1.00 20.00     0.001 C 
HETATM    7  C7  UNL     1     -34.149  17.333  -1.979  1.00 20.00     0.001 C 
HETATM    8  C8  UNL     1     -34.491  16.439  -5.050  1.00 20.00     0.010 C 
HETATM    9  C9  UNL     1     -33.970  15.938  -2.571  1.00 20.00     0.010 C 
HETATM   10  C10 UNL     1     -34.894  15.686  -3.771  1.00 20.00    -0.027 C 
HETATM   11  O11 UNL     1     -37.470  13.693  -4.539  1.00 20.00    -0.298 OA
ENDROOT
TORSDOF 0
ENDMDL
MODEL 7
REMARK VINA RESULT:      -4.5      2.700      4.342
REMARK  0 active torsions:
REMARK  status: ('A' for Active; 'I' for Inactive)
ROOT
HETATM    1  C1  UNL     1     -26.579  17.897  12.180  1.00 20.00     0.128 C 
HETATM    2  C2  UNL     1     -25.261  18.686  12.190  1.00 20.00     0.088 C 
HETATM    3  C3  UNL     1     -25.852  16.576  11.887  1.00 20.00     0.088 C 
HETATM    4  C4  UNL     1     -21.968  17.770   9.628  1.00 20.00     0.000 C 
HETATM    5  C5  UNL     1     -21.293  17.913  10.987  1.00 20.00     0.000 C 
HETATM    6  C6  UNL     1     -23.332  18.442   9.503  1.00 20.00     0.001 C 
HETATM    7  C7  UNL     1     -22.197  17.935  12.215  1.00 20.00     0.001 C 
HETATM    8  C8  UNL     1     -24.473  17.543   9.976  1.00 20.00     0.010 C 
HETATM    9  C9  UNL     1     -23.328  16.910  12.203  1.00 20.00     0.010 C 
HETATM   10  C10 UNL     1     -24.591  17.438  11.506  1.00 20.00    -0.027 C 
HETATM   11  O11 UNL     1     -27.743  18.202  12.332  1.00 20.00    -0.298 OA
ENDROOT
TORSDOF 0
ENDMDL
MODEL 8
REMARK VINA RESULT:      -4.5     15.764     16.907
REMARK  0 active torsions:
REMARK  status: ('A' for Active; 'I' for Inactive)
ROOT
HETATM    1  C1  UNL     1     -33.992  15.308  -5.138  1.00 20.00     0.128 C 
HETATM    2  C2  UNL     1     -33.308  15.406  -3.765  1.00 20.00     0.088 C 
HETATM    3  C3  UNL     1     -34.409  16.786  -5.099  1.00 20.00     0.088 C 
HETATM    4  C4  UNL     1     -34.780  17.853  -0.589  1.00 20.00     0.000 C 
HETATM    5  C5  UNL     1     -33.297  18.207  -0.612  1.00 20.00     0.000 C 
HETATM    6  C6  UNL     1     -35.143  16.521  -1.238  1.00 20.00     0.001 C 
HETATM    7  C7  UNL     1     -32.493  17.759  -1.829  1.00 20.00     0.001 C 
HETATM    8  C8  UNL     1     -35.369  16.646  -2.743  1.00 20.00     0.010 C 
HETATM    9  C9  UNL     1     -33.187  17.960  -3.173  1.00 20.00     0.010 C 
HETATM   10  C10 UNL     1     -34.072  16.766  -3.561  1.00 20.00    -0.027 C 
HETATM   11  O11 UNL     1     -34.152  14.409  -5.936  1.00 20.00    -0.298 OA
ENDROOT
TORSDOF 0
ENDMDL
MODEL 9
REMARK VINA RESULT:      -4.5     16.348     17.659
REMARK  0 active torsions:
REMARK  status: ('A' for Active; 'I' for Inactive)
ROOT
HETATM    1  C1  UNL     1     -33.971  17.445  -1.166  1.00 20.00     0.128 C 
HETATM    2  C2  UNL     1     -33.137  16.980  -2.370  1.00 20.00     0.088 C 
HETATM    3  C3  UNL     1     -35.160  16.564  -1.577  1.00 20.00     0.088 C 
HETATM    4  C4  UNL     1     -34.833  16.114  -6.193  1.00 20.00     0.000 C 
HETATM    5  C5  UNL     1     -33.939  14.902  -5.952  1.00 20.00     0.000 C 
HETATM    6  C6  UNL     1     -34.485  17.354  -5.377  1.00 20.00     0.001 C 
HETATM    7  C7  UNL     1     -33.403  14.704  -4.538  1.00 20.00     0.001 C 
HETATM    8  C8  UNL     1     -35.146  17.352  -4.000  1.00 20.00     0.010 C 
HETATM    9  C9  UNL     1     -34.416  14.944  -3.422  1.00 20.00     0.010 C 
HETATM   10  C10 UNL     1     -34.471  16.415  -2.985  1.00 20.00    -0.027 C 
HETATM   11  O11 UNL     1     -33.772  18.216  -0.253  1.00 20.00    -0.298 OA
ENDROOT
TORSDOF 0
ENDMDL
