MODEL 1
REMARK VINA RESULT:      -4.0      0.000      0.000
REMARK  3 active torsions:
REMARK  status: ('A' for Active; 'I' for Inactive)
REMARK    1  A    between atoms: C3_3  and  C6_6 
REMARK    2  A    between atoms: C5_5  and  C6_6 
REMARK    3  A    between atoms: C5_5  and  O7_7 
ROOT
HETATM    1  C6  UNL     1     -33.659   6.137   3.484  1.00 20.00     0.110 C 
HETATM    2 CL8  UNL     1     -33.322   4.695   2.454  1.00 20.00    -0.122 Cl
ENDROOT
BRANCH   1   3
HETATM    3  C3  UNL     1     -33.650   5.751   4.922  1.00 20.00     0.006 A 
HETATM    4  C1  UNL     1     -34.225   6.675   5.959  1.00 20.00     0.006 A 
HETATM    5  C2  UNL     1     -34.934   5.394   5.618  1.00 20.00     0.006 A 
ENDBRANCH   1   3
BRANCH   1   6
HETATM    6  C5  UNL     1     -32.626   7.230   3.158  1.00 20.00     0.187 C 
BRANCH   6   7
HETATM    7  O7  UNL     1     -32.287   7.208   1.777  1.00 20.00    -0.394 OA
HETATM    8  C4  UNL     1     -32.757   8.369   1.107  1.00 20.00     0.201 C 
ENDBRANCH   6   7
ENDBRANCH   1   6
TORSDOF 3
ENDMDL
MODEL 2
REMARK VINA RESULT:      -3.6      1.616      1.753
REMARK  3 active torsions:
REMARK  status: ('A' for Active; 'I' for Inactive)
REMARK    1  A    between atoms: C3_3  and  C6_6 
REMARK    2  A    between atoms: C5_5  and  C6_6 
REMARK    3  A    between atoms: C5_5  and  O7_7 
ROOT
HETATM    1  C6  UNL     1     -32.980   6.495   3.734  1.00 20.00     0.110 C 
HETATM    2 CL8  UNL     1     -31.977   7.872   4.325  1.00 20.00    -0.122 Cl
ENDROOT
BRANCH   1   3
HETATM    3  C3  UNL     1     -34.310   6.507   4.403  1.00 20.00     0.006 A 
HETATM    4  C1  UNL     1     -35.140   5.255   4.464  1.00 20.00     0.006 A 
HETATM    5  C2  UNL     1     -34.505   5.796   5.714  1.00 20.00     0.006 A 
ENDBRANCH   1   3
BRANCH   1   6
HETATM    6  C5  UNL     1     -33.087   6.582   2.202  1.00 20.00     0.187 C 
BRANCH   6   7
HETATM    7  O7  UNL     1     -32.204   7.572   1.690  1.00 20.00    -0.394 OA
HETATM    8  C4  UNL     1     -32.871   8.457   0.802  1.00 20.00     0.201 C 
ENDBRANCH   6   7
ENDBRANCH   1   6
TORSDOF 3
ENDMDL
MODEL 3
REMARK VINA RESULT:      -3.4     11.370     12.098
REMARK  3 active torsions:
REMARK  status: ('A' for Active; 'I' for Inactive)
REMARK    1  A    between atoms: C3_3  and  C6_6 
REMARK    2  A    between atoms: C5_5  and  C6_6 
REMARK    3  A    between atoms: C5_5  and  O7_7 
ROOT
HETATM    1  C6  UNL     1     -35.536  15.235  -4.219  1.00 20.00     0.110 C 
HETATM    2 CL8  UNL     1     -36.140  13.573  -4.573  1.00 20.00    -0.122 Cl
ENDROOT
BRANCH   1   3
HETATM    3  C3  UNL     1     -34.685  15.220  -2.998  1.00 20.00     0.006 A 
HETATM    4  C1  UNL     1     -33.734  16.351  -2.722  1.00 20.00     0.006 A 
HETATM    5  C2  UNL     1     -34.960  16.177  -1.871  1.00 20.00     0.006 A 
ENDBRANCH   1   3
BRANCH   1   6
HETATM    6  C5  UNL     1     -34.788  15.763  -5.456  1.00 20.00     0.187 C 
BRANCH   6   7
HETATM    7  O7  UNL     1     -34.155  14.700  -6.155  1.00 20.00    -0.394 OA
HETATM    8  C4  UNL     1     -33.823  15.075  -7.484  1.00 20.00     0.201 C 
ENDBRANCH   6   7
ENDBRANCH   1   6
TORSDOF 3
ENDMDL
MODEL 4
REMARK VINA RESULT:      -3.4     16.187     16.956
REMARK  3 active torsions:
REMARK  status: ('A' for Active; 'I' for Inactive)
REMARK    1  A    between atoms: C3_3  and  C6_6 
REMARK    2  A    between atoms: C5_5  and  C6_6 
REMARK    3  A    between atoms: C5_5  and  O7_7 
ROOT
HETATM    1  C6  UNL     1     -23.796  17.964   9.990  1.00 20.00     0.110 C 
HETATM    2 CL8  UNL     1     -25.234  19.041   9.836  1.00 20.00    -0.122 Cl
ENDROOT
BRANCH   1   3
HETATM    3  C3  UNL     1     -22.695  18.452   9.114  1.00 20.00     0.006 A 
HETATM    4  C1  UNL     1     -21.293  17.947   9.305  1.00 20.00     0.006 A 
HETATM    5  C2  UNL     1     -22.079  17.539   8.091  1.00 20.00     0.006 A 
ENDBRANCH   1   3
BRANCH   1   6
HETATM    6  C5  UNL     1     -23.386  17.893  11.471  1.00 20.00     0.187 C 
BRANCH   6   7
HETATM    7  O7  UNL     1     -23.368  16.545  11.925  1.00 20.00    -0.394 OA
HETATM    8  C4  UNL     1     -24.583  15.876  11.620  1.00 20.00     0.201 C 
ENDBRANCH   6   7
ENDBRANCH   1   6
TORSDOF 3
ENDMDL
MODEL 5
REMARK VINA RESULT:      -3.4     16.077     16.655
REMARK  3 active torsions:
REMARK  status: ('A' for Active; 'I' for Inactive)
REMARK    1  A    between atoms: C3_3  and  C6_6 
REMARK    2  A    between atoms: C5_5  and  C6_6 
REMARK    3  A    between atoms: C5_5  and  O7_7 
ROOT
HETATM    1  C6  UNL     1     -23.615  16.941  11.307  1.00 20.00     0.110 C 
HETATM    2 CL8  UNL     1     -24.668  15.510  11.613  1.00 20.00    -0.122 Cl
ENDROOT
BRANCH   1   3
HETATM    3  C3  UNL     1     -23.589  17.256   9.853  1.00 20.00     0.006 A 
HETATM    4  C1  UNL     1     -22.828  18.450   9.348  1.00 20.00     0.006 A 
HETATM    5  C2  UNL     1     -22.327  17.063   9.057  1.00 20.00     0.006 A 
ENDBRANCH   1   3
BRANCH   1   6
HETATM    6  C5  UNL     1     -24.120  18.119  12.159  1.00 20.00     0.187 C 
BRANCH   6   7
HETATM    7  O7  UNL     1     -25.530  18.050  12.329  1.00 20.00    -0.394 OA
HETATM    8  C4  UNL     1     -26.181  19.172  11.750  1.00 20.00     0.201 C 
ENDBRANCH   6   7
ENDBRANCH   1   6
TORSDOF 3
ENDMDL
MODEL 6
REMARK VINA RESULT:      -3.4     11.732     12.331
REMARK  3 active torsions:
REMARK  status: ('A' for Active; 'I' for Inactive)
REMARK    1  A    between atoms: C3_3  and  C6_6 
REMARK    2  A    between atoms: C5_5  and  C6_6 
REMARK    3  A    between atoms: C5_5  and  O7_7 
ROOT
HETATM    1  C6  UNL     1     -35.557  15.316  -4.372  1.00 20.00     0.110 C 
HETATM    2 CL8  UNL     1     -36.687  16.351  -3.421  1.00 20.00    -0.122 Cl
ENDROOT
BRANCH   1   3
HETATM    3  C3  UNL     1     -34.353  14.993  -3.558  1.00 20.00     0.006 A 
HETATM    4  C1  UNL     1     -33.043  14.690  -4.229  1.00 20.00     0.006 A 
HETATM    5  C2  UNL     1     -33.216  15.972  -3.465  1.00 20.00     0.006 A 
ENDBRANCH   1   3
BRANCH   1   6
HETATM    6  C5  UNL     1     -36.311  14.060  -4.840  1.00 20.00     0.187 C 
BRANCH   6   7
HETATM    7  O7  UNL     1     -35.993  13.755  -6.192  1.00 20.00    -0.394 OA
HETATM    8  C4  UNL     1     -35.696  14.928  -6.935  1.00 20.00     0.201 C 
ENDBRANCH   6   7
ENDBRANCH   1   6
TORSDOF 3
ENDMDL
MODEL 7
REMARK VINA RESULT:      -3.3     11.645     12.180
REMARK  3 active torsions:
REMARK  status: ('A' for Active; 'I' for Inactive)
REMARK    1  A    between atoms: C3_3  and  C6_6 
REMARK    2  A    between atoms: C5_5  and  C6_6 
REMARK    3  A    between atoms: C5_5  and  O7_7 
ROOT
HETATM    1  C6  UNL     1     -34.885  14.542  -4.872  1.00 20.00     0.110 C 
HETATM    2 CL8  UNL     1     -35.271  14.972  -6.581  1.00 20.00    -0.122 Cl
ENDROOT
BRANCH   1   3
HETATM    3  C3  UNL     1     -34.640  15.776  -4.077  1.00 20.00     0.006 A 
HETATM    4  C1  UNL     1     -34.634  15.722  -2.575  1.00 20.00     0.006 A 
HETATM    5  C2  UNL     1     -33.350  15.947  -3.323  1.00 20.00     0.006 A 
ENDBRANCH   1   3
BRANCH   1   6
HETATM    6  C5  UNL     1     -36.034  13.690  -4.305  1.00 20.00     0.187 C 
BRANCH   6   7
HETATM    7  O7  UNL     1     -37.240  13.931  -5.018  1.00 20.00    -0.394 OA
HETATM    8  C4  UNL     1     -38.161  14.686  -4.245  1.00 20.00     0.201 C 
ENDBRANCH   6   7
ENDBRANCH   1   6
TORSDOF 3
ENDMDL
MODEL 8
REMARK VINA RESULT:      -3.3     11.486     12.892
REMARK  3 active torsions:
REMARK  status: ('A' for Active; 'I' for Inactive)
REMARK    1  A    between atoms: C3_3  and  C6_6 
REMARK    2  A    between atoms: C5_5  and  C6_6 
REMARK    3  A    between atoms: C5_5  and  O7_7 
ROOT
HETATM    1  C6  UNL     1     -35.563  15.029  -4.547  1.00 20.00     0.110 C 
HETATM    2 CL8  UNL     1     -34.747  15.318  -2.965  1.00 20.00    -0.122 Cl
ENDROOT
BRANCH   1   3
HETATM    3  C3  UNL     1     -34.601  15.232  -5.663  1.00 20.00     0.006 A 
HETATM    4  C1  UNL     1     -35.061  15.127  -7.091  1.00 20.00     0.006 A 
HETATM    5  C2  UNL     1     -34.684  16.466  -6.520  1.00 20.00     0.006 A 
ENDBRANCH   1   3
BRANCH   1   6
HETATM    6  C5  UNL     1     -36.170  13.615  -4.539  1.00 20.00     0.187 C 
BRANCH   6   7
HETATM    7  O7  UNL     1     -37.589  13.675  -4.471  1.00 20.00    -0.394 OA
HETATM    8  C4  UNL     1     -38.047  15.010  -4.313  1.00 20.00     0.201 C 
ENDBRANCH   6   7
ENDBRANCH   1   6
TORSDOF 3
ENDMDL
MODEL 9
REMARK VINA RESULT:      -3.2      2.022      3.724
REMARK  3 active torsions:
REMARK  status: ('A' for Active; 'I' for Inactive)
REMARK    1  A    between atoms: C3_3  and  C6_6 
REMARK    2  A    between atoms: C5_5  and  C6_6 
REMARK    3  A    between atoms: C5_5  and  O7_7 
ROOT
HETATM    1  C6  UNL     1     -33.508   5.422   3.479  1.00 20.00     0.110 C 
HETATM    2 CL8  UNL     1     -33.252   4.381   2.030  1.00 20.00    -0.122 Cl
ENDROOT
BRANCH   1   3
HETATM    3  C3  UNL     1     -33.298   6.853   3.125  1.00 20.00     0.006 A 
HETATM    4  C1  UNL     1     -31.977   7.516   3.399  1.00 20.00     0.006 A 
HETATM    5  C2  UNL     1     -32.392   7.226   1.984  1.00 20.00     0.006 A 
ENDBRANCH   1   3
BRANCH   1   6
HETATM    6  C5  UNL     1     -34.915   5.151   4.041  1.00 20.00     0.187 C 
BRANCH   6   7
HETATM    7  O7  UNL     1     -34.855   4.860   5.431  1.00 20.00    -0.394 OA
HETATM    8  C4  UNL     1     -34.494   6.006   6.189  1.00 20.00     0.201 C 
ENDBRANCH   6   7
ENDBRANCH   1   6
TORSDOF 3
ENDMDL
