MODEL 1
REMARK VINA RESULT:      -4.2      0.000      0.000
REMARK  5 active torsions:
REMARK  status: ('A' for Active; 'I' for Inactive)
REMARK    1  A    between atoms: C4_4  and  C5_5 
REMARK    2  A    between atoms: C4_4  and  O8_8 
REMARK    3  A    between atoms: C5_5  and  S9_9 
REMARK    4  A    between atoms: C6_6  and  C7_7 
REMARK    5  A    between atoms: C7_7  and  O8_8 
ROOT
HETATM    1  C3  UNL     1     -33.278   7.234   5.235  1.00 20.00     0.040 C 
HETATM    2  C7  UNL     1     -34.103   6.584   4.129  1.00 20.00     0.120 C 
ENDROOT
BRANCH   2   3
HETATM    3  C6  UNL     1     -34.844   5.308   4.581  1.00 20.00     0.006 C 
HETATM    4  C1  UNL     1     -34.831   5.130   6.101  1.00 20.00     0.012 C 
HETATM    5  C2  UNL     1     -34.240   4.063   3.918  1.00 20.00     0.012 C 
ENDBRANCH   2   3
BRANCH   2   6
HETATM    6  O8  UNL     1     -33.214   6.239   3.064  1.00 20.00    -0.385 OA
BRANCH   6   7
HETATM    7  C4  UNL     1     -32.363   7.325   2.733  1.00 20.00     0.178 C 
BRANCH   7   8
HETATM    8  C5  UNL     1     -32.316   7.510   1.225  1.00 20.00     0.097 C 
BRANCH   8   9
HETATM    9  S9  UNL     1     -33.000   9.121   0.731  1.00 20.00    -0.180 SA
HETATM   10  H25 UNL     1     -33.204   8.797  -0.553  1.00 20.00     0.101 HD
ENDBRANCH   8   9
ENDBRANCH   7   8
ENDBRANCH   6   7
ENDBRANCH   2   6
TORSDOF 5
ENDMDL
MODEL 2
REMARK VINA RESULT:      -3.6      2.363      4.288
REMARK  5 active torsions:
REMARK  status: ('A' for Active; 'I' for Inactive)
REMARK    1  A    between atoms: C4_4  and  C5_5 
REMARK    2  A    between atoms: C4_4  and  O8_8 
REMARK    3  A    between atoms: C5_5  and  S9_9 
REMARK    4  A    between atoms: C6_6  and  C7_7 
REMARK    5  A    between atoms: C7_7  and  O8_8 
ROOT
HETATM    1  C3  UNL     1     -33.027   4.521   2.419  1.00 20.00     0.040 C 
HETATM    2  C7  UNL     1     -33.468   5.981   2.404  1.00 20.00     0.120 C 
ENDROOT
BRANCH   2   3
HETATM    3  C6  UNL     1     -32.305   6.974   2.206  1.00 20.00     0.006 C 
HETATM    4  C1  UNL     1     -31.828   7.589   3.523  1.00 20.00     0.012 C 
HETATM    5  C2  UNL     1     -32.704   8.096   1.237  1.00 20.00     0.012 C 
ENDBRANCH   2   3
BRANCH   2   6
HETATM    6  O8  UNL     1     -34.097   6.262   3.657  1.00 20.00    -0.385 OA
BRANCH   6   7
HETATM    7  C4  UNL     1     -34.808   5.133   4.140  1.00 20.00     0.178 C 
BRANCH   7   8
HETATM    8  C5  UNL     1     -34.834   5.145   5.660  1.00 20.00     0.097 C 
BRANCH   8   9
HETATM    9  S9  UNL     1     -34.090   6.666   6.325  1.00 20.00    -0.180 SA
HETATM   10  H25 UNL     1     -33.941   6.211   7.577  1.00 20.00     0.101 HD
ENDBRANCH   8   9
ENDBRANCH   7   8
ENDBRANCH   6   7
ENDBRANCH   2   6
TORSDOF 5
ENDMDL
MODEL 3
REMARK VINA RESULT:      -3.5     15.752     16.515
REMARK  5 active torsions:
REMARK  status: ('A' for Active; 'I' for Inactive)
REMARK    1  A    between atoms: C4_4  and  C5_5 
REMARK    2  A    between atoms: C4_4  and  O8_8 
REMARK    3  A    between atoms: C5_5  and  S9_9 
REMARK    4  A    between atoms: C6_6  and  C7_7 
REMARK    5  A    between atoms: C7_7  and  O8_8 
ROOT
HETATM    1  C3  UNL     1     -22.359  17.050   8.722  1.00 20.00     0.040 C 
HETATM    2  C7  UNL     1     -22.536  18.284   9.601  1.00 20.00     0.120 C 
ENDROOT
BRANCH   2   3
HETATM    3  C6  UNL     1     -23.271  17.996  10.926  1.00 20.00     0.006 C 
HETATM    4  C1  UNL     1     -22.309  17.758  12.092  1.00 20.00     0.012 C 
HETATM    5  C2  UNL     1     -24.204  16.786  10.781  1.00 20.00     0.012 C 
ENDBRANCH   2   3
BRANCH   2   6
HETATM    6  O8  UNL     1     -23.291  19.245   8.861  1.00 20.00    -0.385 OA
BRANCH   6   7
HETATM    7  C4  UNL     1     -24.021  18.629   7.812  1.00 20.00     0.178 C 
BRANCH   7   8
HETATM    8  C5  UNL     1     -25.453  19.139   7.804  1.00 20.00     0.097 C 
BRANCH   8   9
HETATM    9  S9  UNL     1     -26.105  19.263   6.110  1.00 20.00    -0.180 SA
HETATM   10  H25 UNL     1     -26.399  20.569   6.171  1.00 20.00     0.101 HD
ENDBRANCH   8   9
ENDBRANCH   7   8
ENDBRANCH   6   7
ENDBRANCH   2   6
TORSDOF 5
ENDMDL
MODEL 4
REMARK VINA RESULT:      -3.4     11.589     12.499
REMARK  5 active torsions:
REMARK  status: ('A' for Active; 'I' for Inactive)
REMARK    1  A    between atoms: C4_4  and  C5_5 
REMARK    2  A    between atoms: C4_4  and  O8_8 
REMARK    3  A    between atoms: C5_5  and  S9_9 
REMARK    4  A    between atoms: C6_6  and  C7_7 
REMARK    5  A    between atoms: C7_7  and  O8_8 
ROOT
HETATM    1  C3  UNL     1     -35.743  13.784  -4.228  1.00 20.00     0.040 C 
HETATM    2  C7  UNL     1     -34.350  14.396  -4.132  1.00 20.00     0.120 C 
ENDROOT
BRANCH   2   3
HETATM    3  C6  UNL     1     -34.341  15.817  -3.531  1.00 20.00     0.006 C 
HETATM    4  C1  UNL     1     -32.925  16.337  -3.276  1.00 20.00     0.012 C 
HETATM    5  C2  UNL     1     -35.143  15.861  -2.223  1.00 20.00     0.012 C 
ENDBRANCH   2   3
BRANCH   2   6
HETATM    6  O8  UNL     1     -33.807  14.458  -5.453  1.00 20.00    -0.385 OA
BRANCH   6   7
HETATM    7  C4  UNL     1     -34.785  14.875  -6.392  1.00 20.00     0.178 C 
BRANCH   7   8
HETATM    8  C5  UNL     1     -34.161  15.818  -7.410  1.00 20.00     0.097 C 
BRANCH   8   9
HETATM    9  S9  UNL     1     -34.504  17.557  -7.002  1.00 20.00    -0.180 SA
HETATM   10  H25 UNL     1     -35.464  17.727  -7.922  1.00 20.00     0.101 HD
ENDBRANCH   8   9
ENDBRANCH   7   8
ENDBRANCH   6   7
ENDBRANCH   2   6
TORSDOF 5
ENDMDL
MODEL 5
REMARK VINA RESULT:      -3.4     11.551     12.405
REMARK  5 active torsions:
REMARK  status: ('A' for Active; 'I' for Inactive)
REMARK    1  A    between atoms: C4_4  and  C5_5 
REMARK    2  A    between atoms: C4_4  and  O8_8 
REMARK    3  A    between atoms: C5_5  and  S9_9 
REMARK    4  A    between atoms: C6_6  and  C7_7 
REMARK    5  A    between atoms: C7_7  and  O8_8 
ROOT
HETATM    1  C3  UNL     1     -36.295  13.975  -4.412  1.00 20.00     0.040 C 
HETATM    2  C7  UNL     1     -34.824  14.141  -4.044  1.00 20.00     0.120 C 
ENDROOT
BRANCH   2   3
HETATM    3  C6  UNL     1     -34.568  15.273  -3.027  1.00 20.00     0.006 C 
HETATM    4  C1  UNL     1     -35.710  16.290  -2.981  1.00 20.00     0.012 C 
HETATM    5  C2  UNL     1     -33.252  15.999  -3.340  1.00 20.00     0.012 C 
ENDBRANCH   2   3
BRANCH   2   6
HETATM    6  O8  UNL     1     -34.103  14.435  -5.243  1.00 20.00    -0.385 OA
BRANCH   6   7
HETATM    7  C4  UNL     1     -34.984  14.775  -6.302  1.00 20.00     0.178 C 
BRANCH   7   8
HETATM    8  C5  UNL     1     -34.359  15.852  -7.175  1.00 20.00     0.097 C 
BRANCH   8   9
HETATM    9  S9  UNL     1     -34.741  17.517  -6.551  1.00 20.00    -0.180 SA
HETATM   10  H25 UNL     1     -34.080  18.179  -7.510  1.00 20.00     0.101 HD
ENDBRANCH   8   9
ENDBRANCH   7   8
ENDBRANCH   6   7
ENDBRANCH   2   6
TORSDOF 5
ENDMDL
MODEL 6
REMARK VINA RESULT:      -3.3     11.460     11.985
REMARK  5 active torsions:
REMARK  status: ('A' for Active; 'I' for Inactive)
REMARK    1  A    between atoms: C4_4  and  C5_5 
REMARK    2  A    between atoms: C4_4  and  O8_8 
REMARK    3  A    between atoms: C5_5  and  S9_9 
REMARK    4  A    between atoms: C6_6  and  C7_7 
REMARK    5  A    between atoms: C7_7  and  O8_8 
ROOT
HETATM    1  C3  UNL     1     -33.018  14.460  -4.458  1.00 20.00     0.040 C 
HETATM    2  C7  UNL     1     -34.245  15.147  -3.868  1.00 20.00     0.120 C 
ENDROOT
BRANCH   2   3
HETATM    3  C6  UNL     1     -33.946  15.947  -2.583  1.00 20.00     0.006 C 
HETATM    4  C1  UNL     1     -35.219  16.373  -1.848  1.00 20.00     0.012 C 
HETATM    5  C2  UNL     1     -33.100  17.188  -2.896  1.00 20.00     0.012 C 
ENDBRANCH   2   3
BRANCH   2   6
HETATM    6  O8  UNL     1     -35.208  14.136  -3.561  1.00 20.00    -0.385 OA
BRANCH   6   7
HETATM    7  C4  UNL     1     -36.038  13.861  -4.678  1.00 20.00     0.178 C 
BRANCH   7   8
HETATM    8  C5  UNL     1     -36.653  15.150  -5.199  1.00 20.00     0.097 C 
BRANCH   8   9
HETATM    9  S9  UNL     1     -38.229  15.519  -4.368  1.00 20.00    -0.180 SA
HETATM   10  H25 UNL     1     -38.387  16.735  -4.906  1.00 20.00     0.101 HD
ENDBRANCH   8   9
ENDBRANCH   7   8
ENDBRANCH   6   7
ENDBRANCH   2   6
TORSDOF 5
ENDMDL
MODEL 7
REMARK VINA RESULT:      -3.2     16.041     16.896
REMARK  5 active torsions:
REMARK  status: ('A' for Active; 'I' for Inactive)
REMARK    1  A    between atoms: C4_4  and  C5_5 
REMARK    2  A    between atoms: C4_4  and  O8_8 
REMARK    3  A    between atoms: C5_5  and  S9_9 
REMARK    4  A    between atoms: C6_6  and  C7_7 
REMARK    5  A    between atoms: C7_7  and  O8_8 
ROOT
HETATM    1  C3  UNL     1     -24.826  18.671   8.033  1.00 20.00     0.040 C 
HETATM    2  C7  UNL     1     -24.007  19.056   9.262  1.00 20.00     0.120 C 
ENDROOT
BRANCH   2   3
HETATM    3  C6  UNL     1     -22.575  18.483   9.252  1.00 20.00     0.006 C 
HETATM    4  C1  UNL     1     -22.328  17.541   8.071  1.00 20.00     0.012 C 
HETATM    5  C2  UNL     1     -22.274  17.744  10.563  1.00 20.00     0.012 C 
ENDBRANCH   2   3
BRANCH   2   6
HETATM    6  O8  UNL     1     -24.688  18.558  10.416  1.00 20.00    -0.385 OA
BRANCH   6   7
HETATM    7  C4  UNL     1     -25.898  19.263  10.642  1.00 20.00     0.178 C 
BRANCH   7   8
HETATM    8  C5  UNL     1     -26.660  18.632  11.797  1.00 20.00     0.097 C 
BRANCH   8   9
HETATM    9  S9  UNL     1     -25.898  17.064  12.318  1.00 20.00    -0.180 SA
HETATM   10  H25 UNL     1     -24.703  17.587  12.624  1.00 20.00     0.101 HD
ENDBRANCH   8   9
ENDBRANCH   7   8
ENDBRANCH   6   7
ENDBRANCH   2   6
TORSDOF 5
ENDMDL
MODEL 8
REMARK VINA RESULT:      -3.2     11.452     12.586
REMARK  5 active torsions:
REMARK  status: ('A' for Active; 'I' for Inactive)
REMARK    1  A    between atoms: C4_4  and  C5_5 
REMARK    2  A    between atoms: C4_4  and  O8_8 
REMARK    3  A    between atoms: C5_5  and  S9_9 
REMARK    4  A    between atoms: C6_6  and  C7_7 
REMARK    5  A    between atoms: C7_7  and  O8_8 
ROOT
HETATM    1  C3  UNL     1     -34.763  13.941  -3.946  1.00 20.00     0.040 C 
HETATM    2  C7  UNL     1     -33.725  15.052  -4.062  1.00 20.00     0.120 C 
ENDROOT
BRANCH   2   3
HETATM    3  C6  UNL     1     -33.662  15.968  -2.823  1.00 20.00     0.006 C 
HETATM    4  C1  UNL     1     -35.016  16.100  -2.122  1.00 20.00     0.012 C 
HETATM    5  C2  UNL     1     -33.147  17.364  -3.201  1.00 20.00     0.012 C 
ENDBRANCH   2   3
BRANCH   2   6
HETATM    6  O8  UNL     1     -34.061  15.849  -5.200  1.00 20.00    -0.385 OA
BRANCH   6   7
HETATM    7  C4  UNL     1     -34.252  15.045  -6.353  1.00 20.00     0.178 C 
BRANCH   7   8
HETATM    8  C5  UNL     1     -35.304  15.669  -7.256  1.00 20.00     0.097 C 
BRANCH   8   9
HETATM    9  S9  UNL     1     -36.752  16.223  -6.304  1.00 20.00    -0.180 SA
HETATM   10  H25 UNL     1     -36.415  15.600  -5.166  1.00 20.00     0.101 HD
ENDBRANCH   8   9
ENDBRANCH   7   8
ENDBRANCH   6   7
ENDBRANCH   2   6
TORSDOF 5
ENDMDL
MODEL 9
REMARK VINA RESULT:      -3.2     11.645     12.363
REMARK  5 active torsions:
REMARK  status: ('A' for Active; 'I' for Inactive)
REMARK    1  A    between atoms: C4_4  and  C5_5 
REMARK    2  A    between atoms: C4_4  and  O8_8 
REMARK    3  A    between atoms: C5_5  and  S9_9 
REMARK    4  A    between atoms: C6_6  and  C7_7 
REMARK    5  A    between atoms: C7_7  and  O8_8 
ROOT
HETATM    1  C3  UNL     1     -34.027  15.079  -6.535  1.00 20.00     0.040 C 
HETATM    2  C7  UNL     1     -34.862  14.963  -5.263  1.00 20.00     0.120 C 
ENDROOT
BRANCH   2   3
HETATM    3  C6  UNL     1     -34.026  14.662  -4.002  1.00 20.00     0.006 C 
HETATM    4  C1  UNL     1     -34.060  15.809  -2.989  1.00 20.00     0.012 C 
HETATM    5  C2  UNL     1     -32.569  14.354  -4.374  1.00 20.00     0.012 C 
ENDBRANCH   2   3
BRANCH   2   6
HETATM    6  O8  UNL     1     -35.801  13.902  -5.451  1.00 20.00    -0.385 OA
BRANCH   6   7
HETATM    7  C4  UNL     1     -36.860  13.980  -4.510  1.00 20.00     0.178 C 
BRANCH   7   8
HETATM    8  C5  UNL     1     -37.574  15.316  -4.641  1.00 20.00     0.097 C 
BRANCH   8   9
HETATM    9  S9  UNL     1     -39.341  15.168  -4.233  1.00 20.00    -0.180 SA
HETATM   10  H25 UNL     1     -39.208  14.102  -3.432  1.00 20.00     0.101 HD
ENDBRANCH   8   9
ENDBRANCH   7   8
ENDBRANCH   6   7
ENDBRANCH   2   6
TORSDOF 5
ENDMDL
