MODEL 1
REMARK VINA RESULT:      -4.5      0.000      0.000
REMARK  3 active torsions:
REMARK  status: ('A' for Active; 'I' for Inactive)
REMARK    1  A    between atoms: C5_5  and  C7_7 
REMARK    2  A    between atoms: C5_5  and  O9_9 
REMARK    3  A    between atoms: C6_6  and  C7_7 
ROOT
HETATM    1  C1  UNL     1     -35.595  13.886  -4.357  1.00 20.00     0.088 C 
HETATM    2  C7  UNL     1     -35.271  15.320  -4.189  1.00 20.00     0.149 C 
HETATM    3  N8  UNL     1     -35.846  12.761  -4.493  1.00 20.00    -0.195 NA
HETATM    4 CL10 UNL     1     -36.847  16.180  -4.031  1.00 20.00    -0.100 Cl
ENDROOT
BRANCH   2   5
HETATM    5  C5  UNL     1     -34.561  15.830  -5.461  1.00 20.00     0.208 C 
BRANCH   5   6
HETATM    6  O9  UNL     1     -34.024  14.751  -6.222  1.00 20.00    -0.393 OA
HETATM    7  C4  UNL     1     -33.839  15.117  -7.581  1.00 20.00     0.201 C 
ENDBRANCH   5   6
ENDBRANCH   2   5
BRANCH   2   8
HETATM    8  C6  UNL     1     -34.387  15.525  -2.915  1.00 20.00     0.017 C 
HETATM    9  C2  UNL     1     -33.073  16.276  -3.183  1.00 20.00     0.012 C 
HETATM   10  C3  UNL     1     -35.120  16.228  -1.757  1.00 20.00     0.012 C 
ENDBRANCH   2   8
TORSDOF 3
ENDMDL
MODEL 2
REMARK VINA RESULT:      -4.1      1.372      1.373
REMARK  3 active torsions:
REMARK  status: ('A' for Active; 'I' for Inactive)
REMARK    1  A    between atoms: C5_5  and  C7_7 
REMARK    2  A    between atoms: C5_5  and  O9_9 
REMARK    3  A    between atoms: C6_6  and  C7_7 
ROOT
HETATM    1  C1  UNL     1     -37.010  14.524  -4.485  1.00 20.00     0.088 C 
HETATM    2  C7  UNL     1     -35.732  15.227  -4.737  1.00 20.00     0.149 C 
HETATM    3  N8  UNL     1     -38.011  13.968  -4.292  1.00 20.00    -0.195 NA
HETATM    4 CL10 UNL     1     -36.142  16.975  -4.905  1.00 20.00    -0.100 Cl
ENDROOT
BRANCH   2   5
HETATM    5  C5  UNL     1     -35.138  14.734  -6.072  1.00 20.00     0.208 C 
BRANCH   5   6
HETATM    6  O9  UNL     1     -34.947  15.813  -6.984  1.00 20.00    -0.393 OA
HETATM    7  C4  UNL     1     -33.916  15.526  -7.917  1.00 20.00     0.201 C 
ENDBRANCH   5   6
ENDBRANCH   2   5
BRANCH   2   8
HETATM    8  C6  UNL     1     -34.747  14.992  -3.545  1.00 20.00     0.017 C 
HETATM    9  C2  UNL     1     -33.266  15.166  -3.918  1.00 20.00     0.012 C 
HETATM   10  C3  UNL     1     -35.043  15.867  -2.312  1.00 20.00     0.012 C 
ENDBRANCH   2   8
TORSDOF 3
ENDMDL
MODEL 3
REMARK VINA RESULT:      -4.0     17.419     18.525
REMARK  3 active torsions:
REMARK  status: ('A' for Active; 'I' for Inactive)
REMARK    1  A    between atoms: C5_5  and  C7_7 
REMARK    2  A    between atoms: C5_5  and  O9_9 
REMARK    3  A    between atoms: C6_6  and  C7_7 
ROOT
HETATM    1  C1  UNL     1     -22.267  17.253   8.254  1.00 20.00     0.088 C 
HETATM    2  C7  UNL     1     -23.046  17.719   9.424  1.00 20.00     0.149 C 
HETATM    3  N8  UNL     1     -21.660  16.883   7.336  1.00 20.00    -0.195 NA
HETATM    4 CL10 UNL     1     -21.841  18.174  10.684  1.00 20.00    -0.100 Cl
ENDROOT
BRANCH   2   5
HETATM    5  C5  UNL     1     -23.898  16.550   9.961  1.00 20.00     0.208 C 
BRANCH   5   6
HETATM    6  O9  UNL     1     -23.680  16.350  11.356  1.00 20.00    -0.393 OA
HETATM    7  C4  UNL     1     -24.862  15.908  12.007  1.00 20.00     0.201 C 
ENDBRANCH   5   6
ENDBRANCH   2   5
BRANCH   2   8
HETATM    8  C6  UNL     1     -23.934  18.944   9.024  1.00 20.00     0.017 C 
HETATM    9  C2  UNL     1     -24.342  18.959   7.542  1.00 20.00     0.012 C 
HETATM   10  C3  UNL     1     -25.206  19.094   9.879  1.00 20.00     0.012 C 
ENDBRANCH   2   8
TORSDOF 3
ENDMDL
MODEL 4
REMARK VINA RESULT:      -3.9      1.963      2.281
REMARK  3 active torsions:
REMARK  status: ('A' for Active; 'I' for Inactive)
REMARK    1  A    between atoms: C5_5  and  C7_7 
REMARK    2  A    between atoms: C5_5  and  O9_9 
REMARK    3  A    between atoms: C6_6  and  C7_7 
ROOT
HETATM    1  C1  UNL     1     -37.202  14.500  -4.323  1.00 20.00     0.088 C 
HETATM    2  C7  UNL     1     -35.856  15.115  -4.354  1.00 20.00     0.149 C 
HETATM    3  N8  UNL     1     -38.256  14.013  -4.295  1.00 20.00    -0.195 NA
HETATM    4 CL10 UNL     1     -35.575  15.632  -6.058  1.00 20.00    -0.100 Cl
ENDROOT
BRANCH   2   5
HETATM    5  C5  UNL     1     -34.804  14.048  -3.987  1.00 20.00     0.208 C 
BRANCH   5   6
HETATM    6  O9  UNL     1     -33.716  14.055  -4.909  1.00 20.00    -0.393 OA
HETATM    7  C4  UNL     1     -32.562  14.657  -4.343  1.00 20.00     0.201 C 
ENDBRANCH   5   6
ENDBRANCH   2   5
BRANCH   2   8
HETATM    8  C6  UNL     1     -35.802  16.337  -3.378  1.00 20.00     0.017 C 
HETATM    9  C2  UNL     1     -35.089  16.042  -2.050  1.00 20.00     0.012 C 
HETATM   10  C3  UNL     1     -35.171  17.598  -3.998  1.00 20.00     0.012 C 
ENDBRANCH   2   8
TORSDOF 3
ENDMDL
MODEL 5
REMARK VINA RESULT:      -3.9      1.951      2.075
REMARK  3 active torsions:
REMARK  status: ('A' for Active; 'I' for Inactive)
REMARK    1  A    between atoms: C5_5  and  C7_7 
REMARK    2  A    between atoms: C5_5  and  O9_9 
REMARK    3  A    between atoms: C6_6  and  C7_7 
ROOT
HETATM    1  C1  UNL     1     -37.077  14.720  -4.201  1.00 20.00     0.088 C 
HETATM    2  C7  UNL     1     -36.167  15.860  -3.950  1.00 20.00     0.149 C 
HETATM    3  N8  UNL     1     -37.789  13.826  -4.403  1.00 20.00    -0.195 NA
HETATM    4 CL10 UNL     1     -37.164  17.138  -3.161  1.00 20.00    -0.100 Cl
ENDROOT
BRANCH   2   5
HETATM    5  C5  UNL     1     -35.654  16.404  -5.299  1.00 20.00     0.208 C 
BRANCH   5   6
HETATM    6  O9  UNL     1     -35.679  17.830  -5.326  1.00 20.00    -0.393 OA
HETATM    7  C4  UNL     1     -34.378  18.367  -5.513  1.00 20.00     0.201 C 
ENDBRANCH   5   6
ENDBRANCH   2   5
BRANCH   2   8
HETATM    8  C6  UNL     1     -34.989  15.412  -3.023  1.00 20.00     0.017 C 
HETATM    9  C2  UNL     1     -33.675  15.144  -3.773  1.00 20.00     0.012 C 
HETATM   10  C3  UNL     1     -34.699  16.391  -1.870  1.00 20.00     0.012 C 
ENDBRANCH   2   8
TORSDOF 3
ENDMDL
MODEL 6
REMARK VINA RESULT:      -3.8      2.076      3.511
REMARK  3 active torsions:
REMARK  status: ('A' for Active; 'I' for Inactive)
REMARK    1  A    between atoms: C5_5  and  C7_7 
REMARK    2  A    between atoms: C5_5  and  O9_9 
REMARK    3  A    between atoms: C6_6  and  C7_7 
ROOT
HETATM    1  C1  UNL     1     -35.470  13.830  -4.458  1.00 20.00     0.088 C 
HETATM    2  C7  UNL     1     -34.637  15.054  -4.491  1.00 20.00     0.149 C 
HETATM    3  N8  UNL     1     -36.126  12.873  -4.428  1.00 20.00    -0.195 NA
HETATM    4 CL10 UNL     1     -32.927  14.506  -4.330  1.00 20.00    -0.100 Cl
ENDROOT
BRANCH   2   5
HETATM    5  C5  UNL     1     -34.985  15.935  -3.273  1.00 20.00     0.208 C 
BRANCH   5   6
HETATM    6  O9  UNL     1     -33.915  15.960  -2.330  1.00 20.00    -0.393 OA
HETATM    7  C4  UNL     1     -33.496  17.289  -2.058  1.00 20.00     0.201 C 
ENDBRANCH   5   6
ENDBRANCH   2   5
BRANCH   2   8
HETATM    8  C6  UNL     1     -34.860  15.818  -5.838  1.00 20.00     0.017 C 
HETATM    9  C2  UNL     1     -34.117  15.201  -7.033  1.00 20.00     0.012 C 
HETATM   10  C3  UNL     1     -36.343  15.983  -6.220  1.00 20.00     0.012 C 
ENDBRANCH   2   8
TORSDOF 3
ENDMDL
MODEL 7
REMARK VINA RESULT:      -3.7      2.114      2.833
REMARK  3 active torsions:
REMARK  status: ('A' for Active; 'I' for Inactive)
REMARK    1  A    between atoms: C5_5  and  C7_7 
REMARK    2  A    between atoms: C5_5  and  O9_9 
REMARK    3  A    between atoms: C6_6  and  C7_7 
ROOT
HETATM    1  C1  UNL     1     -36.774  14.546  -4.312  1.00 20.00     0.088 C 
HETATM    2  C7  UNL     1     -35.562  15.393  -4.243  1.00 20.00     0.149 C 
HETATM    3  N8  UNL     1     -37.728  13.886  -4.370  1.00 20.00    -0.195 NA
HETATM    4 CL10 UNL     1     -35.225  15.651  -2.491  1.00 20.00    -0.100 Cl
ENDROOT
BRANCH   2   5
HETATM    5  C5  UNL     1     -35.863  16.761  -4.889  1.00 20.00     0.208 C 
BRANCH   5   6
HETATM    6  O9  UNL     1     -35.073  17.794  -4.305  1.00 20.00    -0.393 OA
HETATM    7  C4  UNL     1     -34.900  18.882  -5.200  1.00 20.00     0.201 C 
ENDBRANCH   5   6
ENDBRANCH   2   5
BRANCH   2   8
HETATM    8  C6  UNL     1     -34.365  14.673  -4.947  1.00 20.00     0.017 C 
HETATM    9  C2  UNL     1     -34.175  15.076  -6.418  1.00 20.00     0.012 C 
HETATM   10  C3  UNL     1     -33.019  14.849  -4.218  1.00 20.00     0.012 C 
ENDBRANCH   2   8
TORSDOF 3
ENDMDL
MODEL 8
REMARK VINA RESULT:      -3.7      2.395      3.174
REMARK  3 active torsions:
REMARK  status: ('A' for Active; 'I' for Inactive)
REMARK    1  A    between atoms: C5_5  and  C7_7 
REMARK    2  A    between atoms: C5_5  and  O9_9 
REMARK    3  A    between atoms: C6_6  and  C7_7 
ROOT
HETATM    1  C1  UNL     1     -34.403  15.003  -5.955  1.00 20.00     0.088 C 
HETATM    2  C7  UNL     1     -35.209  15.030  -4.714  1.00 20.00     0.149 C 
HETATM    3  N8  UNL     1     -33.775  14.984  -6.932  1.00 20.00    -0.195 NA
HETATM    4 CL10 UNL     1     -35.209  13.345  -4.074  1.00 20.00    -0.100 Cl
ENDROOT
BRANCH   2   5
HETATM    5  C5  UNL     1     -36.660  15.421  -5.062  1.00 20.00     0.208 C 
BRANCH   5   6
HETATM    6  O9  UNL     1     -37.566  14.360  -4.768  1.00 20.00    -0.393 OA
HETATM    7  C4  UNL     1     -38.776  14.851  -4.212  1.00 20.00     0.201 C 
ENDBRANCH   5   6
ENDBRANCH   2   5
BRANCH   2   8
HETATM    8  C6  UNL     1     -34.575  16.024  -3.685  1.00 20.00     0.017 C 
HETATM    9  C2  UNL     1     -35.240  15.993  -2.300  1.00 20.00     0.012 C 
HETATM   10  C3  UNL     1     -33.057  15.842  -3.500  1.00 20.00     0.012 C 
ENDBRANCH   2   8
TORSDOF 3
ENDMDL
MODEL 9
REMARK VINA RESULT:      -3.7      2.219      2.794
REMARK  3 active torsions:
REMARK  status: ('A' for Active; 'I' for Inactive)
REMARK    1  A    between atoms: C5_5  and  C7_7 
REMARK    2  A    between atoms: C5_5  and  O9_9 
REMARK    3  A    between atoms: C6_6  and  C7_7 
ROOT
HETATM    1  C1  UNL     1     -34.423  14.986  -5.541  1.00 20.00     0.088 C 
HETATM    2  C7  UNL     1     -35.277  15.334  -4.383  1.00 20.00     0.149 C 
HETATM    3  N8  UNL     1     -33.754  14.718  -6.451  1.00 20.00    -0.195 NA
HETATM    4 CL10 UNL     1     -36.490  14.009  -4.233  1.00 20.00    -0.100 Cl
ENDROOT
BRANCH   2   5
HETATM    5  C5  UNL     1     -36.024  16.650  -4.684  1.00 20.00     0.208 C 
BRANCH   5   6
HETATM    6  O9  UNL     1     -37.433  16.440  -4.754  1.00 20.00    -0.393 OA
HETATM    7  C4  UNL     1     -38.129  17.303  -3.867  1.00 20.00     0.201 C 
ENDBRANCH   5   6
ENDBRANCH   2   5
BRANCH   2   8
HETATM    8  C6  UNL     1     -34.405  15.449  -3.089  1.00 20.00     0.017 C 
HETATM    9  C2  UNL     1     -33.059  16.158  -3.307  1.00 20.00     0.012 C 
HETATM   10  C3  UNL     1     -35.127  16.130  -1.912  1.00 20.00     0.012 C 
ENDBRANCH   2   8
TORSDOF 3
ENDMDL
