MODEL 1
REMARK VINA RESULT:      -3.8      0.000      0.000
REMARK  4 active torsions:
REMARK  status: ('A' for Active; 'I' for Inactive)
REMARK    1  A    between atoms: C3_3  and  C6_6 
REMARK    2  A    between atoms: C5_5  and  C6_6 
REMARK    3  A    between atoms: C5_5  and  O7_7 
REMARK    4  A    between atoms: C6_6  and  S8_8 
ROOT
HETATM    1  C6  UNL     1     -33.042   6.172   3.662  1.00 20.00     0.072 C 
ENDROOT
BRANCH   1   2
HETATM    2  C3  UNL     1     -34.277   6.434   4.518  1.00 20.00     0.001 A 
HETATM    3  C1  UNL     1     -34.758   5.392   5.491  1.00 20.00     0.006 A 
HETATM    4  C2  UNL     1     -34.137   6.663   5.997  1.00 20.00     0.006 A 
ENDBRANCH   1   2
BRANCH   1   5
HETATM    5  C5  UNL     1     -32.518   7.438   2.982  1.00 20.00     0.182 C 
BRANCH   5   6
HETATM    6  O7  UNL     1     -32.513   7.302   1.568  1.00 20.00    -0.395 OA
HETATM    7  C4  UNL     1     -32.745   8.547   0.923  1.00 20.00     0.201 C 
ENDBRANCH   5   6
ENDBRANCH   1   5
BRANCH   1   8
HETATM    8  S8  UNL     1     -33.433   4.897   2.411  1.00 20.00    -0.175 SA
HETATM    9  H20 UNL     1     -34.632   4.582   2.918  1.00 20.00     0.102 HD
ENDBRANCH   1   8
TORSDOF 4
ENDMDL
MODEL 2
REMARK VINA RESULT:      -3.7     11.374     11.849
REMARK  4 active torsions:
REMARK  status: ('A' for Active; 'I' for Inactive)
REMARK    1  A    between atoms: C3_3  and  C6_6 
REMARK    2  A    between atoms: C5_5  and  C6_6 
REMARK    3  A    between atoms: C5_5  and  O7_7 
REMARK    4  A    between atoms: C6_6  and  S8_8 
ROOT
HETATM    1  C6  UNL     1     -35.409  14.918  -4.555  1.00 20.00     0.072 C 
ENDROOT
BRANCH   1   2
HETATM    2  C3  UNL     1     -34.441  15.137  -3.396  1.00 20.00     0.001 A 
HETATM    3  C1  UNL     1     -33.894  16.510  -3.117  1.00 20.00     0.006 A 
HETATM    4  C2  UNL     1     -34.885  15.890  -2.173  1.00 20.00     0.006 A 
ENDBRANCH   1   2
BRANCH   1   5
HETATM    5  C5  UNL     1     -36.126  13.568  -4.474  1.00 20.00     0.182 C 
BRANCH   5   6
HETATM    6  O7  UNL     1     -37.537  13.729  -4.514  1.00 20.00    -0.395 OA
HETATM    7  C4  UNL     1     -37.914  15.085  -4.326  1.00 20.00     0.201 C 
ENDBRANCH   5   6
ENDBRANCH   1   5
BRANCH   1   8
HETATM    8  S8  UNL     1     -34.501  15.059  -6.135  1.00 20.00    -0.175 SA
HETATM    9  H20 UNL     1     -33.396  14.439  -5.705  1.00 20.00     0.102 HD
ENDBRANCH   1   8
TORSDOF 4
ENDMDL
MODEL 3
REMARK VINA RESULT:      -3.6     16.245     16.723
REMARK  4 active torsions:
REMARK  status: ('A' for Active; 'I' for Inactive)
REMARK    1  A    between atoms: C3_3  and  C6_6 
REMARK    2  A    between atoms: C5_5  and  C6_6 
REMARK    3  A    between atoms: C5_5  and  O7_7 
REMARK    4  A    between atoms: C6_6  and  S8_8 
ROOT
HETATM    1  C6  UNL     1     -22.617  18.345   9.672  1.00 20.00     0.072 C 
ENDROOT
BRANCH   1   2
HETATM    2  C3  UNL     1     -22.992  17.440  10.841  1.00 20.00     0.001 A 
HETATM    3  C1  UNL     1     -22.427  17.700  12.211  1.00 20.00     0.006 A 
HETATM    4  C2  UNL     1     -23.884  17.952  11.938  1.00 20.00     0.006 A 
ENDBRANCH   1   2
BRANCH   1   5
HETATM    5  C5  UNL     1     -23.838  18.993   9.015  1.00 20.00     0.182 C 
BRANCH   5   6
HETATM    6  O7  UNL     1     -23.688  19.069   7.604  1.00 20.00    -0.395 OA
HETATM    7  C4  UNL     1     -24.943  19.206   6.952  1.00 20.00     0.201 C 
ENDBRANCH   5   6
ENDBRANCH   1   5
BRANCH   1   8
HETATM    8  S8  UNL     1     -21.672  17.381   8.439  1.00 20.00    -0.175 SA
HETATM    9  H20 UNL     1     -22.161  18.023   7.371  1.00 20.00     0.102 HD
ENDBRANCH   1   8
TORSDOF 4
ENDMDL
MODEL 4
REMARK VINA RESULT:      -3.2     11.301     11.677
REMARK  4 active torsions:
REMARK  status: ('A' for Active; 'I' for Inactive)
REMARK    1  A    between atoms: C3_3  and  C6_6 
REMARK    2  A    between atoms: C5_5  and  C6_6 
REMARK    3  A    between atoms: C5_5  and  O7_7 
REMARK    4  A    between atoms: C6_6  and  S8_8 
ROOT
HETATM    1  C6  UNL     1     -35.777  14.838  -3.427  1.00 20.00     0.072 C 
ENDROOT
BRANCH   1   2
HETATM    2  C3  UNL     1     -35.310  16.211  -2.953  1.00 20.00     0.001 A 
HETATM    3  C1  UNL     1     -35.088  16.471  -1.488  1.00 20.00     0.006 A 
HETATM    4  C2  UNL     1     -33.915  16.395  -2.424  1.00 20.00     0.006 A 
ENDBRANCH   1   2
BRANCH   1   5
HETATM    5  C5  UNL     1     -34.722  14.117  -4.270  1.00 20.00     0.182 C 
BRANCH   5   6
HETATM    6  O7  UNL     1     -35.007  14.224  -5.657  1.00 20.00    -0.395 OA
HETATM    7  C4  UNL     1     -34.045  15.026  -6.328  1.00 20.00     0.201 C 
ENDBRANCH   5   6
ENDBRANCH   1   5
BRANCH   1   8
HETATM    8  S8  UNL     1     -37.329  15.021  -4.376  1.00 20.00    -0.175 SA
HETATM    9  H20 UNL     1     -36.835  14.543  -5.525  1.00 20.00     0.102 HD
ENDBRANCH   1   8
TORSDOF 4
ENDMDL
MODEL 5
REMARK VINA RESULT:      -3.2     11.845     12.485
REMARK  4 active torsions:
REMARK  status: ('A' for Active; 'I' for Inactive)
REMARK    1  A    between atoms: C3_3  and  C6_6 
REMARK    2  A    between atoms: C5_5  and  C6_6 
REMARK    3  A    between atoms: C5_5  and  O7_7 
REMARK    4  A    between atoms: C6_6  and  S8_8 
ROOT
HETATM    1  C6  UNL     1     -35.432  16.053  -4.738  1.00 20.00     0.072 C 
ENDROOT
BRANCH   1   2
HETATM    2  C3  UNL     1     -34.344  16.621  -3.833  1.00 20.00     0.001 A 
HETATM    3  C1  UNL     1     -34.196  16.120  -2.422  1.00 20.00     0.006 A 
HETATM    4  C2  UNL     1     -33.159  15.777  -3.453  1.00 20.00     0.006 A 
ENDBRANCH   1   2
BRANCH   1   5
HETATM    5  C5  UNL     1     -34.875  15.111  -5.807  1.00 20.00     0.182 C 
BRANCH   5   6
HETATM    6  O7  UNL     1     -35.619  13.902  -5.870  1.00 20.00    -0.395 OA
HETATM    7  C4  UNL     1     -36.290  13.637  -4.646  1.00 20.00     0.201 C 
ENDBRANCH   5   6
ENDBRANCH   1   5
BRANCH   1   8
HETATM    8  S8  UNL     1     -36.346  17.429  -5.521  1.00 20.00    -0.175 SA
HETATM    9  H20 UNL     1     -35.326  18.296  -5.491  1.00 20.00     0.102 HD
ENDBRANCH   1   8
TORSDOF 4
ENDMDL
MODEL 6
REMARK VINA RESULT:      -3.2     16.238     16.737
REMARK  4 active torsions:
REMARK  status: ('A' for Active; 'I' for Inactive)
REMARK    1  A    between atoms: C3_3  and  C6_6 
REMARK    2  A    between atoms: C5_5  and  C6_6 
REMARK    3  A    between atoms: C5_5  and  O7_7 
REMARK    4  A    between atoms: C6_6  and  S8_8 
ROOT
HETATM    1  C6  UNL     1     -24.658  17.972  10.005  1.00 20.00     0.072 C 
ENDROOT
BRANCH   1   2
HETATM    2  C3  UNL     1     -25.299  18.922  11.012  1.00 20.00     0.001 A 
HETATM    3  C1  UNL     1     -26.777  18.852  11.284  1.00 20.00     0.006 A 
HETATM    4  C2  UNL     1     -25.798  18.402  12.332  1.00 20.00     0.006 A 
ENDBRANCH   1   2
BRANCH   1   5
HETATM    5  C5  UNL     1     -23.579  17.089  10.635  1.00 20.00     0.182 C 
BRANCH   5   6
HETATM    6  O7  UNL     1     -22.413  17.839  10.947  1.00 20.00    -0.395 OA
HETATM    7  C4  UNL     1     -22.102  17.769  12.332  1.00 20.00     0.201 C 
ENDBRANCH   5   6
ENDBRANCH   1   5
BRANCH   1   8
HETATM    8  S8  UNL     1     -23.956  18.941   8.623  1.00 20.00    -0.175 SA
HETATM    9  H20 UNL     1     -22.875  19.357   9.293  1.00 20.00     0.102 HD
ENDBRANCH   1   8
TORSDOF 4
ENDMDL
MODEL 7
REMARK VINA RESULT:      -3.1     15.860     16.352
REMARK  4 active torsions:
REMARK  status: ('A' for Active; 'I' for Inactive)
REMARK    1  A    between atoms: C3_3  and  C6_6 
REMARK    2  A    between atoms: C5_5  and  C6_6 
REMARK    3  A    between atoms: C5_5  and  O7_7 
REMARK    4  A    between atoms: C6_6  and  S8_8 
ROOT
HETATM    1  C6  UNL     1     -24.652  18.390   9.904  1.00 20.00     0.072 C 
ENDROOT
BRANCH   1   2
HETATM    2  C3  UNL     1     -23.780  18.170  11.136  1.00 20.00     0.001 A 
HETATM    3  C1  UNL     1     -23.433  16.775  11.579  1.00 20.00     0.006 A 
HETATM    4  C2  UNL     1     -22.373  17.662  10.987  1.00 20.00     0.006 A 
ENDBRANCH   1   2
BRANCH   1   5
HETATM    5  C5  UNL     1     -23.927  19.166   8.802  1.00 20.00     0.182 C 
BRANCH   5   6
HETATM    6  O7  UNL     1     -24.065  18.526   7.541  1.00 20.00    -0.395 OA
HETATM    7  C4  UNL     1     -24.936  19.248   6.682  1.00 20.00     0.201 C 
ENDBRANCH   5   6
ENDBRANCH   1   5
BRANCH   1   8
HETATM    8  S8  UNL     1     -26.182  19.263  10.393  1.00 20.00    -0.175 SA
HETATM    9  H20 UNL     1     -26.788  18.184  10.905  1.00 20.00     0.102 HD
ENDBRANCH   1   8
TORSDOF 4
ENDMDL
MODEL 8
REMARK VINA RESULT:      -3.1     11.396     11.958
REMARK  4 active torsions:
REMARK  status: ('A' for Active; 'I' for Inactive)
REMARK    1  A    between atoms: C3_3  and  C6_6 
REMARK    2  A    between atoms: C5_5  and  C6_6 
REMARK    3  A    between atoms: C5_5  and  O7_7 
REMARK    4  A    between atoms: C6_6  and  S8_8 
ROOT
HETATM    1  C6  UNL     1     -33.637  16.364  -2.617  1.00 20.00     0.072 C 
ENDROOT
BRANCH   1   2
HETATM    2  C3  UNL     1     -33.968  15.656  -3.927  1.00 20.00     0.001 A 
HETATM    3  C1  UNL     1     -33.134  14.493  -4.389  1.00 20.00     0.006 A 
HETATM    4  C2  UNL     1     -34.540  14.266  -3.911  1.00 20.00     0.006 A 
ENDBRANCH   1   2
BRANCH   1   5
HETATM    5  C5  UNL     1     -34.850  16.485  -1.691  1.00 20.00     0.182 C 
BRANCH   5   6
HETATM    6  O7  UNL     1     -34.582  17.350  -0.596  1.00 20.00    -0.395 OA
HETATM    7  C4  UNL     1     -35.582  17.247   0.408  1.00 20.00     0.201 C 
ENDBRANCH   5   6
ENDBRANCH   1   5
BRANCH   1   8
HETATM    8  S8  UNL     1     -32.952  18.019  -2.981  1.00 20.00    -0.175 SA
HETATM    9  H20 UNL     1     -34.032  18.699  -2.577  1.00 20.00     0.102 HD
ENDBRANCH   1   8
TORSDOF 4
ENDMDL
MODEL 9
REMARK VINA RESULT:      -3.1      9.689     10.139
REMARK  4 active torsions:
REMARK  status: ('A' for Active; 'I' for Inactive)
REMARK    1  A    between atoms: C3_3  and  C6_6 
REMARK    2  A    between atoms: C5_5  and  C6_6 
REMARK    3  A    between atoms: C5_5  and  O7_7 
REMARK    4  A    between atoms: C6_6  and  S8_8 
ROOT
HETATM    1  C6  UNL     1     -41.895   6.035   0.286  1.00 20.00     0.072 C 
ENDROOT
BRANCH   1   2
HETATM    2  C3  UNL     1     -42.329   7.481   0.064  1.00 20.00     0.001 A 
HETATM    3  C1  UNL     1     -41.465   8.613   0.549  1.00 20.00     0.006 A 
HETATM    4  C2  UNL     1     -41.598   8.347  -0.924  1.00 20.00     0.006 A 
ENDBRANCH   1   2
BRANCH   1   5
HETATM    5  C5  UNL     1     -41.677   5.279  -1.026  1.00 20.00     0.182 C 
BRANCH   5   6
HETATM    6  O7  UNL     1     -42.905   5.054  -1.704  1.00 20.00    -0.395 OA
HETATM    7  C4  UNL     1     -42.909   3.803  -2.378  1.00 20.00     0.201 C 
ENDBRANCH   5   6
ENDBRANCH   1   5
BRANCH   1   8
HETATM    8  S8  UNL     1     -43.144   5.180   1.311  1.00 20.00    -0.175 SA
HETATM    9  H20 UNL     1     -43.175   6.106   2.277  1.00 20.00     0.102 HD
ENDBRANCH   1   8
TORSDOF 4
ENDMDL
