MODEL 1
REMARK VINA RESULT:      -4.4      0.000      0.000
REMARK  6 active torsions:
REMARK  status: ('A' for Active; 'I' for Inactive)
REMARK    1  A    between atoms: C1_1  and  C6_6 
REMARK    2  A    between atoms: C1_1  and  C7_7 
REMARK    3  A    between atoms: C6_6  and  C8_8 
REMARK    4  A    between atoms: C7_7  and  C10_10 
REMARK    5  A    between atoms: C8_8  and  C9_9 
REMARK    6  A    between atoms: C9_9  and  C11_11 
ROOT
HETATM    1  C1  UNL     1     -35.984  14.112  -4.736  1.00 20.00     0.127 C 
HETATM    2  O12 UNL     1     -37.021  13.552  -4.382  1.00 20.00    -0.298 OA
ENDROOT
BRANCH   1   3
HETATM    3  C6  UNL     1     -34.769  14.214  -3.828  1.00 20.00     0.078 C 
BRANCH   3   4
HETATM    4  C8  UNL     1     -34.876  15.365  -2.829  1.00 20.00     0.008 C 
BRANCH   4   5
HETATM    5  C9  UNL     1     -33.580  16.178  -2.779  1.00 20.00     0.004 C 
BRANCH   5   6
HETATM    6  C11 UNL     1     -33.708  17.490  -1.983  1.00 20.00    -0.023 C 
HETATM    7  C4  UNL     1     -34.724  17.314  -0.853  1.00 20.00     0.009 C 
HETATM    8  C5  UNL     1     -32.371  17.958  -1.407  1.00 20.00     0.009 C 
ENDBRANCH   5   6
ENDBRANCH   4   5
ENDBRANCH   3   4
ENDBRANCH   1   3
BRANCH   1   9
HETATM    9  C7  UNL     1     -35.813  14.705  -6.129  1.00 20.00     0.082 C 
BRANCH   9  10
HETATM   10  C10 UNL     1     -34.510  15.494  -6.313  1.00 20.00    -0.016 C 
HETATM   11  C2  UNL     1     -34.796  16.996  -6.273  1.00 20.00     0.010 C 
HETATM   12  C3  UNL     1     -33.823  15.136  -7.634  1.00 20.00     0.010 C 
ENDBRANCH   9  10
ENDBRANCH   1   9
TORSDOF 6
ENDMDL
MODEL 2
REMARK VINA RESULT:      -4.4     10.790     12.468
REMARK  6 active torsions:
REMARK  status: ('A' for Active; 'I' for Inactive)
REMARK    1  A    between atoms: C1_1  and  C6_6 
REMARK    2  A    between atoms: C1_1  and  C7_7 
REMARK    3  A    between atoms: C6_6  and  C8_8 
REMARK    4  A    between atoms: C7_7  and  C10_10 
REMARK    5  A    between atoms: C8_8  and  C9_9 
REMARK    6  A    between atoms: C9_9  and  C11_11 
ROOT
HETATM    1  C1  UNL     1     -34.106   4.872   3.482  1.00 20.00     0.127 C 
HETATM    2  O12 UNL     1     -34.228   3.667   3.702  1.00 20.00    -0.298 OA
ENDROOT
BRANCH   1   3
HETATM    3  C6  UNL     1     -33.073   5.417   2.510  1.00 20.00     0.078 C 
BRANCH   3   4
HETATM    4  C8  UNL     1     -32.691   6.866   2.810  1.00 20.00     0.008 C 
BRANCH   4   5
HETATM    5  C9  UNL     1     -32.188   7.578   1.552  1.00 20.00     0.004 C 
BRANCH   5   6
HETATM    6  C11 UNL     1     -33.224   8.533   0.931  1.00 20.00    -0.023 C 
HETATM    7  C4  UNL     1     -32.879   9.979   1.294  1.00 20.00     0.009 C 
HETATM    8  C5  UNL     1     -33.314   8.390  -0.589  1.00 20.00     0.009 C 
ENDBRANCH   5   6
ENDBRANCH   4   5
ENDBRANCH   3   4
ENDBRANCH   1   3
BRANCH   1   9
HETATM    9  C7  UNL     1     -35.012   5.912   4.128  1.00 20.00     0.082 C 
BRANCH   9  10
HETATM   10  C10 UNL     1     -34.824   6.044   5.646  1.00 20.00    -0.016 C 
HETATM   11  C2  UNL     1     -33.655   6.983   5.950  1.00 20.00     0.010 C 
HETATM   12  C3  UNL     1     -34.573   4.681   6.298  1.00 20.00     0.010 C 
ENDBRANCH   9  10
ENDBRANCH   1   9
TORSDOF 6
ENDMDL
MODEL 3
REMARK VINA RESULT:      -4.3      1.667      2.388
REMARK  6 active torsions:
REMARK  status: ('A' for Active; 'I' for Inactive)
REMARK    1  A    between atoms: C1_1  and  C6_6 
REMARK    2  A    between atoms: C1_1  and  C7_7 
REMARK    3  A    between atoms: C6_6  and  C8_8 
REMARK    4  A    between atoms: C7_7  and  C10_10 
REMARK    5  A    between atoms: C8_8  and  C9_9 
REMARK    6  A    between atoms: C9_9  and  C11_11 
ROOT
HETATM    1  C1  UNL     1     -37.068  14.595  -4.530  1.00 20.00     0.127 C 
HETATM    2  O12 UNL     1     -37.899  13.701  -4.375  1.00 20.00    -0.298 OA
ENDROOT
BRANCH   1   3
HETATM    3  C6  UNL     1     -35.634  14.305  -4.941  1.00 20.00     0.078 C 
BRANCH   3   4
HETATM    4  C8  UNL     1     -34.680  14.247  -3.749  1.00 20.00     0.008 C 
BRANCH   4   5
HETATM    5  C9  UNL     1     -33.523  15.235  -3.917  1.00 20.00     0.004 C 
BRANCH   5   6
HETATM    6  C11 UNL     1     -33.431  16.271  -2.781  1.00 20.00    -0.023 C 
HETATM    7  C4  UNL     1     -33.115  17.651  -3.362  1.00 20.00     0.009 C 
HETATM    8  C5  UNL     1     -34.712  16.343  -1.949  1.00 20.00     0.009 C 
ENDBRANCH   5   6
ENDBRANCH   4   5
ENDBRANCH   3   4
ENDBRANCH   1   3
BRANCH   1   9
HETATM    9  C7  UNL     1     -37.419  16.069  -4.369  1.00 20.00     0.082 C 
BRANCH   9  10
HETATM   10  C10 UNL     1     -36.651  16.998  -5.320  1.00 20.00    -0.016 C 
HETATM   11  C2  UNL     1     -36.467  18.373  -4.675  1.00 20.00     0.010 C 
HETATM   12  C3  UNL     1     -37.378  17.150  -6.659  1.00 20.00     0.010 C 
ENDBRANCH   9  10
ENDBRANCH   1   9
TORSDOF 6
ENDMDL
MODEL 4
REMARK VINA RESULT:      -4.2      1.735      2.475
REMARK  6 active torsions:
REMARK  status: ('A' for Active; 'I' for Inactive)
REMARK    1  A    between atoms: C1_1  and  C6_6 
REMARK    2  A    between atoms: C1_1  and  C7_7 
REMARK    3  A    between atoms: C6_6  and  C8_8 
REMARK    4  A    between atoms: C7_7  and  C10_10 
REMARK    5  A    between atoms: C8_8  and  C9_9 
REMARK    6  A    between atoms: C9_9  and  C11_11 
ROOT
HETATM    1  C1  UNL     1     -35.549  13.799  -4.205  1.00 20.00     0.127 C 
HETATM    2  O12 UNL     1     -35.845  12.664  -4.578  1.00 20.00    -0.298 OA
ENDROOT
BRANCH   1   3
HETATM    3  C6  UNL     1     -34.111  14.290  -4.168  1.00 20.00     0.078 C 
BRANCH   3   4
HETATM    4  C8  UNL     1     -34.011  15.814  -4.127  1.00 20.00     0.008 C 
BRANCH   4   5
HETATM    5  C9  UNL     1     -33.129  16.280  -2.966  1.00 20.00     0.004 C 
BRANCH   5   6
HETATM    6  C11 UNL     1     -33.780  17.376  -2.103  1.00 20.00    -0.023 C 
HETATM    7  C4  UNL     1     -34.932  16.781  -1.290  1.00 20.00     0.009 C 
HETATM    8  C5  UNL     1     -32.781  18.051  -1.162  1.00 20.00     0.009 C 
ENDBRANCH   5   6
ENDBRANCH   4   5
ENDBRANCH   3   4
ENDBRANCH   1   3
BRANCH   1   9
HETATM    9  C7  UNL     1     -36.602  14.821  -3.796  1.00 20.00     0.082 C 
BRANCH   9  10
HETATM   10  C10 UNL     1     -37.705  15.030  -4.843  1.00 20.00    -0.016 C 
HETATM   11  C2  UNL     1     -37.509  16.371  -5.552  1.00 20.00     0.010 C 
HETATM   12  C3  UNL     1     -39.096  14.984  -4.205  1.00 20.00     0.010 C 
ENDBRANCH   9  10
ENDBRANCH   1   9
TORSDOF 6
ENDMDL
MODEL 5
REMARK VINA RESULT:      -4.2      3.355      6.891
REMARK  6 active torsions:
REMARK  status: ('A' for Active; 'I' for Inactive)
REMARK    1  A    between atoms: C1_1  and  C6_6 
REMARK    2  A    between atoms: C1_1  and  C7_7 
REMARK    3  A    between atoms: C6_6  and  C8_8 
REMARK    4  A    between atoms: C7_7  and  C10_10 
REMARK    5  A    between atoms: C8_8  and  C9_9 
REMARK    6  A    between atoms: C9_9  and  C11_11 
ROOT
HETATM    1  C1  UNL     1     -31.434  18.688  -0.415  1.00 20.00     0.127 C 
HETATM    2  O12 UNL     1     -30.327  18.153  -0.361  1.00 20.00    -0.298 OA
ENDROOT
BRANCH   1   3
HETATM    3  C6  UNL     1     -32.211  18.809  -1.716  1.00 20.00     0.078 C 
BRANCH   3   4
HETATM    4  C8  UNL     1     -33.306  17.751  -1.847  1.00 20.00     0.008 C 
BRANCH   4   5
HETATM    5  C9  UNL     1     -33.016  16.795  -3.007  1.00 20.00     0.004 C 
BRANCH   5   6
HETATM    6  C11 UNL     1     -33.930  15.556  -3.025  1.00 20.00    -0.023 C 
HETATM    7  C4  UNL     1     -35.271  15.892  -2.367  1.00 20.00     0.009 C 
HETATM    8  C5  UNL     1     -34.169  15.026  -4.440  1.00 20.00     0.009 C 
ENDBRANCH   5   6
ENDBRANCH   4   5
ENDBRANCH   3   4
ENDBRANCH   1   3
BRANCH   1   9
HETATM    9  C7  UNL     1     -32.138  19.228   0.823  1.00 20.00     0.082 C 
BRANCH   9  10
HETATM   10  C10 UNL     1     -32.652  18.137   1.772  1.00 20.00    -0.016 C 
HETATM   11  C2  UNL     1     -34.182  18.117   1.768  1.00 20.00     0.010 C 
HETATM   12  C3  UNL     1     -32.143  18.354   3.200  1.00 20.00     0.010 C 
ENDBRANCH   9  10
ENDBRANCH   1   9
TORSDOF 6
ENDMDL
MODEL 6
REMARK VINA RESULT:      -4.2      1.505      3.572
REMARK  6 active torsions:
REMARK  status: ('A' for Active; 'I' for Inactive)
REMARK    1  A    between atoms: C1_1  and  C6_6 
REMARK    2  A    between atoms: C1_1  and  C7_7 
REMARK    3  A    between atoms: C6_6  and  C8_8 
REMARK    4  A    between atoms: C7_7  and  C10_10 
REMARK    5  A    between atoms: C8_8  and  C9_9 
REMARK    6  A    between atoms: C9_9  and  C11_11 
ROOT
HETATM    1  C1  UNL     1     -35.884  13.951  -4.769  1.00 20.00     0.127 C 
HETATM    2  O12 UNL     1     -35.865  12.748  -4.514  1.00 20.00    -0.298 OA
ENDROOT
BRANCH   1   3
HETATM    3  C6  UNL     1     -35.829  14.478  -6.194  1.00 20.00     0.078 C 
BRANCH   3   4
HETATM    4  C8  UNL     1     -36.310  15.924  -6.305  1.00 20.00     0.008 C 
BRANCH   4   5
HETATM    5  C9  UNL     1     -35.173  16.856  -6.732  1.00 20.00     0.004 C 
BRANCH   5   6
HETATM    6  C11 UNL     1     -35.242  18.249  -6.080  1.00 20.00    -0.023 C 
HETATM    7  C4  UNL     1     -36.433  18.314  -5.121  1.00 20.00     0.009 C 
HETATM    8  C5  UNL     1     -33.957  18.608  -5.332  1.00 20.00     0.009 C 
ENDBRANCH   5   6
ENDBRANCH   4   5
ENDBRANCH   3   4
ENDBRANCH   1   3
BRANCH   1   9
HETATM    9  C7  UNL     1     -36.012  15.011  -3.682  1.00 20.00     0.082 C 
BRANCH   9  10
HETATM   10  C10 UNL     1     -34.725  15.234  -2.876  1.00 20.00    -0.016 C 
HETATM   11  C2  UNL     1     -34.839  16.518  -2.051  1.00 20.00     0.010 C 
HETATM   12  C3  UNL     1     -33.501  15.317  -3.791  1.00 20.00     0.010 C 
ENDBRANCH   9  10
ENDBRANCH   1   9
TORSDOF 6
ENDMDL
MODEL 7
REMARK VINA RESULT:      -4.1      1.761      4.348
REMARK  6 active torsions:
REMARK  status: ('A' for Active; 'I' for Inactive)
REMARK    1  A    between atoms: C1_1  and  C6_6 
REMARK    2  A    between atoms: C1_1  and  C7_7 
REMARK    3  A    between atoms: C6_6  and  C8_8 
REMARK    4  A    between atoms: C7_7  and  C10_10 
REMARK    5  A    between atoms: C8_8  and  C9_9 
REMARK    6  A    between atoms: C9_9  and  C11_11 
ROOT
HETATM    1  C1  UNL     1     -33.740  14.507  -4.522  1.00 20.00     0.127 C 
HETATM    2  O12 UNL     1     -33.979  13.350  -4.178  1.00 20.00    -0.298 OA
ENDROOT
BRANCH   1   3
HETATM    3  C6  UNL     1     -34.230  15.075  -5.844  1.00 20.00     0.078 C 
BRANCH   3   4
HETATM    4  C8  UNL     1     -35.660  14.651  -6.173  1.00 20.00     0.008 C 
BRANCH   4   5
HETATM    5  C9  UNL     1     -36.595  15.861  -6.241  1.00 20.00     0.004 C 
BRANCH   5   6
HETATM    6  C11 UNL     1     -37.703  15.841  -5.172  1.00 20.00    -0.023 C 
HETATM    7  C4  UNL     1     -37.581  14.575  -4.321  1.00 20.00     0.009 C 
HETATM    8  C5  UNL     1     -37.667  17.075  -4.268  1.00 20.00     0.009 C 
ENDBRANCH   5   6
ENDBRANCH   4   5
ENDBRANCH   3   4
ENDBRANCH   1   3
BRANCH   1   9
HETATM    9  C7  UNL     1     -32.977  15.479  -3.632  1.00 20.00     0.082 C 
BRANCH   9  10
HETATM   10  C10 UNL     1     -33.857  16.565  -2.998  1.00 20.00    -0.016 C 
HETATM   11  C2  UNL     1     -32.999  17.513  -2.159  1.00 20.00     0.010 C 
HETATM   12  C3  UNL     1     -34.955  15.953  -2.124  1.00 20.00     0.010 C 
ENDBRANCH   9  10
ENDBRANCH   1   9
TORSDOF 6
ENDMDL
MODEL 8
REMARK VINA RESULT:      -4.1      1.555      2.274
REMARK  6 active torsions:
REMARK  status: ('A' for Active; 'I' for Inactive)
REMARK    1  A    between atoms: C1_1  and  C6_6 
REMARK    2  A    between atoms: C1_1  and  C7_7 
REMARK    3  A    between atoms: C6_6  and  C8_8 
REMARK    4  A    between atoms: C7_7  and  C10_10 
REMARK    5  A    between atoms: C8_8  and  C9_9 
REMARK    6  A    between atoms: C9_9  and  C11_11 
ROOT
HETATM    1  C1  UNL     1     -36.496  14.175  -4.660  1.00 20.00     0.127 C 
HETATM    2  O12 UNL     1     -37.561  13.589  -4.470  1.00 20.00    -0.298 OA
ENDROOT
BRANCH   1   3
HETATM    3  C6  UNL     1     -35.216  13.782  -3.941  1.00 20.00     0.078 C 
BRANCH   3   4
HETATM    4  C8  UNL     1     -34.122  14.841  -4.067  1.00 20.00     0.008 C 
BRANCH   4   5
HETATM    5  C9  UNL     1     -34.044  15.708  -2.808  1.00 20.00     0.004 C 
BRANCH   5   6
HETATM    6  C11 UNL     1     -33.126  16.935  -2.964  1.00 20.00    -0.023 C 
HETATM    7  C4  UNL     1     -33.663  17.847  -4.068  1.00 20.00     0.009 C 
HETATM    8  C5  UNL     1     -32.985  17.728  -1.663  1.00 20.00     0.009 C 
ENDBRANCH   5   6
ENDBRANCH   4   5
ENDBRANCH   3   4
ENDBRANCH   1   3
BRANCH   1   9
HETATM    9  C7  UNL     1     -36.361  15.311  -5.667  1.00 20.00     0.082 C 
BRANCH   9  10
HETATM   10  C10 UNL     1     -37.298  16.496  -5.396  1.00 20.00    -0.016 C 
HETATM   11  C2  UNL     1     -36.842  17.718  -6.196  1.00 20.00     0.010 C 
HETATM   12  C3  UNL     1     -37.342  16.844  -3.905  1.00 20.00     0.010 C 
ENDBRANCH   9  10
ENDBRANCH   1   9
TORSDOF 6
ENDMDL
MODEL 9
REMARK VINA RESULT:      -4.0     10.570     11.842
REMARK  6 active torsions:
REMARK  status: ('A' for Active; 'I' for Inactive)
REMARK    1  A    between atoms: C1_1  and  C6_6 
REMARK    2  A    between atoms: C1_1  and  C7_7 
REMARK    3  A    between atoms: C6_6  and  C8_8 
REMARK    4  A    between atoms: C7_7  and  C10_10 
REMARK    5  A    between atoms: C8_8  and  C9_9 
REMARK    6  A    between atoms: C9_9  and  C11_11 
ROOT
HETATM    1  C1  UNL     1     -32.446   6.809   2.452  1.00 20.00     0.127 C 
HETATM    2  O12 UNL     1     -32.091   7.117   3.589  1.00 20.00    -0.298 OA
ENDROOT
BRANCH   1   3
HETATM    3  C6  UNL     1     -33.273   5.564   2.172  1.00 20.00     0.078 C 
BRANCH   3   4
HETATM    4  C8  UNL     1     -33.760   4.883   3.450  1.00 20.00     0.008 C 
BRANCH   4   5
HETATM    5  C9  UNL     1     -34.988   5.595   4.024  1.00 20.00     0.004 C 
BRANCH   5   6
HETATM    6  C11 UNL     1     -34.919   5.804   5.548  1.00 20.00    -0.023 C 
HETATM    7  C4  UNL     1     -34.393   4.536   6.223  1.00 20.00     0.009 C 
HETATM    8  C5  UNL     1     -34.042   6.996   5.935  1.00 20.00     0.009 C 
ENDBRANCH   5   6
ENDBRANCH   4   5
ENDBRANCH   3   4
ENDBRANCH   1   3
BRANCH   1   9
HETATM    9  C7  UNL     1     -32.129   7.673   1.238  1.00 20.00     0.082 C 
BRANCH   9  10
HETATM   10  C10 UNL     1     -33.251   8.650   0.860  1.00 20.00    -0.016 C 
HETATM   11  C2  UNL     1     -33.443   8.666  -0.658  1.00 20.00     0.010 C 
HETATM   12  C3  UNL     1     -32.948  10.067   1.356  1.00 20.00     0.010 C 
ENDBRANCH   9  10
ENDBRANCH   1   9
TORSDOF 6
ENDMDL
