MODEL 1
REMARK VINA RESULT:      -4.5      0.000      0.000
REMARK  5 active torsions:
REMARK  status: ('A' for Active; 'I' for Inactive)
REMARK    1  A    between atoms: C1_1  and  C7_7 
REMARK    2  A    between atoms: C1_1  and  C9_9 
REMARK    3  A    between atoms: C4_4  and  C9_9 
REMARK    4  A    between atoms: C8_8  and  C9_9 
REMARK    5  A    between atoms: C8_8  and  O11_11 
ROOT
HETATM    1  C9  UNL     1     -34.587  14.557  -3.762  1.00 20.00     0.083 C 
ENDROOT
BRANCH   1   2
HETATM    2  C1  UNL     1     -35.853  13.932  -4.357  1.00 20.00     0.133 C 
HETATM    3  O10 UNL     1     -35.970  12.714  -4.497  1.00 20.00    -0.297 OA
BRANCH   2   4
HETATM    4  C7  UNL     1     -36.945  14.896  -4.798  1.00 20.00     0.074 C 
HETATM    5  C5  UNL     1     -38.299  14.547  -4.207  1.00 20.00     0.013 C 
ENDBRANCH   2   4
ENDBRANCH   1   2
BRANCH   1   6
HETATM    6  C4  UNL     1     -34.850  15.943  -3.228  1.00 20.00    -0.001 A 
HETATM    7  C2  UNL     1     -35.026  16.165  -1.751  1.00 20.00     0.006 A 
HETATM    8  C3  UNL     1     -33.790  16.667  -2.445  1.00 20.00     0.006 A 
ENDBRANCH   1   6
BRANCH   1   9
HETATM    9  C8  UNL     1     -33.474  14.588  -4.813  1.00 20.00     0.179 C 
BRANCH   9  10
HETATM   10  O11 UNL     1     -34.033  14.384  -6.105  1.00 20.00    -0.395 OA
HETATM   11  C6  UNL     1     -33.886  15.536  -6.923  1.00 20.00     0.201 C 
ENDBRANCH   9  10
ENDBRANCH   1   9
TORSDOF 5
ENDMDL
MODEL 2
REMARK VINA RESULT:      -4.3      1.334      3.411
REMARK  5 active torsions:
REMARK  status: ('A' for Active; 'I' for Inactive)
REMARK    1  A    between atoms: C1_1  and  C7_7 
REMARK    2  A    between atoms: C1_1  and  C9_9 
REMARK    3  A    between atoms: C4_4  and  C9_9 
REMARK    4  A    between atoms: C8_8  and  C9_9 
REMARK    5  A    between atoms: C8_8  and  O11_11 
ROOT
HETATM    1  C9  UNL     1     -35.712  14.950  -5.059  1.00 20.00     0.083 C 
ENDROOT
BRANCH   1   2
HETATM    2  C1  UNL     1     -35.405  14.792  -6.552  1.00 20.00     0.133 C 
HETATM    3  O10 UNL     1     -36.245  14.363  -7.344  1.00 20.00    -0.297 OA
BRANCH   2   4
HETATM    4  C7  UNL     1     -33.999  15.161  -7.001  1.00 20.00     0.074 C 
HETATM    5  C5  UNL     1     -33.981  16.373  -7.915  1.00 20.00     0.013 C 
ENDBRANCH   2   4
ENDBRANCH   1   2
BRANCH   1   6
HETATM    6  C4  UNL     1     -34.497  15.401  -4.288  1.00 20.00    -0.001 A 
HETATM    7  C2  UNL     1     -34.467  16.762  -3.649  1.00 20.00     0.006 A 
HETATM    8  C3  UNL     1     -34.556  15.531  -2.790  1.00 20.00     0.006 A 
ENDBRANCH   1   6
BRANCH   1   9
HETATM    9  C8  UNL     1     -36.251  13.634  -4.493  1.00 20.00     0.179 C 
BRANCH   9  10
HETATM   10  O11 UNL     1     -37.674  13.672  -4.469  1.00 20.00    -0.395 OA
HETATM   11  C6  UNL     1     -38.155  14.982  -4.202  1.00 20.00     0.201 C 
ENDBRANCH   9  10
ENDBRANCH   1   9
TORSDOF 5
ENDMDL
MODEL 3
REMARK VINA RESULT:      -4.2      1.602      4.117
REMARK  5 active torsions:
REMARK  status: ('A' for Active; 'I' for Inactive)
REMARK    1  A    between atoms: C1_1  and  C7_7 
REMARK    2  A    between atoms: C1_1  and  C9_9 
REMARK    3  A    between atoms: C4_4  and  C9_9 
REMARK    4  A    between atoms: C8_8  and  C9_9 
REMARK    5  A    between atoms: C8_8  and  O11_11 
ROOT
HETATM    1  C9  UNL     1     -36.029  14.379  -5.094  1.00 20.00     0.083 C 
ENDROOT
BRANCH   1   2
HETATM    2  C1  UNL     1     -34.794  13.971  -4.285  1.00 20.00     0.133 C 
HETATM    3  O10 UNL     1     -34.629  12.815  -3.893  1.00 20.00    -0.297 OA
BRANCH   2   4
HETATM    4  C7  UNL     1     -33.796  15.073  -3.963  1.00 20.00     0.074 C 
HETATM    5  C5  UNL     1     -34.137  15.808  -2.679  1.00 20.00     0.013 C 
ENDBRANCH   2   4
ENDBRANCH   1   2
BRANCH   1   6
HETATM    6  C4  UNL     1     -35.709  15.475  -6.080  1.00 20.00    -0.001 A 
HETATM    7  C2  UNL     1     -35.836  15.227  -7.558  1.00 20.00     0.006 A 
HETATM    8  C3  UNL     1     -36.811  16.136  -6.862  1.00 20.00     0.006 A 
ENDBRANCH   1   6
BRANCH   1   9
HETATM    9  C8  UNL     1     -37.153  14.816  -4.150  1.00 20.00     0.179 C 
BRANCH   9  10
HETATM   10  O11 UNL     1     -38.314  14.032  -4.397  1.00 20.00    -0.395 OA
HETATM   11  C6  UNL     1     -39.496  14.819  -4.336  1.00 20.00     0.201 C 
ENDBRANCH   9  10
ENDBRANCH   1   9
TORSDOF 5
ENDMDL
MODEL 4
REMARK VINA RESULT:      -4.0      1.584      3.265
REMARK  5 active torsions:
REMARK  status: ('A' for Active; 'I' for Inactive)
REMARK    1  A    between atoms: C1_1  and  C7_7 
REMARK    2  A    between atoms: C1_1  and  C9_9 
REMARK    3  A    between atoms: C4_4  and  C9_9 
REMARK    4  A    between atoms: C8_8  and  C9_9 
REMARK    5  A    between atoms: C8_8  and  O11_11 
ROOT
HETATM    1  C9  UNL     1     -35.789  15.461  -4.439  1.00 20.00     0.083 C 
ENDROOT
BRANCH   1   2
HETATM    2  C1  UNL     1     -35.914  14.353  -5.490  1.00 20.00     0.133 C 
HETATM    3  O10 UNL     1     -36.260  13.210  -5.188  1.00 20.00    -0.297 OA
BRANCH   2   4
HETATM    4  C7  UNL     1     -35.558  14.728  -6.921  1.00 20.00     0.074 C 
HETATM    5  C5  UNL     1     -34.110  15.162  -7.064  1.00 20.00     0.013 C 
ENDBRANCH   2   4
ENDBRANCH   1   2
BRANCH   1   6
HETATM    6  C4  UNL     1     -34.773  15.110  -3.381  1.00 20.00    -0.001 A 
HETATM    7  C2  UNL     1     -33.474  15.864  -3.299  1.00 20.00     0.006 A 
HETATM    8  C3  UNL     1     -34.519  16.050  -2.234  1.00 20.00     0.006 A 
ENDBRANCH   1   6
BRANCH   1   9
HETATM    9  C8  UNL     1     -37.155  15.736  -3.803  1.00 20.00     0.179 C 
BRANCH   9  10
HETATM   10  O11 UNL     1     -38.156  15.759  -4.815  1.00 20.00    -0.395 OA
HETATM   11  C6  UNL     1     -39.363  15.159  -4.366  1.00 20.00     0.201 C 
ENDBRANCH   9  10
ENDBRANCH   1   9
TORSDOF 5
ENDMDL
MODEL 5
REMARK VINA RESULT:      -3.9      2.864      4.431
REMARK  5 active torsions:
REMARK  status: ('A' for Active; 'I' for Inactive)
REMARK    1  A    between atoms: C1_1  and  C7_7 
REMARK    2  A    between atoms: C1_1  and  C9_9 
REMARK    3  A    between atoms: C4_4  and  C9_9 
REMARK    4  A    between atoms: C8_8  and  C9_9 
REMARK    5  A    between atoms: C8_8  and  O11_11 
ROOT
HETATM    1  C9  UNL     1     -33.672  17.317  -1.600  1.00 20.00     0.083 C 
ENDROOT
BRANCH   1   2
HETATM    2  C1  UNL     1     -33.691  16.253  -2.702  1.00 20.00     0.133 C 
HETATM    3  O10 UNL     1     -32.730  16.078  -3.451  1.00 20.00    -0.297 OA
BRANCH   2   4
HETATM    4  C7  UNL     1     -34.972  15.444  -2.845  1.00 20.00     0.074 C 
HETATM    5  C5  UNL     1     -34.824  14.289  -3.819  1.00 20.00     0.013 C 
ENDBRANCH   2   4
ENDBRANCH   1   2
BRANCH   1   6
HETATM    6  C4  UNL     1     -35.041  17.520  -1.001  1.00 20.00    -0.001 A 
HETATM    7  C2  UNL     1     -35.273  17.270   0.464  1.00 20.00     0.006 A 
HETATM    8  C3  UNL     1     -35.298  18.674  -0.071  1.00 20.00     0.006 A 
ENDBRANCH   1   6
BRANCH   1   9
HETATM    9  C8  UNL     1     -33.126  18.635  -2.154  1.00 20.00     0.179 C 
BRANCH   9  10
HETATM   10  O11 UNL     1     -31.740  18.743  -1.849  1.00 20.00    -0.395 OA
HETATM   11  C6  UNL     1     -31.475  18.390  -0.498  1.00 20.00     0.201 C 
ENDBRANCH   9  10
ENDBRANCH   1   9
TORSDOF 5
ENDMDL
MODEL 6
REMARK VINA RESULT:      -3.8      2.660      5.118
REMARK  5 active torsions:
REMARK  status: ('A' for Active; 'I' for Inactive)
REMARK    1  A    between atoms: C1_1  and  C7_7 
REMARK    2  A    between atoms: C1_1  and  C9_9 
REMARK    3  A    between atoms: C4_4  and  C9_9 
REMARK    4  A    between atoms: C8_8  and  C9_9 
REMARK    5  A    between atoms: C8_8  and  O11_11 
ROOT
HETATM    1  C9  UNL     1     -33.827  16.189  -2.443  1.00 20.00     0.083 C 
ENDROOT
BRANCH   1   2
HETATM    2  C1  UNL     1     -33.117  17.546  -2.462  1.00 20.00     0.133 C 
HETATM    3  O10 UNL     1     -32.704  18.047  -3.509  1.00 20.00    -0.297 OA
BRANCH   2   4
HETATM    4  C7  UNL     1     -32.919  18.230  -1.117  1.00 20.00     0.074 C 
HETATM    5  C5  UNL     1     -31.456  18.315  -0.719  1.00 20.00     0.013 C 
ENDBRANCH   2   4
ENDBRANCH   1   2
BRANCH   1   6
HETATM    6  C4  UNL     1     -34.019  15.644  -3.837  1.00 20.00    -0.001 A 
HETATM    7  C2  UNL     1     -33.122  14.553  -4.354  1.00 20.00     0.006 A 
HETATM    8  C3  UNL     1     -34.561  14.256  -4.039  1.00 20.00     0.006 A 
ENDBRANCH   1   6
BRANCH   1   9
HETATM    9  C8  UNL     1     -35.173  16.312  -1.724  1.00 20.00     0.179 C 
BRANCH   9  10
HETATM   10  O11 UNL     1     -36.063  17.098  -2.508  1.00 20.00    -0.395 OA
HETATM   11  C6  UNL     1     -36.809  17.999  -1.701  1.00 20.00     0.201 C 
ENDBRANCH   9  10
ENDBRANCH   1   9
TORSDOF 5
ENDMDL
MODEL 7
REMARK VINA RESULT:      -3.7      1.566      3.441
REMARK  5 active torsions:
REMARK  status: ('A' for Active; 'I' for Inactive)
REMARK    1  A    between atoms: C1_1  and  C7_7 
REMARK    2  A    between atoms: C1_1  and  C9_9 
REMARK    3  A    between atoms: C4_4  and  C9_9 
REMARK    4  A    between atoms: C8_8  and  C9_9 
REMARK    5  A    between atoms: C8_8  and  O11_11 
ROOT
HETATM    1  C9  UNL     1     -34.853  15.489  -3.895  1.00 20.00     0.083 C 
ENDROOT
BRANCH   1   2
HETATM    2  C1  UNL     1     -34.137  16.165  -2.721  1.00 20.00     0.133 C 
HETATM    3  O10 UNL     1     -32.933  16.421  -2.758  1.00 20.00    -0.297 OA
BRANCH   2   4
HETATM    4  C7  UNL     1     -34.983  16.475  -1.495  1.00 20.00     0.074 C 
HETATM    5  C5  UNL     1     -34.487  17.697  -0.742  1.00 20.00     0.013 C 
ENDBRANCH   2   4
ENDBRANCH   1   2
BRANCH   1   6
HETATM    6  C4  UNL     1     -36.306  15.232  -3.584  1.00 20.00    -0.001 A 
HETATM    7  C2  UNL     1     -37.380  15.737  -4.509  1.00 20.00     0.006 A 
HETATM    8  C3  UNL     1     -37.099  14.263  -4.418  1.00 20.00     0.006 A 
ENDBRANCH   1   6
BRANCH   1   9
HETATM    9  C8  UNL     1     -34.142  14.183  -4.261  1.00 20.00     0.179 C 
BRANCH   9  10
HETATM   10  O11 UNL     1     -33.365  14.376  -5.437  1.00 20.00    -0.395 OA
HETATM   11  C6  UNL     1     -34.080  15.118  -6.416  1.00 20.00     0.201 C 
ENDBRANCH   9  10
ENDBRANCH   1   9
TORSDOF 5
ENDMDL
MODEL 8
REMARK VINA RESULT:      -3.7      1.730      3.204
REMARK  5 active torsions:
REMARK  status: ('A' for Active; 'I' for Inactive)
REMARK    1  A    between atoms: C1_1  and  C7_7 
REMARK    2  A    between atoms: C1_1  and  C9_9 
REMARK    3  A    between atoms: C4_4  and  C9_9 
REMARK    4  A    between atoms: C8_8  and  C9_9 
REMARK    5  A    between atoms: C8_8  and  O11_11 
ROOT
HETATM    1  C9  UNL     1     -35.701  15.135  -4.767  1.00 20.00     0.083 C 
ENDROOT
BRANCH   1   2
HETATM    2  C1  UNL     1     -37.161  14.816  -4.430  1.00 20.00     0.133 C 
HETATM    3  O10 UNL     1     -37.596  13.664  -4.454  1.00 20.00    -0.297 OA
BRANCH   2   4
HETATM    4  C7  UNL     1     -38.057  16.001  -4.095  1.00 20.00     0.074 C 
HETATM    5  C5  UNL     1     -37.329  17.328  -4.208  1.00 20.00     0.013 C 
ENDBRANCH   2   4
ENDBRANCH   1   2
BRANCH   1   6
HETATM    6  C4  UNL     1     -35.356  14.725  -6.177  1.00 20.00    -0.001 A 
HETATM    7  C2  UNL     1     -35.217  15.764  -7.256  1.00 20.00     0.006 A 
HETATM    8  C3  UNL     1     -34.001  15.041  -6.747  1.00 20.00     0.006 A 
ENDBRANCH   1   6
BRANCH   1   9
HETATM    9  C8  UNL     1     -34.770  14.448  -3.764  1.00 20.00     0.179 C 
BRANCH   9  10
HETATM   10  O11 UNL     1     -34.426  15.363  -2.730  1.00 20.00    -0.395 OA
HETATM   11  C6  UNL     1     -33.359  16.215  -3.123  1.00 20.00     0.201 C 
ENDBRANCH   9  10
ENDBRANCH   1   9
TORSDOF 5
ENDMDL
MODEL 9
REMARK VINA RESULT:      -3.7      1.849      3.759
REMARK  5 active torsions:
REMARK  status: ('A' for Active; 'I' for Inactive)
REMARK    1  A    between atoms: C1_1  and  C7_7 
REMARK    2  A    between atoms: C1_1  and  C9_9 
REMARK    3  A    between atoms: C4_4  and  C9_9 
REMARK    4  A    between atoms: C8_8  and  C9_9 
REMARK    5  A    between atoms: C8_8  and  O11_11 
ROOT
HETATM    1  C9  UNL     1     -35.670  14.829  -6.040  1.00 20.00     0.083 C 
ENDROOT
BRANCH   1   2
HETATM    2  C1  UNL     1     -35.468  13.957  -4.796  1.00 20.00     0.133 C 
HETATM    3  O10 UNL     1     -36.149  12.952  -4.592  1.00 20.00    -0.297 OA
BRANCH   2   4
HETATM    4  C7  UNL     1     -34.403  14.415  -3.810  1.00 20.00     0.074 C 
HETATM    5  C5  UNL     1     -34.935  15.425  -2.809  1.00 20.00     0.013 C 
ENDBRANCH   2   4
ENDBRANCH   1   2
BRANCH   1   6
HETATM    6  C4  UNL     1     -34.380  15.473  -6.482  1.00 20.00    -0.001 A 
HETATM    7  C2  UNL     1     -33.868  15.263  -7.881  1.00 20.00     0.006 A 
HETATM    8  C3  UNL     1     -34.398  16.608  -7.469  1.00 20.00     0.006 A 
ENDBRANCH   1   6
BRANCH   1   9
HETATM    9  C8  UNL     1     -36.736  15.893  -5.766  1.00 20.00     0.179 C 
BRANCH   9  10
HETATM   10  O11 UNL     1     -37.774  15.788  -6.734  1.00 20.00    -0.395 OA
HETATM   11  C6  UNL     1     -38.181  17.067  -7.201  1.00 20.00     0.201 C 
ENDBRANCH   9  10
ENDBRANCH   1   9
TORSDOF 5
ENDMDL
