MODEL 1
REMARK VINA RESULT:      -4.5      0.000      0.000
REMARK  3 active torsions:
REMARK  status: ('A' for Active; 'I' for Inactive)
REMARK    1  A    between atoms: C1_1  and  C7_7 
REMARK    2  A    between atoms: C2_2  and  C3_3 
REMARK    3  A    between atoms: C3_3  and  C9_9 
ROOT
HETATM    1  C1  UNL     1     -35.309  15.376  -3.282  1.00 20.00    -0.012 C 
HETATM    2  C3  UNL     1     -35.638  14.929  -4.509  1.00 20.00    -0.024 C 
ENDROOT
BRANCH   1   3
HETATM    3  C7  UNL     1     -34.610  16.631  -2.956  1.00 20.00     0.009 C 
HETATM    4  C5  UNL     1     -34.521  16.978  -1.448  1.00 20.00     0.008 C 
HETATM    5  C4  UNL     1     -33.103  17.515  -1.732  1.00 20.00     0.001 C 
HETATM    6  C6  UNL     1     -33.063  16.555  -2.939  1.00 20.00     0.008 C 
ENDBRANCH   1   3
BRANCH   2   7
HETATM    7  C2  UNL     1     -36.336  13.617  -4.567  1.00 20.00     0.265 C 
HETATM    8  O10 UNL     1     -35.754  12.545  -4.462  1.00 20.00    -0.302 OA
ENDBRANCH   2   7
BRANCH   2   9
HETATM    9  C9  UNL     1     -35.325  15.627  -5.803  1.00 20.00     0.037 C 
HETATM   10  C8  UNL     1     -34.082  15.059  -6.473  1.00 20.00     0.010 C 
ENDBRANCH   2   9
TORSDOF 3
ENDMDL
MODEL 2
REMARK VINA RESULT:      -4.5      0.956      1.378
REMARK  3 active torsions:
REMARK  status: ('A' for Active; 'I' for Inactive)
REMARK    1  A    between atoms: C1_1  and  C7_7 
REMARK    2  A    between atoms: C2_2  and  C3_3 
REMARK    3  A    between atoms: C3_3  and  C9_9 
ROOT
HETATM    1  C1  UNL     1     -35.124  15.377  -2.844  1.00 20.00    -0.012 C 
HETATM    2  C3  UNL     1     -34.870  14.672  -3.963  1.00 20.00    -0.024 C 
ENDROOT
BRANCH   1   3
HETATM    3  C7  UNL     1     -34.226  16.339  -2.181  1.00 20.00     0.009 C 
HETATM    4  C5  UNL     1     -34.109  17.726  -2.861  1.00 20.00     0.008 C 
HETATM    5  C4  UNL     1     -34.053  18.333  -1.443  1.00 20.00     0.001 C 
HETATM    6  C6  UNL     1     -34.822  17.086  -0.961  1.00 20.00     0.008 C 
ENDBRANCH   1   3
BRANCH   2   7
HETATM    7  C2  UNL     1     -35.947  13.755  -4.422  1.00 20.00     0.265 C 
HETATM    8  O10 UNL     1     -35.830  12.536  -4.431  1.00 20.00    -0.302 OA
ENDBRANCH   2   7
BRANCH   2   9
HETATM    9  C9  UNL     1     -33.588  14.714  -4.746  1.00 20.00     0.037 C 
HETATM   10  C8  UNL     1     -33.831  14.975  -6.227  1.00 20.00     0.010 C 
ENDBRANCH   2   9
TORSDOF 3
ENDMDL
MODEL 3
REMARK VINA RESULT:      -4.3      3.217      5.643
REMARK  3 active torsions:
REMARK  status: ('A' for Active; 'I' for Inactive)
REMARK    1  A    between atoms: C1_1  and  C7_7 
REMARK    2  A    between atoms: C2_2  and  C3_3 
REMARK    3  A    between atoms: C3_3  and  C9_9 
ROOT
HETATM    1  C1  UNL     1     -32.680  17.381  -1.901  1.00 20.00    -0.012 C 
HETATM    2  C3  UNL     1     -32.827  18.207  -0.849  1.00 20.00    -0.024 C 
ENDROOT
BRANCH   1   3
HETATM    3  C7  UNL     1     -33.746  16.869  -2.780  1.00 20.00     0.009 C 
HETATM    4  C5  UNL     1     -33.372  15.638  -3.644  1.00 20.00     0.008 C 
HETATM    5  C4  UNL     1     -34.804  15.121  -3.394  1.00 20.00     0.001 C 
HETATM    6  C6  UNL     1     -34.800  15.958  -2.099  1.00 20.00     0.008 C 
ENDBRANCH   1   3
BRANCH   2   7
HETATM    7  C2  UNL     1     -31.584  18.568  -0.116  1.00 20.00     0.265 C 
HETATM    8  O10 UNL     1     -30.462  18.328  -0.544  1.00 20.00    -0.302 OA
ENDBRANCH   2   7
BRANCH   2   9
HETATM    9  C9  UNL     1     -34.134  18.751  -0.344  1.00 20.00     0.037 C 
HETATM   10  C8  UNL     1     -34.565  18.091   0.958  1.00 20.00     0.010 C 
ENDBRANCH   2   9
TORSDOF 3
ENDMDL
MODEL 4
REMARK VINA RESULT:      -4.1     10.755     11.667
REMARK  3 active torsions:
REMARK  status: ('A' for Active; 'I' for Inactive)
REMARK    1  A    between atoms: C1_1  and  C7_7 
REMARK    2  A    between atoms: C2_2  and  C3_3 
REMARK    3  A    between atoms: C3_3  and  C9_9 
ROOT
HETATM    1  C1  UNL     1     -33.388   6.382   2.485  1.00 20.00    -0.012 C 
HETATM    2  C3  UNL     1     -33.793   6.157   3.749  1.00 20.00    -0.024 C 
ENDROOT
BRANCH   1   3
HETATM    3  C7  UNL     1     -32.588   7.521   2.001  1.00 20.00     0.009 C 
HETATM    4  C5  UNL     1     -32.190   7.475   0.504  1.00 20.00     0.008 C 
HETATM    5  C4  UNL     1     -32.415   9.001   0.475  1.00 20.00     0.001 C 
HETATM    6  C6  UNL     1     -33.385   8.805   1.658  1.00 20.00     0.008 C 
ENDBRANCH   1   3
BRANCH   2   7
HETATM    7  C2  UNL     1     -34.604   4.931   3.972  1.00 20.00     0.265 C 
HETATM    8  O10 UNL     1     -34.144   3.799   3.885  1.00 20.00    -0.302 OA
ENDBRANCH   2   7
BRANCH   2   9
HETATM    9  C9  UNL     1     -33.524   7.057   4.923  1.00 20.00     0.037 C 
HETATM   10  C8  UNL     1     -34.199   6.557   6.193  1.00 20.00     0.010 C 
ENDBRANCH   2   9
TORSDOF 3
ENDMDL
MODEL 5
REMARK VINA RESULT:      -4.1      1.516      2.403
REMARK  3 active torsions:
REMARK  status: ('A' for Active; 'I' for Inactive)
REMARK    1  A    between atoms: C1_1  and  C7_7 
REMARK    2  A    between atoms: C2_2  and  C3_3 
REMARK    3  A    between atoms: C3_3  and  C9_9 
ROOT
HETATM    1  C1  UNL     1     -33.777  16.249  -3.869  1.00 20.00    -0.012 C 
HETATM    2  C3  UNL     1     -34.282  15.209  -4.559  1.00 20.00    -0.024 C 
ENDROOT
BRANCH   1   3
HETATM    3  C7  UNL     1     -33.676  16.372  -2.404  1.00 20.00     0.009 C 
HETATM    4  C5  UNL     1     -33.052  17.691  -1.882  1.00 20.00     0.008 C 
HETATM    5  C4  UNL     1     -34.080  17.635  -0.733  1.00 20.00     0.001 C 
HETATM    6  C6  UNL     1     -34.973  16.801  -1.673  1.00 20.00     0.008 C 
ENDBRANCH   1   3
BRANCH   2   7
HETATM    7  C2  UNL     1     -34.278  15.339  -6.041  1.00 20.00     0.265 C 
HETATM    8  O10 UNL     1     -33.551  14.673  -6.769  1.00 20.00    -0.302 OA
ENDBRANCH   2   7
BRANCH   2   9
HETATM    9  C9  UNL     1     -34.873  13.966  -3.955  1.00 20.00     0.037 C 
HETATM   10  C8  UNL     1     -36.257  13.662  -4.513  1.00 20.00     0.010 C 
ENDBRANCH   2   9
TORSDOF 3
ENDMDL
MODEL 6
REMARK VINA RESULT:      -4.1      0.928      1.065
REMARK  3 active torsions:
REMARK  status: ('A' for Active; 'I' for Inactive)
REMARK    1  A    between atoms: C1_1  and  C7_7 
REMARK    2  A    between atoms: C2_2  and  C3_3 
REMARK    3  A    between atoms: C3_3  and  C9_9 
ROOT
HETATM    1  C1  UNL     1     -34.811  15.378  -2.679  1.00 20.00    -0.012 C 
HETATM    2  C3  UNL     1     -35.173  14.940  -3.899  1.00 20.00    -0.024 C 
ENDROOT
BRANCH   1   3
HETATM    3  C7  UNL     1     -34.813  16.773  -2.203  1.00 20.00     0.009 C 
HETATM    4  C5  UNL     1     -35.209  16.976  -0.719  1.00 20.00     0.008 C 
HETATM    5  C4  UNL     1     -34.139  18.086  -0.663  1.00 20.00     0.001 C 
HETATM    6  C6  UNL     1     -33.429  17.356  -1.821  1.00 20.00     0.008 C 
ENDBRANCH   1   3
BRANCH   2   7
HETATM    7  C2  UNL     1     -35.068  13.474  -4.130  1.00 20.00     0.265 C 
HETATM    8  O10 UNL     1     -35.991  12.798  -4.568  1.00 20.00    -0.302 OA
ENDBRANCH   2   7
BRANCH   2   9
HETATM    9  C9  UNL     1     -35.632  15.809  -5.036  1.00 20.00     0.037 C 
HETATM   10  C8  UNL     1     -34.538  16.016  -6.075  1.00 20.00     0.010 C 
ENDBRANCH   2   9
TORSDOF 3
ENDMDL
MODEL 7
REMARK VINA RESULT:      -4.0      2.872      5.010
REMARK  3 active torsions:
REMARK  status: ('A' for Active; 'I' for Inactive)
REMARK    1  A    between atoms: C1_1  and  C7_7 
REMARK    2  A    between atoms: C2_2  and  C3_3 
REMARK    3  A    between atoms: C3_3  and  C9_9 
ROOT
HETATM    1  C1  UNL     1     -33.461  16.542  -2.814  1.00 20.00    -0.012 C 
HETATM    2  C3  UNL     1     -33.392  17.507  -1.878  1.00 20.00    -0.024 C 
ENDROOT
BRANCH   1   3
HETATM    3  C7  UNL     1     -34.410  15.416  -2.856  1.00 20.00     0.009 C 
HETATM    4  C5  UNL     1     -35.783  15.718  -3.509  1.00 20.00     0.008 C 
HETATM    5  C4  UNL     1     -35.727  14.296  -4.106  1.00 20.00     0.001 C 
HETATM    6  C6  UNL     1     -34.191  14.393  -4.000  1.00 20.00     0.008 C 
ENDBRANCH   1   3
BRANCH   2   7
HETATM    7  C2  UNL     1     -32.329  18.530  -2.063  1.00 20.00     0.265 C 
HETATM    8  O10 UNL     1     -31.372  18.645  -1.307  1.00 20.00    -0.302 OA
ENDBRANCH   2   7
BRANCH   2   9
HETATM    9  C9  UNL     1     -34.269  17.604  -0.660  1.00 20.00     0.037 C 
HETATM   10  C8  UNL     1     -35.525  18.424  -0.924  1.00 20.00     0.010 C 
ENDBRANCH   2   9
TORSDOF 3
ENDMDL
MODEL 8
REMARK VINA RESULT:      -3.9     15.886     17.632
REMARK  3 active torsions:
REMARK  status: ('A' for Active; 'I' for Inactive)
REMARK    1  A    between atoms: C1_1  and  C7_7 
REMARK    2  A    between atoms: C2_2  and  C3_3 
REMARK    3  A    between atoms: C3_3  and  C9_9 
ROOT
HETATM    1  C1  UNL     1     -24.480  17.763  10.188  1.00 20.00    -0.012 C 
HETATM    2  C3  UNL     1     -25.051  17.850  11.404  1.00 20.00    -0.024 C 
ENDROOT
BRANCH   1   3
HETATM    3  C7  UNL     1     -24.393  18.828   9.173  1.00 20.00     0.009 C 
HETATM    4  C5  UNL     1     -23.511  18.509   7.939  1.00 20.00     0.008 C 
HETATM    5  C4  UNL     1     -24.556  19.263   7.091  1.00 20.00     0.001 C 
HETATM    6  C6  UNL     1     -25.585  18.916   8.187  1.00 20.00     0.008 C 
ENDBRANCH   1   3
BRANCH   2   7
HETATM    7  C2  UNL     1     -25.014  16.620  12.239  1.00 20.00     0.265 C 
HETATM    8  O10 UNL     1     -24.701  15.521  11.798  1.00 20.00    -0.302 OA
ENDBRANCH   2   7
BRANCH   2   9
HETATM    9  C9  UNL     1     -25.745  19.065  11.955  1.00 20.00     0.037 C 
HETATM   10  C8  UNL     1     -27.220  19.101  11.578  1.00 20.00     0.010 C 
ENDBRANCH   2   9
TORSDOF 3
ENDMDL
MODEL 9
REMARK VINA RESULT:      -3.8     16.121     17.922
REMARK  3 active torsions:
REMARK  status: ('A' for Active; 'I' for Inactive)
REMARK    1  A    between atoms: C1_1  and  C7_7 
REMARK    2  A    between atoms: C2_2  and  C3_3 
REMARK    3  A    between atoms: C3_3  and  C9_9 
ROOT
HETATM    1  C1  UNL     1     -22.854  17.113  10.110  1.00 20.00    -0.012 C 
HETATM    2  C3  UNL     1     -22.809  17.949   9.056  1.00 20.00    -0.024 C 
ENDROOT
BRANCH   1   3
HETATM    3  C7  UNL     1     -23.708  17.240  11.304  1.00 20.00     0.009 C 
HETATM    4  C5  UNL     1     -25.154  17.733  11.046  1.00 20.00     0.008 C 
HETATM    5  C4  UNL     1     -25.606  16.749  12.145  1.00 20.00     0.001 C 
HETATM    6  C6  UNL     1     -24.344  15.924  11.820  1.00 20.00     0.008 C 
ENDBRANCH   1   3
BRANCH   2   7
HETATM    7  C2  UNL     1     -21.846  17.599   7.978  1.00 20.00     0.265 C 
HETATM    8  O10 UNL     1     -21.892  16.544   7.357  1.00 20.00    -0.302 OA
ENDBRANCH   2   7
BRANCH   2   9
HETATM    9  C9  UNL     1     -23.617  19.208   8.907  1.00 20.00     0.037 C 
HETATM   10  C8  UNL     1     -24.486  19.185   7.657  1.00 20.00     0.010 C 
ENDBRANCH   2   9
TORSDOF 3
ENDMDL
