MODEL 1
REMARK VINA RESULT:      -4.3      0.000      0.000
REMARK  5 active torsions:
REMARK  status: ('A' for Active; 'I' for Inactive)
REMARK    1  A    between atoms: C3_3  and  C9_9 
REMARK    2  A    between atoms: C7_7  and  C10_10 
REMARK    3  A    between atoms: C8_8  and  C10_10 
REMARK    4  A    between atoms: C9_9  and  C10_10 
REMARK    5  A    between atoms: C9_9  and  O11_11 
ROOT
HETATM    1  C9  UNL     1     -24.287  17.278  10.133  1.00 20.00     0.130 C 
ENDROOT
BRANCH   1   2
HETATM    2  C3  UNL     1     -24.438  17.768  11.569  1.00 20.00    -0.018 A 
HETATM    3  C1  UNL     1     -25.678  17.362  12.330  1.00 20.00     0.012 A 
HETATM    4  C2  UNL     1     -25.521  18.781  11.861  1.00 20.00     0.012 A 
HETATM    5  C4  UNL     1     -23.146  17.877  12.332  1.00 20.00     0.018 C 
ENDBRANCH   1   2
BRANCH   1   6
HETATM    6  C10 UNL     1     -23.210  18.040   9.318  1.00 20.00     0.014 C 
BRANCH   6   7
HETATM    7  C7  UNL     1     -23.802  18.931   8.203  1.00 20.00     0.002 C 
HETATM    8  C5  UNL     1     -25.320  18.897   8.089  1.00 20.00     0.005 C 
ENDBRANCH   6   7
BRANCH   6   9
HETATM    9  C8  UNL     1     -22.143  17.045   8.796  1.00 20.00     0.002 C 
HETATM   10  C6  UNL     1     -21.588  17.390   7.420  1.00 20.00     0.005 C 
ENDBRANCH   6   9
ENDBRANCH   1   6
BRANCH   1  11
HETATM   11  O11 UNL     1     -23.923  15.896  10.185  1.00 20.00    -0.394 OA
HETATM   12  H31 UNL     1     -24.605  15.417   9.692  1.00 20.00     0.210 HD
ENDBRANCH   1  11
TORSDOF 5
ENDMDL
MODEL 2
REMARK VINA RESULT:      -4.1     16.596     18.841
REMARK  5 active torsions:
REMARK  status: ('A' for Active; 'I' for Inactive)
REMARK    1  A    between atoms: C3_3  and  C9_9 
REMARK    2  A    between atoms: C7_7  and  C10_10 
REMARK    3  A    between atoms: C8_8  and  C10_10 
REMARK    4  A    between atoms: C9_9  and  C10_10 
REMARK    5  A    between atoms: C9_9  and  O11_11 
ROOT
HETATM    1  C9  UNL     1     -33.745  15.711  -5.066  1.00 20.00     0.130 C 
ENDROOT
BRANCH   1   2
HETATM    2  C3  UNL     1     -34.436  16.260  -6.311  1.00 20.00    -0.018 A 
HETATM    3  C1  UNL     1     -34.423  17.754  -6.527  1.00 20.00     0.012 A 
HETATM    4  C2  UNL     1     -35.697  17.068  -6.122  1.00 20.00     0.012 A 
HETATM    5  C4  UNL     1     -34.342  15.371  -7.521  1.00 20.00     0.018 C 
ENDBRANCH   1   2
BRANCH   1   6
HETATM    6  C10 UNL     1     -34.714  15.400  -3.896  1.00 20.00     0.014 C 
BRANCH   6   7
HETATM    7  C7  UNL     1     -34.194  15.886  -2.524  1.00 20.00     0.002 C 
HETATM    8  C5  UNL     1     -33.105  16.948  -2.588  1.00 20.00     0.005 C 
ENDBRANCH   6   7
BRANCH   6   9
HETATM    9  C8  UNL     1     -35.084  13.895  -3.904  1.00 20.00     0.002 C 
HETATM   10  C6  UNL     1     -36.381  13.575  -4.635  1.00 20.00     0.005 C 
ENDBRANCH   6   9
ENDBRANCH   1   6
BRANCH   1  11
HETATM   11  O11 UNL     1     -33.081  14.500  -5.440  1.00 20.00    -0.394 OA
HETATM   12  H31 UNL     1     -32.316  14.419  -4.854  1.00 20.00     0.210 HD
ENDBRANCH   1  11
TORSDOF 5
ENDMDL
MODEL 3
REMARK VINA RESULT:      -4.1     16.023     17.966
REMARK  5 active torsions:
REMARK  status: ('A' for Active; 'I' for Inactive)
REMARK    1  A    between atoms: C3_3  and  C9_9 
REMARK    2  A    between atoms: C7_7  and  C10_10 
REMARK    3  A    between atoms: C8_8  and  C10_10 
REMARK    4  A    between atoms: C9_9  and  C10_10 
REMARK    5  A    between atoms: C9_9  and  O11_11 
ROOT
HETATM    1  C9  UNL     1     -33.942  15.095  -3.662  1.00 20.00     0.130 C 
ENDROOT
BRANCH   1   2
HETATM    2  C3  UNL     1     -34.104  16.335  -2.789  1.00 20.00    -0.018 A 
HETATM    3  C1  UNL     1     -35.075  16.266  -1.633  1.00 20.00     0.012 A 
HETATM    4  C2  UNL     1     -35.419  17.077  -2.850  1.00 20.00     0.012 A 
HETATM    5  C4  UNL     1     -32.847  17.141  -2.607  1.00 20.00     0.018 C 
ENDBRANCH   1   2
BRANCH   1   6
HETATM    6  C10 UNL     1     -34.912  15.048  -4.872  1.00 20.00     0.014 C 
BRANCH   6   7
HETATM    7  C7  UNL     1     -35.964  13.921  -4.770  1.00 20.00     0.002 C 
HETATM    8  C5  UNL     1     -37.359  14.378  -4.366  1.00 20.00     0.005 C 
ENDBRANCH   6   7
BRANCH   6   9
HETATM    9  C8  UNL     1     -34.103  15.002  -6.193  1.00 20.00     0.002 C 
HETATM   10  C6  UNL     1     -34.418  16.138  -7.158  1.00 20.00     0.005 C 
ENDBRANCH   6   9
ENDBRANCH   1   6
BRANCH   1  11
HETATM   11  O11 UNL     1     -32.600  15.088  -4.156  1.00 20.00    -0.394 OA
HETATM   12  H31 UNL     1     -32.665  15.118  -5.120  1.00 20.00     0.210 HD
ENDBRANCH   1  11
TORSDOF 5
ENDMDL
MODEL 4
REMARK VINA RESULT:      -4.0     15.022     17.204
REMARK  5 active torsions:
REMARK  status: ('A' for Active; 'I' for Inactive)
REMARK    1  A    between atoms: C3_3  and  C9_9 
REMARK    2  A    between atoms: C7_7  and  C10_10 
REMARK    3  A    between atoms: C8_8  and  C10_10 
REMARK    4  A    between atoms: C9_9  and  C10_10 
REMARK    5  A    between atoms: C9_9  and  O11_11 
ROOT
HETATM    1  C9  UNL     1     -34.253  16.456  -3.762  1.00 20.00     0.130 C 
ENDROOT
BRANCH   1   2
HETATM    2  C3  UNL     1     -34.244  15.047  -4.349  1.00 20.00    -0.018 A 
HETATM    3  C1  UNL     1     -35.259  14.718  -5.418  1.00 20.00     0.012 A 
HETATM    4  C2  UNL     1     -35.413  14.143  -4.038  1.00 20.00     0.012 A 
HETATM    5  C4  UNL     1     -32.879  14.424  -4.456  1.00 20.00     0.018 C 
ENDBRANCH   1   2
BRANCH   1   6
HETATM    6  C10 UNL     1     -33.941  16.506  -2.244  1.00 20.00     0.014 C 
BRANCH   6   7
HETATM    7  C7  UNL     1     -35.190  16.759  -1.370  1.00 20.00     0.002 C 
HETATM    8  C5  UNL     1     -36.334  17.475  -2.074  1.00 20.00     0.005 C 
ENDBRANCH   6   7
BRANCH   6   9
HETATM    9  C8  UNL     1     -32.798  17.517  -1.975  1.00 20.00     0.002 C 
HETATM   10  C6  UNL     1     -32.922  18.261  -0.652  1.00 20.00     0.005 C 
ENDBRANCH   6   9
ENDBRANCH   1   6
BRANCH   1  11
HETATM   11  O11 UNL     1     -33.261  17.218  -4.456  1.00 20.00    -0.394 OA
HETATM   12  H31 UNL     1     -32.888  16.630  -5.127  1.00 20.00     0.210 HD
ENDBRANCH   1  11
TORSDOF 5
ENDMDL
MODEL 5
REMARK VINA RESULT:      -4.0     16.249     18.412
REMARK  5 active torsions:
REMARK  status: ('A' for Active; 'I' for Inactive)
REMARK    1  A    between atoms: C3_3  and  C9_9 
REMARK    2  A    between atoms: C7_7  and  C10_10 
REMARK    3  A    between atoms: C8_8  and  C10_10 
REMARK    4  A    between atoms: C9_9  and  C10_10 
REMARK    5  A    between atoms: C9_9  and  O11_11 
ROOT
HETATM    1  C9  UNL     1     -33.788  15.055  -4.760  1.00 20.00     0.130 C 
ENDROOT
BRANCH   1   2
HETATM    2  C3  UNL     1     -34.560  15.121  -6.074  1.00 20.00    -0.018 A 
HETATM    3  C1  UNL     1     -33.769  15.141  -7.360  1.00 20.00     0.012 A 
HETATM    4  C2  UNL     1     -34.461  16.388  -6.890  1.00 20.00     0.012 A 
HETATM    5  C4  UNL     1     -35.874  14.389  -6.065  1.00 20.00     0.018 C 
ENDBRANCH   1   2
BRANCH   1   6
HETATM    6  C10 UNL     1     -34.167  16.171  -3.752  1.00 20.00     0.014 C 
BRANCH   6   7
HETATM    7  C7  UNL     1     -32.952  16.985  -3.253  1.00 20.00     0.002 C 
HETATM    8  C5  UNL     1     -32.915  18.435  -3.717  1.00 20.00     0.005 C 
ENDBRANCH   6   7
BRANCH   6   9
HETATM    9  C8  UNL     1     -35.010  15.573  -2.597  1.00 20.00     0.002 C 
HETATM   10  C6  UNL     1     -35.155  16.490  -1.390  1.00 20.00     0.005 C 
ENDBRANCH   6   9
ENDBRANCH   1   6
BRANCH   1  11
HETATM   11  O11 UNL     1     -34.067  13.787  -4.159  1.00 20.00    -0.394 OA
HETATM   12  H31 UNL     1     -33.889  13.121  -4.839  1.00 20.00     0.210 HD
ENDBRANCH   1  11
TORSDOF 5
ENDMDL
MODEL 6
REMARK VINA RESULT:      -3.9     16.287     18.378
REMARK  5 active torsions:
REMARK  status: ('A' for Active; 'I' for Inactive)
REMARK    1  A    between atoms: C3_3  and  C9_9 
REMARK    2  A    between atoms: C7_7  and  C10_10 
REMARK    3  A    between atoms: C8_8  and  C10_10 
REMARK    4  A    between atoms: C9_9  and  C10_10 
REMARK    5  A    between atoms: C9_9  and  O11_11 
ROOT
HETATM    1  C9  UNL     1     -35.760  16.283  -4.047  1.00 20.00     0.130 C 
ENDROOT
BRANCH   1   2
HETATM    2  C3  UNL     1     -36.407  15.226  -4.936  1.00 20.00    -0.018 A 
HETATM    3  C1  UNL     1     -37.690  14.588  -4.459  1.00 20.00     0.012 A 
HETATM    4  C2  UNL     1     -36.413  13.797  -4.446  1.00 20.00     0.012 A 
HETATM    5  C4  UNL     1     -36.244  15.465  -6.412  1.00 20.00     0.018 C 
ENDBRANCH   1   2
BRANCH   1   6
HETATM    6  C10 UNL     1     -34.764  15.707  -3.008  1.00 20.00     0.014 C 
BRANCH   6   7
HETATM    7  C7  UNL     1     -34.927  16.316  -1.598  1.00 20.00     0.002 C 
HETATM    8  C5  UNL     1     -34.022  17.503  -1.300  1.00 20.00     0.005 C 
ENDBRANCH   6   7
BRANCH   6   9
HETATM    9  C8  UNL     1     -33.316  15.817  -3.550  1.00 20.00     0.002 C 
HETATM   10  C6  UNL     1     -32.838  14.586  -4.310  1.00 20.00     0.005 C 
ENDBRANCH   6   9
ENDBRANCH   1   6
BRANCH   1  11
HETATM   11  O11 UNL     1     -35.055  17.190  -4.899  1.00 20.00    -0.394 OA
HETATM   12  H31 UNL     1     -34.116  16.983  -4.796  1.00 20.00     0.210 HD
ENDBRANCH   1  11
TORSDOF 5
ENDMDL
MODEL 7
REMARK VINA RESULT:      -3.9     16.682     18.619
REMARK  5 active torsions:
REMARK  status: ('A' for Active; 'I' for Inactive)
REMARK    1  A    between atoms: C3_3  and  C9_9 
REMARK    2  A    between atoms: C7_7  and  C10_10 
REMARK    3  A    between atoms: C8_8  and  C10_10 
REMARK    4  A    between atoms: C9_9  and  C10_10 
REMARK    5  A    between atoms: C9_9  and  O11_11 
ROOT
HETATM    1  C9  UNL     1     -35.466  14.906  -3.869  1.00 20.00     0.130 C 
ENDROOT
BRANCH   1   2
HETATM    2  C3  UNL     1     -34.600  15.889  -3.086  1.00 20.00    -0.018 A 
HETATM    3  C1  UNL     1     -35.008  16.220  -1.670  1.00 20.00     0.012 A 
HETATM    4  C2  UNL     1     -35.186  17.241  -2.757  1.00 20.00     0.012 A 
HETATM    5  C4  UNL     1     -33.131  15.814  -3.398  1.00 20.00     0.018 C 
ENDBRANCH   1   2
BRANCH   1   6
HETATM    6  C10 UNL     1     -35.998  15.470  -5.212  1.00 20.00     0.014 C 
BRANCH   6   7
HETATM    7  C7  UNL     1     -37.533  15.644  -5.238  1.00 20.00     0.002 C 
HETATM    8  C5  UNL     1     -38.296  14.782  -4.241  1.00 20.00     0.005 C 
ENDBRANCH   6   7
BRANCH   6   9
HETATM    9  C8  UNL     1     -35.466  14.614  -6.390  1.00 20.00     0.002 C 
HETATM   10  C6  UNL     1     -34.373  15.289  -7.208  1.00 20.00     0.005 C 
ENDBRANCH   6   9
ENDBRANCH   1   6
BRANCH   1  11
HETATM   11  O11 UNL     1     -34.666  13.753  -4.145  1.00 20.00    -0.394 OA
HETATM   12  H31 UNL     1     -35.275  13.001  -4.169  1.00 20.00     0.210 HD
ENDBRANCH   1  11
TORSDOF 5
ENDMDL
MODEL 8
REMARK VINA RESULT:      -3.8     12.901     15.150
REMARK  5 active torsions:
REMARK  status: ('A' for Active; 'I' for Inactive)
REMARK    1  A    between atoms: C3_3  and  C9_9 
REMARK    2  A    between atoms: C7_7  and  C10_10 
REMARK    3  A    between atoms: C8_8  and  C10_10 
REMARK    4  A    between atoms: C9_9  and  C10_10 
REMARK    5  A    between atoms: C9_9  and  O11_11 
ROOT
HETATM    1  C9  UNL     1     -33.473  18.181  -2.025  1.00 20.00     0.130 C 
ENDROOT
BRANCH   1   2
HETATM    2  C3  UNL     1     -34.053  16.885  -2.582  1.00 20.00    -0.018 A 
HETATM    3  C1  UNL     1     -35.502  16.884  -3.010  1.00 20.00     0.012 A 
HETATM    4  C2  UNL     1     -35.093  16.164  -1.757  1.00 20.00     0.012 A 
HETATM    5  C4  UNL     1     -33.082  16.055  -3.376  1.00 20.00     0.018 C 
ENDBRANCH   1   2
BRANCH   1   6
HETATM    6  C10 UNL     1     -32.914  18.051  -0.584  1.00 20.00     0.014 C 
BRANCH   6   7
HETATM    7  C7  UNL     1     -33.727  18.844   0.463  1.00 20.00     0.002 C 
HETATM    8  C5  UNL     1     -34.491  17.990   1.466  1.00 20.00     0.005 C 
ENDBRANCH   6   7
BRANCH   6   9
HETATM    9  C8  UNL     1     -31.405  18.403  -0.571  1.00 20.00     0.002 C 
HETATM   10  C6  UNL     1     -30.740  18.253   0.791  1.00 20.00     0.005 C 
ENDBRANCH   6   9
ENDBRANCH   1   6
BRANCH   1  11
HETATM   11  O11 UNL     1     -32.408  18.584  -2.891  1.00 20.00    -0.394 OA
HETATM   12  H31 UNL     1     -31.619  18.114  -2.586  1.00 20.00     0.210 HD
ENDBRANCH   1  11
TORSDOF 5
ENDMDL
MODEL 9
REMARK VINA RESULT:      -3.8     16.816     19.023
REMARK  5 active torsions:
REMARK  status: ('A' for Active; 'I' for Inactive)
REMARK    1  A    between atoms: C3_3  and  C9_9 
REMARK    2  A    between atoms: C7_7  and  C10_10 
REMARK    3  A    between atoms: C8_8  and  C10_10 
REMARK    4  A    between atoms: C9_9  and  C10_10 
REMARK    5  A    between atoms: C9_9  and  O11_11 
ROOT
HETATM    1  C9  UNL     1     -33.886  15.315  -4.981  1.00 20.00     0.130 C 
ENDROOT
BRANCH   1   2
HETATM    2  C3  UNL     1     -34.667  16.055  -6.062  1.00 20.00    -0.018 A 
HETATM    3  C1  UNL     1     -34.361  17.517  -6.283  1.00 20.00     0.012 A 
HETATM    4  C2  UNL     1     -35.650  17.115  -5.626  1.00 20.00     0.012 A 
HETATM    5  C4  UNL     1     -35.018  15.219  -7.262  1.00 20.00     0.018 C 
ENDBRANCH   1   2
BRANCH   1   6
HETATM    6  C10 UNL     1     -34.780  14.541  -3.978  1.00 20.00     0.014 C 
BRANCH   6   7
HETATM    7  C7  UNL     1     -35.986  13.842  -4.645  1.00 20.00     0.002 C 
HETATM    8  C5  UNL     1     -37.351  14.354  -4.204  1.00 20.00     0.005 C 
ENDBRANCH   6   7
BRANCH   6   9
HETATM    9  C8  UNL     1     -35.192  15.475  -2.811  1.00 20.00     0.002 C 
HETATM   10  C6  UNL     1     -34.067  16.364  -2.297  1.00 20.00     0.005 C 
ENDBRANCH   6   9
ENDBRANCH   1   6
BRANCH   1  11
HETATM   11  O11 UNL     1     -33.023  14.381  -5.635  1.00 20.00    -0.394 OA
HETATM   12  H31 UNL     1     -32.236  14.878  -5.900  1.00 20.00     0.210 HD
ENDBRANCH   1  11
TORSDOF 5
ENDMDL
