MODEL 1
REMARK VINA RESULT:      -4.5      0.000      0.000
REMARK  3 active torsions:
REMARK  status: ('A' for Active; 'I' for Inactive)
REMARK    1  A    between atoms: C1_1  and  C6_6 
REMARK    2  A    between atoms: C1_1  and  O8_8 
REMARK    3  A    between atoms: C4_4  and  C6_6 
ROOT
HETATM    1  C1  UNL     1     -36.532  13.847  -4.349  1.00 20.00     0.132 C 
HETATM    2  N7  UNL     1     -35.796  12.803  -4.536  1.00 20.00    -0.282 NA
HETATM    3  H19 UNL     1     -34.807  13.035  -4.393  1.00 20.00     0.189 HD
ENDROOT
BRANCH   1   4
HETATM    4  C6  UNL     1     -35.981  15.196  -3.987  1.00 20.00     0.090 C 
BRANCH   4   5
HETATM    5  C4  UNL     1     -34.801  15.097  -3.075  1.00 20.00    -0.007 A 
HETATM    6  C2  UNL     1     -33.526  15.824  -3.404  1.00 20.00     0.005 A 
HETATM    7  C3  UNL     1     -34.377  16.284  -2.254  1.00 20.00     0.005 A 
ENDBRANCH   4   5
ENDBRANCH   1   4
BRANCH   1   8
HETATM    8  O8  UNL     1     -37.883  13.864  -4.482  1.00 20.00    -0.343 OA
HETATM    9  C5  UNL     1     -38.549  15.113  -4.251  1.00 20.00     0.211 C 
ENDBRANCH   1   8
TORSDOF 3
ENDMDL
MODEL 2
REMARK VINA RESULT:      -4.3      1.389      1.742
REMARK  3 active torsions:
REMARK  status: ('A' for Active; 'I' for Inactive)
REMARK    1  A    between atoms: C1_1  and  C6_6 
REMARK    2  A    between atoms: C1_1  and  O8_8 
REMARK    3  A    between atoms: C4_4  and  C6_6 
ROOT
HETATM    1  C1  UNL     1     -35.958  13.749  -4.844  1.00 20.00     0.132 C 
HETATM    2  N7  UNL     1     -35.920  12.598  -4.261  1.00 20.00    -0.282 NA
HETATM    3  H19 UNL     1     -35.843  12.717  -3.245  1.00 20.00     0.189 HD
ENDROOT
BRANCH   1   4
HETATM    4  C6  UNL     1     -35.884  15.055  -4.108  1.00 20.00     0.090 C 
BRANCH   4   5
HETATM    5  C4  UNL     1     -34.814  15.054  -3.065  1.00 20.00    -0.007 A 
HETATM    6  C2  UNL     1     -33.585  15.903  -3.240  1.00 20.00     0.005 A 
HETATM    7  C3  UNL     1     -34.604  16.264  -2.195  1.00 20.00     0.005 A 
ENDBRANCH   4   5
ENDBRANCH   1   4
BRANCH   1   8
HETATM    8  O8  UNL     1     -36.040  13.922  -6.189  1.00 20.00    -0.343 OA
HETATM    9  C5  UNL     1     -35.266  14.985  -6.761  1.00 20.00     0.211 C 
ENDBRANCH   1   8
TORSDOF 3
ENDMDL
MODEL 3
REMARK VINA RESULT:      -4.2     11.302     11.849
REMARK  3 active torsions:
REMARK  status: ('A' for Active; 'I' for Inactive)
REMARK    1  A    between atoms: C1_1  and  C6_6 
REMARK    2  A    between atoms: C1_1  and  O8_8 
REMARK    3  A    between atoms: C4_4  and  C6_6 
ROOT
HETATM    1  C1  UNL     1     -32.871   6.518   2.898  1.00 20.00     0.132 C 
HETATM    2  N7  UNL     1     -33.115   5.415   2.272  1.00 20.00    -0.282 NA
HETATM    3  H19 UNL     1     -33.629   4.768   2.879  1.00 20.00     0.189 HD
ENDROOT
BRANCH   1   4
HETATM    4  C6  UNL     1     -33.283   6.773   4.319  1.00 20.00     0.090 C 
BRANCH   4   5
HETATM    5  C4  UNL     1     -34.599   6.143   4.646  1.00 20.00    -0.007 A 
HETATM    6  C2  UNL     1     -34.708   4.650   4.796  1.00 20.00     0.005 A 
HETATM    7  C3  UNL     1     -34.831   5.537   6.003  1.00 20.00     0.005 A 
ENDBRANCH   4   5
ENDBRANCH   1   4
BRANCH   1   8
HETATM    8  O8  UNL     1     -32.191   7.566   2.366  1.00 20.00    -0.343 OA
HETATM    9  C5  UNL     1     -32.700   8.129   1.150  1.00 20.00     0.211 C 
ENDBRANCH   1   8
TORSDOF 3
ENDMDL
MODEL 4
REMARK VINA RESULT:      -4.1     10.977     11.531
REMARK  3 active torsions:
REMARK  status: ('A' for Active; 'I' for Inactive)
REMARK    1  A    between atoms: C1_1  and  C6_6 
REMARK    2  A    between atoms: C1_1  and  O8_8 
REMARK    3  A    between atoms: C4_4  and  C6_6 
ROOT
HETATM    1  C1  UNL     1     -32.453   6.981   2.784  1.00 20.00     0.132 C 
HETATM    2  N7  UNL     1     -31.719   7.666   3.596  1.00 20.00    -0.282 NA
HETATM    3  H19 UNL     1     -31.823   7.313   4.553  1.00 20.00     0.189 HD
ENDROOT
BRANCH   1   4
HETATM    4  C6  UNL     1     -33.331   5.844   3.220  1.00 20.00     0.090 C 
BRANCH   4   5
HETATM    5  C4  UNL     1     -34.372   6.279   4.200  1.00 20.00    -0.007 A 
HETATM    6  C2  UNL     1     -35.164   5.257   4.967  1.00 20.00     0.005 A 
HETATM    7  C3  UNL     1     -34.143   6.102   5.676  1.00 20.00     0.005 A 
ENDBRANCH   4   5
ENDBRANCH   1   4
BRANCH   1   8
HETATM    8  O8  UNL     1     -32.545   7.218   1.450  1.00 20.00    -0.343 OA
HETATM    9  C5  UNL     1     -32.801   8.567   1.039  1.00 20.00     0.211 C 
ENDBRANCH   1   8
TORSDOF 3
ENDMDL
MODEL 5
REMARK VINA RESULT:      -4.1     11.496     11.906
REMARK  3 active torsions:
REMARK  status: ('A' for Active; 'I' for Inactive)
REMARK    1  A    between atoms: C1_1  and  C6_6 
REMARK    2  A    between atoms: C1_1  and  O8_8 
REMARK    3  A    between atoms: C4_4  and  C6_6 
ROOT
HETATM    1  C1  UNL     1     -34.183   4.914   3.837  1.00 20.00     0.132 C 
HETATM    2  N7  UNL     1     -34.334   3.656   4.084  1.00 20.00    -0.282 NA
HETATM    3  H19 UNL     1     -33.839   3.095   3.383  1.00 20.00     0.189 HD
ENDROOT
BRANCH   1   4
HETATM    4  C6  UNL     1     -33.398   5.442   2.672  1.00 20.00     0.090 C 
BRANCH   4   5
HETATM    5  C4  UNL     1     -33.169   6.916   2.767  1.00 20.00    -0.007 A 
HETATM    6  C2  UNL     1     -31.795   7.452   3.065  1.00 20.00     0.005 A 
HETATM    7  C3  UNL     1     -32.391   7.632   1.697  1.00 20.00     0.005 A 
ENDBRANCH   4   5
ENDBRANCH   1   4
BRANCH   1   8
HETATM    8  O8  UNL     1     -34.734   5.911   4.578  1.00 20.00    -0.343 OA
HETATM    9  C5  UNL     1     -34.614   5.812   6.003  1.00 20.00     0.211 C 
ENDBRANCH   1   8
TORSDOF 3
ENDMDL
MODEL 6
REMARK VINA RESULT:      -4.0      2.058      2.501
REMARK  3 active torsions:
REMARK  status: ('A' for Active; 'I' for Inactive)
REMARK    1  A    between atoms: C1_1  and  C6_6 
REMARK    2  A    between atoms: C1_1  and  O8_8 
REMARK    3  A    between atoms: C4_4  and  C6_6 
ROOT
HETATM    1  C1  UNL     1     -33.926  14.329  -4.196  1.00 20.00     0.132 C 
HETATM    2  N7  UNL     1     -32.883  14.338  -4.957  1.00 20.00    -0.282 NA
HETATM    3  H19 UNL     1     -32.340  15.194  -4.805  1.00 20.00     0.189 HD
ENDROOT
BRANCH   1   4
HETATM    4  C6  UNL     1     -34.270  15.441  -3.247  1.00 20.00     0.090 C 
BRANCH   4   5
HETATM    5  C4  UNL     1     -33.105  16.342  -2.988  1.00 20.00    -0.007 A 
HETATM    6  C2  UNL     1     -33.164  17.790  -3.388  1.00 20.00     0.005 A 
HETATM    7  C3  UNL     1     -33.195  17.410  -1.934  1.00 20.00     0.005 A 
ENDBRANCH   4   5
ENDBRANCH   1   4
BRANCH   1   8
HETATM    8  O8  UNL     1     -34.853  13.336  -4.180  1.00 20.00    -0.343 OA
HETATM    9  C5  UNL     1     -36.192  13.682  -4.557  1.00 20.00     0.211 C 
ENDBRANCH   1   8
TORSDOF 3
ENDMDL
MODEL 7
REMARK VINA RESULT:      -4.0     17.737     19.141
REMARK  3 active torsions:
REMARK  status: ('A' for Active; 'I' for Inactive)
REMARK    1  A    between atoms: C1_1  and  C6_6 
REMARK    2  A    between atoms: C1_1  and  O8_8 
REMARK    3  A    between atoms: C4_4  and  C6_6 
ROOT
HETATM    1  C1  UNL     1     -22.497  17.508   8.671  1.00 20.00     0.132 C 
HETATM    2  N7  UNL     1     -21.766  16.446   8.743  1.00 20.00    -0.282 NA
HETATM    3  H19 UNL     1     -21.530  16.244   9.720  1.00 20.00     0.189 HD
ENDROOT
BRANCH   1   4
HETATM    4  C6  UNL     1     -22.910  18.313   9.869  1.00 20.00     0.090 C 
BRANCH   4   5
HETATM    5  C4  UNL     1     -23.104  17.462  11.081  1.00 20.00    -0.007 A 
HETATM    6  C2  UNL     1     -22.313  17.732  12.331  1.00 20.00     0.005 A 
HETATM    7  C3  UNL     1     -23.787  18.023  12.298  1.00 20.00     0.005 A 
ENDBRANCH   4   5
ENDBRANCH   1   4
BRANCH   1   8
HETATM    8  O8  UNL     1     -22.957  18.043   7.510  1.00 20.00    -0.343 OA
HETATM    9  C5  UNL     1     -24.143  18.846   7.582  1.00 20.00     0.211 C 
ENDBRANCH   1   8
TORSDOF 3
ENDMDL
MODEL 8
REMARK VINA RESULT:      -3.9      2.075      2.352
REMARK  3 active torsions:
REMARK  status: ('A' for Active; 'I' for Inactive)
REMARK    1  A    between atoms: C1_1  and  C6_6 
REMARK    2  A    between atoms: C1_1  and  O8_8 
REMARK    3  A    between atoms: C4_4  and  C6_6 
ROOT
HETATM    1  C1  UNL     1     -34.366  14.833  -5.910  1.00 20.00     0.132 C 
HETATM    2  N7  UNL     1     -33.273  14.612  -6.560  1.00 20.00    -0.282 NA
HETATM    3  H19 UNL     1     -32.550  15.282  -6.276  1.00 20.00     0.189 HD
ENDROOT
BRANCH   1   4
HETATM    4  C6  UNL     1     -34.523  15.931  -4.899  1.00 20.00     0.090 C 
BRANCH   4   5
HETATM    5  C4  UNL     1     -33.706  15.688  -3.671  1.00 20.00    -0.007 A 
HETATM    6  C2  UNL     1     -33.108  16.844  -2.918  1.00 20.00     0.005 A 
HETATM    7  C3  UNL     1     -34.244  16.065  -2.318  1.00 20.00     0.005 A 
ENDBRANCH   4   5
ENDBRANCH   1   4
BRANCH   1   8
HETATM    8  O8  UNL     1     -35.512  14.123  -6.078  1.00 20.00    -0.343 OA
HETATM    9  C5  UNL     1     -36.275  13.821  -4.902  1.00 20.00     0.211 C 
ENDBRANCH   1   8
TORSDOF 3
ENDMDL
MODEL 9
REMARK VINA RESULT:      -3.9     10.159     10.622
REMARK  3 active torsions:
REMARK  status: ('A' for Active; 'I' for Inactive)
REMARK    1  A    between atoms: C1_1  and  C6_6 
REMARK    2  A    between atoms: C1_1  and  O8_8 
REMARK    3  A    between atoms: C4_4  and  C6_6 
ROOT
HETATM    1  C1  UNL     1     -33.209   6.088   3.042  1.00 20.00     0.132 C 
HETATM    2  N7  UNL     1     -33.209   4.913   2.506  1.00 20.00    -0.282 NA
HETATM    3  H19 UNL     1     -32.605   4.900   1.678  1.00 20.00     0.189 HD
ENDROOT
BRANCH   1   4
HETATM    4  C6  UNL     1     -32.434   7.250   2.491  1.00 20.00     0.090 C 
BRANCH   4   5
HETATM    5  C4  UNL     1     -33.085   7.840   1.282  1.00 20.00    -0.007 A 
HETATM    6  C2  UNL     1     -32.956   9.310   0.995  1.00 20.00     0.005 A 
HETATM    7  C3  UNL     1     -32.246   8.310   0.126  1.00 20.00     0.005 A 
ENDBRANCH   4   5
ENDBRANCH   1   4
BRANCH   1   8
HETATM    8  O8  UNL     1     -33.927   6.426   4.144  1.00 20.00    -0.343 OA
HETATM    9  C5  UNL     1     -34.896   5.479   4.612  1.00 20.00     0.211 C 
ENDBRANCH   1   8
TORSDOF 3
ENDMDL
