MODEL 1
REMARK VINA RESULT:      -5.4      0.000      0.000
REMARK  3 active torsions:
REMARK  status: ('A' for Active; 'I' for Inactive)
REMARK    1  A    between atoms: C5_5  and  C8_8 
REMARK    2  A    between atoms: C7_7  and  C8_8 
REMARK    3  A    between atoms: C8_8  and  O9_9 
ROOT
HETATM    1  C1  UNL     1     -32.653   8.561   0.556  1.00 20.00     0.012 C 
HETATM    2  C2  UNL     1     -32.544   7.878   1.537  1.00 20.00    -0.115 C 
HETATM    3  C7  UNL     1     -32.408   7.042   2.742  1.00 20.00     0.125 C 
ENDROOT
BRANCH   3   4
HETATM    4  C8  UNL     1     -33.494   5.956   2.816  1.00 20.00     0.137 C 
BRANCH   4   5
HETATM    5  C5  UNL     1     -34.121   5.885   4.182  1.00 20.00    -0.017 A 
HETATM    6  C3  UNL     1     -34.481   4.522   4.726  1.00 20.00     0.012 A 
HETATM    7  C4  UNL     1     -35.567   5.457   4.277  1.00 20.00     0.012 A 
HETATM    8  C6  UNL     1     -33.628   6.924   5.151  1.00 20.00     0.018 C 
ENDBRANCH   4   5
BRANCH   4   9
HETATM    9  O9  UNL     1     -32.883   4.696   2.511  1.00 20.00    -0.394 OA
HETATM   10  H21 UNL     1     -32.499   4.377   3.339  1.00 20.00     0.210 HD
ENDBRANCH   4   9
ENDBRANCH   3   4
TORSDOF 3
ENDMDL
MODEL 2
REMARK VINA RESULT:      -4.2     11.290     12.430
REMARK  3 active torsions:
REMARK  status: ('A' for Active; 'I' for Inactive)
REMARK    1  A    between atoms: C5_5  and  C8_8 
REMARK    2  A    between atoms: C7_7  and  C8_8 
REMARK    3  A    between atoms: C8_8  and  O9_9 
ROOT
HETATM    1  C1  UNL     1     -34.138  16.786  -2.066  1.00 20.00     0.012 C 
HETATM    2  C2  UNL     1     -34.006  15.879  -2.841  1.00 20.00    -0.115 C 
HETATM    3  C7  UNL     1     -33.843  14.764  -3.790  1.00 20.00     0.125 C 
ENDROOT
BRANCH   3   4
HETATM    4  C8  UNL     1     -34.117  15.195  -5.240  1.00 20.00     0.137 C 
BRANCH   4   5
HETATM    5  C5  UNL     1     -35.505  14.818  -5.683  1.00 20.00    -0.017 A 
HETATM    6  C3  UNL     1     -35.814  14.863  -7.160  1.00 20.00     0.012 A 
HETATM    7  C4  UNL     1     -36.390  15.906  -6.245  1.00 20.00     0.012 A 
HETATM    8  C6  UNL     1     -36.151  13.738  -4.859  1.00 20.00     0.018 C 
ENDBRANCH   4   5
BRANCH   4   9
HETATM    9  O9  UNL     1     -33.159  14.546  -6.085  1.00 20.00    -0.394 OA
HETATM   10  H21 UNL     1     -32.594  15.248  -6.437  1.00 20.00     0.210 HD
ENDBRANCH   4   9
ENDBRANCH   3   4
TORSDOF 3
ENDMDL
MODEL 3
REMARK VINA RESULT:      -4.2     10.985     12.540
REMARK  3 active torsions:
REMARK  status: ('A' for Active; 'I' for Inactive)
REMARK    1  A    between atoms: C5_5  and  C8_8 
REMARK    2  A    between atoms: C7_7  and  C8_8 
REMARK    3  A    between atoms: C8_8  and  O9_9 
ROOT
HETATM    1  C1  UNL     1     -34.613  16.664  -1.753  1.00 20.00     0.012 C 
HETATM    2  C2  UNL     1     -34.624  15.771  -2.554  1.00 20.00    -0.115 C 
HETATM    3  C7  UNL     1     -34.640  14.673  -3.535  1.00 20.00     0.125 C 
ENDROOT
BRANCH   3   4
HETATM    4  C8  UNL     1     -33.756  14.976  -4.756  1.00 20.00     0.137 C 
BRANCH   4   5
HETATM    5  C5  UNL     1     -34.567  15.101  -6.017  1.00 20.00    -0.017 A 
HETATM    6  C3  UNL     1     -33.828  15.140  -7.334  1.00 20.00     0.012 A 
HETATM    7  C4  UNL     1     -34.467  16.390  -6.799  1.00 20.00     0.012 A 
HETATM    8  C6  UNL     1     -35.898  14.403  -5.975  1.00 20.00     0.018 C 
ENDBRANCH   4   5
BRANCH   4   9
HETATM    9  O9  UNL     1     -32.818  13.902  -4.902  1.00 20.00    -0.394 OA
HETATM   10  H21 UNL     1     -33.247  13.119  -4.530  1.00 20.00     0.210 HD
ENDBRANCH   4   9
ENDBRANCH   3   4
TORSDOF 3
ENDMDL
MODEL 4
REMARK VINA RESULT:      -4.0      1.548      4.245
REMARK  3 active torsions:
REMARK  status: ('A' for Active; 'I' for Inactive)
REMARK    1  A    between atoms: C5_5  and  C8_8 
REMARK    2  A    between atoms: C7_7  and  C8_8 
REMARK    3  A    between atoms: C8_8  and  O9_9 
ROOT
HETATM    1  C1  UNL     1     -34.838   4.737   6.529  1.00 20.00     0.012 C 
HETATM    2  C2  UNL     1     -34.902   5.193   5.421  1.00 20.00    -0.115 C 
HETATM    3  C7  UNL     1     -34.983   5.749   4.060  1.00 20.00     0.125 C 
ENDROOT
BRANCH   3   4
HETATM    4  C8  UNL     1     -33.989   6.903   3.848  1.00 20.00     0.137 C 
BRANCH   4   5
HETATM    5  C5  UNL     1     -32.964   6.572   2.799  1.00 20.00    -0.017 A 
HETATM    6  C3  UNL     1     -31.646   7.308   2.839  1.00 20.00     0.012 A 
HETATM    7  C4  UNL     1     -32.645   7.625   1.763  1.00 20.00     0.012 A 
HETATM    8  C6  UNL     1     -32.955   5.132   2.366  1.00 20.00     0.018 C 
ENDBRANCH   4   5
BRANCH   4   9
HETATM    9  O9  UNL     1     -33.326   7.152   5.094  1.00 20.00    -0.394 OA
HETATM   10  H21 UNL     1     -32.886   8.008   4.997  1.00 20.00     0.210 HD
ENDBRANCH   4   9
ENDBRANCH   3   4
TORSDOF 3
ENDMDL
MODEL 5
REMARK VINA RESULT:      -3.9      8.896     10.127
REMARK  3 active torsions:
REMARK  status: ('A' for Active; 'I' for Inactive)
REMARK    1  A    between atoms: C5_5  and  C8_8 
REMARK    2  A    between atoms: C7_7  and  C8_8 
REMARK    3  A    between atoms: C8_8  and  O9_9 
ROOT
HETATM    1  C1  UNL     1     -42.295   2.786  -3.186  1.00 20.00     0.012 C 
HETATM    2  C2  UNL     1     -42.647   3.751  -2.565  1.00 20.00    -0.115 C 
HETATM    3  C7  UNL     1     -43.080   4.935  -1.805  1.00 20.00     0.125 C 
ENDROOT
BRANCH   3   4
HETATM    4  C8  UNL     1     -42.054   5.343  -0.736  1.00 20.00     0.137 C 
BRANCH   4   5
HETATM    5  C5  UNL     1     -42.174   6.798  -0.371  1.00 20.00    -0.017 A 
HETATM    6  C3  UNL     1     -41.234   7.346   0.676  1.00 20.00     0.012 A 
HETATM    7  C4  UNL     1     -42.684   7.142   1.009  1.00 20.00     0.012 A 
HETATM    8  C6  UNL     1     -42.562   7.698  -1.512  1.00 20.00     0.018 C 
ENDBRANCH   4   5
BRANCH   4   9
HETATM    9  O9  UNL     1     -40.743   5.095  -1.262  1.00 20.00    -0.394 OA
HETATM   10  H21 UNL     1     -40.839   5.083  -2.224  1.00 20.00     0.210 HD
ENDBRANCH   4   9
ENDBRANCH   3   4
TORSDOF 3
ENDMDL
MODEL 6
REMARK VINA RESULT:      -3.9     11.049     12.118
REMARK  3 active torsions:
REMARK  status: ('A' for Active; 'I' for Inactive)
REMARK    1  A    between atoms: C5_5  and  C8_8 
REMARK    2  A    between atoms: C7_7  and  C8_8 
REMARK    3  A    between atoms: C8_8  and  O9_9 
ROOT
HETATM    1  C1  UNL     1     -31.566  18.193  -0.770  1.00 20.00     0.012 C 
HETATM    2  C2  UNL     1     -32.539  17.977  -1.439  1.00 20.00    -0.115 C 
HETATM    3  C7  UNL     1     -33.733  17.715  -2.260  1.00 20.00     0.125 C 
ENDROOT
BRANCH   3   4
HETATM    4  C8  UNL     1     -34.069  16.217  -2.330  1.00 20.00     0.137 C 
BRANCH   4   5
HETATM    5  C5  UNL     1     -34.169  15.731  -3.750  1.00 20.00    -0.017 A 
HETATM    6  C3  UNL     1     -34.576  14.296  -3.982  1.00 20.00     0.012 A 
HETATM    7  C4  UNL     1     -33.155  14.717  -4.226  1.00 20.00     0.012 A 
HETATM    8  C6  UNL     1     -34.645  16.767  -4.732  1.00 20.00     0.018 C 
ENDBRANCH   4   5
BRANCH   4   9
HETATM    9  O9  UNL     1     -35.325  16.012  -1.671  1.00 20.00    -0.394 OA
HETATM   10  H21 UNL     1     -35.933  16.665  -2.046  1.00 20.00     0.210 HD
ENDBRANCH   4   9
ENDBRANCH   3   4
TORSDOF 3
ENDMDL
MODEL 7
REMARK VINA RESULT:      -3.8     11.258     12.480
REMARK  3 active torsions:
REMARK  status: ('A' for Active; 'I' for Inactive)
REMARK    1  A    between atoms: C5_5  and  C8_8 
REMARK    2  A    between atoms: C7_7  and  C8_8 
REMARK    3  A    between atoms: C8_8  and  O9_9 
ROOT
HETATM    1  C1  UNL     1     -34.921  14.119  -4.116  1.00 20.00     0.012 C 
HETATM    2  C2  UNL     1     -34.757  14.984  -3.301  1.00 20.00    -0.115 C 
HETATM    3  C7  UNL     1     -34.558  16.044  -2.298  1.00 20.00     0.125 C 
ENDROOT
BRANCH   3   4
HETATM    4  C8  UNL     1     -33.197  16.740  -2.456  1.00 20.00     0.137 C 
BRANCH   4   5
HETATM    5  C5  UNL     1     -33.086  17.958  -1.580  1.00 20.00    -0.017 A 
HETATM    6  C3  UNL     1     -32.283  19.130  -2.093  1.00 20.00     0.012 A 
HETATM    7  C4  UNL     1     -31.736  18.280  -0.981  1.00 20.00     0.012 A 
HETATM    8  C6  UNL     1     -34.310  18.248  -0.755  1.00 20.00     0.018 C 
ENDBRANCH   4   5
BRANCH   4   9
HETATM    9  O9  UNL     1     -33.054  17.131  -3.828  1.00 20.00    -0.394 OA
HETATM   10  H21 UNL     1     -33.896  17.536  -4.079  1.00 20.00     0.210 HD
ENDBRANCH   4   9
ENDBRANCH   3   4
TORSDOF 3
ENDMDL
MODEL 8
REMARK VINA RESULT:      -3.8     11.465     12.160
REMARK  3 active torsions:
REMARK  status: ('A' for Active; 'I' for Inactive)
REMARK    1  A    between atoms: C5_5  and  C8_8 
REMARK    2  A    between atoms: C7_7  and  C8_8 
REMARK    3  A    between atoms: C8_8  and  O9_9 
ROOT
HETATM    1  C1  UNL     1     -37.330  14.293  -4.358  1.00 20.00     0.012 C 
HETATM    2  C2  UNL     1     -36.223  14.442  -4.796  1.00 20.00    -0.115 C 
HETATM    3  C7  UNL     1     -34.865  14.623  -5.336  1.00 20.00     0.125 C 
ENDROOT
BRANCH   3   4
HETATM    4  C8  UNL     1     -33.832  14.880  -4.228  1.00 20.00     0.137 C 
BRANCH   4   5
HETATM    5  C5  UNL     1     -33.926  16.280  -3.687  1.00 20.00    -0.017 A 
HETATM    6  C3  UNL     1     -33.000  16.669  -2.559  1.00 20.00     0.012 A 
HETATM    7  C4  UNL     1     -34.463  16.465  -2.287  1.00 20.00     0.012 A 
HETATM    8  C6  UNL     1     -34.263  17.325  -4.715  1.00 20.00     0.018 C 
ENDBRANCH   4   5
BRANCH   4   9
HETATM    9  O9  UNL     1     -32.525  14.675  -4.782  1.00 20.00    -0.394 OA
HETATM   10  H21 UNL     1     -32.487  13.743  -5.039  1.00 20.00     0.210 HD
ENDBRANCH   4   9
ENDBRANCH   3   4
TORSDOF 3
ENDMDL
MODEL 9
REMARK VINA RESULT:      -3.7      9.157      9.948
REMARK  3 active torsions:
REMARK  status: ('A' for Active; 'I' for Inactive)
REMARK    1  A    between atoms: C5_5  and  C8_8 
REMARK    2  A    between atoms: C7_7  and  C8_8 
REMARK    3  A    between atoms: C8_8  and  O9_9 
ROOT
HETATM    1  C1  UNL     1     -41.214   9.564   0.347  1.00 20.00     0.012 C 
HETATM    2  C2  UNL     1     -42.187   8.862   0.368  1.00 20.00    -0.115 C 
HETATM    3  C7  UNL     1     -43.383   8.003   0.397  1.00 20.00     0.125 C 
ENDROOT
BRANCH   3   4
HETATM    4  C8  UNL     1     -43.386   6.979  -0.750  1.00 20.00     0.137 C 
BRANCH   4   5
HETATM    5  C5  UNL     1     -42.561   5.766  -0.419  1.00 20.00    -0.017 A 
HETATM    6  C3  UNL     1     -41.244   5.587  -1.137  1.00 20.00     0.012 A 
HETATM    7  C4  UNL     1     -42.408   4.702  -1.481  1.00 20.00     0.012 A 
HETATM    8  C6  UNL     1     -42.648   5.323   1.015  1.00 20.00     0.018 C 
ENDBRANCH   4   5
BRANCH   4   9
HETATM    9  O9  UNL     1     -42.845   7.616  -1.915  1.00 20.00    -0.394 OA
HETATM   10  H21 UNL     1     -43.303   8.464  -1.993  1.00 20.00     0.210 HD
ENDBRANCH   4   9
ENDBRANCH   3   4
TORSDOF 3
ENDMDL
