MODEL 1
REMARK VINA RESULT:      -5.3      0.000      0.000
REMARK  2 active torsions:
REMARK  status: ('A' for Active; 'I' for Inactive)
REMARK    1  A    between atoms: C1_1  and  C5_5 
REMARK    2  A    between atoms: C1_1  and  C8_8 
ROOT
HETATM    1  C2  UNL     1     -33.584   5.135   2.943  1.00 20.00     0.017 C 
HETATM    2  C3  UNL     1     -33.754   6.787   4.735  1.00 20.00     0.017 C 
HETATM    3  C4  UNL     1     -35.701   5.036   4.498  1.00 20.00     0.010 A 
HETATM    4  C5  UNL     1     -33.596   6.650   3.211  1.00 20.00     0.057 C 
HETATM    5  C6  UNL     1     -34.347   4.526   4.082  1.00 20.00    -0.009 A 
HETATM    6  C7  UNL     1     -34.451   5.533   5.175  1.00 20.00    -0.009 A 
ENDROOT
BRANCH   4   7
HETATM    7  C1  UNL     1     -32.352   7.314   2.717  1.00 20.00     0.144 C 
HETATM    8  O9  UNL     1     -31.436   7.585   3.493  1.00 20.00    -0.296 OA
BRANCH   7   9
HETATM    9  C8  UNL     1     -32.313   7.616   1.236  1.00 20.00     0.193 C 
HETATM   10 CL10 UNL     1     -33.005   9.211   0.904  1.00 20.00    -0.123 Cl
ENDBRANCH   7   9
ENDBRANCH   4   7
TORSDOF 2
ENDMDL
MODEL 2
REMARK VINA RESULT:      -4.8     11.398     11.962
REMARK  2 active torsions:
REMARK  status: ('A' for Active; 'I' for Inactive)
REMARK    1  A    between atoms: C1_1  and  C5_5 
REMARK    2  A    between atoms: C1_1  and  C8_8 
ROOT
HETATM    1  C2  UNL     1     -35.325  15.648  -2.753  1.00 20.00     0.017 C 
HETATM    2  C3  UNL     1     -33.911  14.689  -4.500  1.00 20.00     0.017 C 
HETATM    3  C4  UNL     1     -33.199  17.008  -3.486  1.00 20.00     0.010 A 
HETATM    4  C5  UNL     1     -35.355  15.129  -4.201  1.00 20.00     0.057 C 
HETATM    5  C6  UNL     1     -33.913  16.097  -2.523  1.00 20.00    -0.009 A 
HETATM    6  C7  UNL     1     -33.050  15.514  -3.588  1.00 20.00    -0.009 A 
ENDROOT
BRANCH   4   7
HETATM    7  C1  UNL     1     -36.327  14.006  -4.372  1.00 20.00     0.144 C 
HETATM    8  O9  UNL     1     -35.929  12.853  -4.537  1.00 20.00    -0.296 OA
BRANCH   7   9
HETATM    9  C8  UNL     1     -37.788  14.390  -4.327  1.00 20.00     0.193 C 
HETATM   10 CL10 UNL     1     -38.064  15.901  -5.205  1.00 20.00    -0.123 Cl
ENDBRANCH   7   9
ENDBRANCH   4   7
TORSDOF 2
ENDMDL
MODEL 3
REMARK VINA RESULT:      -4.7      0.753      1.525
REMARK  2 active torsions:
REMARK  status: ('A' for Active; 'I' for Inactive)
REMARK    1  A    between atoms: C1_1  and  C5_5 
REMARK    2  A    between atoms: C1_1  and  C8_8 
ROOT
HETATM    1  C2  UNL     1     -33.523   6.955   5.200  1.00 20.00     0.017 C 
HETATM    2  C3  UNL     1     -34.215   5.538   3.334  1.00 20.00     0.017 C 
HETATM    3  C4  UNL     1     -34.726   4.688   5.769  1.00 20.00     0.010 A 
HETATM    4  C5  UNL     1     -32.988   6.229   3.953  1.00 20.00     0.057 C 
HETATM    5  C6  UNL     1     -34.743   6.186   5.612  1.00 20.00    -0.009 A 
HETATM    6  C7  UNL     1     -35.165   5.321   4.475  1.00 20.00    -0.009 A 
ENDROOT
BRANCH   4   7
HETATM    7  C1  UNL     1     -32.337   7.173   2.994  1.00 20.00     0.144 C 
HETATM    8  O9  UNL     1     -31.378   7.861   3.346  1.00 20.00    -0.296 OA
BRANCH   7   9
HETATM    9  C8  UNL     1     -32.933   7.213   1.605  1.00 20.00     0.193 C 
HETATM   10 CL10 UNL     1     -32.860   8.852   0.941  1.00 20.00    -0.123 Cl
ENDBRANCH   7   9
ENDBRANCH   4   7
TORSDOF 2
ENDMDL
MODEL 4
REMARK VINA RESULT:      -4.6     10.993     11.819
REMARK  2 active torsions:
REMARK  status: ('A' for Active; 'I' for Inactive)
REMARK    1  A    between atoms: C1_1  and  C5_5 
REMARK    2  A    between atoms: C1_1  and  C8_8 
ROOT
HETATM    1  C2  UNL     1     -35.161  15.823  -2.328  1.00 20.00     0.017 C 
HETATM    2  C3  UNL     1     -33.238  15.581  -3.816  1.00 20.00     0.017 C 
HETATM    3  C4  UNL     1     -33.640  17.932  -2.709  1.00 20.00     0.010 A 
HETATM    4  C5  UNL     1     -34.767  15.418  -3.760  1.00 20.00     0.057 C 
HETATM    5  C6  UNL     1     -34.084  16.762  -1.872  1.00 20.00    -0.009 A 
HETATM    6  C7  UNL     1     -32.912  16.616  -2.779  1.00 20.00    -0.009 A 
ENDROOT
BRANCH   4   7
HETATM    7  C1  UNL     1     -35.191  14.022  -4.082  1.00 20.00     0.144 C 
HETATM    8  O9  UNL     1     -34.411  13.081  -3.939  1.00 20.00    -0.296 OA
BRANCH   7   9
HETATM    9  C8  UNL     1     -36.610  13.866  -4.582  1.00 20.00     0.193 C 
HETATM   10 CL10 UNL     1     -37.207  15.391  -5.252  1.00 20.00    -0.123 Cl
ENDBRANCH   7   9
ENDBRANCH   4   7
TORSDOF 2
ENDMDL
MODEL 5
REMARK VINA RESULT:      -4.6     11.206     11.930
REMARK  2 active torsions:
REMARK  status: ('A' for Active; 'I' for Inactive)
REMARK    1  A    between atoms: C1_1  and  C5_5 
REMARK    2  A    between atoms: C1_1  and  C8_8 
ROOT
HETATM    1  C2  UNL     1     -33.620  14.991  -3.771  1.00 20.00     0.017 C 
HETATM    2  C3  UNL     1     -35.746  16.167  -3.510  1.00 20.00     0.017 C 
HETATM    3  C4  UNL     1     -33.778  16.825  -1.895  1.00 20.00     0.010 A 
HETATM    4  C5  UNL     1     -35.121  14.761  -3.518  1.00 20.00     0.057 C 
HETATM    5  C6  UNL     1     -33.340  16.374  -3.263  1.00 20.00    -0.009 A 
HETATM    6  C7  UNL     1     -34.636  17.092  -3.103  1.00 20.00    -0.009 A 
ENDROOT
BRANCH   4   7
HETATM    7  C1  UNL     1     -35.735  13.883  -4.560  1.00 20.00     0.144 C 
HETATM    8  O9  UNL     1     -35.758  12.662  -4.415  1.00 20.00    -0.296 OA
BRANCH   7   9
HETATM    9  C8  UNL     1     -36.305  14.596  -5.765  1.00 20.00     0.193 C 
HETATM   10 CL10 UNL     1     -35.037  14.925  -6.955  1.00 20.00    -0.123 Cl
ENDBRANCH   7   9
ENDBRANCH   4   7
TORSDOF 2
ENDMDL
MODEL 6
REMARK VINA RESULT:      -4.4     10.945     11.861
REMARK  2 active torsions:
REMARK  status: ('A' for Active; 'I' for Inactive)
REMARK    1  A    between atoms: C1_1  and  C5_5 
REMARK    2  A    between atoms: C1_1  and  C8_8 
ROOT
HETATM    1  C2  UNL     1     -33.544  16.164  -4.212  1.00 20.00     0.017 C 
HETATM    2  C3  UNL     1     -35.000  15.846  -2.276  1.00 20.00     0.017 C 
HETATM    3  C4  UNL     1     -32.889  17.385  -1.979  1.00 20.00     0.010 A 
HETATM    4  C5  UNL     1     -34.156  15.079  -3.309  1.00 20.00     0.057 C 
HETATM    5  C6  UNL     1     -33.483  17.399  -3.362  1.00 20.00    -0.009 A 
HETATM    6  C7  UNL     1     -34.370  17.205  -2.181  1.00 20.00    -0.009 A 
ENDROOT
BRANCH   4   7
HETATM    7  C1  UNL     1     -34.979  14.104  -4.088  1.00 20.00     0.144 C 
HETATM    8  O9  UNL     1     -34.772  12.894  -3.994  1.00 20.00    -0.296 OA
BRANCH   7   9
HETATM    9  C8  UNL     1     -36.049  14.705  -4.971  1.00 20.00     0.193 C 
HETATM   10 CL10 UNL     1     -37.660  14.357  -4.326  1.00 20.00    -0.123 Cl
ENDBRANCH   7   9
ENDBRANCH   4   7
TORSDOF 2
ENDMDL
MODEL 7
REMARK VINA RESULT:      -4.4      1.384      2.015
REMARK  2 active torsions:
REMARK  status: ('A' for Active; 'I' for Inactive)
REMARK    1  A    between atoms: C1_1  and  C5_5 
REMARK    2  A    between atoms: C1_1  and  C8_8 
ROOT
HETATM    1  C2  UNL     1     -33.513   6.881   4.762  1.00 20.00     0.017 C 
HETATM    2  C3  UNL     1     -34.617   4.921   3.809  1.00 20.00     0.017 C 
HETATM    3  C4  UNL     1     -34.413   5.056   6.426  1.00 20.00     0.010 A 
HETATM    4  C5  UNL     1     -33.301   5.718   3.777  1.00 20.00     0.057 C 
HETATM    5  C6  UNL     1     -34.540   6.390   5.739  1.00 20.00    -0.009 A 
HETATM    6  C7  UNL     1     -35.213   5.194   5.158  1.00 20.00    -0.009 A 
ENDROOT
BRANCH   4   7
HETATM    7  C1  UNL     1     -32.977   6.204   2.401  1.00 20.00     0.144 C 
HETATM    8  O9  UNL     1     -33.237   5.515   1.416  1.00 20.00    -0.296 OA
BRANCH   7   9
HETATM    9  C8  UNL     1     -32.324   7.566   2.324  1.00 20.00     0.193 C 
HETATM   10 CL10 UNL     1     -32.722   8.364   0.795  1.00 20.00    -0.123 Cl
ENDBRANCH   7   9
ENDBRANCH   4   7
TORSDOF 2
ENDMDL
MODEL 8
REMARK VINA RESULT:      -4.2     11.507     12.193
REMARK  2 active torsions:
REMARK  status: ('A' for Active; 'I' for Inactive)
REMARK    1  A    between atoms: C1_1  and  C5_5 
REMARK    2  A    between atoms: C1_1  and  C8_8 
ROOT
HETATM    1  C2  UNL     1     -33.002  16.749  -2.762  1.00 20.00     0.017 C 
HETATM    2  C3  UNL     1     -34.542  17.336  -0.957  1.00 20.00     0.017 C 
HETATM    3  C4  UNL     1     -35.562  16.287  -3.142  1.00 20.00     0.010 A 
HETATM    4  C5  UNL     1     -33.460  17.924  -1.879  1.00 20.00     0.057 C 
HETATM    5  C6  UNL     1     -34.172  15.812  -2.810  1.00 20.00    -0.009 A 
HETATM    6  C7  UNL     1     -35.111  16.169  -1.710  1.00 20.00    -0.009 A 
ENDROOT
BRANCH   4   7
HETATM    7  C1  UNL     1     -32.326  18.513  -1.103  1.00 20.00     0.144 C 
HETATM    8  O9  UNL     1     -31.379  19.043  -1.683  1.00 20.00    -0.296 OA
BRANCH   7   9
HETATM    9  C8  UNL     1     -32.435  18.407   0.401  1.00 20.00     0.193 C 
HETATM   10 CL10 UNL     1     -30.837  18.203   1.131  1.00 20.00    -0.123 Cl
ENDBRANCH   7   9
ENDBRANCH   4   7
TORSDOF 2
ENDMDL
MODEL 9
REMARK VINA RESULT:      -4.2     11.118     11.877
REMARK  2 active torsions:
REMARK  status: ('A' for Active; 'I' for Inactive)
REMARK    1  A    between atoms: C1_1  and  C5_5 
REMARK    2  A    between atoms: C1_1  and  C8_8 
ROOT
HETATM    1  C2  UNL     1     -32.919  16.047  -3.418  1.00 20.00     0.017 C 
HETATM    2  C3  UNL     1     -35.111  15.904  -2.349  1.00 20.00     0.017 C 
HETATM    3  C4  UNL     1     -34.894  15.018  -4.814  1.00 20.00     0.010 A 
HETATM    4  C5  UNL     1     -33.999  16.898  -2.726  1.00 20.00     0.057 C 
HETATM    5  C6  UNL     1     -33.649  14.864  -3.982  1.00 20.00    -0.009 A 
HETATM    6  C7  UNL     1     -34.985  14.777  -3.331  1.00 20.00    -0.009 A 
ENDROOT
BRANCH   4   7
HETATM    7  C1  UNL     1     -33.462  17.616  -1.530  1.00 20.00     0.144 C 
HETATM    8  O9  UNL     1     -34.045  17.553  -0.448  1.00 20.00    -0.296 OA
BRANCH   7   9
HETATM    9  C8  UNL     1     -32.189  18.400  -1.752  1.00 20.00     0.193 C 
HETATM   10 CL10 UNL     1     -31.054  18.139  -0.420  1.00 20.00    -0.123 Cl
ENDBRANCH   7   9
ENDBRANCH   4   7
TORSDOF 2
ENDMDL
