MODEL 1
REMARK VINA RESULT:      -5.4      0.000      0.000
REMARK  4 active torsions:
REMARK  status: ('A' for Active; 'I' for Inactive)
REMARK    1  A    between atoms: C2_2  and  C8_8 
REMARK    2  A    between atoms: C3_3  and  C8_8 
REMARK    3  A    between atoms: C3_3  and  C9_9 
REMARK    4  A    between atoms: C6_6  and  C9_9 
ROOT
HETATM    1  C1  UNL     1     -32.803   8.232   1.055  1.00 20.00    -0.111 C 
HETATM    2  C2  UNL     1     -32.703   7.440   1.954  1.00 20.00    -0.100 C 
HETATM    3  C7  UNL     1     -32.923   9.195  -0.038  1.00 20.00     0.112 C 
ENDROOT
BRANCH   2   4
HETATM    4  C8  UNL     1     -32.588   6.473   3.051  1.00 20.00     0.172 C 
BRANCH   4   5
HETATM    5  C3  UNL     1     -33.308   5.170   2.757  1.00 20.00     0.138 C 
HETATM    6  O10 UNL     1     -33.222   4.596   1.671  1.00 20.00    -0.297 OA
BRANCH   5   7
HETATM    7  C9  UNL     1     -34.145   4.615   3.895  1.00 20.00     0.083 C 
BRANCH   7   8
HETATM    8  C6  UNL     1     -34.812   5.668   4.723  1.00 20.00    -0.007 A 
HETATM    9  C4  UNL     1     -35.088   5.423   6.181  1.00 20.00     0.005 A 
HETATM   10  C5  UNL     1     -34.032   6.413   5.771  1.00 20.00     0.005 A 
ENDBRANCH   7   8
ENDBRANCH   5   7
ENDBRANCH   4   5
ENDBRANCH   2   4
TORSDOF 4
ENDMDL
MODEL 2
REMARK VINA RESULT:      -4.7     10.789     12.680
REMARK  4 active torsions:
REMARK  status: ('A' for Active; 'I' for Inactive)
REMARK    1  A    between atoms: C2_2  and  C8_8 
REMARK    2  A    between atoms: C3_3  and  C8_8 
REMARK    3  A    between atoms: C3_3  and  C9_9 
REMARK    4  A    between atoms: C6_6  and  C9_9 
ROOT
HETATM    1  C1  UNL     1     -33.901  15.939  -2.870  1.00 20.00    -0.111 C 
HETATM    2  C2  UNL     1     -34.483  14.993  -3.329  1.00 20.00    -0.100 C 
HETATM    3  C7  UNL     1     -33.194  17.090  -2.313  1.00 20.00     0.112 C 
ENDROOT
BRANCH   2   4
HETATM    4  C8  UNL     1     -35.192  13.834  -3.884  1.00 20.00     0.172 C 
BRANCH   4   5
HETATM    5  C3  UNL     1     -36.444  14.228  -4.647  1.00 20.00     0.138 C 
HETATM    6  O10 UNL     1     -37.536  13.697  -4.447  1.00 20.00    -0.297 OA
BRANCH   5   7
HETATM    7  C9  UNL     1     -36.260  15.326  -5.680  1.00 20.00     0.083 C 
BRANCH   7   8
HETATM    8  C6  UNL     1     -35.521  14.887  -6.904  1.00 20.00    -0.007 A 
HETATM    9  C4  UNL     1     -35.061  15.900  -7.916  1.00 20.00     0.005 A 
HETATM   10  C5  UNL     1     -34.055  15.190  -7.052  1.00 20.00     0.005 A 
ENDBRANCH   7   8
ENDBRANCH   5   7
ENDBRANCH   4   5
ENDBRANCH   2   4
TORSDOF 4
ENDMDL
MODEL 3
REMARK VINA RESULT:      -4.6     10.997     11.824
REMARK  4 active torsions:
REMARK  status: ('A' for Active; 'I' for Inactive)
REMARK    1  A    between atoms: C2_2  and  C8_8 
REMARK    2  A    between atoms: C3_3  and  C8_8 
REMARK    3  A    between atoms: C3_3  and  C9_9 
REMARK    4  A    between atoms: C6_6  and  C9_9 
ROOT
HETATM    1  C1  UNL     1     -34.665  16.527  -1.783  1.00 20.00    -0.111 C 
HETATM    2  C2  UNL     1     -33.976  16.086  -2.663  1.00 20.00    -0.100 C 
HETATM    3  C7  UNL     1     -35.504  17.066  -0.714  1.00 20.00     0.112 C 
ENDROOT
BRANCH   2   4
HETATM    4  C8  UNL     1     -33.133  15.541  -3.733  1.00 20.00     0.172 C 
BRANCH   4   5
HETATM    5  C3  UNL     1     -33.905  14.641  -4.681  1.00 20.00     0.138 C 
HETATM    6  O10 UNL     1     -33.606  14.518  -5.868  1.00 20.00    -0.297 OA
BRANCH   5   7
HETATM    7  C9  UNL     1     -35.077  13.897  -4.066  1.00 20.00     0.083 C 
BRANCH   7   8
HETATM    8  C6  UNL     1     -36.346  14.017  -4.849  1.00 20.00    -0.007 A 
HETATM    9  C4  UNL     1     -37.585  14.575  -4.204  1.00 20.00     0.005 A 
HETATM   10  C5  UNL     1     -36.860  15.370  -5.255  1.00 20.00     0.005 A 
ENDBRANCH   7   8
ENDBRANCH   5   7
ENDBRANCH   4   5
ENDBRANCH   2   4
TORSDOF 4
ENDMDL
MODEL 4
REMARK VINA RESULT:      -4.6     10.829     12.403
REMARK  4 active torsions:
REMARK  status: ('A' for Active; 'I' for Inactive)
REMARK    1  A    between atoms: C2_2  and  C8_8 
REMARK    2  A    between atoms: C3_3  and  C8_8 
REMARK    3  A    between atoms: C3_3  and  C9_9 
REMARK    4  A    between atoms: C6_6  and  C9_9 
ROOT
HETATM    1  C1  UNL     1     -33.347  16.966  -2.161  1.00 20.00    -0.111 C 
HETATM    2  C2  UNL     1     -34.136  16.149  -2.553  1.00 20.00    -0.100 C 
HETATM    3  C7  UNL     1     -32.388  17.961  -1.683  1.00 20.00     0.112 C 
ENDROOT
BRANCH   2   4
HETATM    4  C8  UNL     1     -35.094  15.146  -3.033  1.00 20.00     0.172 C 
BRANCH   4   5
HETATM    5  C3  UNL     1     -34.473  14.170  -4.016  1.00 20.00     0.138 C 
HETATM    6  O10 UNL     1     -34.673  12.957  -3.960  1.00 20.00    -0.297 OA
BRANCH   5   7
HETATM    7  C9  UNL     1     -33.584  14.791  -5.079  1.00 20.00     0.083 C 
BRANCH   7   8
HETATM    8  C6  UNL     1     -34.333  15.570  -6.113  1.00 20.00    -0.007 A 
HETATM    9  C4  UNL     1     -34.116  15.294  -7.575  1.00 20.00     0.005 A 
HETATM   10  C5  UNL     1     -35.415  14.909  -6.922  1.00 20.00     0.005 A 
ENDBRANCH   7   8
ENDBRANCH   5   7
ENDBRANCH   4   5
ENDBRANCH   2   4
TORSDOF 4
ENDMDL
MODEL 5
REMARK VINA RESULT:      -4.5     10.938     12.252
REMARK  4 active torsions:
REMARK  status: ('A' for Active; 'I' for Inactive)
REMARK    1  A    between atoms: C2_2  and  C8_8 
REMARK    2  A    between atoms: C3_3  and  C8_8 
REMARK    3  A    between atoms: C3_3  and  C9_9 
REMARK    4  A    between atoms: C6_6  and  C9_9 
ROOT
HETATM    1  C1  UNL     1     -34.930  16.203  -1.862  1.00 20.00    -0.111 C 
HETATM    2  C2  UNL     1     -34.760  15.450  -2.782  1.00 20.00    -0.100 C 
HETATM    3  C7  UNL     1     -35.139  17.119  -0.742  1.00 20.00     0.112 C 
ENDROOT
BRANCH   2   4
HETATM    4  C8  UNL     1     -34.545  14.533  -3.907  1.00 20.00     0.172 C 
BRANCH   4   5
HETATM    5  C3  UNL     1     -35.810  13.793  -4.305  1.00 20.00     0.138 C 
HETATM    6  O10 UNL     1     -35.827  12.583  -4.526  1.00 20.00    -0.297 OA
BRANCH   5   7
HETATM    7  C9  UNL     1     -37.060  14.648  -4.411  1.00 20.00     0.083 C 
BRANCH   7   8
HETATM    8  C6  UNL     1     -37.036  15.613  -5.553  1.00 20.00    -0.007 A 
HETATM    9  C4  UNL     1     -38.212  16.516  -5.807  1.00 20.00     0.005 A 
HETATM   10  C5  UNL     1     -36.920  17.090  -5.293  1.00 20.00     0.005 A 
ENDBRANCH   7   8
ENDBRANCH   5   7
ENDBRANCH   4   5
ENDBRANCH   2   4
TORSDOF 4
ENDMDL
MODEL 6
REMARK VINA RESULT:      -4.4     10.923     12.257
REMARK  4 active torsions:
REMARK  status: ('A' for Active; 'I' for Inactive)
REMARK    1  A    between atoms: C2_2  and  C8_8 
REMARK    2  A    between atoms: C3_3  and  C8_8 
REMARK    3  A    between atoms: C3_3  and  C9_9 
REMARK    4  A    between atoms: C6_6  and  C9_9 
ROOT
HETATM    1  C1  UNL     1     -34.772  16.786  -6.609  1.00 20.00    -0.111 C 
HETATM    2  C2  UNL     1     -35.261  15.697  -6.475  1.00 20.00    -0.100 C 
HETATM    3  C7  UNL     1     -34.177  18.111  -6.775  1.00 20.00     0.112 C 
ENDROOT
BRANCH   2   4
HETATM    4  C8  UNL     1     -35.861  14.369  -6.304  1.00 20.00     0.172 C 
BRANCH   4   5
HETATM    5  C3  UNL     1     -35.939  13.948  -4.847  1.00 20.00     0.138 C 
HETATM    6  O10 UNL     1     -35.926  12.768  -4.498  1.00 20.00    -0.297 OA
BRANCH   5   7
HETATM    7  C9  UNL     1     -36.033  15.083  -3.843  1.00 20.00     0.083 C 
BRANCH   7   8
HETATM    8  C6  UNL     1     -34.899  15.123  -2.869  1.00 20.00    -0.007 A 
HETATM    9  C4  UNL     1     -33.734  16.047  -3.099  1.00 20.00     0.005 A 
HETATM   10  C5  UNL     1     -34.704  16.323  -1.983  1.00 20.00     0.005 A 
ENDBRANCH   7   8
ENDBRANCH   5   7
ENDBRANCH   4   5
ENDBRANCH   2   4
TORSDOF 4
ENDMDL
MODEL 7
REMARK VINA RESULT:      -4.4      9.609     10.266
REMARK  4 active torsions:
REMARK  status: ('A' for Active; 'I' for Inactive)
REMARK    1  A    between atoms: C2_2  and  C8_8 
REMARK    2  A    between atoms: C3_3  and  C8_8 
REMARK    3  A    between atoms: C3_3  and  C9_9 
REMARK    4  A    between atoms: C6_6  and  C9_9 
ROOT
HETATM    1  C1  UNL     1     -42.565   2.989  -3.012  1.00 20.00    -0.111 C 
HETATM    2  C2  UNL     1     -42.668   3.956  -2.307  1.00 20.00    -0.100 C 
HETATM    3  C7  UNL     1     -42.439   1.812  -3.871  1.00 20.00     0.112 C 
ENDROOT
BRANCH   2   4
HETATM    4  C8  UNL     1     -42.792   5.134  -1.441  1.00 20.00     0.172 C 
BRANCH   4   5
HETATM    5  C3  UNL     1     -41.457   5.584  -0.875  1.00 20.00     0.138 C 
HETATM    6  O10 UNL     1     -40.392   5.059  -1.195  1.00 20.00    -0.297 OA
BRANCH   5   7
HETATM    7  C9  UNL     1     -41.523   6.733   0.117  1.00 20.00     0.083 C 
BRANCH   7   8
HETATM    8  C6  UNL     1     -41.694   8.074  -0.523  1.00 20.00    -0.007 A 
HETATM    9  C4  UNL     1     -42.831   8.969  -0.114  1.00 20.00     0.005 A 
HETATM   10  C5  UNL     1     -41.420   9.327   0.261  1.00 20.00     0.005 A 
ENDBRANCH   7   8
ENDBRANCH   5   7
ENDBRANCH   4   5
ENDBRANCH   2   4
TORSDOF 4
ENDMDL
MODEL 8
REMARK VINA RESULT:      -4.3      1.351      4.991
REMARK  4 active torsions:
REMARK  status: ('A' for Active; 'I' for Inactive)
REMARK    1  A    between atoms: C2_2  and  C8_8 
REMARK    2  A    between atoms: C3_3  and  C8_8 
REMARK    3  A    between atoms: C3_3  and  C9_9 
REMARK    4  A    between atoms: C6_6  and  C9_9 
ROOT
HETATM    1  C1  UNL     1     -34.495   5.482   4.962  1.00 20.00    -0.111 C 
HETATM    2  C2  UNL     1     -34.007   5.545   3.866  1.00 20.00    -0.100 C 
HETATM    3  C7  UNL     1     -35.090   5.405   6.296  1.00 20.00     0.112 C 
ENDROOT
BRANCH   2   4
HETATM    4  C8  UNL     1     -33.406   5.626   2.530  1.00 20.00     0.172 C 
BRANCH   4   5
HETATM    5  C3  UNL     1     -32.463   6.808   2.387  1.00 20.00     0.138 C 
HETATM    6  O10 UNL     1     -31.972   7.384   3.356  1.00 20.00    -0.297 OA
BRANCH   5   7
HETATM    7  C9  UNL     1     -32.163   7.234   0.960  1.00 20.00     0.083 C 
BRANCH   7   8
HETATM    8  C6  UNL     1     -32.392   8.690   0.704  1.00 20.00    -0.007 A 
HETATM    9  C4  UNL     1     -33.462   9.131  -0.257  1.00 20.00     0.005 A 
HETATM   10  C5  UNL     1     -33.635   9.362   1.219  1.00 20.00     0.005 A 
ENDBRANCH   7   8
ENDBRANCH   5   7
ENDBRANCH   4   5
ENDBRANCH   2   4
TORSDOF 4
ENDMDL
MODEL 9
REMARK VINA RESULT:      -4.3     11.486     12.507
REMARK  4 active torsions:
REMARK  status: ('A' for Active; 'I' for Inactive)
REMARK    1  A    between atoms: C2_2  and  C8_8 
REMARK    2  A    between atoms: C3_3  and  C8_8 
REMARK    3  A    between atoms: C3_3  and  C9_9 
REMARK    4  A    between atoms: C6_6  and  C9_9 
ROOT
HETATM    1  C1  UNL     1     -33.939  16.715  -2.325  1.00 20.00    -0.111 C 
HETATM    2  C2  UNL     1     -33.140  17.599  -2.172  1.00 20.00    -0.100 C 
HETATM    3  C7  UNL     1     -34.911  15.639  -2.512  1.00 20.00     0.112 C 
ENDROOT
BRANCH   2   4
HETATM    4  C8  UNL     1     -32.162  18.676  -1.979  1.00 20.00     0.172 C 
BRANCH   4   5
HETATM    5  C3  UNL     1     -31.567  18.679  -0.583  1.00 20.00     0.138 C 
HETATM    6  O10 UNL     1     -30.435  18.260  -0.345  1.00 20.00    -0.297 OA
BRANCH   5   7
HETATM    7  C9  UNL     1     -32.464  19.237   0.508  1.00 20.00     0.083 C 
BRANCH   7   8
HETATM    8  C6  UNL     1     -33.050  18.190   1.402  1.00 20.00    -0.007 A 
HETATM    9  C4  UNL     1     -33.972  18.582   2.524  1.00 20.00     0.005 A 
HETATM   10  C5  UNL     1     -34.514  17.859   1.321  1.00 20.00     0.005 A 
ENDBRANCH   7   8
ENDBRANCH   5   7
ENDBRANCH   4   5
ENDBRANCH   2   4
TORSDOF 4
ENDMDL
