MODEL 1
REMARK VINA RESULT:      -4.4      0.000      0.000
REMARK  3 active torsions:
REMARK  status: ('A' for Active; 'I' for Inactive)
REMARK    1  A    between atoms: C5_5  and  C8_8 
REMARK    2  A    between atoms: C6_6  and  C8_8 
REMARK    3  A    between atoms: C8_8  and  O9_9 
ROOT
HETATM    1  C8  UNL     1     -23.794  16.969   9.810  1.00 20.00     0.130 C 
ENDROOT
BRANCH   1   2
HETATM    2  C5  UNL     1     -23.775  18.416   9.318  1.00 20.00     0.015 A 
HETATM    3  C1  UNL     1     -23.949  18.723   7.857  1.00 20.00     0.007 A 
HETATM    4  C2  UNL     1     -25.041  19.066   8.832  1.00 20.00     0.007 A 
ENDBRANCH   1   2
BRANCH   1   5
HETATM    5  C6  UNL     1     -23.912  16.871  11.306  1.00 20.00    -0.018 A 
HETATM    6  C3  UNL     1     -24.613  15.663  11.883  1.00 20.00     0.012 A 
HETATM    7  C4  UNL     1     -25.287  17.005  11.917  1.00 20.00     0.012 A 
HETATM    8  C7  UNL     1     -22.744  17.438  12.064  1.00 20.00     0.018 C 
ENDBRANCH   1   5
BRANCH   1   9
HETATM    9  O9  UNL     1     -22.593  16.325   9.375  1.00 20.00    -0.394 OA
HETATM   10  H23 UNL     1     -21.994  16.327  10.137  1.00 20.00     0.210 HD
ENDBRANCH   1   9
TORSDOF 3
ENDMDL
MODEL 2
REMARK VINA RESULT:      -3.9      1.752      2.358
REMARK  3 active torsions:
REMARK  status: ('A' for Active; 'I' for Inactive)
REMARK    1  A    between atoms: C5_5  and  C8_8 
REMARK    2  A    between atoms: C6_6  and  C8_8 
REMARK    3  A    between atoms: C8_8  and  O9_9 
ROOT
HETATM    1  C8  UNL     1     -23.979  18.085   9.798  1.00 20.00     0.130 C 
ENDROOT
BRANCH   1   2
HETATM    2  C5  UNL     1     -22.713  17.322   9.409  1.00 20.00     0.015 A 
HETATM    3  C1  UNL     1     -22.103  17.508   8.048  1.00 20.00     0.007 A 
HETATM    4  C2  UNL     1     -21.406  18.051   9.265  1.00 20.00     0.007 A 
ENDBRANCH   1   2
BRANCH   1   5
HETATM    5  C6  UNL     1     -24.595  17.568  11.068  1.00 20.00    -0.018 A 
HETATM    6  C3  UNL     1     -25.749  18.343  11.661  1.00 20.00     0.012 A 
HETATM    7  C4  UNL     1     -24.403  18.379  12.328  1.00 20.00     0.012 A 
HETATM    8  C7  UNL     1     -24.615  16.069  11.190  1.00 20.00     0.018 C 
ENDBRANCH   1   5
BRANCH   1   9
HETATM    9  O9  UNL     1     -24.920  17.980   8.725  1.00 20.00    -0.394 OA
HETATM   10  H23 UNL     1     -24.762  18.743   8.151  1.00 20.00     0.210 HD
ENDBRANCH   1   9
TORSDOF 3
ENDMDL
MODEL 3
REMARK VINA RESULT:      -3.8     15.957     17.513
REMARK  3 active torsions:
REMARK  status: ('A' for Active; 'I' for Inactive)
REMARK    1  A    between atoms: C5_5  and  C8_8 
REMARK    2  A    between atoms: C6_6  and  C8_8 
REMARK    3  A    between atoms: C8_8  and  O9_9 
ROOT
HETATM    1  C8  UNL     1     -34.253  16.353  -3.732  1.00 20.00     0.130 C 
ENDROOT
BRANCH   1   2
HETATM    2  C5  UNL     1     -34.113  16.284  -2.212  1.00 20.00     0.015 A 
HETATM    3  C1  UNL     1     -33.938  17.543  -1.409  1.00 20.00     0.007 A 
HETATM    4  C2  UNL     1     -35.227  16.772  -1.327  1.00 20.00     0.007 A 
ENDBRANCH   1   2
BRANCH   1   5
HETATM    5  C6  UNL     1     -34.232  14.993  -4.374  1.00 20.00    -0.018 A 
HETATM    6  C3  UNL     1     -35.227  14.716  -5.478  1.00 20.00     0.012 A 
HETATM    7  C4  UNL     1     -35.408  14.077  -4.130  1.00 20.00     0.012 A 
HETATM    8  C7  UNL     1     -32.866  14.374  -4.484  1.00 20.00     0.018 C 
ENDBRANCH   1   5
BRANCH   1   9
HETATM    9  O9  UNL     1     -33.185  17.150  -4.251  1.00 20.00    -0.394 OA
HETATM   10  H23 UNL     1     -32.883  16.706  -5.057  1.00 20.00     0.210 HD
ENDBRANCH   1   9
TORSDOF 3
ENDMDL
MODEL 4
REMARK VINA RESULT:      -3.8     16.718     18.186
REMARK  3 active torsions:
REMARK  status: ('A' for Active; 'I' for Inactive)
REMARK    1  A    between atoms: C5_5  and  C8_8 
REMARK    2  A    between atoms: C6_6  and  C8_8 
REMARK    3  A    between atoms: C8_8  and  O9_9 
ROOT
HETATM    1  C8  UNL     1     -33.884  15.050  -4.630  1.00 20.00     0.130 C 
ENDROOT
BRANCH   1   2
HETATM    2  C5  UNL     1     -34.316  15.671  -5.958  1.00 20.00     0.015 A 
HETATM    3  C1  UNL     1     -33.856  15.075  -7.259  1.00 20.00     0.007 A 
HETATM    4  C2  UNL     1     -35.296  14.954  -6.845  1.00 20.00     0.007 A 
ENDBRANCH   1   2
BRANCH   1   5
HETATM    5  C6  UNL     1     -34.085  15.982  -3.467  1.00 20.00    -0.018 A 
HETATM    6  C3  UNL     1     -35.113  15.602  -2.426  1.00 20.00     0.012 A 
HETATM    7  C4  UNL     1     -35.394  16.730  -3.378  1.00 20.00     0.012 A 
HETATM    8  C7  UNL     1     -32.838  16.683  -3.004  1.00 20.00     0.018 C 
ENDBRANCH   1   5
BRANCH   1   9
HETATM    9  O9  UNL     1     -32.504  14.685  -4.725  1.00 20.00    -0.394 OA
HETATM   10  H23 UNL     1     -32.007  15.387  -4.279  1.00 20.00     0.210 HD
ENDBRANCH   1   9
TORSDOF 3
ENDMDL
MODEL 5
REMARK VINA RESULT:      -3.8     15.406     16.374
REMARK  3 active torsions:
REMARK  status: ('A' for Active; 'I' for Inactive)
REMARK    1  A    between atoms: C5_5  and  C8_8 
REMARK    2  A    between atoms: C6_6  and  C8_8 
REMARK    3  A    between atoms: C8_8  and  O9_9 
ROOT
HETATM    1  C8  UNL     1     -33.655   6.729   4.161  1.00 20.00     0.130 C 
ENDROOT
BRANCH   1   2
HETATM    2  C5  UNL     1     -34.120   5.387   4.724  1.00 20.00     0.015 A 
HETATM    3  C1  UNL     1     -34.858   5.330   6.033  1.00 20.00     0.007 A 
HETATM    4  C2  UNL     1     -35.584   5.044   4.748  1.00 20.00     0.007 A 
ENDBRANCH   1   2
BRANCH   1   5
HETATM    5  C6  UNL     1     -32.894   6.579   2.872  1.00 20.00    -0.018 A 
HETATM    6  C3  UNL     1     -31.630   7.388   2.698  1.00 20.00     0.012 A 
HETATM    7  C4  UNL     1     -32.865   7.756   1.926  1.00 20.00     0.012 A 
HETATM    8  C7  UNL     1     -32.934   5.198   2.279  1.00 20.00     0.018 C 
ENDBRANCH   1   5
BRANCH   1   9
HETATM    9  O9  UNL     1     -32.831   7.372   5.138  1.00 20.00    -0.394 OA
HETATM   10  H23 UNL     1     -33.262   8.214   5.343  1.00 20.00     0.210 HD
ENDBRANCH   1   9
TORSDOF 3
ENDMDL
MODEL 6
REMARK VINA RESULT:      -3.8     17.125     18.867
REMARK  3 active torsions:
REMARK  status: ('A' for Active; 'I' for Inactive)
REMARK    1  A    between atoms: C5_5  and  C8_8 
REMARK    2  A    between atoms: C6_6  and  C8_8 
REMARK    3  A    between atoms: C8_8  and  O9_9 
ROOT
HETATM    1  C8  UNL     1     -33.873  14.940  -4.839  1.00 20.00     0.130 C 
ENDROOT
BRANCH   1   2
HETATM    2  C5  UNL     1     -34.178  16.101  -3.893  1.00 20.00     0.015 A 
HETATM    3  C1  UNL     1     -34.457  15.841  -2.439  1.00 20.00     0.007 A 
HETATM    4  C2  UNL     1     -33.175  16.510  -2.850  1.00 20.00     0.007 A 
ENDBRANCH   1   2
BRANCH   1   5
HETATM    5  C6  UNL     1     -34.585  15.070  -6.157  1.00 20.00    -0.018 A 
HETATM    6  C3  UNL     1     -33.748  15.099  -7.414  1.00 20.00     0.012 A 
HETATM    7  C4  UNL     1     -34.415  16.355  -6.931  1.00 20.00     0.012 A 
HETATM    8  C7  UNL     1     -35.922  14.383  -6.216  1.00 20.00     0.018 C 
ENDBRANCH   1   5
BRANCH   1   9
HETATM    9  O9  UNL     1     -34.255  13.719  -4.199  1.00 20.00    -0.394 OA
HETATM   10  H23 UNL     1     -33.702  13.025  -4.589  1.00 20.00     0.210 HD
ENDBRANCH   1   9
TORSDOF 3
ENDMDL
MODEL 7
REMARK VINA RESULT:      -3.7     23.284     23.842
REMARK  3 active torsions:
REMARK  status: ('A' for Active; 'I' for Inactive)
REMARK    1  A    between atoms: C5_5  and  C8_8 
REMARK    2  A    between atoms: C6_6  and  C8_8 
REMARK    3  A    between atoms: C8_8  and  O9_9 
ROOT
HETATM    1  C8  UNL     1     -41.974   7.111  -1.231  1.00 20.00     0.130 C 
ENDROOT
BRANCH   1   2
HETATM    2  C5  UNL     1     -42.081   7.797   0.131  1.00 20.00     0.015 A 
HETATM    3  C1  UNL     1     -41.627   9.220   0.301  1.00 20.00     0.007 A 
HETATM    4  C2  UNL     1     -43.093   8.887   0.350  1.00 20.00     0.007 A 
ENDBRANCH   1   2
BRANCH   1   5
HETATM    5  C6  UNL     1     -42.140   5.620  -1.138  1.00 20.00    -0.018 A 
HETATM    6  C3  UNL     1     -43.381   5.007  -1.745  1.00 20.00     0.012 A 
HETATM    7  C4  UNL     1     -43.238   5.083  -0.251  1.00 20.00     0.012 A 
HETATM    8  C7  UNL     1     -40.856   4.841  -1.221  1.00 20.00     0.018 C 
ENDBRANCH   1   5
BRANCH   1   9
HETATM    9  O9  UNL     1     -40.698   7.423  -1.798  1.00 20.00    -0.394 OA
HETATM   10  H23 UNL     1     -40.116   6.679  -1.580  1.00 20.00     0.210 HD
ENDBRANCH   1   9
TORSDOF 3
ENDMDL
MODEL 8
REMARK VINA RESULT:      -3.7     17.195     18.722
REMARK  3 active torsions:
REMARK  status: ('A' for Active; 'I' for Inactive)
REMARK    1  A    between atoms: C5_5  and  C8_8 
REMARK    2  A    between atoms: C6_6  and  C8_8 
REMARK    3  A    between atoms: C8_8  and  O9_9 
ROOT
HETATM    1  C8  UNL     1     -34.980  15.980  -4.625  1.00 20.00     0.130 C 
ENDROOT
BRANCH   1   2
HETATM    2  C5  UNL     1     -34.273  15.565  -3.335  1.00 20.00     0.015 A 
HETATM    3  C1  UNL     1     -33.308  16.501  -2.665  1.00 20.00     0.007 A 
HETATM    4  C2  UNL     1     -34.640  16.214  -2.029  1.00 20.00     0.007 A 
ENDBRANCH   1   2
BRANCH   1   5
HETATM    5  C6  UNL     1     -35.786  14.862  -5.225  1.00 20.00    -0.018 A 
HETATM    6  C3  UNL     1     -37.143  14.567  -4.628  1.00 20.00     0.012 A 
HETATM    7  C4  UNL     1     -36.001  13.619  -4.394  1.00 20.00     0.012 A 
HETATM    8  C7  UNL     1     -35.618  14.697  -6.711  1.00 20.00     0.018 C 
ENDBRANCH   1   5
BRANCH   1   9
HETATM    9  O9  UNL     1     -33.995  16.425  -5.561  1.00 20.00    -0.394 OA
HETATM   10  H23 UNL     1     -34.307  16.147  -6.435  1.00 20.00     0.210 HD
ENDBRANCH   1   9
TORSDOF 3
ENDMDL
MODEL 9
REMARK VINA RESULT:      -3.7      1.717      2.363
REMARK  3 active torsions:
REMARK  status: ('A' for Active; 'I' for Inactive)
REMARK    1  A    between atoms: C5_5  and  C8_8 
REMARK    2  A    between atoms: C6_6  and  C8_8 
REMARK    3  A    between atoms: C8_8  and  O9_9 
ROOT
HETATM    1  C8  UNL     1     -24.944  18.326  10.645  1.00 20.00     0.130 C 
ENDROOT
BRANCH   1   2
HETATM    2  C5  UNL     1     -24.709  18.193   9.141  1.00 20.00     0.015 A 
HETATM    3  C1  UNL     1     -25.433  19.092   8.178  1.00 20.00     0.007 A 
HETATM    4  C2  UNL     1     -23.954  19.259   8.396  1.00 20.00     0.007 A 
ENDBRANCH   1   2
BRANCH   1   5
HETATM    5  C6  UNL     1     -24.060  17.413  11.448  1.00 20.00    -0.018 A 
HETATM    6  C3  UNL     1     -23.008  18.042  12.332  1.00 20.00     0.012 A 
HETATM    7  C4  UNL     1     -22.599  17.331  11.073  1.00 20.00     0.012 A 
HETATM    8  C7  UNL     1     -24.733  16.160  11.936  1.00 20.00     0.018 C 
ENDBRANCH   1   5
BRANCH   1   9
HETATM    9  O9  UNL     1     -26.317  18.036  10.919  1.00 20.00    -0.394 OA
HETATM   10  H23 UNL     1     -26.429  17.086  10.765  1.00 20.00     0.210 HD
ENDBRANCH   1   9
TORSDOF 3
ENDMDL
