MODEL 1
REMARK VINA RESULT:      -4.1      0.000      0.000
REMARK  4 active torsions:
REMARK  status: ('A' for Active; 'I' for Inactive)
REMARK    1  A    between atoms: C3_3  and  C7_7 
REMARK    2  A    between atoms: C6_6  and  C7_7 
REMARK    3  A    between atoms: C6_6  and  O9_9 
REMARK    4  A    between atoms: C7_7  and  C8_8 
ROOT
HETATM    1  C7  UNL     1     -35.763  15.116  -4.346  1.00 20.00     0.032 C 
ENDROOT
BRANCH   1   2
HETATM    2  C3  UNL     1     -34.816  15.071  -3.166  1.00 20.00    -0.007 A 
HETATM    3  C1  UNL     1     -33.782  16.148  -2.982  1.00 20.00     0.005 A 
HETATM    4  C2  UNL     1     -34.955  16.064  -2.045  1.00 20.00     0.005 A 
ENDBRANCH   1   2
BRANCH   1   5
HETATM    5  C6  UNL     1     -36.332  13.716  -4.633  1.00 20.00     0.173 C 
BRANCH   5   6
HETATM    6  O9  UNL     1     -37.734  13.713  -4.384  1.00 20.00    -0.396 OA
HETATM    7  C5  UNL     1     -38.249  15.034  -4.300  1.00 20.00     0.201 C 
ENDBRANCH   5   6
ENDBRANCH   1   5
BRANCH   1   8
HETATM    8  C8  UNL     1     -35.133  15.731  -5.620  1.00 20.00     0.084 C 
HETATM    9  C4  UNL     1     -35.401  14.923  -6.886  1.00 20.00     0.027 C 
HETATM   10 CL10 UNL     1     -35.650  17.427  -5.885  1.00 20.00    -0.125 Cl
ENDBRANCH   1   8
TORSDOF 4
ENDMDL
MODEL 2
REMARK VINA RESULT:      -3.8     16.846     18.665
REMARK  4 active torsions:
REMARK  status: ('A' for Active; 'I' for Inactive)
REMARK    1  A    between atoms: C3_3  and  C7_7 
REMARK    2  A    between atoms: C6_6  and  C7_7 
REMARK    3  A    between atoms: C6_6  and  O9_9 
REMARK    4  A    between atoms: C7_7  and  C8_8 
ROOT
HETATM    1  C7  UNL     1     -24.224  18.075   9.594  1.00 20.00     0.032 C 
ENDROOT
BRANCH   1   2
HETATM    2  C3  UNL     1     -22.794  18.493   9.326  1.00 20.00    -0.007 A 
HETATM    3  C1  UNL     1     -21.654  17.771   9.990  1.00 20.00     0.005 A 
HETATM    4  C2  UNL     1     -21.886  17.611   8.514  1.00 20.00     0.005 A 
ENDBRANCH   1   2
BRANCH   1   5
HETATM    5  C6  UNL     1     -25.205  19.095   8.992  1.00 20.00     0.173 C 
BRANCH   5   6
HETATM    6  O9  UNL     1     -24.923  19.263   7.606  1.00 20.00    -0.396 OA
HETATM    7  C5  UNL     1     -26.047  18.936   6.803  1.00 20.00     0.201 C 
ENDBRANCH   5   6
ENDBRANCH   1   5
BRANCH   1   8
HETATM    8  C8  UNL     1     -24.525  17.834  11.094  1.00 20.00     0.084 C 
HETATM    9  C4  UNL     1     -25.769  18.563  11.593  1.00 20.00     0.027 C 
HETATM   10 CL10 UNL     1     -24.666  16.092  11.490  1.00 20.00    -0.125 Cl
ENDBRANCH   1   8
TORSDOF 4
ENDMDL
MODEL 3
REMARK VINA RESULT:      -3.6     18.489     19.353
REMARK  4 active torsions:
REMARK  status: ('A' for Active; 'I' for Inactive)
REMARK    1  A    between atoms: C3_3  and  C7_7 
REMARK    2  A    between atoms: C6_6  and  C7_7 
REMARK    3  A    between atoms: C6_6  and  O9_9 
REMARK    4  A    between atoms: C7_7  and  C8_8 
ROOT
HETATM    1  C7  UNL     1     -24.698  17.957  10.477  1.00 20.00     0.032 C 
ENDROOT
BRANCH   1   2
HETATM    2  C3  UNL     1     -23.525  18.449   9.656  1.00 20.00    -0.007 A 
HETATM    3  C1  UNL     1     -22.682  17.476   8.880  1.00 20.00     0.005 A 
HETATM    4  C2  UNL     1     -23.591  18.428   8.154  1.00 20.00     0.005 A 
ENDBRANCH   1   2
BRANCH   1   5
HETATM    5  C6  UNL     1     -25.696  19.101  10.730  1.00 20.00     0.173 C 
BRANCH   5   6
HETATM    6  O9  UNL     1     -26.300  18.928  12.008  1.00 20.00    -0.396 OA
HETATM    7  C5  UNL     1     -27.663  18.546  11.891  1.00 20.00     0.201 C 
ENDBRANCH   5   6
ENDBRANCH   1   5
BRANCH   1   8
HETATM    8  C8  UNL     1     -24.280  17.282  11.807  1.00 20.00     0.084 C 
HETATM    9  C4  UNL     1     -24.360  15.759  11.771  1.00 20.00     0.027 C 
HETATM   10 CL10 UNL     1     -22.637  17.771  12.332  1.00 20.00    -0.125 Cl
ENDBRANCH   1   8
TORSDOF 4
ENDMDL
MODEL 4
REMARK VINA RESULT:      -3.5      1.571      1.868
REMARK  4 active torsions:
REMARK  status: ('A' for Active; 'I' for Inactive)
REMARK    1  A    between atoms: C3_3  and  C7_7 
REMARK    2  A    between atoms: C6_6  and  C7_7 
REMARK    3  A    between atoms: C6_6  and  O9_9 
REMARK    4  A    between atoms: C7_7  and  C8_8 
ROOT
HETATM    1  C7  UNL     1     -34.763  15.672  -3.748  1.00 20.00     0.032 C 
ENDROOT
BRANCH   1   2
HETATM    2  C3  UNL     1     -34.192  16.046  -2.397  1.00 20.00    -0.007 A 
HETATM    3  C1  UNL     1     -34.065  17.491  -2.001  1.00 20.00     0.005 A 
HETATM    4  C2  UNL     1     -35.085  16.616  -1.329  1.00 20.00     0.005 A 
ENDBRANCH   1   2
BRANCH   1   5
HETATM    5  C6  UNL     1     -34.065  14.416  -4.298  1.00 20.00     0.173 C 
BRANCH   5   6
HETATM    6  O9  UNL     1     -34.909  13.285  -4.110  1.00 20.00    -0.396 OA
HETATM    7  C5  UNL     1     -36.235  13.548  -4.545  1.00 20.00     0.201 C 
ENDBRANCH   5   6
ENDBRANCH   1   5
BRANCH   1   8
HETATM    8  C8  UNL     1     -34.717  16.828  -4.778  1.00 20.00     0.084 C 
HETATM    9  C4  UNL     1     -34.414  16.368  -6.201  1.00 20.00     0.027 C 
HETATM   10 CL10 UNL     1     -36.226  17.796  -4.783  1.00 20.00    -0.125 Cl
ENDBRANCH   1   8
TORSDOF 4
ENDMDL
MODEL 5
REMARK VINA RESULT:      -3.5      4.216      5.738
REMARK  4 active torsions:
REMARK  status: ('A' for Active; 'I' for Inactive)
REMARK    1  A    between atoms: C3_3  and  C7_7 
REMARK    2  A    between atoms: C6_6  and  C7_7 
REMARK    3  A    between atoms: C6_6  and  O9_9 
REMARK    4  A    between atoms: C7_7  and  C8_8 
ROOT
HETATM    1  C7  UNL     1     -32.923  17.757  -1.512  1.00 20.00     0.032 C 
ENDROOT
BRANCH   1   2
HETATM    2  C3  UNL     1     -34.263  18.103  -0.898  1.00 20.00    -0.007 A 
HETATM    3  C1  UNL     1     -35.276  17.024  -0.631  1.00 20.00     0.005 A 
HETATM    4  C2  UNL     1     -34.576  17.698   0.516  1.00 20.00     0.005 A 
ENDBRANCH   1   2
BRANCH   1   5
HETATM    5  C6  UNL     1     -31.896  18.866  -1.221  1.00 20.00     0.173 C 
BRANCH   5   6
HETATM    6  O9  UNL     1     -30.723  18.290  -0.658  1.00 20.00    -0.396 OA
HETATM    7  C5  UNL     1     -30.778  18.282   0.761  1.00 20.00     0.201 C 
ENDBRANCH   5   6
ENDBRANCH   1   5
BRANCH   1   8
HETATM    8  C8  UNL     1     -32.999  17.455  -3.029  1.00 20.00     0.084 C 
HETATM    9  C4  UNL     1     -33.141  15.970  -3.350  1.00 20.00     0.027 C 
HETATM   10 CL10 UNL     1     -34.317  18.360  -3.838  1.00 20.00    -0.125 Cl
ENDBRANCH   1   8
TORSDOF 4
ENDMDL
MODEL 6
REMARK VINA RESULT:      -3.4      1.581      3.074
REMARK  4 active torsions:
REMARK  status: ('A' for Active; 'I' for Inactive)
REMARK    1  A    between atoms: C3_3  and  C7_7 
REMARK    2  A    between atoms: C6_6  and  C7_7 
REMARK    3  A    between atoms: C6_6  and  O9_9 
REMARK    4  A    between atoms: C7_7  and  C8_8 
ROOT
HETATM    1  C7  UNL     1     -34.891  14.756  -4.783  1.00 20.00     0.032 C 
ENDROOT
BRANCH   1   2
HETATM    2  C3  UNL     1     -35.112  15.220  -6.207  1.00 20.00    -0.007 A 
HETATM    3  C1  UNL     1     -34.468  16.486  -6.700  1.00 20.00     0.005 A 
HETATM    4  C2  UNL     1     -33.990  15.154  -7.206  1.00 20.00     0.005 A 
ENDBRANCH   1   2
BRANCH   1   5
HETATM    5  C6  UNL     1     -36.099  13.940  -4.290  1.00 20.00     0.173 C 
BRANCH   5   6
HETATM    6  O9  UNL     1     -37.236  14.247  -5.090  1.00 20.00    -0.396 OA
HETATM    7  C5  UNL     1     -38.335  14.665  -4.294  1.00 20.00     0.201 C 
ENDBRANCH   5   6
ENDBRANCH   1   5
BRANCH   1   8
HETATM    8  C8  UNL     1     -34.563  15.909  -3.802  1.00 20.00     0.084 C 
HETATM    9  C4  UNL     1     -35.339  15.836  -2.491  1.00 20.00     0.027 C 
HETATM   10 CL10 UNL     1     -32.810  16.018  -3.442  1.00 20.00    -0.125 Cl
ENDBRANCH   1   8
TORSDOF 4
ENDMDL
MODEL 7
REMARK VINA RESULT:      -3.4      2.250      3.718
REMARK  4 active torsions:
REMARK  status: ('A' for Active; 'I' for Inactive)
REMARK    1  A    between atoms: C3_3  and  C7_7 
REMARK    2  A    between atoms: C6_6  and  C7_7 
REMARK    3  A    between atoms: C6_6  and  O9_9 
REMARK    4  A    between atoms: C7_7  and  C8_8 
ROOT
HETATM    1  C7  UNL     1     -34.875  15.342  -2.975  1.00 20.00     0.032 C 
ENDROOT
BRANCH   1   2
HETATM    2  C3  UNL     1     -36.109  15.142  -3.829  1.00 20.00    -0.007 A 
HETATM    3  C1  UNL     1     -35.982  14.972  -5.318  1.00 20.00     0.005 A 
HETATM    4  C2  UNL     1     -36.384  13.805  -4.461  1.00 20.00     0.005 A 
ENDBRANCH   1   2
BRANCH   1   5
HETATM    5  C6  UNL     1     -35.195  16.242  -1.769  1.00 20.00     0.173 C 
BRANCH   5   6
HETATM    6  O9  UNL     1     -36.241  17.144  -2.116  1.00 20.00    -0.396 OA
HETATM    7  C5  UNL     1     -36.571  17.998  -1.030  1.00 20.00     0.201 C 
ENDBRANCH   5   6
ENDBRANCH   1   5
BRANCH   1   8
HETATM    8  C8  UNL     1     -33.660  15.886  -3.766  1.00 20.00     0.084 C 
HETATM    9  C4  UNL     1     -32.859  16.940  -3.008  1.00 20.00     0.027 C 
HETATM   10 CL10 UNL     1     -32.554  14.580  -4.300  1.00 20.00    -0.125 Cl
ENDBRANCH   1   8
TORSDOF 4
ENDMDL
MODEL 8
REMARK VINA RESULT:      -3.3      2.926      3.824
REMARK  4 active torsions:
REMARK  status: ('A' for Active; 'I' for Inactive)
REMARK    1  A    between atoms: C3_3  and  C7_7 
REMARK    2  A    between atoms: C6_6  and  C7_7 
REMARK    3  A    between atoms: C6_6  and  O9_9 
REMARK    4  A    between atoms: C7_7  and  C8_8 
ROOT
HETATM    1  C7  UNL     1     -34.093  16.126  -2.390  1.00 20.00     0.032 C 
ENDROOT
BRANCH   1   2
HETATM    2  C3  UNL     1     -34.339  15.518  -3.754  1.00 20.00    -0.007 A 
HETATM    3  C1  UNL     1     -33.306  14.626  -4.385  1.00 20.00     0.005 A 
HETATM    4  C2  UNL     1     -34.599  14.042  -3.889  1.00 20.00     0.005 A 
ENDBRANCH   1   2
BRANCH   1   5
HETATM    5  C6  UNL     1     -35.392  16.726  -1.826  1.00 20.00     0.173 C 
BRANCH   5   6
HETATM    6  O9  UNL     1     -36.316  16.940  -2.888  1.00 20.00    -0.396 OA
HETATM    7  C5  UNL     1     -36.808  18.272  -2.889  1.00 20.00     0.201 C 
ENDBRANCH   5   6
ENDBRANCH   1   5
BRANCH   1   8
HETATM    8  C8  UNL     1     -32.949  17.169  -2.377  1.00 20.00     0.084 C 
HETATM    9  C4  UNL     1     -33.022  18.171  -3.526  1.00 20.00     0.027 C 
HETATM   10 CL10 UNL     1     -32.857  18.062  -0.825  1.00 20.00    -0.125 Cl
ENDBRANCH   1   8
TORSDOF 4
ENDMDL
MODEL 9
REMARK VINA RESULT:      -3.3      2.263      3.162
REMARK  4 active torsions:
REMARK  status: ('A' for Active; 'I' for Inactive)
REMARK    1  A    between atoms: C3_3  and  C7_7 
REMARK    2  A    between atoms: C6_6  and  C7_7 
REMARK    3  A    between atoms: C6_6  and  O9_9 
REMARK    4  A    between atoms: C7_7  and  C8_8 
ROOT
HETATM    1  C7  UNL     1     -34.550  15.160  -3.396  1.00 20.00     0.032 C 
ENDROOT
BRANCH   1   2
HETATM    2  C3  UNL     1     -34.287  16.608  -3.040  1.00 20.00    -0.007 A 
HETATM    3  C1  UNL     1     -34.349  17.060  -1.607  1.00 20.00     0.005 A 
HETATM    4  C2  UNL     1     -33.025  16.992  -2.317  1.00 20.00     0.005 A 
ENDBRANCH   1   2
BRANCH   1   5
HETATM    5  C6  UNL     1     -33.751  14.760  -4.649  1.00 20.00     0.173 C 
BRANCH   5   6
HETATM    6  O9  UNL     1     -33.920  15.753  -5.655  1.00 20.00    -0.396 OA
HETATM    7  C5  UNL     1     -34.119  15.169  -6.934  1.00 20.00     0.201 C 
ENDBRANCH   5   6
ENDBRANCH   1   5
BRANCH   1   8
HETATM    8  C8  UNL     1     -36.053  14.831  -3.569  1.00 20.00     0.084 C 
HETATM    9  C4  UNL     1     -36.887  16.014  -4.052  1.00 20.00     0.027 C 
HETATM   10 CL10 UNL     1     -36.324  13.436  -4.662  1.00 20.00    -0.125 Cl
ENDBRANCH   1   8
TORSDOF 4
ENDMDL
