MODEL 1
REMARK VINA RESULT:      -4.1      0.000      0.000
REMARK  3 active torsions:
REMARK  status: ('A' for Active; 'I' for Inactive)
REMARK    1  A    between atoms: C1_1  and  C6_6 
REMARK    2  A    between atoms: C2_2  and  C8_8 
REMARK    3  A    between atoms: C2_2  and  C9_9 
ROOT
HETATM    1  C1  UNL     1     -33.393   6.611   2.296  1.00 20.00    -0.018 C 
HETATM    2  C2  UNL     1     -33.761   6.371   3.569  1.00 20.00    -0.070 C 
ENDROOT
BRANCH   1   3
HETATM    3  C6  UNL     1     -32.446   7.688   1.926  1.00 20.00     0.008 C 
HETATM    4  C4  UNL     1     -31.931   7.648   0.464  1.00 20.00     0.008 C 
HETATM    5  C3  UNL     1     -33.047   8.644   0.093  1.00 20.00     0.001 C 
HETATM    6  C5  UNL     1     -33.092   9.052   1.578  1.00 20.00     0.008 C 
ENDBRANCH   1   3
BRANCH   2   7
HETATM    7  C8  UNL     1     -33.194   7.227   4.685  1.00 20.00     0.030 C 
HETATM    8  C7  UNL     1     -33.813   6.907   6.038  1.00 20.00     0.010 C 
ENDBRANCH   2   7
BRANCH   2   9
HETATM    9  C9  UNL     1     -34.717   5.282   3.981  1.00 20.00     0.148 C 
HETATM   10 CL10 UNL     1     -33.960   3.684   3.786  1.00 20.00    -0.126 Cl
ENDBRANCH   2   9
TORSDOF 3
ENDMDL
MODEL 2
REMARK VINA RESULT:      -4.1     10.790     11.412
REMARK  3 active torsions:
REMARK  status: ('A' for Active; 'I' for Inactive)
REMARK    1  A    between atoms: C1_1  and  C6_6 
REMARK    2  A    between atoms: C2_2  and  C8_8 
REMARK    3  A    between atoms: C2_2  and  C9_9 
ROOT
HETATM    1  C1  UNL     1     -33.433  16.468  -2.898  1.00 20.00    -0.018 C 
HETATM    2  C2  UNL     1     -33.921  17.168  -1.856  1.00 20.00    -0.070 C 
ENDROOT
BRANCH   1   3
HETATM    3  C6  UNL     1     -34.060  15.219  -3.389  1.00 20.00     0.008 C 
HETATM    4  C4  UNL     1     -35.087  15.397  -4.535  1.00 20.00     0.008 C 
HETATM    5  C3  UNL     1     -33.953  15.099  -5.536  1.00 20.00     0.001 C 
HETATM    6  C5  UNL     1     -33.208  14.394  -4.385  1.00 20.00     0.008 C 
ENDBRANCH   1   3
BRANCH   2   7
HETATM    7  C8  UNL     1     -35.165  16.674  -1.142  1.00 20.00     0.030 C 
HETATM    8  C7  UNL     1     -35.314  17.272   0.250  1.00 20.00     0.010 C 
ENDBRANCH   2   7
BRANCH   2   9
HETATM    9  C9  UNL     1     -33.311  18.443  -1.334  1.00 20.00     0.148 C 
HETATM   10 CL10 UNL     1     -31.608  18.183  -0.894  1.00 20.00    -0.126 Cl
ENDBRANCH   2   9
TORSDOF 3
ENDMDL
MODEL 3
REMARK VINA RESULT:      -4.0     10.326     11.354
REMARK  3 active torsions:
REMARK  status: ('A' for Active; 'I' for Inactive)
REMARK    1  A    between atoms: C1_1  and  C6_6 
REMARK    2  A    between atoms: C2_2  and  C8_8 
REMARK    3  A    between atoms: C2_2  and  C9_9 
ROOT
HETATM    1  C1  UNL     1     -34.600  16.251  -2.234  1.00 20.00    -0.018 C 
HETATM    2  C2  UNL     1     -33.999  17.282  -1.609  1.00 20.00    -0.070 C 
ENDROOT
BRANCH   1   3
HETATM    3  C6  UNL     1     -33.954  15.491  -3.329  1.00 20.00     0.008 C 
HETATM    4  C4  UNL     1     -34.684  14.193  -3.759  1.00 20.00     0.008 C 
HETATM    5  C3  UNL     1     -35.375  15.006  -4.871  1.00 20.00     0.001 C 
HETATM    6  C5  UNL     1     -34.223  16.023  -4.759  1.00 20.00     0.008 C 
ENDBRANCH   1   3
BRANCH   2   7
HETATM    7  C8  UNL     1     -32.602  17.697  -2.029  1.00 20.00     0.030 C 
HETATM    8  C7  UNL     1     -31.781  18.239  -0.867  1.00 20.00     0.010 C 
ENDBRANCH   2   7
BRANCH   2   9
HETATM    9  C9  UNL     1     -34.625  18.072  -0.490  1.00 20.00     0.148 C 
HETATM   10 CL10 UNL     1     -35.525  16.995   0.603  1.00 20.00    -0.126 Cl
ENDBRANCH   2   9
TORSDOF 3
ENDMDL
MODEL 4
REMARK VINA RESULT:      -3.9     10.782     11.834
REMARK  3 active torsions:
REMARK  status: ('A' for Active; 'I' for Inactive)
REMARK    1  A    between atoms: C1_1  and  C6_6 
REMARK    2  A    between atoms: C2_2  and  C8_8 
REMARK    3  A    between atoms: C2_2  and  C9_9 
ROOT
HETATM    1  C1  UNL     1     -34.084  16.471  -3.989  1.00 20.00    -0.018 C 
HETATM    2  C2  UNL     1     -34.604  15.488  -4.749  1.00 20.00    -0.070 C 
ENDROOT
BRANCH   1   3
HETATM    3  C6  UNL     1     -33.743  16.284  -2.560  1.00 20.00     0.008 C 
HETATM    4  C4  UNL     1     -32.929  17.434  -1.915  1.00 20.00     0.008 C 
HETATM    5  C3  UNL     1     -34.259  18.031  -1.413  1.00 20.00     0.001 C 
HETATM    6  C5  UNL     1     -34.873  16.625  -1.557  1.00 20.00     0.008 C 
ENDBRANCH   1   3
BRANCH   2   7
HETATM    7  C8  UNL     1     -34.859  14.125  -4.135  1.00 20.00     0.030 C 
HETATM    8  C7  UNL     1     -36.219  13.558  -4.517  1.00 20.00     0.010 C 
ENDBRANCH   2   7
BRANCH   2   9
HETATM    9  C9  UNL     1     -34.957  15.642  -6.205  1.00 20.00     0.148 C 
HETATM   10 CL10 UNL     1     -33.662  14.983  -7.232  1.00 20.00    -0.126 Cl
ENDBRANCH   2   9
TORSDOF 3
ENDMDL
MODEL 5
REMARK VINA RESULT:      -3.9     10.475     11.653
REMARK  3 active torsions:
REMARK  status: ('A' for Active; 'I' for Inactive)
REMARK    1  A    between atoms: C1_1  and  C6_6 
REMARK    2  A    between atoms: C2_2  and  C8_8 
REMARK    3  A    between atoms: C2_2  and  C9_9 
ROOT
HETATM    1  C1  UNL     1     -35.137  16.257  -1.642  1.00 20.00    -0.018 C 
HETATM    2  C2  UNL     1     -34.283  15.958  -2.640  1.00 20.00    -0.070 C 
ENDROOT
BRANCH   1   3
HETATM    3  C6  UNL     1     -34.895  17.360  -0.684  1.00 20.00     0.008 C 
HETATM    4  C4  UNL     1     -35.795  18.609  -0.867  1.00 20.00     0.008 C 
HETATM    5  C3  UNL     1     -36.739  18.027   0.203  1.00 20.00     0.001 C 
HETATM    6  C5  UNL     1     -35.550  17.188   0.709  1.00 20.00     0.008 C 
ENDBRANCH   1   3
BRANCH   2   7
HETATM    7  C8  UNL     1     -33.016  16.773  -2.808  1.00 20.00     0.030 C 
HETATM    8  C7  UNL     1     -33.199  17.946  -3.761  1.00 20.00     0.010 C 
ENDBRANCH   2   7
BRANCH   2   9
HETATM    9  C9  UNL     1     -34.502  14.847  -3.634  1.00 20.00     0.148 C 
HETATM   10 CL10 UNL     1     -32.965  14.390  -4.403  1.00 20.00    -0.126 Cl
ENDBRANCH   2   9
TORSDOF 3
ENDMDL
MODEL 6
REMARK VINA RESULT:      -3.8     10.519     11.515
REMARK  3 active torsions:
REMARK  status: ('A' for Active; 'I' for Inactive)
REMARK    1  A    between atoms: C1_1  and  C6_6 
REMARK    2  A    between atoms: C2_2  and  C8_8 
REMARK    3  A    between atoms: C2_2  and  C9_9 
ROOT
HETATM    1  C1  UNL     1     -34.870  15.498  -2.849  1.00 20.00    -0.018 C 
HETATM    2  C2  UNL     1     -34.770  14.648  -3.890  1.00 20.00    -0.070 C 
ENDROOT
BRANCH   1   3
HETATM    3  C6  UNL     1     -33.807  16.470  -2.505  1.00 20.00     0.008 C 
HETATM    4  C4  UNL     1     -33.835  17.797  -3.305  1.00 20.00     0.008 C 
HETATM    5  C3  UNL     1     -34.639  18.424  -2.150  1.00 20.00     0.001 C 
HETATM    6  C5  UNL     1     -34.069  17.321  -1.237  1.00 20.00     0.008 C 
ENDBRANCH   1   3
BRANCH   2   7
HETATM    7  C8  UNL     1     -33.527  14.673  -4.758  1.00 20.00     0.030 C 
HETATM    8  C7  UNL     1     -33.838  14.987  -6.214  1.00 20.00     0.010 C 
ENDBRANCH   2   7
BRANCH   2   9
HETATM    9  C9  UNL     1     -35.833  13.651  -4.271  1.00 20.00     0.148 C 
HETATM   10 CL10 UNL     1     -37.426  14.439  -4.346  1.00 20.00    -0.126 Cl
ENDBRANCH   2   9
TORSDOF 3
ENDMDL
MODEL 7
REMARK VINA RESULT:      -3.8     10.789     11.847
REMARK  3 active torsions:
REMARK  status: ('A' for Active; 'I' for Inactive)
REMARK    1  A    between atoms: C1_1  and  C6_6 
REMARK    2  A    between atoms: C2_2  and  C8_8 
REMARK    3  A    between atoms: C2_2  and  C9_9 
ROOT
HETATM    1  C1  UNL     1     -33.037  16.413  -3.004  1.00 20.00    -0.018 C 
HETATM    2  C2  UNL     1     -33.902  15.463  -3.408  1.00 20.00    -0.070 C 
ENDROOT
BRANCH   1   3
HETATM    3  C6  UNL     1     -33.371  17.409  -1.960  1.00 20.00     0.008 C 
HETATM    4  C4  UNL     1     -32.158  18.102  -1.290  1.00 20.00     0.008 C 
HETATM    5  C3  UNL     1     -32.320  19.257  -2.297  1.00 20.00     0.001 C 
HETATM    6  C5  UNL     1     -33.782  18.808  -2.483  1.00 20.00     0.008 C 
ENDBRANCH   1   3
BRANCH   2   7
HETATM    7  C8  UNL     1     -35.281  15.393  -2.781  1.00 20.00     0.030 C 
HETATM    8  C7  UNL     1     -36.352  16.032  -3.653  1.00 20.00     0.010 C 
ENDBRANCH   2   7
BRANCH   2   9
HETATM    9  C9  UNL     1     -33.593  14.432  -4.462  1.00 20.00     0.148 C 
HETATM   10 CL10 UNL     1     -33.926  15.082  -6.084  1.00 20.00    -0.126 Cl
ENDBRANCH   2   9
TORSDOF 3
ENDMDL
MODEL 8
REMARK VINA RESULT:      -3.8     10.313     11.397
REMARK  3 active torsions:
REMARK  status: ('A' for Active; 'I' for Inactive)
REMARK    1  A    between atoms: C1_1  and  C6_6 
REMARK    2  A    between atoms: C2_2  and  C8_8 
REMARK    3  A    between atoms: C2_2  and  C9_9 
ROOT
HETATM    1  C1  UNL     1     -34.745  15.943  -2.194  1.00 20.00    -0.018 C 
HETATM    2  C2  UNL     1     -35.254  15.295  -3.260  1.00 20.00    -0.070 C 
ENDROOT
BRANCH   1   3
HETATM    3  C6  UNL     1     -35.433  17.081  -1.543  1.00 20.00     0.008 C 
HETATM    4  C4  UNL     1     -35.370  17.100   0.005  1.00 20.00     0.008 C 
HETATM    5  C3  UNL     1     -34.149  18.035  -0.103  1.00 20.00     0.001 C 
HETATM    6  C5  UNL     1     -34.639  18.411  -1.515  1.00 20.00     0.008 C 
ENDBRANCH   1   3
BRANCH   2   7
HETATM    7  C8  UNL     1     -36.587  15.734  -3.833  1.00 20.00     0.030 C 
HETATM    8  C7  UNL     1     -37.430  14.562  -4.315  1.00 20.00     0.010 C 
ENDBRANCH   2   7
BRANCH   2   9
HETATM    9  C9  UNL     1     -34.582  14.132  -3.941  1.00 20.00     0.148 C 
HETATM   10 CL10 UNL     1     -32.904  14.542  -4.363  1.00 20.00    -0.126 Cl
ENDBRANCH   2   9
TORSDOF 3
ENDMDL
MODEL 9
REMARK VINA RESULT:      -3.7     10.823     11.660
REMARK  3 active torsions:
REMARK  status: ('A' for Active; 'I' for Inactive)
REMARK    1  A    between atoms: C1_1  and  C6_6 
REMARK    2  A    between atoms: C2_2  and  C8_8 
REMARK    3  A    between atoms: C2_2  and  C9_9 
ROOT
HETATM    1  C1  UNL     1     -33.111  17.719  -1.399  1.00 20.00    -0.018 C 
HETATM    2  C2  UNL     1     -33.495  18.261  -0.227  1.00 20.00    -0.070 C 
ENDROOT
BRANCH   1   3
HETATM    3  C6  UNL     1     -34.074  17.312  -2.448  1.00 20.00     0.008 C 
HETATM    4  C4  UNL     1     -33.490  17.193  -3.878  1.00 20.00     0.008 C 
HETATM    5  C3  UNL     1     -33.290  15.687  -3.622  1.00 20.00     0.001 C 
HETATM    6  C5  UNL     1     -34.369  15.793  -2.527  1.00 20.00     0.008 C 
ENDBRANCH   1   3
BRANCH   2   7
HETATM    7  C8  UNL     1     -34.971  18.471   0.050  1.00 20.00     0.030 C 
HETATM    8  C7  UNL     1     -35.580  17.334   0.858  1.00 20.00     0.010 C 
ENDBRANCH   2   7
BRANCH   2   9
HETATM    9  C9  UNL     1     -32.542  18.690   0.858  1.00 20.00     0.148 C 
HETATM   10 CL10 UNL     1     -30.898  18.112   0.505  1.00 20.00    -0.126 Cl
ENDBRANCH   2   9
TORSDOF 3
ENDMDL
