MODEL 1
REMARK VINA RESULT:      -5.2      0.000      0.000
REMARK  1 active torsions:
REMARK  status: ('A' for Active; 'I' for Inactive)
REMARK    1  A    between atoms: C3_3  and  C7_7 
ROOT
HETATM    1  C1  UNL     1     -32.602   7.963   1.372  1.00 20.00     0.087 C 
HETATM    2  C2  UNL     1     -32.572   7.214   2.579  1.00 20.00     0.090 C 
HETATM    3  C3  UNL     1     -33.670   6.618   3.063  1.00 20.00    -0.011 C 
HETATM    4  N8  UNL     1     -32.622   8.576   0.387  1.00 20.00    -0.192 NA
ENDROOT
BRANCH   3   5
HETATM    5  C7  UNL     1     -33.690   5.831   4.308  1.00 20.00     0.009 C 
HETATM    6  C5  UNL     1     -33.984   6.630   5.604  1.00 20.00     0.008 C 
HETATM    7  C4  UNL     1     -34.798   5.410   6.082  1.00 20.00     0.001 C 
HETATM    8  C6  UNL     1     -35.003   5.058   4.594  1.00 20.00     0.008 C 
ENDBRANCH   3   5
TORSDOF 1
ENDMDL
MODEL 2
REMARK VINA RESULT:      -4.4     11.337     11.986
REMARK  1 active torsions:
REMARK  status: ('A' for Active; 'I' for Inactive)
REMARK    1  A    between atoms: C3_3  and  C7_7 
ROOT
HETATM    1  C1  UNL     1     -36.765  14.292  -4.154  1.00 20.00     0.087 C 
HETATM    2  C2  UNL     1     -35.467  14.714  -3.759  1.00 20.00     0.090 C 
HETATM    3  C3  UNL     1     -35.290  15.662  -2.829  1.00 20.00    -0.011 C 
HETATM    4  N8  UNL     1     -37.822  13.943  -4.480  1.00 20.00    -0.192 NA
ENDROOT
BRANCH   3   5
HETATM    5  C7  UNL     1     -33.967  16.134  -2.386  1.00 20.00     0.009 C 
HETATM    6  C5  UNL     1     -33.183  16.995  -3.409  1.00 20.00     0.008 C 
HETATM    7  C4  UNL     1     -32.696  17.840  -2.213  1.00 20.00     0.001 C 
HETATM    8  C6  UNL     1     -33.971  17.387  -1.473  1.00 20.00     0.008 C 
ENDBRANCH   3   5
TORSDOF 1
ENDMDL
MODEL 3
REMARK VINA RESULT:      -4.2     11.326     12.048
REMARK  1 active torsions:
REMARK  status: ('A' for Active; 'I' for Inactive)
REMARK    1  A    between atoms: C3_3  and  C7_7 
ROOT
HETATM    1  C1  UNL     1     -31.637  18.236  -0.891  1.00 20.00     0.087 C 
HETATM    2  C2  UNL     1     -32.815  17.753  -1.521  1.00 20.00     0.090 C 
HETATM    3  C3  UNL     1     -32.761  16.972  -2.608  1.00 20.00    -0.011 C 
HETATM    4  N8  UNL     1     -30.677  18.632  -0.374  1.00 20.00    -0.192 NA
ENDROOT
BRANCH   3   5
HETATM    5  C7  UNL     1     -33.953  16.447  -3.296  1.00 20.00     0.009 C 
HETATM    6  C5  UNL     1     -33.796  15.043  -3.936  1.00 20.00     0.008 C 
HETATM    7  C4  UNL     1     -35.247  14.761  -3.494  1.00 20.00     0.001 C 
HETATM    8  C6  UNL     1     -35.031  15.810  -2.383  1.00 20.00     0.008 C 
ENDBRANCH   3   5
TORSDOF 1
ENDMDL
MODEL 4
REMARK VINA RESULT:      -4.2     10.980     11.595
REMARK  1 active torsions:
REMARK  status: ('A' for Active; 'I' for Inactive)
REMARK    1  A    between atoms: C3_3  and  C7_7 
ROOT
HETATM    1  C1  UNL     1     -35.791  13.862  -4.202  1.00 20.00     0.087 C 
HETATM    2  C2  UNL     1     -35.699  15.191  -3.710  1.00 20.00     0.090 C 
HETATM    3  C3  UNL     1     -34.798  15.535  -2.780  1.00 20.00    -0.011 C 
HETATM    4  N8  UNL     1     -35.870  12.778  -4.607  1.00 20.00    -0.192 NA
ENDROOT
BRANCH   3   5
HETATM    5  C7  UNL     1     -34.663  16.898  -2.239  1.00 20.00     0.009 C 
HETATM    6  C5  UNL     1     -35.000  17.060  -0.733  1.00 20.00     0.008 C 
HETATM    7  C4  UNL     1     -33.834  18.068  -0.658  1.00 20.00     0.001 C 
HETATM    8  C6  UNL     1     -33.222  17.336  -1.870  1.00 20.00     0.008 C 
ENDBRANCH   3   5
TORSDOF 1
ENDMDL
MODEL 5
REMARK VINA RESULT:      -4.0     15.565     16.083
REMARK  1 active torsions:
REMARK  status: ('A' for Active; 'I' for Inactive)
REMARK    1  A    between atoms: C3_3  and  C7_7 
ROOT
HETATM    1  C1  UNL     1     -22.180  17.368   8.066  1.00 20.00     0.087 C 
HETATM    2  C2  UNL     1     -22.774  17.021   9.309  1.00 20.00     0.090 C 
HETATM    3  C3  UNL     1     -23.352  17.942  10.092  1.00 20.00    -0.011 C 
HETATM    4  N8  UNL     1     -21.694  17.647   7.050  1.00 20.00    -0.192 NA
ENDROOT
BRANCH   3   5
HETATM    5  C7  UNL     1     -23.981  17.632  11.387  1.00 20.00     0.009 C 
HETATM    6  C5  UNL     1     -25.412  18.192  11.591  1.00 20.00     0.008 C 
HETATM    7  C4  UNL     1     -25.740  16.880  12.332  1.00 20.00     0.001 C 
HETATM    8  C6  UNL     1     -24.613  16.222  11.509  1.00 20.00     0.008 C 
ENDBRANCH   3   5
TORSDOF 1
ENDMDL
MODEL 6
REMARK VINA RESULT:      -3.9     11.029     11.708
REMARK  1 active torsions:
REMARK  status: ('A' for Active; 'I' for Inactive)
REMARK    1  A    between atoms: C3_3  and  C7_7 
ROOT
HETATM    1  C1  UNL     1     -35.370  17.220   0.009  1.00 20.00     0.087 C 
HETATM    2  C2  UNL     1     -34.780  16.988  -1.262  1.00 20.00     0.090 C 
HETATM    3  C3  UNL     1     -35.235  16.032  -2.083  1.00 20.00    -0.011 C 
HETATM    4  N8  UNL     1     -35.848  17.413   1.048  1.00 20.00    -0.192 NA
ENDROOT
BRANCH   3   5
HETATM    5  C7  UNL     1     -34.659  15.753  -3.410  1.00 20.00     0.009 C 
HETATM    6  C5  UNL     1     -33.110  15.790  -3.491  1.00 20.00     0.008 C 
HETATM    7  C4  UNL     1     -33.208  14.600  -4.469  1.00 20.00     0.001 C 
HETATM    8  C6  UNL     1     -34.552  14.255  -3.795  1.00 20.00     0.008 C 
ENDBRANCH   3   5
TORSDOF 1
ENDMDL
MODEL 7
REMARK VINA RESULT:      -3.9      9.447     10.139
REMARK  1 active torsions:
REMARK  status: ('A' for Active; 'I' for Inactive)
REMARK    1  A    between atoms: C3_3  and  C7_7 
ROOT
HETATM    1  C1  UNL     1     -42.816   3.848  -2.221  1.00 20.00     0.087 C 
HETATM    2  C2  UNL     1     -42.597   5.031  -1.466  1.00 20.00     0.090 C 
HETATM    3  C3  UNL     1     -41.373   5.382  -1.049  1.00 20.00    -0.011 C 
HETATM    4  N8  UNL     1     -42.999   2.882  -2.837  1.00 20.00    -0.192 NA
ENDROOT
BRANCH   3   5
HETATM    5  C7  UNL     1     -41.094   6.597  -0.265  1.00 20.00     0.009 C 
HETATM    6  C5  UNL     1     -41.394   7.941  -0.978  1.00 20.00     0.008 C 
HETATM    7  C4  UNL     1     -41.888   8.468   0.385  1.00 20.00     0.001 C 
HETATM    8  C6  UNL     1     -42.186   7.002   0.759  1.00 20.00     0.008 C 
ENDBRANCH   3   5
TORSDOF 1
ENDMDL
MODEL 8
REMARK VINA RESULT:      -3.9     15.459     15.878
REMARK  1 active torsions:
REMARK  status: ('A' for Active; 'I' for Inactive)
REMARK    1  A    between atoms: C3_3  and  C7_7 
ROOT
HETATM    1  C1  UNL     1     -24.459  19.186   7.180  1.00 20.00     0.087 C 
HETATM    2  C2  UNL     1     -24.664  19.113   8.584  1.00 20.00     0.090 C 
HETATM    3  C3  UNL     1     -24.123  18.134   9.322  1.00 20.00    -0.011 C 
HETATM    4  N8  UNL     1     -24.294  19.251   6.033  1.00 20.00    -0.192 NA
ENDROOT
BRANCH   3   5
HETATM    5  C7  UNL     1     -24.305  18.014  10.778  1.00 20.00     0.009 C 
HETATM    6  C5  UNL     1     -25.643  18.566  11.336  1.00 20.00     0.008 C 
HETATM    7  C4  UNL     1     -25.638  17.376  12.318  1.00 20.00     0.001 C 
HETATM    8  C6  UNL     1     -24.771  16.625  11.286  1.00 20.00     0.008 C 
ENDBRANCH   3   5
TORSDOF 1
ENDMDL
MODEL 9
REMARK VINA RESULT:      -3.9     11.190     11.866
REMARK  1 active torsions:
REMARK  status: ('A' for Active; 'I' for Inactive)
REMARK    1  A    between atoms: C3_3  and  C7_7 
ROOT
HETATM    1  C1  UNL     1     -32.619  18.078  -1.858  1.00 20.00     0.087 C 
HETATM    2  C2  UNL     1     -33.675  17.128  -1.878  1.00 20.00     0.090 C 
HETATM    3  C3  UNL     1     -33.789  16.226  -2.862  1.00 20.00    -0.011 C 
HETATM    4  N8  UNL     1     -31.758  18.856  -1.838  1.00 20.00    -0.192 NA
ENDROOT
BRANCH   3   5
HETATM    5  C7  UNL     1     -34.864  15.222  -2.928  1.00 20.00     0.009 C 
HETATM    6  C5  UNL     1     -36.126  15.639  -3.727  1.00 20.00     0.008 C 
HETATM    7  C4  UNL     1     -36.197  14.182  -4.231  1.00 20.00     0.001 C 
HETATM    8  C6  UNL     1     -34.676  14.103  -3.984  1.00 20.00     0.008 C 
ENDBRANCH   3   5
TORSDOF 1
ENDMDL
