MODEL 1
REMARK VINA RESULT:      -4.7      0.000      0.000
REMARK  3 active torsions:
REMARK  status: ('A' for Active; 'I' for Inactive)
REMARK    1  A    between atoms: C1_1  and  C7_7 
REMARK    2  A    between atoms: C2_2  and  C3_3 
REMARK    3  A    between atoms: C3_3  and  C10_10 
ROOT
HETATM    1  C1  UNL     1     -35.303  15.329  -3.250  1.00 20.00    -0.012 C 
HETATM    2  C3  UNL     1     -35.579  14.930  -4.504  1.00 20.00    -0.020 C 
ENDROOT
BRANCH   2   3
HETATM    3  C2  UNL     1     -36.298  13.624  -4.578  1.00 20.00     0.265 C 
HETATM    4  O11 UNL     1     -35.750  12.535  -4.455  1.00 20.00    -0.302 OA
ENDBRANCH   2   3
BRANCH   2   5
HETATM    5  C10 UNL     1     -35.230  15.676  -5.779  1.00 20.00     0.013 C 
HETATM    6  C8  UNL     1     -36.443  15.854  -6.696  1.00 20.00     0.015 C 
HETATM    7  C9  UNL     1     -34.061  15.030  -6.525  1.00 20.00     0.015 C 
ENDBRANCH   2   5
BRANCH   1   8
HETATM    8  C7  UNL     1     -34.600  16.591  -2.959  1.00 20.00     0.009 C 
HETATM    9  C5  UNL     1     -34.506  16.979  -1.461  1.00 20.00     0.008 C 
HETATM   10  C4  UNL     1     -33.087  17.504  -1.764  1.00 20.00     0.001 C 
HETATM   11  C6  UNL     1     -33.053  16.511  -2.943  1.00 20.00     0.008 C 
ENDBRANCH   1   8
TORSDOF 3
ENDMDL
MODEL 2
REMARK VINA RESULT:      -4.6      1.243      1.713
REMARK  3 active torsions:
REMARK  status: ('A' for Active; 'I' for Inactive)
REMARK    1  A    between atoms: C1_1  and  C7_7 
REMARK    2  A    between atoms: C2_2  and  C3_3 
REMARK    3  A    between atoms: C3_3  and  C10_10 
ROOT
HETATM    1  C1  UNL     1     -35.424  15.328  -2.880  1.00 20.00    -0.012 C 
HETATM    2  C3  UNL     1     -35.072  14.806  -4.069  1.00 20.00    -0.020 C 
ENDROOT
BRANCH   2   3
HETATM    3  C2  UNL     1     -36.034  13.793  -4.592  1.00 20.00     0.265 C 
HETATM    4  O11 UNL     1     -35.875  12.582  -4.487  1.00 20.00    -0.302 OA
ENDBRANCH   2   3
BRANCH   2   5
HETATM    5  C10 UNL     1     -33.833  15.160  -4.870  1.00 20.00     0.013 C 
HETATM    6  C8  UNL     1     -34.071  15.059  -6.379  1.00 20.00     0.015 C 
HETATM    7  C9  UNL     1     -32.615  14.336  -4.445  1.00 20.00     0.015 C 
ENDBRANCH   2   5
BRANCH   1   8
HETATM    8  C7  UNL     1     -34.611  16.346  -2.192  1.00 20.00     0.009 C 
HETATM    9  C5  UNL     1     -34.781  17.800  -2.701  1.00 20.00     0.008 C 
HETATM   10  C4  UNL     1     -34.654  18.250  -1.231  1.00 20.00     0.001 C 
HETATM   11  C6  UNL     1     -35.169  16.850  -0.837  1.00 20.00     0.008 C 
ENDBRANCH   1   8
TORSDOF 3
ENDMDL
MODEL 3
REMARK VINA RESULT:      -4.4      1.252      1.629
REMARK  3 active torsions:
REMARK  status: ('A' for Active; 'I' for Inactive)
REMARK    1  A    between atoms: C1_1  and  C7_7 
REMARK    2  A    between atoms: C2_2  and  C3_3 
REMARK    3  A    between atoms: C3_3  and  C10_10 
ROOT
HETATM    1  C1  UNL     1     -35.121  15.106  -3.414  1.00 20.00    -0.012 C 
HETATM    2  C3  UNL     1     -36.215  14.897  -4.169  1.00 20.00    -0.020 C 
ENDROOT
BRANCH   2   3
HETATM    3  C2  UNL     1     -36.374  13.485  -4.624  1.00 20.00     0.265 C 
HETATM    4  O11 UNL     1     -35.599  12.582  -4.332  1.00 20.00    -0.302 OA
ENDBRANCH   2   3
BRANCH   2   5
HETATM    5  C10 UNL     1     -37.241  15.942  -4.567  1.00 20.00     0.013 C 
HETATM    6  C8  UNL     1     -38.676  15.446  -4.374  1.00 20.00     0.015 C 
HETATM    7  C9  UNL     1     -37.019  16.458  -5.990  1.00 20.00     0.015 C 
ENDBRANCH   2   5
BRANCH   1   8
HETATM    8  C7  UNL     1     -34.781  16.430  -2.864  1.00 20.00     0.009 C 
HETATM    9  C5  UNL     1     -35.009  16.605  -1.341  1.00 20.00     0.008 C 
HETATM   10  C4  UNL     1     -33.722  17.453  -1.321  1.00 20.00     0.001 C 
HETATM   11  C6  UNL     1     -33.279  16.674  -2.576  1.00 20.00     0.008 C 
ENDBRANCH   1   8
TORSDOF 3
ENDMDL
MODEL 4
REMARK VINA RESULT:      -4.2      1.385      2.176
REMARK  3 active torsions:
REMARK  status: ('A' for Active; 'I' for Inactive)
REMARK    1  A    between atoms: C1_1  and  C7_7 
REMARK    2  A    between atoms: C2_2  and  C3_3 
REMARK    3  A    between atoms: C3_3  and  C10_10 
ROOT
HETATM    1  C1  UNL     1     -33.466  16.190  -2.907  1.00 20.00    -0.012 C 
HETATM    2  C3  UNL     1     -34.043  15.522  -3.922  1.00 20.00    -0.020 C 
ENDROOT
BRANCH   2   3
HETATM    3  C2  UNL     1     -33.155  14.505  -4.558  1.00 20.00     0.265 C 
HETATM    4  O11 UNL     1     -33.166  13.314  -4.271  1.00 20.00    -0.302 OA
ENDBRANCH   2   3
BRANCH   2   5
HETATM    5  C10 UNL     1     -35.457  15.721  -4.434  1.00 20.00     0.013 C 
HETATM    6  C8  UNL     1     -36.397  14.596  -3.993  1.00 20.00     0.015 C 
HETATM    7  C9  UNL     1     -35.501  15.915  -5.952  1.00 20.00     0.015 C 
ENDBRANCH   2   5
BRANCH   1   8
HETATM    8  C7  UNL     1     -34.172  17.236  -2.145  1.00 20.00     0.009 C 
HETATM    9  C5  UNL     1     -35.144  16.729  -1.049  1.00 20.00     0.008 C 
HETATM   10  C4  UNL     1     -34.677  17.922  -0.190  1.00 20.00     0.001 C 
HETATM   11  C6  UNL     1     -33.364  17.894  -0.999  1.00 20.00     0.008 C 
ENDBRANCH   1   8
TORSDOF 3
ENDMDL
MODEL 5
REMARK VINA RESULT:      -4.2      2.596      5.052
REMARK  3 active torsions:
REMARK  status: ('A' for Active; 'I' for Inactive)
REMARK    1  A    between atoms: C1_1  and  C7_7 
REMARK    2  A    between atoms: C2_2  and  C3_3 
REMARK    3  A    between atoms: C3_3  and  C10_10 
ROOT
HETATM    1  C1  UNL     1     -34.421  16.431  -2.085  1.00 20.00    -0.012 C 
HETATM    2  C3  UNL     1     -33.791  17.427  -1.437  1.00 20.00    -0.020 C 
ENDROOT
BRANCH   2   3
HETATM    3  C2  UNL     1     -34.574  17.998  -0.302  1.00 20.00     0.265 C 
HETATM    4  O11 UNL     1     -34.880  17.367   0.703  1.00 20.00    -0.302 OA
ENDBRANCH   2   3
BRANCH   2   5
HETATM    5  C10 UNL     1     -32.416  17.979  -1.762  1.00 20.00     0.013 C 
HETATM    6  C8  UNL     1     -31.623  18.339  -0.503  1.00 20.00     0.015 C 
HETATM    7  C9  UNL     1     -32.481  19.160  -2.732  1.00 20.00     0.015 C 
ENDBRANCH   2   5
BRANCH   1   8
HETATM    8  C7  UNL     1     -33.820  15.733  -3.235  1.00 20.00     0.009 C 
HETATM    9  C5  UNL     1     -34.572  14.468  -3.722  1.00 20.00     0.008 C 
HETATM   10  C4  UNL     1     -34.207  14.895  -5.158  1.00 20.00     0.001 C 
HETATM   11  C6  UNL     1     -34.126  16.341  -4.627  1.00 20.00     0.008 C 
ENDBRANCH   1   8
TORSDOF 3
ENDMDL
MODEL 6
REMARK VINA RESULT:      -4.1      3.129      5.738
REMARK  3 active torsions:
REMARK  status: ('A' for Active; 'I' for Inactive)
REMARK    1  A    between atoms: C1_1  and  C7_7 
REMARK    2  A    between atoms: C2_2  and  C3_3 
REMARK    3  A    between atoms: C3_3  and  C10_10 
ROOT
HETATM    1  C1  UNL     1     -33.027  17.146  -2.127  1.00 20.00    -0.012 C 
HETATM    2  C3  UNL     1     -33.030  17.995  -1.083  1.00 20.00    -0.020 C 
ENDROOT
BRANCH   2   3
HETATM    3  C2  UNL     1     -31.868  18.930  -1.063  1.00 20.00     0.265 C 
HETATM    4  O11 UNL     1     -30.730  18.600  -0.751  1.00 20.00    -0.302 OA
ENDBRANCH   2   3
BRANCH   2   5
HETATM    5  C10 UNL     1     -34.077  18.062   0.013  1.00 20.00     0.013 C 
HETATM    6  C8  UNL     1     -35.155  19.109  -0.281  1.00 20.00     0.015 C 
HETATM    7  C9  UNL     1     -33.456  18.279   1.394  1.00 20.00     0.015 C 
ENDBRANCH   2   5
BRANCH   1   8
HETATM    8  C7  UNL     1     -34.086  16.141  -2.332  1.00 20.00     0.009 C 
HETATM    9  C5  UNL     1     -35.357  16.644  -3.062  1.00 20.00     0.008 C 
HETATM   10  C4  UNL     1     -35.405  15.272  -3.765  1.00 20.00     0.001 C 
HETATM   11  C6  UNL     1     -33.882  15.185  -3.534  1.00 20.00     0.008 C 
ENDBRANCH   1   8
TORSDOF 3
ENDMDL
MODEL 7
REMARK VINA RESULT:      -4.0      2.869      4.248
REMARK  3 active torsions:
REMARK  status: ('A' for Active; 'I' for Inactive)
REMARK    1  A    between atoms: C1_1  and  C7_7 
REMARK    2  A    between atoms: C2_2  and  C3_3 
REMARK    3  A    between atoms: C3_3  and  C10_10 
ROOT
HETATM    1  C1  UNL     1     -32.694  18.373  -2.184  1.00 20.00    -0.012 C 
HETATM    2  C3  UNL     1     -33.263  17.528  -3.062  1.00 20.00    -0.020 C 
ENDROOT
BRANCH   2   3
HETATM    3  C2  UNL     1     -33.551  18.141  -4.391  1.00 20.00     0.265 C 
HETATM    4  O11 UNL     1     -34.672  18.459  -4.768  1.00 20.00    -0.302 OA
ENDBRANCH   2   3
BRANCH   2   5
HETATM    5  C10 UNL     1     -33.611  16.073  -2.806  1.00 20.00     0.013 C 
HETATM    6  C8  UNL     1     -33.326  15.188  -4.022  1.00 20.00     0.015 C 
HETATM    7  C9  UNL     1     -35.052  15.901  -2.321  1.00 20.00     0.015 C 
ENDBRANCH   2   5
BRANCH   1   8
HETATM    8  C7  UNL     1     -32.329  17.965  -0.816  1.00 20.00     0.009 C 
HETATM    9  C5  UNL     1     -31.069  18.646  -0.224  1.00 20.00     0.008 C 
HETATM   10  C4  UNL     1     -31.808  18.669   1.129  1.00 20.00     0.001 C 
HETATM   11  C6  UNL     1     -33.124  18.648   0.325  1.00 20.00     0.008 C 
ENDBRANCH   1   8
TORSDOF 3
ENDMDL
MODEL 8
REMARK VINA RESULT:      -3.9      1.248      1.508
REMARK  3 active torsions:
REMARK  status: ('A' for Active; 'I' for Inactive)
REMARK    1  A    between atoms: C1_1  and  C7_7 
REMARK    2  A    between atoms: C2_2  and  C3_3 
REMARK    3  A    between atoms: C3_3  and  C10_10 
ROOT
HETATM    1  C1  UNL     1     -34.835  15.633  -2.356  1.00 20.00    -0.012 C 
HETATM    2  C3  UNL     1     -34.954  15.372  -3.670  1.00 20.00    -0.020 C 
ENDROOT
BRANCH   2   3
HETATM    3  C2  UNL     1     -34.709  13.944  -4.026  1.00 20.00     0.265 C 
HETATM    4  O11 UNL     1     -35.595  13.154  -4.330  1.00 20.00    -0.302 OA
ENDBRANCH   2   3
BRANCH   2   5
HETATM    5  C10 UNL     1     -35.303  16.375  -4.753  1.00 20.00     0.013 C 
HETATM    6  C8  UNL     1     -36.806  16.419  -5.040  1.00 20.00     0.015 C 
HETATM    7  C9  UNL     1     -34.500  16.144  -6.036  1.00 20.00     0.015 C 
ENDBRANCH   2   5
BRANCH   1   8
HETATM    8  C7  UNL     1     -35.037  16.981  -1.795  1.00 20.00     0.009 C 
HETATM    9  C5  UNL     1     -35.319  17.042  -0.273  1.00 20.00     0.008 C 
HETATM   10  C4  UNL     1     -34.462  18.324  -0.241  1.00 20.00     0.001 C 
HETATM   11  C6  UNL     1     -33.748  17.787  -1.498  1.00 20.00     0.008 C 
ENDBRANCH   1   8
TORSDOF 3
ENDMDL
MODEL 9
REMARK VINA RESULT:      -3.9      2.239      3.340
REMARK  3 active torsions:
REMARK  status: ('A' for Active; 'I' for Inactive)
REMARK    1  A    between atoms: C1_1  and  C7_7 
REMARK    2  A    between atoms: C2_2  and  C3_3 
REMARK    3  A    between atoms: C3_3  and  C10_10 
ROOT
HETATM    1  C1  UNL     1     -35.880  17.107  -1.872  1.00 20.00    -0.012 C 
HETATM    2  C3  UNL     1     -35.556  16.383  -2.959  1.00 20.00    -0.020 C 
ENDROOT
BRANCH   2   3
HETATM    3  C2  UNL     1     -36.391  16.688  -4.158  1.00 20.00     0.265 C 
HETATM    4  O11 UNL     1     -35.999  17.349  -5.113  1.00 20.00    -0.302 OA
ENDBRANCH   2   3
BRANCH   2   5
HETATM    5  C10 UNL     1     -34.460  15.338  -3.044  1.00 20.00     0.013 C 
HETATM    6  C8  UNL     1     -33.122  15.936  -3.485  1.00 20.00     0.015 C 
HETATM    7  C9  UNL     1     -34.857  14.155  -3.931  1.00 20.00     0.015 C 
ENDBRANCH   2   5
BRANCH   1   8
HETATM    8  C7  UNL     1     -35.177  16.958  -0.585  1.00 20.00     0.009 C 
HETATM    9  C5  UNL     1     -34.081  18.014  -0.292  1.00 20.00     0.008 C 
HETATM   10  C4  UNL     1     -34.544  17.976   1.178  1.00 20.00     0.001 C 
HETATM   11  C6  UNL     1     -35.919  17.515   0.655  1.00 20.00     0.008 C 
ENDBRANCH   1   8
TORSDOF 3
ENDMDL
