MODEL 1
REMARK VINA RESULT:      -4.4      0.000      0.000
REMARK  2 active torsions:
REMARK  status: ('A' for Active; 'I' for Inactive)
REMARK    1  A    between atoms: C6_6  and  C8_8 
REMARK    2  A    between atoms: C7_7  and  C9_9 
ROOT
HETATM    1  C4  UNL     1     -36.127  14.597  -5.764  1.00 20.00     0.034 C 
HETATM    2  C5  UNL     1     -36.169  13.522  -4.700  1.00 20.00     0.168 C 
HETATM    3  C7  UNL     1     -35.272  15.653  -5.096  1.00 20.00     0.031 C 
HETATM    4  C8  UNL     1     -34.241  14.795  -4.365  1.00 20.00     0.130 C 
HETATM    5  O10 UNL     1     -34.896  13.554  -4.041  1.00 20.00    -0.385 OA
ENDROOT
BRANCH   4   6
HETATM    6  C6  UNL     1     -33.766  15.450  -3.079  1.00 20.00     0.015 C 
HETATM    7  C2  UNL     1     -34.849  16.147  -2.212  1.00 20.00     0.007 C 
HETATM    8  C1  UNL     1     -33.788  17.219  -1.885  1.00 20.00     0.001 C 
HETATM    9  C3  UNL     1     -33.100  16.843  -3.213  1.00 20.00     0.007 C 
ENDBRANCH   4   6
BRANCH   3  10
HETATM   10  C9  UNL     1     -34.664  16.648  -6.069  1.00 20.00     0.121 C 
HETATM   11 CL11 UNL     1     -34.007  15.803  -7.485  1.00 20.00    -0.130 Cl
ENDBRANCH   3  10
TORSDOF 2
ENDMDL
MODEL 2
REMARK VINA RESULT:      -4.4      1.198      1.198
REMARK  2 active torsions:
REMARK  status: ('A' for Active; 'I' for Inactive)
REMARK    1  A    between atoms: C6_6  and  C8_8 
REMARK    2  A    between atoms: C7_7  and  C9_9 
ROOT
HETATM    1  C4  UNL     1     -36.172  14.803  -5.775  1.00 20.00     0.034 C 
HETATM    2  C5  UNL     1     -36.201  13.618  -4.835  1.00 20.00     0.168 C 
HETATM    3  C7  UNL     1     -35.429  15.830  -4.946  1.00 20.00     0.031 C 
HETATM    4  C8  UNL     1     -34.385  14.963  -4.246  1.00 20.00     0.130 C 
HETATM    5  O10 UNL     1     -34.972  13.656  -4.097  1.00 20.00    -0.385 OA
ENDROOT
BRANCH   4   6
HETATM    6  C6  UNL     1     -34.029  15.500  -2.870  1.00 20.00     0.015 C 
HETATM    7  C2  UNL     1     -35.114  16.346  -2.152  1.00 20.00     0.007 C 
HETATM    8  C1  UNL     1     -33.964  17.221  -1.609  1.00 20.00     0.001 C 
HETATM    9  C3  UNL     1     -33.137  16.767  -2.829  1.00 20.00     0.007 C 
ENDBRANCH   4   6
BRANCH   3  10
HETATM   10  C9  UNL     1     -34.835  16.961  -5.768  1.00 20.00     0.121 C 
HETATM   11 CL11 UNL     1     -35.349  18.532  -5.118  1.00 20.00    -0.130 Cl
ENDBRANCH   3  10
TORSDOF 2
ENDMDL
MODEL 3
REMARK VINA RESULT:      -4.2      3.232      4.978
REMARK  2 active torsions:
REMARK  status: ('A' for Active; 'I' for Inactive)
REMARK    1  A    between atoms: C6_6  and  C8_8 
REMARK    2  A    between atoms: C7_7  and  C9_9 
ROOT
HETATM    1  C4  UNL     1     -34.572  18.681  -0.030  1.00 20.00     0.034 C 
HETATM    2  C5  UNL     1     -35.851  17.875  -0.079  1.00 20.00     0.168 C 
HETATM    3  C7  UNL     1     -33.637  17.818  -0.849  1.00 20.00     0.031 C 
HETATM    4  C8  UNL     1     -34.570  17.312  -1.948  1.00 20.00     0.130 C 
HETATM    5  O10 UNL     1     -35.888  17.252  -1.370  1.00 20.00    -0.385 OA
ENDROOT
BRANCH   4   6
HETATM    6  C6  UNL     1     -34.182  15.924  -2.430  1.00 20.00     0.015 C 
HETATM    7  C2  UNL     1     -33.206  15.854  -3.634  1.00 20.00     0.007 C 
HETATM    8  C1  UNL     1     -34.006  14.624  -4.113  1.00 20.00     0.001 C 
HETATM    9  C3  UNL     1     -35.208  15.188  -3.328  1.00 20.00     0.007 C 
ENDBRANCH   4   6
BRANCH   3  10
HETATM   10  C9  UNL     1     -32.421  18.564  -1.373  1.00 20.00     0.121 C 
HETATM   11 CL11 UNL     1     -31.000  18.209  -0.369  1.00 20.00    -0.130 Cl
ENDBRANCH   3  10
TORSDOF 2
ENDMDL
MODEL 4
REMARK VINA RESULT:      -4.2      1.742      2.187
REMARK  2 active torsions:
REMARK  status: ('A' for Active; 'I' for Inactive)
REMARK    1  A    between atoms: C6_6  and  C8_8 
REMARK    2  A    between atoms: C7_7  and  C9_9 
ROOT
HETATM    1  C4  UNL     1     -38.309  15.792  -5.272  1.00 20.00     0.034 C 
HETATM    2  C5  UNL     1     -38.586  14.788  -4.175  1.00 20.00     0.168 C 
HETATM    3  C7  UNL     1     -36.802  15.917  -5.197  1.00 20.00     0.031 C 
HETATM    4  C8  UNL     1     -36.389  14.476  -4.903  1.00 20.00     0.130 C 
HETATM    5  O10 UNL     1     -37.474  13.882  -4.165  1.00 20.00    -0.385 OA
ENDROOT
BRANCH   4   6
HETATM    6  C6  UNL     1     -35.127  14.408  -4.060  1.00 20.00     0.015 C 
HETATM    7  C2  UNL     1     -34.868  15.597  -3.097  1.00 20.00     0.007 C 
HETATM    8  C1  UNL     1     -33.368  15.438  -3.425  1.00 20.00     0.001 C 
HETATM    9  C3  UNL     1     -33.801  14.798  -4.761  1.00 20.00     0.007 C 
ENDBRANCH   4   6
BRANCH   3  10
HETATM   10  C9  UNL     1     -36.175  16.490  -6.457  1.00 20.00     0.121 C 
HETATM   11 CL11 UNL     1     -35.913  15.205  -7.654  1.00 20.00    -0.130 Cl
ENDBRANCH   3  10
TORSDOF 2
ENDMDL
MODEL 5
REMARK VINA RESULT:      -4.1      1.991      2.547
REMARK  2 active torsions:
REMARK  status: ('A' for Active; 'I' for Inactive)
REMARK    1  A    between atoms: C6_6  and  C8_8 
REMARK    2  A    between atoms: C7_7  and  C9_9 
ROOT
HETATM    1  C4  UNL     1     -35.303  14.769  -6.595  1.00 20.00     0.034 C 
HETATM    2  C5  UNL     1     -34.388  15.962  -6.761  1.00 20.00     0.168 C 
HETATM    3  C7  UNL     1     -35.168  14.485  -5.114  1.00 20.00     0.031 C 
HETATM    4  C8  UNL     1     -35.096  15.897  -4.536  1.00 20.00     0.130 C 
HETATM    5  O10 UNL     1     -34.492  16.723  -5.550  1.00 20.00    -0.385 OA
ENDROOT
BRANCH   4   6
HETATM    6  C6  UNL     1     -34.240  15.954  -3.283  1.00 20.00     0.015 C 
HETATM    7  C2  UNL     1     -34.962  16.344  -1.965  1.00 20.00     0.007 C 
HETATM    8  C1  UNL     1     -33.680  17.111  -1.578  1.00 20.00     0.001 C 
HETATM    9  C3  UNL     1     -33.380  17.229  -3.087  1.00 20.00     0.007 C 
ENDBRANCH   4   6
BRANCH   3  10
HETATM   10  C9  UNL     1     -36.304  13.648  -4.549  1.00 20.00     0.121 C 
HETATM   11 CL11 UNL     1     -37.712  14.673  -4.204  1.00 20.00    -0.130 Cl
ENDBRANCH   3  10
TORSDOF 2
ENDMDL
MODEL 6
REMARK VINA RESULT:      -4.1      1.677      1.988
REMARK  2 active torsions:
REMARK  status: ('A' for Active; 'I' for Inactive)
REMARK    1  A    between atoms: C6_6  and  C8_8 
REMARK    2  A    between atoms: C7_7  and  C9_9 
ROOT
HETATM    1  C4  UNL     1     -37.225  16.378  -5.823  1.00 20.00     0.034 C 
HETATM    2  C5  UNL     1     -37.596  17.056  -4.523  1.00 20.00     0.168 C 
HETATM    3  C7  UNL     1     -35.870  15.793  -5.485  1.00 20.00     0.031 C 
HETATM    4  C8  UNL     1     -36.080  15.347  -4.039  1.00 20.00     0.130 C 
HETATM    5  O10 UNL     1     -37.056  16.243  -3.472  1.00 20.00    -0.385 OA
ENDROOT
BRANCH   4   6
HETATM    6  C6  UNL     1     -34.801  15.437  -3.225  1.00 20.00     0.015 C 
HETATM    7  C2  UNL     1     -34.861  16.283  -1.925  1.00 20.00     0.007 C 
HETATM    8  C1  UNL     1     -33.420  16.735  -2.242  1.00 20.00     0.001 C 
HETATM    9  C3  UNL     1     -33.728  16.439  -3.724  1.00 20.00     0.007 C 
ENDBRANCH   4   6
BRANCH   3  10
HETATM   10  C9  UNL     1     -35.442  14.671  -6.416  1.00 20.00     0.121 C 
HETATM   11 CL11 UNL     1     -33.826  14.998  -7.074  1.00 20.00    -0.130 Cl
ENDBRANCH   3  10
TORSDOF 2
ENDMDL
MODEL 7
REMARK VINA RESULT:      -4.0      2.898      4.451
REMARK  2 active torsions:
REMARK  status: ('A' for Active; 'I' for Inactive)
REMARK    1  A    between atoms: C6_6  and  C8_8 
REMARK    2  A    between atoms: C7_7  and  C9_9 
ROOT
HETATM    1  C4  UNL     1     -34.387  19.263  -2.906  1.00 20.00     0.034 C 
HETATM    2  C5  UNL     1     -34.584  18.810  -4.336  1.00 20.00     0.168 C 
HETATM    3  C7  UNL     1     -34.156  17.944  -2.198  1.00 20.00     0.031 C 
HETATM    4  C8  UNL     1     -33.324  17.184  -3.230  1.00 20.00     0.130 C 
HETATM    5  O10 UNL     1     -33.728  17.674  -4.523  1.00 20.00    -0.385 OA
ENDROOT
BRANCH   4   6
HETATM    6  C6  UNL     1     -33.577  15.687  -3.172  1.00 20.00     0.015 C 
HETATM    7  C2  UNL     1     -33.630  14.937  -4.529  1.00 20.00     0.007 C 
HETATM    8  C1  UNL     1     -34.744  14.063  -3.916  1.00 20.00     0.001 C 
HETATM    9  C3  UNL     1     -35.046  15.238  -2.964  1.00 20.00     0.007 C 
ENDBRANCH   4   6
BRANCH   3  10
HETATM   10  C9  UNL     1     -33.474  18.089  -0.848  1.00 20.00     0.121 C 
HETATM   11 CL11 UNL     1     -31.717  18.234  -1.056  1.00 20.00    -0.130 Cl
ENDBRANCH   3  10
TORSDOF 2
ENDMDL
MODEL 8
REMARK VINA RESULT:      -4.0      3.028      4.396
REMARK  2 active torsions:
REMARK  status: ('A' for Active; 'I' for Inactive)
REMARK    1  A    between atoms: C6_6  and  C8_8 
REMARK    2  A    between atoms: C7_7  and  C9_9 
ROOT
HETATM    1  C4  UNL     1     -33.130  16.744  -2.948  1.00 20.00     0.034 C 
HETATM    2  C5  UNL     1     -32.586  17.754  -1.962  1.00 20.00     0.168 C 
HETATM    3  C7  UNL     1     -34.315  16.187  -2.188  1.00 20.00     0.031 C 
HETATM    4  C8  UNL     1     -34.851  17.437  -1.495  1.00 20.00     0.130 C 
HETATM    5  O10 UNL     1     -33.719  18.299  -1.273  1.00 20.00    -0.385 OA
ENDROOT
BRANCH   4   6
HETATM    6  C6  UNL     1     -35.492  17.114  -0.155  1.00 20.00     0.015 C 
HETATM    7  C2  UNL     1     -36.757  17.928   0.225  1.00 20.00     0.007 C 
HETATM    8  C1  UNL     1     -36.242  17.905   1.680  1.00 20.00     0.001 C 
HETATM    9  C3  UNL     1     -34.824  17.730   1.100  1.00 20.00     0.007 C 
ENDBRANCH   4   6
BRANCH   3  10
HETATM   10  C9  UNL     1     -35.335  15.493  -3.076  1.00 20.00     0.121 C 
HETATM   11 CL11 UNL     1     -34.614  14.064  -3.844  1.00 20.00    -0.130 Cl
ENDBRANCH   3  10
TORSDOF 2
ENDMDL
MODEL 9
REMARK VINA RESULT:      -4.0      2.391      3.334
REMARK  2 active torsions:
REMARK  status: ('A' for Active; 'I' for Inactive)
REMARK    1  A    between atoms: C6_6  and  C8_8 
REMARK    2  A    between atoms: C7_7  and  C9_9 
ROOT
HETATM    1  C4  UNL     1     -34.068  15.013  -6.617  1.00 20.00     0.034 C 
HETATM    2  C5  UNL     1     -35.430  14.929  -7.272  1.00 20.00     0.168 C 
HETATM    3  C7  UNL     1     -34.440  15.275  -5.173  1.00 20.00     0.031 C 
HETATM    4  C8  UNL     1     -35.680  14.398  -5.012  1.00 20.00     0.130 C 
HETATM    5  O10 UNL     1     -36.307  14.332  -6.307  1.00 20.00    -0.385 OA
ENDROOT
BRANCH   4   6
HETATM    6  C6  UNL     1     -36.667  14.986  -4.018  1.00 20.00     0.015 C 
HETATM    7  C2  UNL     1     -38.171  14.878  -4.385  1.00 20.00     0.007 C 
HETATM    8  C1  UNL     1     -38.349  16.274  -3.751  1.00 20.00     0.001 C 
HETATM    9  C3  UNL     1     -36.858  16.524  -4.056  1.00 20.00     0.007 C 
ENDBRANCH   4   6
BRANCH   3  10
HETATM   10  C9  UNL     1     -33.328  14.952  -4.190  1.00 20.00     0.121 C 
HETATM   11 CL11 UNL     1     -33.251  16.188  -2.918  1.00 20.00    -0.130 Cl
ENDBRANCH   3  10
TORSDOF 2
ENDMDL
