MODEL 1
REMARK VINA RESULT:      -3.9      0.000      0.000
REMARK  3 active torsions:
REMARK  status: ('A' for Active; 'I' for Inactive)
REMARK    1  A    between atoms: C3_3  and  C8_8 
REMARK    2  A    between atoms: C8_8  and  C9_9 
REMARK    3  A    between atoms: C8_8  and  O10_10 
ROOT
HETATM    1  C8  UNL     1     -34.792  16.269  -5.020  1.00 20.00     0.133 C 
ENDROOT
BRANCH   1   2
HETATM    2  C3  UNL     1     -33.871  15.710  -3.938  1.00 20.00    -0.017 A 
HETATM    3  C1  UNL     1     -34.324  15.813  -2.500  1.00 20.00     0.012 A 
HETATM    4  C2  UNL     1     -33.209  16.688  -2.997  1.00 20.00     0.012 A 
HETATM    5  C4  UNL     1     -33.095  14.488  -4.347  1.00 20.00     0.018 C 
ENDBRANCH   1   2
BRANCH   1   6
HETATM    6  C9  UNL     1     -35.952  15.330  -5.470  1.00 20.00    -0.025 C 
HETATM    7  C5  UNL     1     -37.269  16.119  -5.586  1.00 20.00     0.017 C 
HETATM    8  C6  UNL     1     -35.617  14.741  -6.857  1.00 20.00     0.017 C 
HETATM    9  C7  UNL     1     -36.164  14.156  -4.495  1.00 20.00     0.017 C 
ENDBRANCH   1   6
BRANCH   1  10
HETATM   10  O10 UNL     1     -33.983  16.642  -6.138  1.00 20.00    -0.394 OA
HETATM   11  H28 UNL     1     -33.637  15.817  -6.510  1.00 20.00     0.210 HD
ENDBRANCH   1  10
TORSDOF 3
ENDMDL
MODEL 2
REMARK VINA RESULT:      -3.8      1.546      2.043
REMARK  3 active torsions:
REMARK  status: ('A' for Active; 'I' for Inactive)
REMARK    1  A    between atoms: C3_3  and  C8_8 
REMARK    2  A    between atoms: C8_8  and  C9_9 
REMARK    3  A    between atoms: C8_8  and  O10_10 
ROOT
HETATM    1  C8  UNL     1     -33.902  15.459  -5.168  1.00 20.00     0.133 C 
ENDROOT
BRANCH   1   2
HETATM    2  C3  UNL     1     -34.793  15.072  -3.990  1.00 20.00    -0.017 A 
HETATM    3  C1  UNL     1     -35.680  16.139  -3.391  1.00 20.00     0.012 A 
HETATM    4  C2  UNL     1     -34.472  15.660  -2.636  1.00 20.00     0.012 A 
HETATM    5  C4  UNL     1     -35.320  13.664  -4.041  1.00 20.00     0.018 C 
ENDBRANCH   1   2
BRANCH   1   6
HETATM    6  C9  UNL     1     -34.649  15.801  -6.493  1.00 20.00    -0.025 C 
HETATM    7  C5  UNL     1     -34.796  17.325  -6.651  1.00 20.00     0.017 C 
HETATM    8  C6  UNL     1     -33.827  15.269  -7.687  1.00 20.00     0.017 C 
HETATM    9  C7  UNL     1     -36.048  15.159  -6.557  1.00 20.00     0.017 C 
ENDBRANCH   1   6
BRANCH   1  10
HETATM   10  O10 UNL     1     -32.962  14.403  -5.376  1.00 20.00    -0.394 OA
HETATM   11  H28 UNL     1     -33.055  14.135  -6.302  1.00 20.00     0.210 HD
ENDBRANCH   1  10
TORSDOF 3
ENDMDL
MODEL 3
REMARK VINA RESULT:      -3.8      1.453      3.553
REMARK  3 active torsions:
REMARK  status: ('A' for Active; 'I' for Inactive)
REMARK    1  A    between atoms: C3_3  and  C8_8 
REMARK    2  A    between atoms: C8_8  and  C9_9 
REMARK    3  A    between atoms: C8_8  and  O10_10 
ROOT
HETATM    1  C8  UNL     1     -34.068  15.130  -3.598  1.00 20.00     0.133 C 
ENDROOT
BRANCH   1   2
HETATM    2  C3  UNL     1     -35.157  14.734  -4.593  1.00 20.00    -0.017 A 
HETATM    3  C1  UNL     1     -36.574  14.612  -4.081  1.00 20.00     0.012 A 
HETATM    4  C2  UNL     1     -35.798  13.375  -4.438  1.00 20.00     0.012 A 
HETATM    5  C4  UNL     1     -34.954  15.265  -5.986  1.00 20.00     0.018 C 
ENDBRANCH   1   2
BRANCH   1   6
HETATM    6  C9  UNL     1     -34.262  16.510  -2.900  1.00 20.00    -0.025 C 
HETATM    7  C5  UNL     1     -35.100  16.352  -1.618  1.00 20.00     0.017 C 
HETATM    8  C6  UNL     1     -32.881  17.077  -2.508  1.00 20.00     0.017 C 
HETATM    9  C7  UNL     1     -34.953  17.537  -3.817  1.00 20.00     0.017 C 
ENDBRANCH   1   6
BRANCH   1  10
HETATM   10  O10 UNL     1     -32.812  15.081  -4.278  1.00 20.00    -0.394 OA
HETATM   11  H28 UNL     1     -32.639  15.979  -4.596  1.00 20.00     0.210 HD
ENDBRANCH   1  10
TORSDOF 3
ENDMDL
MODEL 4
REMARK VINA RESULT:      -3.7      1.324      2.133
REMARK  3 active torsions:
REMARK  status: ('A' for Active; 'I' for Inactive)
REMARK    1  A    between atoms: C3_3  and  C8_8 
REMARK    2  A    between atoms: C8_8  and  C9_9 
REMARK    3  A    between atoms: C8_8  and  O10_10 
ROOT
HETATM    1  C8  UNL     1     -34.274  15.112  -4.671  1.00 20.00     0.133 C 
ENDROOT
BRANCH   1   2
HETATM    2  C3  UNL     1     -34.167  16.041  -3.464  1.00 20.00    -0.017 A 
HETATM    3  C1  UNL     1     -33.827  17.492  -3.715  1.00 20.00     0.012 A 
HETATM    4  C2  UNL     1     -32.802  16.579  -3.104  1.00 20.00     0.012 A 
HETATM    5  C4  UNL     1     -35.118  15.723  -2.343  1.00 20.00     0.018 C 
ENDBRANCH   1   2
BRANCH   1   6
HETATM    6  C9  UNL     1     -35.697  14.978  -5.294  1.00 20.00    -0.025 C 
HETATM    7  C5  UNL     1     -35.600  14.736  -6.812  1.00 20.00     0.017 C 
HETATM    8  C6  UNL     1     -36.417  13.770  -4.657  1.00 20.00     0.017 C 
HETATM    9  C7  UNL     1     -36.562  16.229  -5.048  1.00 20.00     0.017 C 
ENDBRANCH   1   6
BRANCH   1  10
HETATM   10  O10 UNL     1     -33.769  13.831  -4.288  1.00 20.00    -0.394 OA
HETATM   11  H28 UNL     1     -34.272  13.564  -3.504  1.00 20.00     0.210 HD
ENDBRANCH   1  10
TORSDOF 3
ENDMDL
MODEL 5
REMARK VINA RESULT:      -3.7      1.415      2.173
REMARK  3 active torsions:
REMARK  status: ('A' for Active; 'I' for Inactive)
REMARK    1  A    between atoms: C3_3  and  C8_8 
REMARK    2  A    between atoms: C8_8  and  C9_9 
REMARK    3  A    between atoms: C8_8  and  O10_10 
ROOT
HETATM    1  C8  UNL     1     -34.540  16.519  -4.385  1.00 20.00     0.133 C 
ENDROOT
BRANCH   1   2
HETATM    2  C3  UNL     1     -34.276  16.819  -2.911  1.00 20.00    -0.017 A 
HETATM    3  C1  UNL     1     -35.105  16.088  -1.880  1.00 20.00     0.012 A 
HETATM    4  C2  UNL     1     -35.348  17.549  -2.135  1.00 20.00     0.012 A 
HETATM    5  C4  UNL     1     -32.839  17.114  -2.580  1.00 20.00     0.018 C 
ENDBRANCH   1   2
BRANCH   1   6
HETATM    6  C9  UNL     1     -34.269  15.050  -4.832  1.00 20.00    -0.025 C 
HETATM    7  C5  UNL     1     -35.375  14.115  -4.308  1.00 20.00     0.017 C 
HETATM    8  C6  UNL     1     -34.271  14.983  -6.375  1.00 20.00     0.017 C 
HETATM    9  C7  UNL     1     -32.907  14.530  -4.337  1.00 20.00     0.017 C 
ENDBRANCH   1   6
BRANCH   1  10
HETATM   10  O10 UNL     1     -33.768  17.434  -5.165  1.00 20.00    -0.394 OA
HETATM   11  H28 UNL     1     -32.976  17.635  -4.645  1.00 20.00     0.210 HD
ENDBRANCH   1  10
TORSDOF 3
ENDMDL
MODEL 6
REMARK VINA RESULT:      -3.6      1.831      3.624
REMARK  3 active torsions:
REMARK  status: ('A' for Active; 'I' for Inactive)
REMARK    1  A    between atoms: C3_3  and  C8_8 
REMARK    2  A    between atoms: C8_8  and  C9_9 
REMARK    3  A    between atoms: C8_8  and  O10_10 
ROOT
HETATM    1  C8  UNL     1     -35.639  16.049  -4.023  1.00 20.00     0.133 C 
ENDROOT
BRANCH   1   2
HETATM    2  C3  UNL     1     -35.144  14.832  -4.800  1.00 20.00    -0.017 A 
HETATM    3  C1  UNL     1     -34.279  15.072  -6.017  1.00 20.00     0.012 A 
HETATM    4  C2  UNL     1     -35.697  14.605  -6.188  1.00 20.00     0.012 A 
HETATM    5  C4  UNL     1     -34.847  13.626  -3.952  1.00 20.00     0.018 C 
ENDBRANCH   1   2
BRANCH   1   6
HETATM    6  C9  UNL     1     -34.609  16.686  -3.041  1.00 20.00    -0.025 C 
HETATM    7  C5  UNL     1     -34.561  18.214  -3.228  1.00 20.00     0.017 C 
HETATM    8  C6  UNL     1     -35.044  16.391  -1.590  1.00 20.00     0.017 C 
HETATM    9  C7  UNL     1     -33.190  16.120  -3.235  1.00 20.00     0.017 C 
ENDBRANCH   1   6
BRANCH   1  10
HETATM   10  O10 UNL     1     -36.831  15.674  -3.329  1.00 20.00    -0.394 OA
HETATM   11  H28 UNL     1     -36.619  14.864  -2.843  1.00 20.00     0.210 HD
ENDBRANCH   1  10
TORSDOF 3
ENDMDL
MODEL 7
REMARK VINA RESULT:      -3.6      1.234      3.607
REMARK  3 active torsions:
REMARK  status: ('A' for Active; 'I' for Inactive)
REMARK    1  A    between atoms: C3_3  and  C8_8 
REMARK    2  A    between atoms: C8_8  and  C9_9 
REMARK    3  A    between atoms: C8_8  and  O10_10 
ROOT
HETATM    1  C8  UNL     1     -34.447  16.438  -5.191  1.00 20.00     0.133 C 
ENDROOT
BRANCH   1   2
HETATM    2  C3  UNL     1     -34.852  15.533  -6.352  1.00 20.00    -0.017 A 
HETATM    3  C1  UNL     1     -33.801  15.192  -7.384  1.00 20.00     0.012 A 
HETATM    4  C2  UNL     1     -34.914  16.139  -7.734  1.00 20.00     0.012 A 
HETATM    5  C4  UNL     1     -35.861  14.476  -5.998  1.00 20.00     0.018 C 
ENDBRANCH   1   2
BRANCH   1   6
HETATM    6  C9  UNL     1     -33.898  15.709  -3.927  1.00 20.00    -0.025 C 
HETATM    7  C5  UNL     1     -33.028  14.506  -4.335  1.00 20.00     0.017 C 
HETATM    8  C6  UNL     1     -33.020  16.688  -3.119  1.00 20.00     0.017 C 
HETATM    9  C7  UNL     1     -35.027  15.212  -3.004  1.00 20.00     0.017 C 
ENDBRANCH   1   6
BRANCH   1  10
HETATM   10  O10 UNL     1     -35.572  17.253  -4.855  1.00 20.00    -0.394 OA
HETATM   11  H28 UNL     1     -35.707  17.852  -5.604  1.00 20.00     0.210 HD
ENDBRANCH   1  10
TORSDOF 3
ENDMDL
MODEL 8
REMARK VINA RESULT:      -3.5      1.853      3.051
REMARK  3 active torsions:
REMARK  status: ('A' for Active; 'I' for Inactive)
REMARK    1  A    between atoms: C3_3  and  C8_8 
REMARK    2  A    between atoms: C8_8  and  C9_9 
REMARK    3  A    between atoms: C8_8  and  O10_10 
ROOT
HETATM    1  C8  UNL     1     -34.916  15.748  -2.751  1.00 20.00     0.133 C 
ENDROOT
BRANCH   1   2
HETATM    2  C3  UNL     1     -34.315  17.142  -2.587  1.00 20.00    -0.017 A 
HETATM    3  C1  UNL     1     -32.859  17.244  -2.194  1.00 20.00     0.012 A 
HETATM    4  C2  UNL     1     -33.929  17.587  -1.195  1.00 20.00     0.012 A 
HETATM    5  C4  UNL     1     -34.864  18.175  -3.531  1.00 20.00     0.018 C 
ENDBRANCH   1   2
BRANCH   1   6
HETATM    6  C9  UNL     1     -34.600  15.033  -4.100  1.00 20.00    -0.025 C 
HETATM    7  C5  UNL     1     -33.089  14.762  -4.225  1.00 20.00     0.017 C 
HETATM    8  C6  UNL     1     -35.339  13.678  -4.138  1.00 20.00     0.017 C 
HETATM    9  C7  UNL     1     -35.057  15.856  -5.318  1.00 20.00     0.017 C 
ENDBRANCH   1   6
BRANCH   1  10
HETATM   10  O10 UNL     1     -36.328  15.851  -2.553  1.00 20.00    -0.394 OA
HETATM   11  H28 UNL     1     -36.553  15.207  -1.865  1.00 20.00     0.210 HD
ENDBRANCH   1  10
TORSDOF 3
ENDMDL
MODEL 9
REMARK VINA RESULT:      -3.5      1.676      3.811
REMARK  3 active torsions:
REMARK  status: ('A' for Active; 'I' for Inactive)
REMARK    1  A    between atoms: C3_3  and  C8_8 
REMARK    2  A    between atoms: C8_8  and  C9_9 
REMARK    3  A    between atoms: C8_8  and  O10_10 
ROOT
HETATM    1  C8  UNL     1     -33.345  16.812  -3.313  1.00 20.00     0.133 C 
ENDROOT
BRANCH   1   2
HETATM    2  C3  UNL     1     -34.220  15.896  -4.166  1.00 20.00    -0.017 A 
HETATM    3  C1  UNL     1     -34.456  14.485  -3.677  1.00 20.00     0.012 A 
HETATM    4  C2  UNL     1     -33.559  14.727  -4.858  1.00 20.00     0.012 A 
HETATM    5  C4  UNL     1     -35.347  16.593  -4.878  1.00 20.00     0.018 C 
ENDBRANCH   1   2
BRANCH   1   6
HETATM    6  C9  UNL     1     -34.056  17.490  -2.103  1.00 20.00    -0.025 C 
HETATM    7  C5  UNL     1     -33.025  17.919  -1.043  1.00 20.00     0.017 C 
HETATM    8  C6  UNL     1     -34.798  18.751  -2.595  1.00 20.00     0.017 C 
HETATM    9  C7  UNL     1     -35.090  16.561  -1.439  1.00 20.00     0.017 C 
ENDBRANCH   1   6
BRANCH   1  10
HETATM   10  O10 UNL     1     -32.767  17.795  -4.175  1.00 20.00    -0.394 OA
HETATM   11  H28 UNL     1     -32.857  17.454  -5.076  1.00 20.00     0.210 HD
ENDBRANCH   1  10
TORSDOF 3
ENDMDL
