MODEL 1
REMARK VINA RESULT:      -3.9      0.000      0.000
REMARK  6 active torsions:
REMARK  status: ('A' for Active; 'I' for Inactive)
REMARK    1  A    between atoms: C5_5  and  C10_10 
REMARK    2  A    between atoms: C6_6  and  C7_7 
REMARK    3  A    between atoms: C6_6  and  C10_10 
REMARK    4  A    between atoms: C7_7  and  C11_11 
REMARK    5  A    between atoms: C8_8  and  C9_9 
REMARK    6  A    between atoms: C8_8  and  C11_11 
ROOT
HETATM    1  C7  UNL     1     -33.755  14.743  -4.248  1.00 20.00     0.020 C 
ENDROOT
BRANCH   1   2
HETATM    2  C6  UNL     1     -34.937  13.843  -3.853  1.00 20.00     0.005 C 
BRANCH   2   3
HETATM    3  C10 UNL     1     -36.094  13.882  -4.873  1.00 20.00    -0.019 C 
HETATM    4  C4  UNL     1     -35.681  14.554  -6.186  1.00 20.00     0.010 C 
BRANCH   3   5
HETATM    5  C5  UNL     1     -37.356  14.540  -4.276  1.00 20.00    -0.000 C 
HETATM    6  C1  UNL     1     -37.536  16.017  -4.595  1.00 20.00     0.005 C 
ENDBRANCH   3   5
ENDBRANCH   2   3
ENDBRANCH   1   2
BRANCH   1   7
HETATM    7  C11 UNL     1     -33.692  16.054  -3.448  1.00 20.00     0.082 C 
HETATM    8 CL12 UNL     1     -34.166  17.445  -4.486  1.00 20.00    -0.125 Cl
BRANCH   7   9
HETATM    9  C8  UNL     1     -34.615  16.058  -2.216  1.00 20.00     0.024 C 
BRANCH   9  10
HETATM   10  C9  UNL     1     -34.621  17.356  -1.383  1.00 20.00    -0.021 C 
HETATM   11  C2  UNL     1     -33.212  17.858  -1.070  1.00 20.00     0.009 C 
HETATM   12  C3  UNL     1     -35.390  17.127  -0.078  1.00 20.00     0.009 C 
ENDBRANCH   9  10
ENDBRANCH   7   9
ENDBRANCH   1   7
TORSDOF 6
ENDMDL
MODEL 2
REMARK VINA RESULT:      -3.9      1.421      4.176
REMARK  6 active torsions:
REMARK  status: ('A' for Active; 'I' for Inactive)
REMARK    1  A    between atoms: C5_5  and  C10_10 
REMARK    2  A    between atoms: C6_6  and  C7_7 
REMARK    3  A    between atoms: C6_6  and  C10_10 
REMARK    4  A    between atoms: C7_7  and  C11_11 
REMARK    5  A    between atoms: C8_8  and  C9_9 
REMARK    6  A    between atoms: C8_8  and  C11_11 
ROOT
HETATM    1  C7  UNL     1     -33.747  14.507  -4.516  1.00 20.00     0.020 C 
ENDROOT
BRANCH   1   2
HETATM    2  C6  UNL     1     -32.884  15.472  -3.688  1.00 20.00     0.005 C 
BRANCH   2   3
HETATM    3  C10 UNL     1     -33.708  16.573  -2.989  1.00 20.00    -0.019 C 
HETATM    4  C4  UNL     1     -32.824  17.529  -2.183  1.00 20.00     0.010 C 
BRANCH   3   5
HETATM    5  C5  UNL     1     -34.831  15.974  -2.117  1.00 20.00    -0.000 C 
HETATM    6  C1  UNL     1     -35.277  16.834  -0.943  1.00 20.00     0.005 C 
ENDBRANCH   3   5
ENDBRANCH   2   3
ENDBRANCH   1   2
BRANCH   1   7
HETATM    7  C11 UNL     1     -34.510  15.196  -5.659  1.00 20.00     0.082 C 
HETATM    8 CL12 UNL     1     -33.628  14.993  -7.214  1.00 20.00    -0.125 Cl
BRANCH   7   9
HETATM    9  C8  UNL     1     -35.933  14.644  -5.858  1.00 20.00     0.024 C 
BRANCH   9  10
HETATM   10  C9  UNL     1     -37.086  15.607  -5.507  1.00 20.00    -0.021 C 
HETATM   11  C2  UNL     1     -36.606  17.045  -5.309  1.00 20.00     0.009 C 
HETATM   12  C3  UNL     1     -37.798  15.120  -4.241  1.00 20.00     0.009 C 
ENDBRANCH   9  10
ENDBRANCH   7   9
ENDBRANCH   1   7
TORSDOF 6
ENDMDL
MODEL 3
REMARK VINA RESULT:      -3.9      1.225      4.858
REMARK  6 active torsions:
REMARK  status: ('A' for Active; 'I' for Inactive)
REMARK    1  A    between atoms: C5_5  and  C10_10 
REMARK    2  A    between atoms: C6_6  and  C7_7 
REMARK    3  A    between atoms: C6_6  and  C10_10 
REMARK    4  A    between atoms: C7_7  and  C11_11 
REMARK    5  A    between atoms: C8_8  and  C9_9 
REMARK    6  A    between atoms: C8_8  and  C11_11 
ROOT
HETATM    1  C7  UNL     1     -33.681  16.021  -2.947  1.00 20.00     0.020 C 
ENDROOT
BRANCH   1   2
HETATM    2  C6  UNL     1     -34.870  16.107  -1.976  1.00 20.00     0.005 C 
BRANCH   2   3
HETATM    3  C10 UNL     1     -34.875  17.404  -1.140  1.00 20.00    -0.019 C 
HETATM    4  C4  UNL     1     -33.492  18.059  -1.086  1.00 20.00     0.010 C 
BRANCH   3   5
HETATM    5  C5  UNL     1     -35.441  17.165   0.276  1.00 20.00    -0.000 C 
HETATM    6  C1  UNL     1     -34.666  17.821   1.409  1.00 20.00     0.005 C 
ENDBRANCH   3   5
ENDBRANCH   2   3
ENDBRANCH   1   2
BRANCH   1   7
HETATM    7  C11 UNL     1     -33.915  15.050  -4.115  1.00 20.00     0.082 C 
HETATM    8 CL12 UNL     1     -32.397  14.169  -4.512  1.00 20.00    -0.125 Cl
BRANCH   7   9
HETATM    9  C8  UNL     1     -34.998  13.996  -3.820  1.00 20.00     0.024 C 
BRANCH   9  10
HETATM   10  C9  UNL     1     -36.126  13.878  -4.866  1.00 20.00    -0.021 C 
HETATM   11  C2  UNL     1     -35.769  14.552  -6.190  1.00 20.00     0.009 C 
HETATM   12  C3  UNL     1     -37.415  14.488  -4.305  1.00 20.00     0.009 C 
ENDBRANCH   9  10
ENDBRANCH   7   9
ENDBRANCH   1   7
TORSDOF 6
ENDMDL
MODEL 4
REMARK VINA RESULT:      -3.9      1.811      4.819
REMARK  6 active torsions:
REMARK  status: ('A' for Active; 'I' for Inactive)
REMARK    1  A    between atoms: C5_5  and  C10_10 
REMARK    2  A    between atoms: C6_6  and  C7_7 
REMARK    3  A    between atoms: C6_6  and  C10_10 
REMARK    4  A    between atoms: C7_7  and  C11_11 
REMARK    5  A    between atoms: C8_8  and  C9_9 
REMARK    6  A    between atoms: C8_8  and  C11_11 
ROOT
HETATM    1  C7  UNL     1     -34.828  14.367  -3.885  1.00 20.00     0.020 C 
ENDROOT
BRANCH   1   2
HETATM    2  C6  UNL     1     -35.331  15.359  -2.823  1.00 20.00     0.005 C 
BRANCH   2   3
HETATM    3  C10 UNL     1     -34.430  16.604  -2.684  1.00 20.00    -0.019 C 
HETATM    4  C4  UNL     1     -32.996  16.331  -3.149  1.00 20.00     0.010 C 
BRANCH   3   5
HETATM    5  C5  UNL     1     -34.459  17.168  -1.248  1.00 20.00    -0.000 C 
HETATM    6  C1  UNL     1     -33.271  18.039  -0.864  1.00 20.00     0.005 C 
ENDBRANCH   3   5
ENDBRANCH   2   3
ENDBRANCH   1   2
BRANCH   1   7
HETATM    7  C11 UNL     1     -35.910  13.951  -4.894  1.00 20.00     0.082 C 
HETATM    8 CL12 UNL     1     -37.542  14.393  -4.281  1.00 20.00    -0.125 Cl
BRANCH   7   9
HETATM    9  C8  UNL     1     -35.738  14.611  -6.274  1.00 20.00     0.024 C 
BRANCH   9  10
HETATM   10  C9  UNL     1     -34.491  15.504  -6.444  1.00 20.00    -0.021 C 
HETATM   11  C2  UNL     1     -34.831  16.993  -6.426  1.00 20.00     0.009 C 
HETATM   12  C3  UNL     1     -33.780  15.150  -7.754  1.00 20.00     0.009 C 
ENDBRANCH   9  10
ENDBRANCH   7   9
ENDBRANCH   1   7
TORSDOF 6
ENDMDL
MODEL 5
REMARK VINA RESULT:      -3.8      1.875      4.680
REMARK  6 active torsions:
REMARK  status: ('A' for Active; 'I' for Inactive)
REMARK    1  A    between atoms: C5_5  and  C10_10 
REMARK    2  A    between atoms: C6_6  and  C7_7 
REMARK    3  A    between atoms: C6_6  and  C10_10 
REMARK    4  A    between atoms: C7_7  and  C11_11 
REMARK    5  A    between atoms: C8_8  and  C9_9 
REMARK    6  A    between atoms: C8_8  and  C11_11 
ROOT
HETATM    1  C7  UNL     1     -34.878  13.998  -3.940  1.00 20.00     0.020 C 
ENDROOT
BRANCH   1   2
HETATM    2  C6  UNL     1     -33.801  15.094  -3.985  1.00 20.00     0.005 C 
BRANCH   2   3
HETATM    3  C10 UNL     1     -33.761  15.955  -2.705  1.00 20.00    -0.019 C 
HETATM    4  C4  UNL     1     -35.149  16.119  -2.079  1.00 20.00     0.010 C 
BRANCH   3   5
HETATM    5  C5  UNL     1     -33.094  17.323  -2.962  1.00 20.00    -0.000 C 
HETATM    6  C1  UNL     1     -32.448  17.973  -1.747  1.00 20.00     0.005 C 
ENDBRANCH   3   5
ENDBRANCH   2   3
ENDBRANCH   1   2
BRANCH   1   7
HETATM    7  C11 UNL     1     -35.946  14.145  -5.036  1.00 20.00     0.082 C 
HETATM    8 CL12 UNL     1     -37.575  14.355  -4.300  1.00 20.00    -0.125 Cl
BRANCH   7   9
HETATM    9  C8  UNL     1     -35.699  15.346  -5.966  1.00 20.00     0.024 C 
BRANCH   9  10
HETATM   10  C9  UNL     1     -36.729  16.491  -5.878  1.00 20.00    -0.021 C 
HETATM   11  C2  UNL     1     -37.387  16.790  -7.224  1.00 20.00     0.009 C 
HETATM   12  C3  UNL     1     -36.049  17.755  -5.341  1.00 20.00     0.009 C 
ENDBRANCH   9  10
ENDBRANCH   7   9
ENDBRANCH   1   7
TORSDOF 6
ENDMDL
MODEL 6
REMARK VINA RESULT:      -3.8      1.665      5.463
REMARK  6 active torsions:
REMARK  status: ('A' for Active; 'I' for Inactive)
REMARK    1  A    between atoms: C5_5  and  C10_10 
REMARK    2  A    between atoms: C6_6  and  C7_7 
REMARK    3  A    between atoms: C6_6  and  C10_10 
REMARK    4  A    between atoms: C7_7  and  C11_11 
REMARK    5  A    between atoms: C8_8  and  C9_9 
REMARK    6  A    between atoms: C8_8  and  C11_11 
ROOT
HETATM    1  C7  UNL     1     -35.026  18.324  -1.209  1.00 20.00     0.020 C 
ENDROOT
BRANCH   1   2
HETATM    2  C6  UNL     1     -33.661  17.851  -0.682  1.00 20.00     0.005 C 
BRANCH   2   3
HETATM    3  C10 UNL     1     -32.503  18.794  -1.071  1.00 20.00    -0.019 C 
HETATM    4  C4  UNL     1     -32.440  19.034  -2.582  1.00 20.00     0.010 C 
BRANCH   3   5
HETATM    5  C5  UNL     1     -31.151  18.290  -0.524  1.00 20.00    -0.000 C 
HETATM    6  C1  UNL     1     -31.043  18.226   0.993  1.00 20.00     0.005 C 
ENDBRANCH   3   5
ENDBRANCH   2   3
ENDBRANCH   1   2
BRANCH   1   7
HETATM    7  C11 UNL     1     -35.722  17.294  -2.113  1.00 20.00     0.082 C 
HETATM    8 CL12 UNL     1     -35.877  17.933  -3.788  1.00 20.00    -0.125 Cl
BRANCH   7   9
HETATM    9  C8  UNL     1     -34.970  15.953  -2.196  1.00 20.00     0.024 C 
BRANCH   9  10
HETATM   10  C9  UNL     1     -34.531  15.512  -3.608  1.00 20.00    -0.021 C 
HETATM   11  C2  UNL     1     -35.072  14.134  -3.985  1.00 20.00     0.009 C 
HETATM   12  C3  UNL     1     -33.001  15.510  -3.695  1.00 20.00     0.009 C 
ENDBRANCH   9  10
ENDBRANCH   7   9
ENDBRANCH   1   7
TORSDOF 6
ENDMDL
MODEL 7
REMARK VINA RESULT:      -3.8      2.247      3.858
REMARK  6 active torsions:
REMARK  status: ('A' for Active; 'I' for Inactive)
REMARK    1  A    between atoms: C5_5  and  C10_10 
REMARK    2  A    between atoms: C6_6  and  C7_7 
REMARK    3  A    between atoms: C6_6  and  C10_10 
REMARK    4  A    between atoms: C7_7  and  C11_11 
REMARK    5  A    between atoms: C8_8  and  C9_9 
REMARK    6  A    between atoms: C8_8  and  C11_11 
ROOT
HETATM    1  C7  UNL     1     -35.296  17.662  -2.011  1.00 20.00     0.020 C 
ENDROOT
BRANCH   1   2
HETATM    2  C6  UNL     1     -34.680  16.254  -2.060  1.00 20.00     0.005 C 
BRANCH   2   3
HETATM    3  C10 UNL     1     -33.428  16.173  -2.957  1.00 20.00    -0.019 C 
HETATM    4  C4  UNL     1     -33.138  17.502  -3.661  1.00 20.00     0.010 C 
BRANCH   3   5
HETATM    5  C5  UNL     1     -33.527  15.011  -3.968  1.00 20.00    -0.000 C 
HETATM    6  C1  UNL     1     -34.812  14.198  -3.904  1.00 20.00     0.005 C 
ENDBRANCH   3   5
ENDBRANCH   2   3
ENDBRANCH   1   2
BRANCH   1   7
HETATM    7  C11 UNL     1     -35.251  18.301  -0.613  1.00 20.00     0.082 C 
HETATM    8 CL12 UNL     1     -35.381  17.035   0.659  1.00 20.00    -0.125 Cl
BRANCH   7   9
HETATM    9  C8  UNL     1     -33.956  19.091  -0.349  1.00 20.00     0.024 C 
BRANCH   9  10
HETATM   10  C9  UNL     1     -32.823  18.316   0.353  1.00 20.00    -0.021 C 
HETATM   11  C2  UNL     1     -32.543  18.838   1.762  1.00 20.00     0.009 C 
HETATM   12  C3  UNL     1     -31.547  18.391  -0.491  1.00 20.00     0.009 C 
ENDBRANCH   9  10
ENDBRANCH   7   9
ENDBRANCH   1   7
TORSDOF 6
ENDMDL
MODEL 8
REMARK VINA RESULT:      -3.7      1.445      2.685
REMARK  6 active torsions:
REMARK  status: ('A' for Active; 'I' for Inactive)
REMARK    1  A    between atoms: C5_5  and  C10_10 
REMARK    2  A    between atoms: C6_6  and  C7_7 
REMARK    3  A    between atoms: C6_6  and  C10_10 
REMARK    4  A    between atoms: C7_7  and  C11_11 
REMARK    5  A    between atoms: C8_8  and  C9_9 
REMARK    6  A    between atoms: C8_8  and  C11_11 
ROOT
HETATM    1  C7  UNL     1     -32.999  16.604  -2.872  1.00 20.00     0.020 C 
ENDROOT
BRANCH   1   2
HETATM    2  C6  UNL     1     -34.343  15.898  -2.625  1.00 20.00     0.005 C 
BRANCH   2   3
HETATM    3  C10 UNL     1     -34.557  14.670  -3.533  1.00 20.00    -0.019 C 
HETATM    4  C4  UNL     1     -33.389  14.461  -4.502  1.00 20.00     0.010 C 
BRANCH   3   5
HETATM    5  C5  UNL     1     -35.904  14.744  -4.282  1.00 20.00    -0.000 C 
HETATM    6  C1  UNL     1     -35.833  14.501  -5.782  1.00 20.00     0.005 C 
ENDBRANCH   3   5
ENDBRANCH   2   3
ENDBRANCH   1   2
BRANCH   1   7
HETATM    7  C11 UNL     1     -33.132  18.124  -3.057  1.00 20.00     0.082 C 
HETATM    8 CL12 UNL     1     -34.866  18.603  -3.086  1.00 20.00    -0.125 Cl
BRANCH   7   9
HETATM    9  C8  UNL     1     -32.447  18.933  -1.941  1.00 20.00     0.024 C 
BRANCH   9  10
HETATM   10  C9  UNL     1     -32.278  18.209  -0.589  1.00 20.00    -0.021 C 
HETATM   11  C2  UNL     1     -33.436  18.482   0.370  1.00 20.00     0.009 C 
HETATM   12  C3  UNL     1     -30.956  18.632   0.060  1.00 20.00     0.009 C 
ENDBRANCH   9  10
ENDBRANCH   7   9
ENDBRANCH   1   7
TORSDOF 6
ENDMDL
MODEL 9
REMARK VINA RESULT:      -3.7      1.464      2.432
REMARK  6 active torsions:
REMARK  status: ('A' for Active; 'I' for Inactive)
REMARK    1  A    between atoms: C5_5  and  C10_10 
REMARK    2  A    between atoms: C6_6  and  C7_7 
REMARK    3  A    between atoms: C6_6  and  C10_10 
REMARK    4  A    between atoms: C7_7  and  C11_11 
REMARK    5  A    between atoms: C8_8  and  C9_9 
REMARK    6  A    between atoms: C8_8  and  C11_11 
ROOT
HETATM    1  C7  UNL     1     -33.658  16.207  -2.704  1.00 20.00     0.020 C 
ENDROOT
BRANCH   1   2
HETATM    2  C6  UNL     1     -32.909  15.429  -3.798  1.00 20.00     0.005 C 
BRANCH   2   3
HETATM    3  C10 UNL     1     -33.841  14.562  -4.670  1.00 20.00    -0.019 C 
HETATM    4  C4  UNL     1     -34.276  15.290  -5.945  1.00 20.00     0.010 C 
BRANCH   3   5
HETATM    5  C5  UNL     1     -35.057  14.053  -3.869  1.00 20.00    -0.000 C 
HETATM    6  C1  UNL     1     -36.300  13.745  -4.691  1.00 20.00     0.005 C 
ENDBRANCH   3   5
ENDBRANCH   2   3
ENDBRANCH   1   2
BRANCH   1   7
HETATM    7  C11 UNL     1     -32.885  17.429  -2.183  1.00 20.00     0.082 C 
HETATM    8 CL12 UNL     1     -32.792  18.700  -3.453  1.00 20.00    -0.125 Cl
BRANCH   7   9
HETATM    9  C8  UNL     1     -33.524  18.065  -0.936  1.00 20.00     0.024 C 
BRANCH   9  10
HETATM   10  C9  UNL     1     -32.549  18.739   0.052  1.00 20.00    -0.021 C 
HETATM   11  C2  UNL     1     -31.094  18.349  -0.205  1.00 20.00     0.009 C 
HETATM   12  C3  UNL     1     -32.937  18.373   1.488  1.00 20.00     0.009 C 
ENDBRANCH   9  10
ENDBRANCH   7   9
ENDBRANCH   1   7
TORSDOF 6
ENDMDL
