MODEL 1
REMARK VINA RESULT:      -4.1      0.000      0.000
REMARK  2 active torsions:
REMARK  status: ('A' for Active; 'I' for Inactive)
REMARK    1  A    between atoms: C6_6  and  C8_8 
REMARK    2  A    between atoms: C7_7  and  C9_9 
ROOT
HETATM    1  C4  UNL     1     -36.295  13.679  -4.932  1.00 20.00     0.034 C 
HETATM    2  C5  UNL     1     -37.351  14.562  -4.296  1.00 20.00     0.168 C 
HETATM    3  C7  UNL     1     -35.031  14.508  -4.789  1.00 20.00     0.031 C 
HETATM    4  C8  UNL     1     -35.272  15.139  -3.418  1.00 20.00     0.130 C 
HETATM    5  O10 UNL     1     -36.687  15.372  -3.315  1.00 20.00    -0.385 OA
ENDROOT
BRANCH   4   6
HETATM    6  C6  UNL     1     -34.523  16.435  -3.170  1.00 20.00     0.015 C 
HETATM    7  C2  UNL     1     -32.975  16.347  -3.122  1.00 20.00     0.007 C 
HETATM    8  C1  UNL     1     -33.021  17.414  -2.009  1.00 20.00     0.001 C 
HETATM    9  C3  UNL     1     -34.453  16.927  -1.701  1.00 20.00     0.007 C 
ENDBRANCH   4   6
BRANCH   3  10
HETATM   10  C9  UNL     1     -34.899  15.501  -5.947  1.00 20.00     0.121 C 
HETATM   11 CL11 UNL     1     -33.635  14.971  -7.076  1.00 20.00    -0.130 Cl
ENDBRANCH   3  10
TORSDOF 2
ENDMDL
MODEL 2
REMARK VINA RESULT:      -4.1      2.768      4.670
REMARK  2 active torsions:
REMARK  status: ('A' for Active; 'I' for Inactive)
REMARK    1  A    between atoms: C6_6  and  C8_8 
REMARK    2  A    between atoms: C7_7  and  C9_9 
ROOT
HETATM    1  C4  UNL     1     -32.718  18.118  -2.316  1.00 20.00     0.034 C 
HETATM    2  C5  UNL     1     -33.131  18.265  -3.768  1.00 20.00     0.168 C 
HETATM    3  C7  UNL     1     -33.643  17.024  -1.812  1.00 20.00     0.031 C 
HETATM    4  C8  UNL     1     -33.701  16.124  -3.047  1.00 20.00     0.130 C 
HETATM    5  O10 UNL     1     -33.642  16.993  -4.191  1.00 20.00    -0.385 OA
ENDROOT
BRANCH   4   6
HETATM    6  C6  UNL     1     -34.932  15.243  -3.138  1.00 20.00     0.015 C 
HETATM    7  C2  UNL     1     -34.768  13.894  -3.886  1.00 20.00     0.007 C 
HETATM    8  C1  UNL     1     -36.197  14.103  -4.428  1.00 20.00     0.001 C 
HETATM    9  C3  UNL     1     -35.975  15.617  -4.222  1.00 20.00     0.007 C 
ENDBRANCH   4   6
BRANCH   3  10
HETATM   10  C9  UNL     1     -34.986  17.609  -1.371  1.00 20.00     0.121 C 
HETATM   11 CL11 UNL     1     -35.394  17.058   0.267  1.00 20.00    -0.130 Cl
ENDBRANCH   3  10
TORSDOF 2
ENDMDL
MODEL 3
REMARK VINA RESULT:      -4.1     15.389     17.678
REMARK  2 active torsions:
REMARK  status: ('A' for Active; 'I' for Inactive)
REMARK    1  A    between atoms: C6_6  and  C8_8 
REMARK    2  A    between atoms: C7_7  and  C9_9 
ROOT
HETATM    1  C4  UNL     1     -22.238  18.149  11.081  1.00 20.00     0.034 C 
HETATM    2  C5  UNL     1     -23.562  17.695  11.666  1.00 20.00     0.168 C 
HETATM    3  C7  UNL     1     -22.536  18.231   9.595  1.00 20.00     0.031 C 
HETATM    4  C8  UNL     1     -23.971  18.756   9.632  1.00 20.00     0.130 C 
HETATM    5  O10 UNL     1     -24.593  18.169  10.788  1.00 20.00    -0.385 OA
ENDROOT
BRANCH   4   6
HETATM    6  C6  UNL     1     -24.797  18.448   8.397  1.00 20.00     0.015 C 
HETATM    7  C2  UNL     1     -24.441  19.234   7.108  1.00 20.00     0.007 C 
HETATM    8  C1  UNL     1     -25.951  19.263   6.796  1.00 20.00     0.001 C 
HETATM    9  C3  UNL     1     -26.194  19.114   8.312  1.00 20.00     0.007 C 
ENDBRANCH   4   6
BRANCH   3  10
HETATM   10  C9  UNL     1     -22.361  16.863   8.930  1.00 20.00     0.121 C 
HETATM   11 CL11 UNL     1     -21.385  17.012   7.454  1.00 20.00    -0.130 Cl
ENDBRANCH   3  10
TORSDOF 2
ENDMDL
MODEL 4
REMARK VINA RESULT:      -3.9      2.122      2.898
REMARK  2 active torsions:
REMARK  status: ('A' for Active; 'I' for Inactive)
REMARK    1  A    between atoms: C6_6  and  C8_8 
REMARK    2  A    between atoms: C7_7  and  C9_9 
ROOT
HETATM    1  C4  UNL     1     -33.496  15.121  -4.223  1.00 20.00     0.034 C 
HETATM    2  C5  UNL     1     -34.934  14.764  -3.901  1.00 20.00     0.168 C 
HETATM    3  C7  UNL     1     -33.293  16.421  -3.465  1.00 20.00     0.031 C 
HETATM    4  C8  UNL     1     -34.110  16.133  -2.206  1.00 20.00     0.130 C 
HETATM    5  O10 UNL     1     -35.231  15.331  -2.617  1.00 20.00    -0.385 OA
ENDROOT
BRANCH   4   6
HETATM    6  C6  UNL     1     -34.606  17.364  -1.470  1.00 20.00     0.015 C 
HETATM    7  C2  UNL     1     -33.571  18.115  -0.593  1.00 20.00     0.007 C 
HETATM    8  C1  UNL     1     -34.717  18.375   0.407  1.00 20.00     0.001 C 
HETATM    9  C3  UNL     1     -35.405  17.118  -0.164  1.00 20.00     0.007 C 
ENDBRANCH   4   6
BRANCH   3  10
HETATM   10  C9  UNL     1     -33.775  17.614  -4.294  1.00 20.00     0.121 C 
HETATM   11 CL11 UNL     1     -32.679  18.995  -4.087  1.00 20.00    -0.130 Cl
ENDBRANCH   3  10
TORSDOF 2
ENDMDL
MODEL 5
REMARK VINA RESULT:      -3.9      3.223      5.113
REMARK  2 active torsions:
REMARK  status: ('A' for Active; 'I' for Inactive)
REMARK    1  A    between atoms: C6_6  and  C8_8 
REMARK    2  A    between atoms: C7_7  and  C9_9 
ROOT
HETATM    1  C4  UNL     1     -35.157  19.261   0.419  1.00 20.00     0.034 C 
HETATM    2  C5  UNL     1     -35.923  17.983   0.697  1.00 20.00     0.168 C 
HETATM    3  C7  UNL     1     -34.033  18.791  -0.487  1.00 20.00     0.031 C 
HETATM    4  C8  UNL     1     -34.770  17.737  -1.313  1.00 20.00     0.130 C 
HETATM    5  O10 UNL     1     -35.726  17.121  -0.433  1.00 20.00    -0.385 OA
ENDROOT
BRANCH   4   6
HETATM    6  C6  UNL     1     -33.884  16.673  -1.930  1.00 20.00     0.015 C 
HETATM    7  C2  UNL     1     -33.140  17.057  -3.236  1.00 20.00     0.007 C 
HETATM    8  C1  UNL     1     -33.379  15.609  -3.712  1.00 20.00     0.001 C 
HETATM    9  C3  UNL     1     -34.594  15.573  -2.761  1.00 20.00     0.007 C 
ENDBRANCH   4   6
BRANCH   3  10
HETATM   10  C9  UNL     1     -32.856  18.264   0.336  1.00 20.00     0.121 C 
HETATM   11 CL11 UNL     1     -31.317  18.683  -0.445  1.00 20.00    -0.130 Cl
ENDBRANCH   3  10
TORSDOF 2
ENDMDL
MODEL 6
REMARK VINA RESULT:      -3.8      1.396      1.608
REMARK  2 active torsions:
REMARK  status: ('A' for Active; 'I' for Inactive)
REMARK    1  A    between atoms: C6_6  and  C8_8 
REMARK    2  A    between atoms: C7_7  and  C9_9 
ROOT
HETATM    1  C4  UNL     1     -36.209  13.904  -4.837  1.00 20.00     0.034 C 
HETATM    2  C5  UNL     1     -36.958  15.221  -4.910  1.00 20.00     0.168 C 
HETATM    3  C7  UNL     1     -34.973  14.263  -4.031  1.00 20.00     0.031 C 
HETATM    4  C8  UNL     1     -35.574  15.255  -3.035  1.00 20.00     0.130 C 
HETATM    5  O10 UNL     1     -36.603  15.972  -3.739  1.00 20.00    -0.385 OA
ENDROOT
BRANCH   4   6
HETATM    6  C6  UNL     1     -34.587  16.238  -2.436  1.00 20.00     0.015 C 
HETATM    7  C2  UNL     1     -34.974  16.871  -1.074  1.00 20.00     0.007 C 
HETATM    8  C1  UNL     1     -34.322  18.175  -1.578  1.00 20.00     0.001 C 
HETATM    9  C3  UNL     1     -34.603  17.677  -3.011  1.00 20.00     0.007 C 
ENDBRANCH   4   6
BRANCH   3  10
HETATM   10  C9  UNL     1     -33.881  14.835  -4.938  1.00 20.00     0.121 C 
HETATM   11 CL11 UNL     1     -32.275  14.361  -4.347  1.00 20.00    -0.130 Cl
ENDBRANCH   3  10
TORSDOF 2
ENDMDL
MODEL 7
REMARK VINA RESULT:      -3.8      1.427      2.076
REMARK  2 active torsions:
REMARK  status: ('A' for Active; 'I' for Inactive)
REMARK    1  A    between atoms: C6_6  and  C8_8 
REMARK    2  A    between atoms: C7_7  and  C9_9 
ROOT
HETATM    1  C4  UNL     1     -33.951  14.762  -4.708  1.00 20.00     0.034 C 
HETATM    2  C5  UNL     1     -35.227  14.380  -3.983  1.00 20.00     0.168 C 
HETATM    3  C7  UNL     1     -33.629  16.128  -4.127  1.00 20.00     0.031 C 
HETATM    4  C8  UNL     1     -34.061  15.917  -2.676  1.00 20.00     0.130 C 
HETATM    5  O10 UNL     1     -35.202  15.042  -2.710  1.00 20.00    -0.385 OA
ENDROOT
BRANCH   4   6
HETATM    6  C6  UNL     1     -34.413  17.185  -1.923  1.00 20.00     0.015 C 
HETATM    7  C2  UNL     1     -33.295  17.808  -1.046  1.00 20.00     0.007 C 
HETATM    8  C1  UNL     1     -34.397  18.180  -0.033  1.00 20.00     0.001 C 
HETATM    9  C3  UNL     1     -35.224  17.013  -0.613  1.00 20.00     0.007 C 
ENDBRANCH   4   6
BRANCH   3  10
HETATM   10  C9  UNL     1     -34.384  17.228  -4.877  1.00 20.00     0.121 C 
HETATM   11 CL11 UNL     1     -34.415  16.882  -6.618  1.00 20.00    -0.130 Cl
ENDBRANCH   3  10
TORSDOF 2
ENDMDL
MODEL 8
REMARK VINA RESULT:      -3.8      2.200      2.862
REMARK  2 active torsions:
REMARK  status: ('A' for Active; 'I' for Inactive)
REMARK    1  A    between atoms: C6_6  and  C8_8 
REMARK    2  A    between atoms: C7_7  and  C9_9 
ROOT
HETATM    1  C4  UNL     1     -35.467  15.299  -6.668  1.00 20.00     0.034 C 
HETATM    2  C5  UNL     1     -34.068  14.840  -6.304  1.00 20.00     0.168 C 
HETATM    3  C7  UNL     1     -36.107  15.538  -5.312  1.00 20.00     0.031 C 
HETATM    4  C8  UNL     1     -34.916  16.110  -4.544  1.00 20.00     0.130 C 
HETATM    5  O10 UNL     1     -33.746  15.437  -5.039  1.00 20.00    -0.385 OA
ENDROOT
BRANCH   4   6
HETATM    6  C6  UNL     1     -34.993  15.957  -3.037  1.00 20.00     0.015 C 
HETATM    7  C2  UNL     1     -35.939  16.930  -2.286  1.00 20.00     0.007 C 
HETATM    8  C1  UNL     1     -34.893  16.956  -1.152  1.00 20.00     0.001 C 
HETATM    9  C3  UNL     1     -33.838  16.583  -2.215  1.00 20.00     0.007 C 
ENDBRANCH   4   6
BRANCH   3  10
HETATM   10  C9  UNL     1     -36.681  14.236  -4.746  1.00 20.00     0.121 C 
HETATM   11 CL11 UNL     1     -38.360  14.476  -4.222  1.00 20.00    -0.130 Cl
ENDBRANCH   3  10
TORSDOF 2
ENDMDL
MODEL 9
REMARK VINA RESULT:      -3.7      2.743      4.516
REMARK  2 active torsions:
REMARK  status: ('A' for Active; 'I' for Inactive)
REMARK    1  A    between atoms: C6_6  and  C8_8 
REMARK    2  A    between atoms: C7_7  and  C9_9 
ROOT
HETATM    1  C4  UNL     1     -33.038  17.163  -2.356  1.00 20.00     0.034 C 
HETATM    2  C5  UNL     1     -33.421  18.233  -3.360  1.00 20.00     0.168 C 
HETATM    3  C7  UNL     1     -33.852  15.965  -2.811  1.00 20.00     0.031 C 
HETATM    4  C8  UNL     1     -33.776  16.143  -4.327  1.00 20.00     0.130 C 
HETATM    5  O10 UNL     1     -33.778  17.560  -4.576  1.00 20.00    -0.385 OA
ENDROOT
BRANCH   4   6
HETATM    6  C6  UNL     1     -34.900  15.487  -5.106  1.00 20.00     0.015 C 
HETATM    7  C2  UNL     1     -34.550  14.958  -6.521  1.00 20.00     0.007 C 
HETATM    8  C1  UNL     1     -35.957  15.414  -6.960  1.00 20.00     0.001 C 
HETATM    9  C3  UNL     1     -35.907  16.436  -5.805  1.00 20.00     0.007 C 
ENDBRANCH   4   6
BRANCH   3  10
HETATM   10  C9  UNL     1     -35.264  16.013  -2.222  1.00 20.00     0.121 C 
HETATM   11 CL11 UNL     1     -35.249  16.826  -0.643  1.00 20.00    -0.130 Cl
ENDBRANCH   3  10
TORSDOF 2
ENDMDL
