MODEL 1
REMARK VINA RESULT:      -4.8      0.000      0.000
REMARK  3 active torsions:
REMARK  status: ('A' for Active; 'I' for Inactive)
REMARK    1  A    between atoms: C3_3  and  C7_7 
REMARK    2  A    between atoms: C6_6  and  C7_7 
REMARK    3  A    between atoms: C7_7  and  O8_8 
ROOT
HETATM    1  C7  UNL     1     -34.040   6.678   4.146  1.00 20.00     0.126 C 
ENDROOT
BRANCH   1   2
HETATM    2  C3  UNL     1     -33.106   6.390   3.002  1.00 20.00    -0.018 A 
HETATM    3  C1  UNL     1     -31.815   7.172   2.928  1.00 20.00     0.012 A 
HETATM    4  C2  UNL     1     -32.921   7.461   1.953  1.00 20.00     0.012 A 
HETATM    5  C4  UNL     1     -33.089   4.955   2.555  1.00 20.00     0.018 C 
ENDBRANCH   1   2
BRANCH   1   6
HETATM    6  C6  UNL     1     -34.905   5.457   4.498  1.00 20.00     0.028 C 
HETATM    7  C5  UNL     1     -34.819   5.074   5.969  1.00 20.00     0.007 C 
ENDBRANCH   1   6
BRANCH   1   8
HETATM    8  O8  UNL     1     -33.283   7.046   5.302  1.00 20.00    -0.395 OA
HETATM    9  H22 UNL     1     -32.864   6.234   5.621  1.00 20.00     0.210 HD
ENDBRANCH   1   8
TORSDOF 3
ENDMDL
MODEL 2
REMARK VINA RESULT:      -4.6      1.547      3.687
REMARK  3 active torsions:
REMARK  status: ('A' for Active; 'I' for Inactive)
REMARK    1  A    between atoms: C3_3  and  C7_7 
REMARK    2  A    between atoms: C6_6  and  C7_7 
REMARK    3  A    between atoms: C7_7  and  O8_8 
ROOT
HETATM    1  C7  UNL     1     -33.506   5.957   2.845  1.00 20.00     0.126 C 
ENDROOT
BRANCH   1   2
HETATM    2  C3  UNL     1     -34.145   5.866   4.204  1.00 20.00    -0.018 A 
HETATM    3  C1  UNL     1     -34.536   4.497   4.713  1.00 20.00     0.012 A 
HETATM    4  C2  UNL     1     -35.600   5.465   4.276  1.00 20.00     0.012 A 
HETATM    5  C4  UNL     1     -33.641   6.871   5.201  1.00 20.00     0.018 C 
ENDBRANCH   1   2
BRANCH   1   6
HETATM    6  C6  UNL     1     -32.440   7.063   2.788  1.00 20.00     0.028 C 
HETATM    7  C5  UNL     1     -32.489   7.868   1.498  1.00 20.00     0.007 C 
ENDBRANCH   1   6
BRANCH   1   8
HETATM    8  O8  UNL     1     -32.883   4.710   2.524  1.00 20.00    -0.395 OA
HETATM    9  H22 UNL     1     -32.961   4.157   3.314  1.00 20.00     0.210 HD
ENDBRANCH   1   8
TORSDOF 3
ENDMDL
MODEL 3
REMARK VINA RESULT:      -4.5     15.462     16.567
REMARK  3 active torsions:
REMARK  status: ('A' for Active; 'I' for Inactive)
REMARK    1  A    between atoms: C3_3  and  C7_7 
REMARK    2  A    between atoms: C6_6  and  C7_7 
REMARK    3  A    between atoms: C7_7  and  O8_8 
ROOT
HETATM    1  C7  UNL     1     -23.490  17.110   9.749  1.00 20.00     0.126 C 
ENDROOT
BRANCH   1   2
HETATM    2  C3  UNL     1     -23.747  16.936  11.221  1.00 20.00    -0.018 A 
HETATM    3  C1  UNL     1     -24.498  15.703  11.668  1.00 20.00     0.012 A 
HETATM    4  C2  UNL     1     -25.173  17.044  11.709  1.00 20.00     0.012 A 
HETATM    5  C4  UNL     1     -22.656  17.459  12.113  1.00 20.00     0.018 C 
ENDBRANCH   1   2
BRANCH   1   6
HETATM    6  C6  UNL     1     -23.232  18.581   9.385  1.00 20.00     0.028 C 
HETATM    7  C5  UNL     1     -24.445  19.261   8.767  1.00 20.00     0.007 C 
ENDBRANCH   1   6
BRANCH   1   8
HETATM    8  O8  UNL     1     -22.346  16.341   9.368  1.00 20.00    -0.395 OA
HETATM    9  H22 UNL     1     -21.963  16.000  10.189  1.00 20.00     0.210 HD
ENDBRANCH   1   8
TORSDOF 3
ENDMDL
MODEL 4
REMARK VINA RESULT:      -4.2      0.536      1.644
REMARK  3 active torsions:
REMARK  status: ('A' for Active; 'I' for Inactive)
REMARK    1  A    between atoms: C3_3  and  C7_7 
REMARK    2  A    between atoms: C6_6  and  C7_7 
REMARK    3  A    between atoms: C7_7  and  O8_8 
ROOT
HETATM    1  C7  UNL     1     -34.171   6.501   4.214  1.00 20.00     0.126 C 
ENDROOT
BRANCH   1   2
HETATM    2  C3  UNL     1     -33.214   6.227   3.087  1.00 20.00    -0.018 A 
HETATM    3  C1  UNL     1     -33.777   5.667   1.801  1.00 20.00     0.012 A 
HETATM    4  C2  UNL     1     -32.963   4.786   2.706  1.00 20.00     0.012 A 
HETATM    5  C4  UNL     1     -32.065   7.191   2.993  1.00 20.00     0.018 C 
ENDBRANCH   1   2
BRANCH   1   6
HETATM    6  C6  UNL     1     -34.878   5.221   4.689  1.00 20.00     0.028 C 
HETATM    7  C5  UNL     1     -34.771   5.006   6.192  1.00 20.00     0.007 C 
ENDBRANCH   1   6
BRANCH   1   8
HETATM    8  O8  UNL     1     -33.460   7.062   5.321  1.00 20.00    -0.395 OA
HETATM    9  H22 UNL     1     -33.150   6.313   5.851  1.00 20.00     0.210 HD
ENDBRANCH   1   8
TORSDOF 3
ENDMDL
MODEL 5
REMARK VINA RESULT:      -4.2     16.080     16.734
REMARK  3 active torsions:
REMARK  status: ('A' for Active; 'I' for Inactive)
REMARK    1  A    between atoms: C3_3  and  C7_7 
REMARK    2  A    between atoms: C6_6  and  C7_7 
REMARK    3  A    between atoms: C7_7  and  O8_8 
ROOT
HETATM    1  C7  UNL     1     -23.442  17.015  10.299  1.00 20.00     0.126 C 
ENDROOT
BRANCH   1   2
HETATM    2  C3  UNL     1     -22.790  17.881   9.256  1.00 20.00    -0.018 A 
HETATM    3  C1  UNL     1     -21.793  17.235   8.321  1.00 20.00     0.012 A 
HETATM    4  C2  UNL     1     -21.313  18.167   9.397  1.00 20.00     0.012 A 
HETATM    5  C4  UNL     1     -23.669  18.969   8.707  1.00 20.00     0.018 C 
ENDBRANCH   1   2
BRANCH   1   6
HETATM    6  C6  UNL     1     -23.206  17.555  11.719  1.00 20.00     0.028 C 
HETATM    7  C5  UNL     1     -24.452  18.178  12.332  1.00 20.00     0.007 C 
ENDBRANCH   1   6
BRANCH   1   8
HETATM    8  O8  UNL     1     -24.852  16.961  10.064  1.00 20.00    -0.395 OA
HETATM    9  H22 UNL     1     -25.215  16.359  10.730  1.00 20.00     0.210 HD
ENDBRANCH   1   8
TORSDOF 3
ENDMDL
MODEL 6
REMARK VINA RESULT:      -4.2     11.065     11.760
REMARK  3 active torsions:
REMARK  status: ('A' for Active; 'I' for Inactive)
REMARK    1  A    between atoms: C3_3  and  C7_7 
REMARK    2  A    between atoms: C6_6  and  C7_7 
REMARK    3  A    between atoms: C7_7  and  O8_8 
ROOT
HETATM    1  C7  UNL     1     -35.417  14.020  -3.767  1.00 20.00     0.126 C 
ENDROOT
BRANCH   1   2
HETATM    2  C3  UNL     1     -34.283  15.008  -3.760  1.00 20.00    -0.018 A 
HETATM    3  C1  UNL     1     -34.147  15.922  -2.565  1.00 20.00     0.012 A 
HETATM    4  C2  UNL     1     -34.622  16.475  -3.878  1.00 20.00     0.012 A 
HETATM    5  C4  UNL     1     -33.024  14.519  -4.422  1.00 20.00     0.018 C 
ENDBRANCH   1   2
BRANCH   1   6
HETATM    6  C6  UNL     1     -36.428  14.319  -4.886  1.00 20.00     0.028 C 
HETATM    7  C5  UNL     1     -37.824  14.619  -4.359  1.00 20.00     0.007 C 
ENDBRANCH   1   6
BRANCH   1   8
HETATM    8  O8  UNL     1     -34.902  12.700  -3.963  1.00 20.00    -0.395 OA
HETATM    9  H22 UNL     1     -34.790  12.592  -4.918  1.00 20.00     0.210 HD
ENDBRANCH   1   8
TORSDOF 3
ENDMDL
MODEL 7
REMARK VINA RESULT:      -4.1     11.219     12.304
REMARK  3 active torsions:
REMARK  status: ('A' for Active; 'I' for Inactive)
REMARK    1  A    between atoms: C3_3  and  C7_7 
REMARK    2  A    between atoms: C6_6  and  C7_7 
REMARK    3  A    between atoms: C7_7  and  O8_8 
ROOT
HETATM    1  C7  UNL     1     -33.621  14.609  -4.272  1.00 20.00     0.126 C 
ENDROOT
BRANCH   1   2
HETATM    2  C3  UNL     1     -33.897  16.024  -3.841  1.00 20.00    -0.018 A 
HETATM    3  C1  UNL     1     -33.054  16.602  -2.728  1.00 20.00     0.012 A 
HETATM    4  C2  UNL     1     -34.489  16.242  -2.468  1.00 20.00     0.012 A 
HETATM    5  C4  UNL     1     -34.328  16.942  -4.949  1.00 20.00     0.018 C 
ENDBRANCH   1   2
BRANCH   1   6
HETATM    6  C6  UNL     1     -34.805  13.678  -3.967  1.00 20.00     0.028 C 
HETATM    7  C5  UNL     1     -35.969  13.863  -4.930  1.00 20.00     0.007 C 
ENDBRANCH   1   6
BRANCH   1   8
HETATM    8  O8  UNL     1     -33.370  14.577  -5.680  1.00 20.00    -0.395 OA
HETATM    9  H22 UNL     1     -34.095  15.067  -6.095  1.00 20.00     0.210 HD
ENDBRANCH   1   8
TORSDOF 3
ENDMDL
MODEL 8
REMARK VINA RESULT:      -4.1      9.059      9.903
REMARK  3 active torsions:
REMARK  status: ('A' for Active; 'I' for Inactive)
REMARK    1  A    between atoms: C3_3  and  C7_7 
REMARK    2  A    between atoms: C6_6  and  C7_7 
REMARK    3  A    between atoms: C7_7  and  O8_8 
ROOT
HETATM    1  C7  UNL     1     -41.226   6.712  -0.299  1.00 20.00     0.126 C 
ENDROOT
BRANCH   1   2
HETATM    2  C3  UNL     1     -42.456   5.848  -0.357  1.00 20.00    -0.018 A 
HETATM    3  C1  UNL     1     -42.556   4.832  -1.471  1.00 20.00     0.012 A 
HETATM    4  C2  UNL     1     -43.417   6.062  -1.503  1.00 20.00     0.012 A 
HETATM    5  C4  UNL     1     -43.028   5.483   0.984  1.00 20.00     0.018 C 
ENDBRANCH   1   2
BRANCH   1   6
HETATM    6  C6  UNL     1     -41.490   8.121  -0.854  1.00 20.00     0.028 C 
HETATM    7  C5  UNL     1     -41.526   9.189   0.230  1.00 20.00     0.007 C 
ENDBRANCH   1   6
BRANCH   1   8
HETATM    8  O8  UNL     1     -40.790   6.834   1.058  1.00 20.00    -0.395 OA
HETATM    9  H22 UNL     1     -40.034   6.238   1.155  1.00 20.00     0.210 HD
ENDBRANCH   1   8
TORSDOF 3
ENDMDL
MODEL 9
REMARK VINA RESULT:      -4.1     15.762     16.544
REMARK  3 active torsions:
REMARK  status: ('A' for Active; 'I' for Inactive)
REMARK    1  A    between atoms: C3_3  and  C7_7 
REMARK    2  A    between atoms: C6_6  and  C7_7 
REMARK    3  A    between atoms: C7_7  and  O8_8 
ROOT
HETATM    1  C7  UNL     1     -23.255  18.012  11.186  1.00 20.00     0.126 C 
ENDROOT
BRANCH   1   2
HETATM    2  C3  UNL     1     -23.236  17.958   9.683  1.00 20.00    -0.018 A 
HETATM    3  C1  UNL     1     -23.382  19.258   8.925  1.00 20.00     0.012 A 
HETATM    4  C2  UNL     1     -24.518  18.275   8.948  1.00 20.00     0.012 A 
HETATM    5  C4  UNL     1     -22.335  16.902   9.106  1.00 20.00     0.018 C 
ENDBRANCH   1   2
BRANCH   1   6
HETATM    6  C6  UNL     1     -24.550  17.418  11.763  1.00 20.00     0.028 C 
HETATM    7  C5  UNL     1     -24.559  15.896  11.759  1.00 20.00     0.007 C 
ENDBRANCH   1   6
BRANCH   1   8
HETATM    8  O8  UNL     1     -22.147  17.272  11.706  1.00 20.00    -0.395 OA
HETATM    9  H22 UNL     1     -22.295  17.197  12.660  1.00 20.00     0.210 HD
ENDBRANCH   1   8
TORSDOF 3
ENDMDL
