MODEL 1
REMARK VINA RESULT:      -5.0      0.000      0.000
REMARK  1 active torsions:
REMARK  status: ('A' for Active; 'I' for Inactive)
REMARK    1  A    between atoms: C8_8  and  C9_9 
ROOT
HETATM    1  C1  UNL     1     -35.929  14.348  -5.989  1.00 20.00     0.074 C 
HETATM    2  C2  UNL     1     -34.768  15.003  -6.099  1.00 20.00     0.139 C 
HETATM    3  C3  UNL     1     -36.548  14.264  -4.650  1.00 20.00     0.153 C 
HETATM    4  C4  UNL     1     -35.872  15.033  -3.543  1.00 20.00     0.116 C 
HETATM    5  C9  UNL     1     -34.366  15.022  -3.785  1.00 20.00     0.139 C 
HETATM    6  O10 UNL     1     -37.600  13.653  -4.483  1.00 20.00    -0.293 OA
HETATM    7  O11 UNL     1     -34.028  15.541  -5.078  1.00 20.00    -0.357 OA
ENDROOT
BRANCH   5   8
HETATM    8  C8  UNL     1     -33.672  15.879  -2.749  1.00 20.00     0.015 C 
HETATM    9  C6  UNL     1     -34.585  16.676  -1.780  1.00 20.00     0.007 C 
HETATM   10  C5  UNL     1     -33.546  17.814  -1.854  1.00 20.00     0.001 C 
HETATM   11  C7  UNL     1     -33.133  17.251  -3.230  1.00 20.00     0.007 C 
ENDBRANCH   5   8
TORSDOF 1
ENDMDL
MODEL 2
REMARK VINA RESULT:      -4.7      1.487      1.689
REMARK  1 active torsions:
REMARK  status: ('A' for Active; 'I' for Inactive)
REMARK    1  A    between atoms: C8_8  and  C9_9 
ROOT
HETATM    1  C1  UNL     1     -37.009  14.674  -4.389  1.00 20.00     0.074 C 
HETATM    2  C2  UNL     1     -36.864  15.964  -4.066  1.00 20.00     0.139 C 
HETATM    3  C3  UNL     1     -35.821  13.802  -4.286  1.00 20.00     0.153 C 
HETATM    4  C4  UNL     1     -34.576  14.421  -3.704  1.00 20.00     0.116 C 
HETATM    5  C9  UNL     1     -34.518  15.889  -4.116  1.00 20.00     0.139 C 
HETATM    6  O10 UNL     1     -35.886  12.615  -4.595  1.00 20.00    -0.293 OA
HETATM    7  O11 UNL     1     -35.699  16.601  -3.725  1.00 20.00    -0.357 OA
ENDROOT
BRANCH   5   8
HETATM    8  C8  UNL     1     -33.334  16.562  -3.455  1.00 20.00     0.015 C 
HETATM    9  C6  UNL     1     -33.516  16.996  -1.977  1.00 20.00     0.007 C 
HETATM   10  C5  UNL     1     -32.666  18.239  -2.314  1.00 20.00     0.001 C 
HETATM   11  C7  UNL     1     -33.119  18.064  -3.778  1.00 20.00     0.007 C 
ENDBRANCH   5   8
TORSDOF 1
ENDMDL
MODEL 3
REMARK VINA RESULT:      -4.6      1.071      1.384
REMARK  1 active torsions:
REMARK  status: ('A' for Active; 'I' for Inactive)
REMARK    1  A    between atoms: C8_8  and  C9_9 
ROOT
HETATM    1  C1  UNL     1     -35.735  14.433  -6.083  1.00 20.00     0.074 C 
HETATM    2  C2  UNL     1     -35.448  15.729  -6.244  1.00 20.00     0.139 C 
HETATM    3  C3  UNL     1     -35.736  13.894  -4.707  1.00 20.00     0.153 C 
HETATM    4  C4  UNL     1     -35.532  14.888  -3.591  1.00 20.00     0.116 C 
HETATM    5  C9  UNL     1     -34.585  15.982  -4.074  1.00 20.00     0.139 C 
HETATM    6  O10 UNL     1     -35.966  12.706  -4.500  1.00 20.00    -0.293 OA
HETATM    7  O11 UNL     1     -35.063  16.614  -5.269  1.00 20.00    -0.357 OA
ENDROOT
BRANCH   5   8
HETATM    8  C8  UNL     1     -34.449  17.050  -3.011  1.00 20.00     0.015 C 
HETATM    9  C6  UNL     1     -33.044  17.229  -2.379  1.00 20.00     0.007 C 
HETATM   10  C5  UNL     1     -33.761  17.505  -1.041  1.00 20.00     0.001 C 
HETATM   11  C7  UNL     1     -34.946  16.682  -1.588  1.00 20.00     0.007 C 
ENDBRANCH   5   8
TORSDOF 1
ENDMDL
MODEL 4
REMARK VINA RESULT:      -4.6      1.338      1.743
REMARK  1 active torsions:
REMARK  status: ('A' for Active; 'I' for Inactive)
REMARK    1  A    between atoms: C8_8  and  C9_9 
ROOT
HETATM    1  C1  UNL     1     -35.642  13.528  -4.431  1.00 20.00     0.074 C 
HETATM    2  C2  UNL     1     -34.439  13.972  -4.052  1.00 20.00     0.139 C 
HETATM    3  C3  UNL     1     -36.814  14.375  -4.129  1.00 20.00     0.153 C 
HETATM    4  C4  UNL     1     -36.533  15.729  -3.527  1.00 20.00     0.116 C 
HETATM    5  C9  UNL     1     -35.309  15.621  -2.624  1.00 20.00     0.139 C 
HETATM    6  O10 UNL     1     -37.947  14.008  -4.428  1.00 20.00    -0.293 OA
HETATM    7  O11 UNL     1     -34.170  15.103  -3.325  1.00 20.00    -0.357 OA
ENDROOT
BRANCH   5   8
HETATM    8  C8  UNL     1     -34.940  16.989  -2.092  1.00 20.00     0.015 C 
HETATM    9  C6  UNL     1     -33.427  17.283  -1.918  1.00 20.00     0.007 C 
HETATM   10  C5  UNL     1     -33.801  18.074  -0.648  1.00 20.00     0.001 C 
HETATM   11  C7  UNL     1     -35.067  17.197  -0.560  1.00 20.00     0.007 C 
ENDBRANCH   5   8
TORSDOF 1
ENDMDL
MODEL 5
REMARK VINA RESULT:      -4.6     17.387     18.377
REMARK  1 active torsions:
REMARK  status: ('A' for Active; 'I' for Inactive)
REMARK    1  A    between atoms: C8_8  and  C9_9 
ROOT
HETATM    1  C1  UNL     1     -25.722  16.860  12.207  1.00 20.00     0.074 C 
HETATM    2  C2  UNL     1     -24.672  16.138  11.802  1.00 20.00     0.139 C 
HETATM    3  C3  UNL     1     -25.912  18.196  11.604  1.00 20.00     0.153 C 
HETATM    4  C4  UNL     1     -24.970  18.575  10.490  1.00 20.00     0.116 C 
HETATM    5  C9  UNL     1     -23.604  17.957  10.770  1.00 20.00     0.139 C 
HETATM    6  O10 UNL     1     -26.843  18.915  11.956  1.00 20.00    -0.293 OA
HETATM    7  O11 UNL     1     -23.684  16.535  10.938  1.00 20.00    -0.357 OA
ENDROOT
BRANCH   5   8
HETATM    8  C8  UNL     1     -22.668  18.232   9.613  1.00 20.00     0.015 C 
HETATM    9  C6  UNL     1     -23.299  18.250   8.197  1.00 20.00     0.007 C 
HETATM   10  C5  UNL     1     -22.001  17.589   7.690  1.00 20.00     0.001 C 
HETATM   11  C7  UNL     1     -21.805  17.042   9.119  1.00 20.00     0.007 C 
ENDBRANCH   5   8
TORSDOF 1
ENDMDL
MODEL 6
REMARK VINA RESULT:      -4.4      3.077      5.889
REMARK  1 active torsions:
REMARK  status: ('A' for Active; 'I' for Inactive)
REMARK    1  A    between atoms: C8_8  and  C9_9 
ROOT
HETATM    1  C1  UNL     1     -32.427  19.263   0.573  1.00 20.00     0.074 C 
HETATM    2  C2  UNL     1     -33.728  19.229   0.267  1.00 20.00     0.139 C 
HETATM    3  C3  UNL     1     -31.494  18.530  -0.308  1.00 20.00     0.153 C 
HETATM    4  C4  UNL     1     -32.083  17.907  -1.548  1.00 20.00     0.116 C 
HETATM    5  C9  UNL     1     -33.502  17.440  -1.238  1.00 20.00     0.139 C 
HETATM    6  O10 UNL     1     -30.291  18.503  -0.063  1.00 20.00    -0.293 OA
HETATM    7  O11 UNL     1     -34.319  18.508  -0.738  1.00 20.00    -0.357 OA
ENDROOT
BRANCH   5   8
HETATM    8  C8  UNL     1     -34.155  16.910  -2.496  1.00 20.00     0.015 C 
HETATM    9  C6  UNL     1     -35.170  15.750  -2.317  1.00 20.00     0.007 C 
HETATM   10  C5  UNL     1     -34.630  15.172  -3.642  1.00 20.00     0.001 C 
HETATM   11  C7  UNL     1     -33.316  15.927  -3.354  1.00 20.00     0.007 C 
ENDBRANCH   5   8
TORSDOF 1
ENDMDL
MODEL 7
REMARK VINA RESULT:      -4.4      1.170      2.166
REMARK  1 active torsions:
REMARK  status: ('A' for Active; 'I' for Inactive)
REMARK    1  A    between atoms: C8_8  and  C9_9 
ROOT
HETATM    1  C1  UNL     1     -35.803  14.407  -5.715  1.00 20.00     0.074 C 
HETATM    2  C2  UNL     1     -36.509  14.541  -4.587  1.00 20.00     0.139 C 
HETATM    3  C3  UNL     1     -34.373  14.779  -5.681  1.00 20.00     0.153 C 
HETATM    4  C4  UNL     1     -33.806  15.161  -4.337  1.00 20.00     0.116 C 
HETATM    5  C9  UNL     1     -34.888  15.874  -3.532  1.00 20.00     0.139 C 
HETATM    6  O10 UNL     1     -33.682  14.702  -6.692  1.00 20.00    -0.293 OA
HETATM    7  O11 UNL     1     -36.072  15.075  -3.402  1.00 20.00    -0.357 OA
ENDROOT
BRANCH   5   8
HETATM    8  C8  UNL     1     -34.379  16.173  -2.138  1.00 20.00     0.015 C 
HETATM    9  C6  UNL     1     -35.345  16.932  -1.192  1.00 20.00     0.007 C 
HETATM   10  C5  UNL     1     -34.108  17.670  -0.640  1.00 20.00     0.001 C 
HETATM   11  C7  UNL     1     -33.423  17.386  -1.992  1.00 20.00     0.007 C 
ENDBRANCH   5   8
TORSDOF 1
ENDMDL
MODEL 8
REMARK VINA RESULT:      -4.3      3.441      5.882
REMARK  1 active torsions:
REMARK  status: ('A' for Active; 'I' for Inactive)
REMARK    1  A    between atoms: C8_8  and  C9_9 
ROOT
HETATM    1  C1  UNL     1     -31.723  18.734   1.028  1.00 20.00     0.074 C 
HETATM    2  C2  UNL     1     -31.255  18.344  -0.163  1.00 20.00     0.139 C 
HETATM    3  C3  UNL     1     -33.169  18.571   1.286  1.00 20.00     0.153 C 
HETATM    4  C4  UNL     1     -33.970  17.864   0.224  1.00 20.00     0.116 C 
HETATM    5  C9  UNL     1     -33.385  18.207  -1.143  1.00 20.00     0.139 C 
HETATM    6  O10 UNL     1     -33.659  18.935   2.351  1.00 20.00    -0.293 OA
HETATM    7  O11 UNL     1     -31.991  17.883  -1.225  1.00 20.00    -0.357 OA
ENDROOT
BRANCH   5   8
HETATM    8  C8  UNL     1     -34.104  17.423  -2.221  1.00 20.00     0.015 C 
HETATM    9  C6  UNL     1     -35.037  16.280  -1.745  1.00 20.00     0.007 C 
HETATM   10  C5  UNL     1     -34.570  15.483  -2.981  1.00 20.00     0.001 C 
HETATM   11  C7  UNL     1     -33.281  16.330  -2.951  1.00 20.00     0.007 C 
ENDBRANCH   5   8
TORSDOF 1
ENDMDL
MODEL 9
REMARK VINA RESULT:      -4.3     11.018     11.689
REMARK  1 active torsions:
REMARK  status: ('A' for Active; 'I' for Inactive)
REMARK    1  A    between atoms: C8_8  and  C9_9 
ROOT
HETATM    1  C1  UNL     1     -34.418   4.690   4.240  1.00 20.00     0.074 C 
HETATM    2  C2  UNL     1     -33.992   4.605   2.975  1.00 20.00     0.139 C 
HETATM    3  C3  UNL     1     -34.265   5.987   4.932  1.00 20.00     0.153 C 
HETATM    4  C4  UNL     1     -33.752   7.138   4.104  1.00 20.00     0.116 C 
HETATM    5  C9  UNL     1     -32.760   6.602   3.077  1.00 20.00     0.139 C 
HETATM    6  O10 UNL     1     -34.613   6.118   6.102  1.00 20.00    -0.293 OA
HETATM    7  O11 UNL     1     -33.340   5.576   2.259  1.00 20.00    -0.357 OA
ENDROOT
BRANCH   5   8
HETATM    8  C8  UNL     1     -32.312   7.721   2.161  1.00 20.00     0.015 C 
HETATM    9  C6  UNL     1     -33.385   8.770   1.769  1.00 20.00     0.007 C 
HETATM   10  C5  UNL     1     -32.726   8.814   0.374  1.00 20.00     0.001 C 
HETATM   11  C7  UNL     1     -32.213   7.386   0.650  1.00 20.00     0.007 C 
ENDBRANCH   5   8
TORSDOF 1
ENDMDL
