MODEL 1
REMARK VINA RESULT:      -4.3      0.000      0.000
REMARK  2 active torsions:
REMARK  status: ('A' for Active; 'I' for Inactive)
REMARK    1  A    between atoms: C1_1  and  C3_3 
REMARK       I    between atoms: C3_3  and  N7_7 
REMARK    2  A    between atoms: N7_7  and  O9_9 
ROOT
HETATM    1  C3  UNL     1     -33.193   5.693   2.776  1.00 20.00     0.266 C 
HETATM    2  C5  UNL     1     -34.676   4.561   4.434  1.00 20.00     0.189 C 
HETATM    3  N7  UNL     1     -34.012   5.728   3.881  1.00 20.00    -0.228 N 
HETATM    4  O8  UNL     1     -32.946   4.662   2.150  1.00 20.00    -0.266 OA
ENDROOT
BRANCH   1   5
HETATM    5  C1  UNL     1     -32.593   6.995   2.357  1.00 20.00     0.072 C 
HETATM    6  C2  UNL     1     -33.111   7.676   1.324  1.00 20.00    -0.025 C 
HETATM    7  C4  UNL     1     -32.569   8.984   0.848  1.00 20.00     0.036 C 
ENDBRANCH   1   5
BRANCH   3   8
HETATM    8  O9  UNL     1     -34.303   6.898   4.606  1.00 20.00    -0.281 OA
HETATM    9  C6  UNL     1     -34.016   6.673   5.983  1.00 20.00     0.238 C 
ENDBRANCH   3   8
TORSDOF 2
ENDMDL
MODEL 2
REMARK VINA RESULT:      -3.8      1.313      2.046
REMARK  2 active torsions:
REMARK  status: ('A' for Active; 'I' for Inactive)
REMARK    1  A    between atoms: C1_1  and  C3_3 
REMARK       I    between atoms: C3_3  and  N7_7 
REMARK    2  A    between atoms: N7_7  and  O9_9 
ROOT
HETATM    1  C3  UNL     1     -32.578   7.268   3.557  1.00 20.00     0.266 C 
HETATM    2  C5  UNL     1     -33.644   6.650   5.728  1.00 20.00     0.189 C 
HETATM    3  N7  UNL     1     -33.587   6.670   4.277  1.00 20.00    -0.228 N 
HETATM    4  O8  UNL     1     -31.625   7.845   4.080  1.00 20.00    -0.266 OA
ENDROOT
BRANCH   1   5
HETATM    5  C1  UNL     1     -32.694   7.191   2.070  1.00 20.00     0.072 C 
HETATM    6  C2  UNL     1     -32.806   8.312   1.342  1.00 20.00    -0.025 C 
HETATM    7  C4  UNL     1     -32.923   8.317  -0.146  1.00 20.00     0.036 C 
ENDBRANCH   1   5
BRANCH   3   8
HETATM    8  O9  UNL     1     -34.683   6.008   3.692  1.00 20.00    -0.281 OA
HETATM    9  C6  UNL     1     -35.052   4.908   4.518  1.00 20.00     0.238 C 
ENDBRANCH   3   8
TORSDOF 2
ENDMDL
MODEL 3
REMARK VINA RESULT:      -3.7     15.651     16.596
REMARK  2 active torsions:
REMARK  status: ('A' for Active; 'I' for Inactive)
REMARK    1  A    between atoms: C1_1  and  C3_3 
REMARK       I    between atoms: C3_3  and  N7_7 
REMARK    2  A    between atoms: N7_7  and  O9_9 
ROOT
HETATM    1  C3  UNL     1     -24.375  18.785   9.012  1.00 20.00     0.266 C 
HETATM    2  C5  UNL     1     -22.687  18.017  10.683  1.00 20.00     0.189 C 
HETATM    3  N7  UNL     1     -23.083  18.465   9.360  1.00 20.00    -0.228 N 
HETATM    4  O8  UNL     1     -25.322  18.719   9.797  1.00 20.00    -0.266 OA
ENDROOT
BRANCH   1   5
HETATM    5  C1  UNL     1     -24.591  19.222   7.600  1.00 20.00     0.072 C 
HETATM    6  C2  UNL     1     -25.704  18.864   6.945  1.00 20.00    -0.025 C 
HETATM    7  C4  UNL     1     -25.992  19.263   5.535  1.00 20.00     0.036 C 
ENDBRANCH   1   5
BRANCH   3   8
HETATM    8  O9  UNL     1     -21.992  18.535   8.473  1.00 20.00    -0.281 OA
HETATM    9  C6  UNL     1     -21.428  17.235   8.332  1.00 20.00     0.238 C 
ENDBRANCH   3   8
TORSDOF 2
ENDMDL
MODEL 4
REMARK VINA RESULT:      -3.7     11.343     12.557
REMARK  2 active torsions:
REMARK  status: ('A' for Active; 'I' for Inactive)
REMARK    1  A    between atoms: C1_1  and  C3_3 
REMARK       I    between atoms: C3_3  and  N7_7 
REMARK    2  A    between atoms: N7_7  and  O9_9 
ROOT
HETATM    1  C3  UNL     1     -33.752  15.002  -4.430  1.00 20.00     0.266 C 
HETATM    2  C5  UNL     1     -34.073  15.027  -6.905  1.00 20.00     0.189 C 
HETATM    3  N7  UNL     1     -34.089  15.652  -5.594  1.00 20.00    -0.228 N 
HETATM    4  O8  UNL     1     -33.404  13.822  -4.391  1.00 20.00    -0.266 OA
ENDROOT
BRANCH   1   5
HETATM    5  C1  UNL     1     -33.835  15.809  -3.175  1.00 20.00     0.072 C 
HETATM    6  C2  UNL     1     -34.966  15.824  -2.455  1.00 20.00    -0.025 C 
HETATM    7  C4  UNL     1     -35.125  16.603  -1.191  1.00 20.00     0.036 C 
ENDBRANCH   1   5
BRANCH   3   8
HETATM    8  O9  UNL     1     -34.490  17.000  -5.653  1.00 20.00    -0.281 OA
HETATM    9  C6  UNL     1     -35.851  17.060  -6.070  1.00 20.00     0.238 C 
ENDBRANCH   3   8
TORSDOF 2
ENDMDL
MODEL 5
REMARK VINA RESULT:      -3.6     11.094     11.851
REMARK  2 active torsions:
REMARK  status: ('A' for Active; 'I' for Inactive)
REMARK    1  A    between atoms: C1_1  and  C3_3 
REMARK       I    between atoms: C3_3  and  N7_7 
REMARK    2  A    between atoms: N7_7  and  O9_9 
ROOT
HETATM    1  C3  UNL     1     -34.688  15.511  -3.067  1.00 20.00     0.266 C 
HETATM    2  C5  UNL     1     -35.843  13.772  -4.436  1.00 20.00     0.189 C 
HETATM    3  N7  UNL     1     -34.704  14.610  -4.107  1.00 20.00    -0.228 N 
HETATM    4  O8  UNL     1     -35.646  15.690  -2.314  1.00 20.00    -0.266 OA
ENDROOT
BRANCH   1   5
HETATM    5  C1  UNL     1     -33.426  16.290  -2.887  1.00 20.00     0.072 C 
HETATM    6  C2  UNL     1     -33.368  17.280  -1.985  1.00 20.00    -0.025 C 
HETATM    7  C4  UNL     1     -32.144  18.102  -1.745  1.00 20.00     0.036 C 
ENDBRANCH   1   5
BRANCH   3   8
HETATM    8  O9  UNL     1     -33.617  14.396  -4.976  1.00 20.00    -0.281 OA
HETATM    9  C6  UNL     1     -33.941  14.922  -6.260  1.00 20.00     0.238 C 
ENDBRANCH   3   8
TORSDOF 2
ENDMDL
MODEL 6
REMARK VINA RESULT:      -3.6     15.248     15.933
REMARK  2 active torsions:
REMARK  status: ('A' for Active; 'I' for Inactive)
REMARK    1  A    between atoms: C1_1  and  C3_3 
REMARK       I    between atoms: C3_3  and  N7_7 
REMARK    2  A    between atoms: N7_7  and  O9_9 
ROOT
HETATM    1  C3  UNL     1     -24.083  18.566   8.096  1.00 20.00     0.266 C 
HETATM    2  C5  UNL     1     -22.911  17.453   9.999  1.00 20.00     0.189 C 
HETATM    3  N7  UNL     1     -24.043  18.143   9.405  1.00 20.00    -0.228 N 
HETATM    4  O8  UNL     1     -23.157  18.398   7.303  1.00 20.00    -0.266 OA
ENDROOT
BRANCH   1   5
HETATM    5  C1  UNL     1     -25.333  19.263   7.666  1.00 20.00     0.072 C 
HETATM    6  C2  UNL     1     -26.226  18.631   6.892  1.00 20.00    -0.025 C 
HETATM    7  C4  UNL     1     -27.497  19.259   6.423  1.00 20.00     0.036 C 
ENDBRANCH   1   5
BRANCH   3   8
HETATM    8  O9  UNL     1     -25.093  18.329  10.323  1.00 20.00    -0.281 OA
HETATM    9  C6  UNL     1     -24.776  17.647  11.533  1.00 20.00     0.238 C 
ENDBRANCH   3   8
TORSDOF 2
ENDMDL
MODEL 7
REMARK VINA RESULT:      -3.5     15.626     16.721
REMARK  2 active torsions:
REMARK  status: ('A' for Active; 'I' for Inactive)
REMARK    1  A    between atoms: C1_1  and  C3_3 
REMARK       I    between atoms: C3_3  and  N7_7 
REMARK    2  A    between atoms: N7_7  and  O9_9 
ROOT
HETATM    1  C3  UNL     1     -23.430  18.404   8.285  1.00 20.00     0.266 C 
HETATM    2  C5  UNL     1     -24.458  19.256   6.176  1.00 20.00     0.189 C 
HETATM    3  N7  UNL     1     -24.490  18.944   7.594  1.00 20.00    -0.228 N 
HETATM    4  O8  UNL     1     -22.349  18.133   7.761  1.00 20.00    -0.266 OA
ENDROOT
BRANCH   1   5
HETATM    5  C1  UNL     1     -23.652  18.147   9.739  1.00 20.00     0.072 C 
HETATM    6  C2  UNL     1     -22.625  17.801  10.528  1.00 20.00    -0.025 C 
HETATM    7  C4  UNL     1     -22.767  17.530  11.990  1.00 20.00     0.036 C 
ENDBRANCH   1   5
BRANCH   3   8
HETATM    8  O9  UNL     1     -25.731  19.258   8.179  1.00 20.00    -0.281 OA
HETATM    9  C6  UNL     1     -26.732  19.263   7.166  1.00 20.00     0.238 C 
ENDBRANCH   3   8
TORSDOF 2
ENDMDL
MODEL 8
REMARK VINA RESULT:      -3.5     11.176     12.342
REMARK  2 active torsions:
REMARK  status: ('A' for Active; 'I' for Inactive)
REMARK    1  A    between atoms: C1_1  and  C3_3 
REMARK       I    between atoms: C3_3  and  N7_7 
REMARK    2  A    between atoms: N7_7  and  O9_9 
ROOT
HETATM    1  C3  UNL     1     -34.663  14.709  -4.074  1.00 20.00     0.266 C 
HETATM    2  C5  UNL     1     -35.747  14.464  -6.309  1.00 20.00     0.189 C 
HETATM    3  N7  UNL     1     -35.355  15.233  -5.141  1.00 20.00    -0.228 N 
HETATM    4  O8  UNL     1     -34.312  13.531  -4.009  1.00 20.00    -0.266 OA
ENDROOT
BRANCH   1   5
HETATM    5  C1  UNL     1     -34.352  15.654  -2.960  1.00 20.00     0.072 C 
HETATM    6  C2  UNL     1     -33.236  16.395  -2.995  1.00 20.00    -0.025 C 
HETATM    7  C4  UNL     1     -32.857  17.363  -1.922  1.00 20.00     0.036 C 
ENDBRANCH   1   5
BRANCH   3   8
HETATM    8  O9  UNL     1     -35.763  16.577  -5.228  1.00 20.00    -0.281 OA
HETATM    9  C6  UNL     1     -35.033  17.216  -6.271  1.00 20.00     0.238 C 
ENDBRANCH   3   8
TORSDOF 2
ENDMDL
MODEL 9
REMARK VINA RESULT:      -3.5     15.830     16.581
REMARK  2 active torsions:
REMARK  status: ('A' for Active; 'I' for Inactive)
REMARK    1  A    between atoms: C1_1  and  C3_3 
REMARK       I    between atoms: C3_3  and  N7_7 
REMARK    2  A    between atoms: N7_7  and  O9_9 
ROOT
HETATM    1  C3  UNL     1     -24.324  16.734  11.698  1.00 20.00     0.266 C 
HETATM    2  C5  UNL     1     -26.714  17.073  12.332  1.00 20.00     0.189 C 
HETATM    3  N7  UNL     1     -25.415  17.549  11.889  1.00 20.00    -0.228 N 
HETATM    4  O8  UNL     1     -24.347  15.518  11.886  1.00 20.00    -0.266 OA
ENDROOT
BRANCH   1   5
HETATM    5  C1  UNL     1     -23.069  17.406  11.244  1.00 20.00     0.072 C 
HETATM    6  C2  UNL     1     -22.768  17.465   9.939  1.00 20.00    -0.025 C 
HETATM    7  C4  UNL     1     -21.536  18.120   9.408  1.00 20.00     0.036 C 
ENDBRANCH   1   5
BRANCH   3   8
HETATM    8  O9  UNL     1     -25.402  18.941  11.679  1.00 20.00    -0.281 OA
HETATM    9  C6  UNL     1     -26.273  19.252  10.596  1.00 20.00     0.238 C 
ENDBRANCH   3   8
TORSDOF 2
ENDMDL
