MODEL 1
REMARK VINA RESULT:      -4.6      0.000      0.000
REMARK  3 active torsions:
REMARK  status: ('A' for Active; 'I' for Inactive)
REMARK    1  A    between atoms: C1_1  and  C4_4 
REMARK    2  A    between atoms: C1_1  and  C7_7 
REMARK    3  A    between atoms: C7_7  and  O9_9 
ROOT
HETATM    1  C1  UNL     1     -33.255   5.934   3.137  1.00 20.00     0.158 C 
HETATM    2  O8  UNL     1     -33.120   4.921   2.451  1.00 20.00    -0.295 OA
ENDROOT
BRANCH   1   3
HETATM    3  C4  UNL     1     -34.089   5.928   4.364  1.00 20.00     0.019 A 
HETATM    4  C2  UNL     1     -34.637   4.590   4.814  1.00 20.00     0.018 A 
HETATM    5  C3  UNL     1     -35.557   5.595   4.193  1.00 20.00     0.018 A 
HETATM    6  C5  UNL     1     -33.732   6.921   5.441  1.00 20.00     0.023 C 
ENDBRANCH   1   3
BRANCH   1   7
HETATM    7  C7  UNL     1     -32.587   7.247   2.786  1.00 20.00     0.246 C 
BRANCH   7   8
HETATM    8  O9  UNL     1     -32.438   7.372   1.388  1.00 20.00    -0.389 OA
HETATM    9  C6  UNL     1     -32.783   8.677   0.932  1.00 20.00     0.202 C 
ENDBRANCH   7   8
ENDBRANCH   1   7
TORSDOF 3
ENDMDL
MODEL 2
REMARK VINA RESULT:      -4.4     10.725     11.681
REMARK  3 active torsions:
REMARK  status: ('A' for Active; 'I' for Inactive)
REMARK    1  A    between atoms: C1_1  and  C4_4 
REMARK    2  A    between atoms: C1_1  and  C7_7 
REMARK    3  A    between atoms: C7_7  and  O9_9 
ROOT
HETATM    1  C1  UNL     1     -35.168  13.938  -4.179  1.00 20.00     0.158 C 
HETATM    2  O8  UNL     1     -34.704  12.833  -3.902  1.00 20.00    -0.295 OA
ENDROOT
BRANCH   1   3
HETATM    3  C4  UNL     1     -34.572  15.182  -3.634  1.00 20.00     0.019 A 
HETATM    4  C2  UNL     1     -34.100  16.214  -4.637  1.00 20.00     0.018 A 
HETATM    5  C3  UNL     1     -33.094  15.400  -3.882  1.00 20.00     0.018 A 
HETATM    6  C5  UNL     1     -35.132  15.697  -2.331  1.00 20.00     0.023 C 
ENDBRANCH   1   3
BRANCH   1   7
HETATM    7  C7  UNL     1     -36.368  14.111  -5.086  1.00 20.00     0.246 C 
BRANCH   7   8
HETATM    8  O9  UNL     1     -37.553  13.718  -4.426  1.00 20.00    -0.389 OA
HETATM    9  C6  UNL     1     -38.441  14.814  -4.231  1.00 20.00     0.202 C 
ENDBRANCH   7   8
ENDBRANCH   1   7
TORSDOF 3
ENDMDL
MODEL 3
REMARK VINA RESULT:      -4.2     10.995     11.997
REMARK  3 active torsions:
REMARK  status: ('A' for Active; 'I' for Inactive)
REMARK    1  A    between atoms: C1_1  and  C4_4 
REMARK    2  A    between atoms: C1_1  and  C7_7 
REMARK    3  A    between atoms: C7_7  and  O9_9 
ROOT
HETATM    1  C1  UNL     1     -35.846  13.968  -4.467  1.00 20.00     0.158 C 
HETATM    2  O8  UNL     1     -35.818  12.739  -4.490  1.00 20.00    -0.295 OA
ENDROOT
BRANCH   1   3
HETATM    3  C4  UNL     1     -34.636  14.772  -4.769  1.00 20.00     0.019 A 
HETATM    4  C2  UNL     1     -33.303  14.190  -4.349  1.00 20.00     0.018 A 
HETATM    5  C3  UNL     1     -33.880  15.344  -3.588  1.00 20.00     0.018 A 
HETATM    6  C5  UNL     1     -34.658  15.594  -6.034  1.00 20.00     0.023 C 
ENDBRANCH   1   3
BRANCH   1   7
HETATM    7  C7  UNL     1     -37.101  14.746  -4.133  1.00 20.00     0.246 C 
BRANCH   7   8
HETATM    8  O9  UNL     1     -38.251  13.960  -4.366  1.00 20.00    -0.389 OA
HETATM    9  C6  UNL     1     -39.442  14.741  -4.341  1.00 20.00     0.202 C 
ENDBRANCH   7   8
ENDBRANCH   1   7
TORSDOF 3
ENDMDL
MODEL 4
REMARK VINA RESULT:      -4.1     10.787     11.861
REMARK  3 active torsions:
REMARK  status: ('A' for Active; 'I' for Inactive)
REMARK    1  A    between atoms: C1_1  and  C4_4 
REMARK    2  A    between atoms: C1_1  and  C7_7 
REMARK    3  A    between atoms: C7_7  and  O9_9 
ROOT
HETATM    1  C1  UNL     1     -35.047  14.137  -4.097  1.00 20.00     0.158 C 
HETATM    2  O8  UNL     1     -34.554  13.029  -3.887  1.00 20.00    -0.295 OA
ENDROOT
BRANCH   1   3
HETATM    3  C4  UNL     1     -34.488  15.360  -3.471  1.00 20.00     0.019 A 
HETATM    4  C2  UNL     1     -34.008  16.451  -4.405  1.00 20.00     0.018 A 
HETATM    5  C3  UNL     1     -33.008  15.615  -3.667  1.00 20.00     0.018 A 
HETATM    6  C5  UNL     1     -35.092  15.795  -2.159  1.00 20.00     0.023 C 
ENDBRANCH   1   3
BRANCH   1   7
HETATM    7  C7  UNL     1     -36.246  14.333  -5.000  1.00 20.00     0.246 C 
BRANCH   7   8
HETATM    8  O9  UNL     1     -35.977  13.849  -6.299  1.00 20.00    -0.389 OA
HETATM    9  C6  UNL     1     -35.725  14.907  -7.219  1.00 20.00     0.202 C 
ENDBRANCH   7   8
ENDBRANCH   1   7
TORSDOF 3
ENDMDL
MODEL 5
REMARK VINA RESULT:      -4.0     15.719     16.558
REMARK  3 active torsions:
REMARK  status: ('A' for Active; 'I' for Inactive)
REMARK    1  A    between atoms: C1_1  and  C4_4 
REMARK    2  A    between atoms: C1_1  and  C7_7 
REMARK    3  A    between atoms: C7_7  and  O9_9 
ROOT
HETATM    1  C1  UNL     1     -22.912  17.352   9.695  1.00 20.00     0.158 C 
HETATM    2  O8  UNL     1     -22.622  16.367   9.018  1.00 20.00    -0.295 OA
ENDROOT
BRANCH   1   3
HETATM    3  C4  UNL     1     -23.434  17.210  11.076  1.00 20.00     0.019 A 
HETATM    4  C2  UNL     1     -24.345  16.031  11.348  1.00 20.00     0.018 A 
HETATM    5  C3  UNL     1     -24.923  17.410  11.270  1.00 20.00     0.018 A 
HETATM    6  C5  UNL     1     -22.531  17.653  12.200  1.00 20.00     0.023 C 
ENDBRANCH   1   3
BRANCH   1   7
HETATM    7  C7  UNL     1     -22.759  18.766   9.178  1.00 20.00     0.246 C 
BRANCH   7   8
HETATM    8  O9  UNL     1     -23.264  18.874   7.863  1.00 20.00    -0.389 OA
HETATM    9  C6  UNL     1     -24.684  18.984   7.847  1.00 20.00     0.202 C 
ENDBRANCH   7   8
ENDBRANCH   1   7
TORSDOF 3
ENDMDL
MODEL 6
REMARK VINA RESULT:      -4.0      0.607      1.467
REMARK  3 active torsions:
REMARK  status: ('A' for Active; 'I' for Inactive)
REMARK    1  A    between atoms: C1_1  and  C4_4 
REMARK    2  A    between atoms: C1_1  and  C7_7 
REMARK    3  A    between atoms: C7_7  and  O9_9 
ROOT
HETATM    1  C1  UNL     1     -33.503   5.704   3.346  1.00 20.00     0.158 C 
HETATM    2  O8  UNL     1     -33.296   4.723   2.633  1.00 20.00    -0.295 OA
ENDROOT
BRANCH   1   3
HETATM    3  C4  UNL     1     -34.542   5.682   4.404  1.00 20.00     0.019 A 
HETATM    4  C2  UNL     1     -34.257   6.475   5.662  1.00 20.00     0.018 A 
HETATM    5  C3  UNL     1     -34.188   4.979   5.698  1.00 20.00     0.018 A 
HETATM    6  C5  UNL     1     -35.979   5.604   3.952  1.00 20.00     0.023 C 
ENDBRANCH   1   3
BRANCH   1   7
HETATM    7  C7  UNL     1     -32.721   6.992   3.199  1.00 20.00     0.246 C 
BRANCH   7   8
HETATM    8  O9  UNL     1     -32.206   7.117   1.891  1.00 20.00    -0.389 OA
HETATM    9  C6  UNL     1     -32.753   8.241   1.209  1.00 20.00     0.202 C 
ENDBRANCH   7   8
ENDBRANCH   1   7
TORSDOF 3
ENDMDL
MODEL 7
REMARK VINA RESULT:      -3.9      1.476      1.527
REMARK  3 active torsions:
REMARK  status: ('A' for Active; 'I' for Inactive)
REMARK    1  A    between atoms: C1_1  and  C4_4 
REMARK    2  A    between atoms: C1_1  and  C7_7 
REMARK    3  A    between atoms: C7_7  and  O9_9 
ROOT
HETATM    1  C1  UNL     1     -33.338   6.667   4.273  1.00 20.00     0.158 C 
HETATM    2  O8  UNL     1     -32.819   7.544   4.962  1.00 20.00    -0.295 OA
ENDROOT
BRANCH   1   3
HETATM    3  C4  UNL     1     -34.366   5.756   4.832  1.00 20.00     0.019 A 
HETATM    4  C2  UNL     1     -34.550   4.422   4.140  1.00 20.00     0.018 A 
HETATM    5  C3  UNL     1     -35.586   5.490   3.975  1.00 20.00     0.018 A 
HETATM    6  C5  UNL     1     -34.571   5.788   6.327  1.00 20.00     0.023 C 
ENDBRANCH   1   3
BRANCH   1   7
HETATM    7  C7  UNL     1     -32.973   6.455   2.819  1.00 20.00     0.246 C 
BRANCH   7   8
HETATM    8  O9  UNL     1     -32.135   7.494   2.359  1.00 20.00    -0.389 OA
HETATM    9  C6  UNL     1     -32.654   8.116   1.187  1.00 20.00     0.202 C 
ENDBRANCH   7   8
ENDBRANCH   1   7
TORSDOF 3
ENDMDL
MODEL 8
REMARK VINA RESULT:      -3.8     11.184     12.098
REMARK  3 active torsions:
REMARK  status: ('A' for Active; 'I' for Inactive)
REMARK    1  A    between atoms: C1_1  and  C4_4 
REMARK    2  A    between atoms: C1_1  and  C7_7 
REMARK    3  A    between atoms: C7_7  and  O9_9 
ROOT
HETATM    1  C1  UNL     1     -34.729  14.643  -4.301  1.00 20.00     0.158 C 
HETATM    2  O8  UNL     1     -33.752  13.896  -4.349  1.00 20.00    -0.295 OA
ENDROOT
BRANCH   1   3
HETATM    3  C4  UNL     1     -34.647  15.975  -3.653  1.00 20.00     0.019 A 
HETATM    4  C2  UNL     1     -33.485  16.210  -2.711  1.00 20.00     0.018 A 
HETATM    5  C3  UNL     1     -34.863  16.022  -2.154  1.00 20.00     0.018 A 
HETATM    6  C5  UNL     1     -35.133  17.157  -4.453  1.00 20.00     0.023 C 
ENDBRANCH   1   3
BRANCH   1   7
HETATM    7  C7  UNL     1     -36.070  14.265  -4.892  1.00 20.00     0.246 C 
BRANCH   7   8
HETATM    8  O9  UNL     1     -35.918  13.799  -6.216  1.00 20.00    -0.389 OA
HETATM    9  C6  UNL     1     -35.774  14.871  -7.143  1.00 20.00     0.202 C 
ENDBRANCH   7   8
ENDBRANCH   1   7
TORSDOF 3
ENDMDL
MODEL 9
REMARK VINA RESULT:      -3.8     10.737     11.736
REMARK  3 active torsions:
REMARK  status: ('A' for Active; 'I' for Inactive)
REMARK    1  A    between atoms: C1_1  and  C4_4 
REMARK    2  A    between atoms: C1_1  and  C7_7 
REMARK    3  A    between atoms: C7_7  and  O9_9 
ROOT
HETATM    1  C1  UNL     1     -35.072  14.028  -4.116  1.00 20.00     0.158 C 
HETATM    2  O8  UNL     1     -34.571  12.928  -3.889  1.00 20.00    -0.295 OA
ENDROOT
BRANCH   1   3
HETATM    3  C4  UNL     1     -34.485  15.271  -3.558  1.00 20.00     0.019 A 
HETATM    4  C2  UNL     1     -35.062  15.776  -2.252  1.00 20.00     0.018 A 
HETATM    5  C3  UNL     1     -35.376  16.496  -3.527  1.00 20.00     0.018 A 
HETATM    6  C5  UNL     1     -33.013  15.500  -3.792  1.00 20.00     0.023 C 
ENDBRANCH   1   3
BRANCH   1   7
HETATM    7  C7  UNL     1     -36.310  14.195  -4.971  1.00 20.00     0.246 C 
BRANCH   7   8
HETATM    8  O9  UNL     1     -36.039  13.850  -6.313  1.00 20.00    -0.389 OA
HETATM    9  C6  UNL     1     -35.620  14.976  -7.078  1.00 20.00     0.202 C 
ENDBRANCH   7   8
ENDBRANCH   1   7
TORSDOF 3
ENDMDL
