MODEL 1
REMARK VINA RESULT:      -5.5      0.000      0.000
REMARK  3 active torsions:
REMARK  status: ('A' for Active; 'I' for Inactive)
REMARK    1  A    between atoms: C3_3  and  C7_7 
REMARK    2  A    between atoms: C3_3  and  C8_8 
REMARK    3  A    between atoms: C6_6  and  C8_8 
ROOT
HETATM    1  C1  UNL     1     -33.258   8.739   0.079  1.00 20.00     0.012 C 
HETATM    2  C2  UNL     1     -32.728   8.245   1.036  1.00 20.00    -0.110 C 
HETATM    3  C7  UNL     1     -32.075   7.646   2.206  1.00 20.00     0.171 C 
ENDROOT
BRANCH   3   4
HETATM    4  C3  UNL     1     -32.897   6.533   2.828  1.00 20.00     0.138 C 
HETATM    5  O9  UNL     1     -33.178   5.500   2.221  1.00 20.00    -0.297 OA
BRANCH   4   6
HETATM    6  C8  UNL     1     -33.355   6.779   4.255  1.00 20.00     0.083 C 
BRANCH   6   7
HETATM    7  C6  UNL     1     -34.649   6.110   4.598  1.00 20.00    -0.007 A 
HETATM    8  C4  UNL     1     -34.717   4.614   4.730  1.00 20.00     0.005 A 
HETATM    9  C5  UNL     1     -34.841   5.483   5.950  1.00 20.00     0.005 A 
ENDBRANCH   6   7
ENDBRANCH   4   6
ENDBRANCH   3   4
TORSDOF 3
ENDMDL
MODEL 2
REMARK VINA RESULT:      -5.4      1.504      4.228
REMARK  3 active torsions:
REMARK  status: ('A' for Active; 'I' for Inactive)
REMARK    1  A    between atoms: C3_3  and  C7_7 
REMARK    2  A    between atoms: C3_3  and  C8_8 
REMARK    3  A    between atoms: C6_6  and  C8_8 
ROOT
HETATM    1  C1  UNL     1     -33.802   7.287   6.383  1.00 20.00     0.012 C 
HETATM    2  C2  UNL     1     -34.306   6.288   5.947  1.00 20.00    -0.110 C 
HETATM    3  C7  UNL     1     -34.928   5.066   5.422  1.00 20.00     0.171 C 
ENDROOT
BRANCH   3   4
HETATM    4  C3  UNL     1     -34.409   4.694   4.046  1.00 20.00     0.138 C 
HETATM    5  O9  UNL     1     -34.106   3.539   3.743  1.00 20.00    -0.297 OA
BRANCH   4   6
HETATM    6  C8  UNL     1     -34.286   5.844   3.061  1.00 20.00     0.083 C 
BRANCH   6   7
HETATM    7  C6  UNL     1     -32.882   6.109   2.615  1.00 20.00    -0.007 A 
HETATM    8  C4  UNL     1     -32.569   7.318   1.779  1.00 20.00     0.005 A 
HETATM    9  C5  UNL     1     -32.103   7.249   3.207  1.00 20.00     0.005 A 
ENDBRANCH   6   7
ENDBRANCH   4   6
ENDBRANCH   3   4
TORSDOF 3
ENDMDL
MODEL 3
REMARK VINA RESULT:      -5.3      1.766      2.410
REMARK  3 active torsions:
REMARK  status: ('A' for Active; 'I' for Inactive)
REMARK    1  A    between atoms: C3_3  and  C7_7 
REMARK    2  A    between atoms: C3_3  and  C8_8 
REMARK    3  A    between atoms: C6_6  and  C8_8 
ROOT
HETATM    1  C1  UNL     1     -32.464   7.380   2.623  1.00 20.00     0.012 C 
HETATM    2  C2  UNL     1     -32.834   6.242   2.526  1.00 20.00    -0.110 C 
HETATM    3  C7  UNL     1     -33.282   4.850   2.399  1.00 20.00     0.171 C 
ENDROOT
BRANCH   3   4
HETATM    4  C3  UNL     1     -34.159   4.412   3.556  1.00 20.00     0.138 C 
HETATM    5  O9  UNL     1     -34.080   3.290   4.059  1.00 20.00    -0.297 OA
BRANCH   4   6
HETATM    6  C8  UNL     1     -35.147   5.450   4.056  1.00 20.00     0.083 C 
BRANCH   6   7
HETATM    7  C6  UNL     1     -35.053   5.716   5.526  1.00 20.00    -0.007 A 
HETATM    8  C4  UNL     1     -33.833   5.292   6.296  1.00 20.00     0.005 A 
HETATM    9  C5  UNL     1     -34.096   6.752   6.048  1.00 20.00     0.005 A 
ENDBRANCH   6   7
ENDBRANCH   4   6
ENDBRANCH   3   4
TORSDOF 3
ENDMDL
MODEL 4
REMARK VINA RESULT:      -5.3      0.636      4.694
REMARK  3 active torsions:
REMARK  status: ('A' for Active; 'I' for Inactive)
REMARK    1  A    between atoms: C3_3  and  C7_7 
REMARK    2  A    between atoms: C3_3  and  C8_8 
REMARK    3  A    between atoms: C6_6  and  C8_8 
ROOT
HETATM    1  C1  UNL     1     -34.830   5.127   5.858  1.00 20.00     0.012 C 
HETATM    2  C2  UNL     1     -34.324   5.946   5.140  1.00 20.00    -0.110 C 
HETATM    3  C7  UNL     1     -33.709   6.953   4.268  1.00 20.00     0.171 C 
ENDROOT
BRANCH   3   4
HETATM    4  C3  UNL     1     -33.144   6.355   2.994  1.00 20.00     0.138 C 
HETATM    5  O9  UNL     1     -33.284   5.167   2.702  1.00 20.00    -0.297 OA
BRANCH   4   6
HETATM    6  C8  UNL     1     -32.389   7.321   2.098  1.00 20.00     0.083 C 
BRANCH   6   7
HETATM    7  C6  UNL     1     -33.274   8.138   1.210  1.00 20.00    -0.007 A 
HETATM    8  C4  UNL     1     -32.853   9.517   0.783  1.00 20.00     0.005 A 
HETATM    9  C5  UNL     1     -32.882   8.396  -0.218  1.00 20.00     0.005 A 
ENDBRANCH   6   7
ENDBRANCH   4   6
ENDBRANCH   3   4
TORSDOF 3
ENDMDL
MODEL 5
REMARK VINA RESULT:      -4.6     10.588     11.621
REMARK  3 active torsions:
REMARK  status: ('A' for Active; 'I' for Inactive)
REMARK    1  A    between atoms: C3_3  and  C7_7 
REMARK    2  A    between atoms: C3_3  and  C8_8 
REMARK    3  A    between atoms: C6_6  and  C8_8 
ROOT
HETATM    1  C1  UNL     1     -34.060  15.266  -7.553  1.00 20.00     0.012 C 
HETATM    2  C2  UNL     1     -34.915  15.066  -6.734  1.00 20.00    -0.110 C 
HETATM    3  C7  UNL     1     -35.964  14.828  -5.736  1.00 20.00     0.171 C 
ENDROOT
BRANCH   3   4
HETATM    4  C3  UNL     1     -35.526  13.868  -4.646  1.00 20.00     0.138 C 
HETATM    5  O9  UNL     1     -35.976  12.726  -4.550  1.00 20.00    -0.297 OA
BRANCH   4   6
HETATM    6  C8  UNL     1     -34.492  14.411  -3.675  1.00 20.00     0.083 C 
BRANCH   6   7
HETATM    7  C6  UNL     1     -34.734  15.829  -3.265  1.00 20.00    -0.007 A 
HETATM    8  C4  UNL     1     -35.013  16.164  -1.826  1.00 20.00     0.005 A 
HETATM    9  C5  UNL     1     -33.708  16.568  -2.453  1.00 20.00     0.005 A 
ENDBRANCH   6   7
ENDBRANCH   4   6
ENDBRANCH   3   4
TORSDOF 3
ENDMDL
MODEL 6
REMARK VINA RESULT:      -4.6     10.602     11.490
REMARK  3 active torsions:
REMARK  status: ('A' for Active; 'I' for Inactive)
REMARK    1  A    between atoms: C3_3  and  C7_7 
REMARK    2  A    between atoms: C3_3  and  C8_8 
REMARK    3  A    between atoms: C6_6  and  C8_8 
ROOT
HETATM    1  C1  UNL     1     -39.056  14.854  -4.129  1.00 20.00     0.012 C 
HETATM    2  C2  UNL     1     -37.936  14.876  -4.561  1.00 20.00    -0.110 C 
HETATM    3  C7  UNL     1     -36.570  14.908  -5.095  1.00 20.00     0.171 C 
ENDROOT
BRANCH   3   4
HETATM    4  C3  UNL     1     -35.668  13.872  -4.453  1.00 20.00     0.138 C 
HETATM    5  O9  UNL     1     -35.887  12.663  -4.533  1.00 20.00    -0.297 OA
BRANCH   4   6
HETATM    6  C8  UNL     1     -34.471  14.426  -3.699  1.00 20.00     0.083 C 
BRANCH   6   7
HETATM    7  C6  UNL     1     -34.621  15.859  -3.295  1.00 20.00    -0.007 A 
HETATM    8  C4  UNL     1     -34.950  16.214  -1.872  1.00 20.00     0.005 A 
HETATM    9  C5  UNL     1     -33.584  16.513  -2.426  1.00 20.00     0.005 A 
ENDBRANCH   6   7
ENDBRANCH   4   6
ENDBRANCH   3   4
TORSDOF 3
ENDMDL
MODEL 7
REMARK VINA RESULT:      -4.5     10.664     11.490
REMARK  3 active torsions:
REMARK  status: ('A' for Active; 'I' for Inactive)
REMARK    1  A    between atoms: C3_3  and  C7_7 
REMARK    2  A    between atoms: C3_3  and  C8_8 
REMARK    3  A    between atoms: C6_6  and  C8_8 
ROOT
HETATM    1  C1  UNL     1     -35.072  16.367  -1.654  1.00 20.00     0.012 C 
HETATM    2  C2  UNL     1     -34.288  16.050  -2.506  1.00 20.00    -0.110 C 
HETATM    3  C7  UNL     1     -33.324  15.668  -3.544  1.00 20.00     0.171 C 
ENDROOT
BRANCH   3   4
HETATM    4  C3  UNL     1     -33.884  14.643  -4.512  1.00 20.00     0.138 C 
HETATM    5  O9  UNL     1     -33.427  14.482  -5.644  1.00 20.00    -0.297 OA
BRANCH   4   6
HETATM    6  C8  UNL     1     -35.054  13.826  -3.992  1.00 20.00     0.083 C 
BRANCH   6   7
HETATM    7  C6  UNL     1     -36.290  13.942  -4.828  1.00 20.00    -0.007 A 
HETATM    8  C4  UNL     1     -37.552  14.509  -4.239  1.00 20.00     0.005 A 
HETATM    9  C5  UNL     1     -36.783  15.292  -5.267  1.00 20.00     0.005 A 
ENDBRANCH   6   7
ENDBRANCH   4   6
ENDBRANCH   3   4
TORSDOF 3
ENDMDL
MODEL 8
REMARK VINA RESULT:      -4.4     10.638     12.522
REMARK  3 active torsions:
REMARK  status: ('A' for Active; 'I' for Inactive)
REMARK    1  A    between atoms: C3_3  and  C7_7 
REMARK    2  A    between atoms: C3_3  and  C8_8 
REMARK    3  A    between atoms: C6_6  and  C8_8 
ROOT
HETATM    1  C1  UNL     1     -34.828  16.068  -2.299  1.00 20.00     0.012 C 
HETATM    2  C2  UNL     1     -34.855  15.130  -3.049  1.00 20.00    -0.110 C 
HETATM    3  C7  UNL     1     -34.879  13.982  -3.962  1.00 20.00     0.171 C 
ENDROOT
BRANCH   3   4
HETATM    4  C3  UNL     1     -36.096  13.983  -4.868  1.00 20.00     0.138 C 
HETATM    5  O9  UNL     1     -37.208  13.617  -4.483  1.00 20.00    -0.297 OA
BRANCH   4   6
HETATM    6  C8  UNL     1     -35.854  14.465  -6.287  1.00 20.00     0.083 C 
BRANCH   6   7
HETATM    7  C6  UNL     1     -34.496  15.056  -6.501  1.00 20.00    -0.007 A 
HETATM    8  C4  UNL     1     -34.022  15.385  -7.889  1.00 20.00     0.005 A 
HETATM    9  C5  UNL     1     -34.353  16.491  -6.926  1.00 20.00     0.005 A 
ENDBRANCH   6   7
ENDBRANCH   4   6
ENDBRANCH   3   4
TORSDOF 3
ENDMDL
MODEL 9
REMARK VINA RESULT:      -4.4     10.693     11.697
REMARK  3 active torsions:
REMARK  status: ('A' for Active; 'I' for Inactive)
REMARK    1  A    between atoms: C3_3  and  C7_7 
REMARK    2  A    between atoms: C3_3  and  C8_8 
REMARK    3  A    between atoms: C6_6  and  C8_8 
ROOT
HETATM    1  C1  UNL     1     -37.248  16.723  -6.026  1.00 20.00     0.012 C 
HETATM    2  C2  UNL     1     -37.246  15.745  -5.330  1.00 20.00    -0.110 C 
HETATM    3  C7  UNL     1     -37.252  14.551  -4.477  1.00 20.00     0.171 C 
ENDROOT
BRANCH   3   4
HETATM    4  C3  UNL     1     -35.926  13.815  -4.494  1.00 20.00     0.138 C 
HETATM    5  O9  UNL     1     -35.850  12.586  -4.476  1.00 20.00    -0.297 OA
BRANCH   4   6
HETATM    6  C8  UNL     1     -34.690  14.697  -4.532  1.00 20.00     0.083 C 
BRANCH   6   7
HETATM    7  C6  UNL     1     -34.156  15.048  -3.179  1.00 20.00    -0.007 A 
HETATM    8  C4  UNL     1     -33.593  16.417  -2.917  1.00 20.00     0.005 A 
HETATM    9  C5  UNL     1     -34.900  16.010  -2.297  1.00 20.00     0.005 A 
ENDBRANCH   6   7
ENDBRANCH   4   6
ENDBRANCH   3   4
TORSDOF 3
ENDMDL
