MODEL 1
REMARK VINA RESULT:      -4.2      0.000      0.000
REMARK  4 active torsions:
REMARK  status: ('A' for Active; 'I' for Inactive)
REMARK    1  A    between atoms: C1_1  and  C4_4 
REMARK    2  A    between atoms: C1_1  and  C9_9 
REMARK    3  A    between atoms: C9_9  and  C10_10 
REMARK    4  A    between atoms: C10_10  and  C11_11 
ROOT
HETATM    1  C1  UNL     1     -34.302  14.742  -5.294  1.00 20.00     0.135 C 
HETATM    2  O12 UNL     1     -33.527  14.623  -6.234  1.00 20.00    -0.297 OA
ENDROOT
BRANCH   1   3
HETATM    3  C4  UNL     1     -35.763  14.905  -5.549  1.00 20.00     0.017 A 
HETATM    4  C2  UNL     1     -36.182  15.100  -6.986  1.00 20.00     0.018 A 
HETATM    5  C3  UNL     1     -36.217  16.260  -6.039  1.00 20.00     0.018 A 
HETATM    6  C5  UNL     1     -36.696  14.141  -4.650  1.00 20.00     0.023 C 
ENDBRANCH   1   3
BRANCH   1   7
HETATM    7  C9  UNL     1     -33.896  14.737  -3.834  1.00 20.00     0.080 C 
BRANCH   7   8
HETATM    8  C10 UNL     1     -33.144  16.013  -3.445  1.00 20.00     0.015 C 
BRANCH   8   9
HETATM    9  C11 UNL     1     -33.932  17.015  -2.560  1.00 20.00    -0.051 C 
HETATM   10  C6  UNL     1     -35.035  16.236  -1.817  1.00 20.00     0.014 C 
HETATM   11  C7  UNL     1     -34.597  18.107  -3.415  1.00 20.00     0.014 C 
HETATM   12  C8  UNL     1     -33.015  17.677  -1.518  1.00 20.00     0.014 C 
ENDBRANCH   8   9
ENDBRANCH   7   8
ENDBRANCH   1   7
TORSDOF 4
ENDMDL
MODEL 2
REMARK VINA RESULT:      -4.1      1.371      2.286
REMARK  4 active torsions:
REMARK  status: ('A' for Active; 'I' for Inactive)
REMARK    1  A    between atoms: C1_1  and  C4_4 
REMARK    2  A    between atoms: C1_1  and  C9_9 
REMARK    3  A    between atoms: C9_9  and  C10_10 
REMARK    4  A    between atoms: C10_10  and  C11_11 
ROOT
HETATM    1  C1  UNL     1     -35.844  14.164  -4.873  1.00 20.00     0.135 C 
HETATM    2  O12 UNL     1     -35.977  12.947  -4.870  1.00 20.00    -0.297 OA
ENDROOT
BRANCH   1   3
HETATM    3  C4  UNL     1     -35.238  14.845  -6.054  1.00 20.00     0.017 A 
HETATM    4  C2  UNL     1     -35.980  16.042  -6.601  1.00 20.00     0.018 A 
HETATM    5  C3  UNL     1     -35.999  14.748  -7.355  1.00 20.00     0.018 A 
HETATM    6  C5  UNL     1     -33.736  14.866  -6.126  1.00 20.00     0.023 C 
ENDBRANCH   1   3
BRANCH   1   7
HETATM    7  C9  UNL     1     -36.257  15.080  -3.738  1.00 20.00     0.080 C 
BRANCH   7   8
HETATM    8  C10 UNL     1     -35.146  15.238  -2.697  1.00 20.00     0.015 C 
BRANCH   8   9
HETATM    9  C11 UNL     1     -34.604  16.679  -2.503  1.00 20.00    -0.051 C 
HETATM   10  C6  UNL     1     -33.104  16.680  -2.861  1.00 20.00     0.014 C 
HETATM   11  C7  UNL     1     -34.758  17.139  -1.044  1.00 20.00     0.014 C 
HETATM   12  C8  UNL     1     -35.326  17.674  -3.427  1.00 20.00     0.014 C 
ENDBRANCH   8   9
ENDBRANCH   7   8
ENDBRANCH   1   7
TORSDOF 4
ENDMDL
MODEL 3
REMARK VINA RESULT:      -4.1      1.399      1.960
REMARK  4 active torsions:
REMARK  status: ('A' for Active; 'I' for Inactive)
REMARK    1  A    between atoms: C1_1  and  C4_4 
REMARK    2  A    between atoms: C1_1  and  C9_9 
REMARK    3  A    between atoms: C9_9  and  C10_10 
REMARK    4  A    between atoms: C10_10  and  C11_11 
ROOT
HETATM    1  C1  UNL     1     -35.573  14.047  -4.590  1.00 20.00     0.135 C 
HETATM    2  O12 UNL     1     -36.027  12.910  -4.601  1.00 20.00    -0.297 OA
ENDROOT
BRANCH   1   3
HETATM    3  C4  UNL     1     -36.022  15.040  -5.609  1.00 20.00     0.017 A 
HETATM    4  C2  UNL     1     -35.673  14.739  -7.048  1.00 20.00     0.018 A 
HETATM    5  C3  UNL     1     -34.939  15.821  -6.316  1.00 20.00     0.018 A 
HETATM    6  C5  UNL     1     -37.325  15.741  -5.342  1.00 20.00     0.023 C 
ENDBRANCH   1   3
BRANCH   1   7
HETATM    7  C9  UNL     1     -34.554  14.560  -3.593  1.00 20.00     0.080 C 
BRANCH   7   8
HETATM    8  C10 UNL     1     -35.178  15.525  -2.581  1.00 20.00     0.015 C 
BRANCH   8   9
HETATM    9  C11 UNL     1     -34.461  16.892  -2.424  1.00 20.00    -0.051 C 
HETATM   10  C6  UNL     1     -33.005  16.728  -2.902  1.00 20.00     0.014 C 
HETATM   11  C7  UNL     1     -34.444  17.344  -0.954  1.00 20.00     0.014 C 
HETATM   12  C8  UNL     1     -35.136  17.977  -3.279  1.00 20.00     0.014 C 
ENDBRANCH   8   9
ENDBRANCH   7   8
ENDBRANCH   1   7
TORSDOF 4
ENDMDL
MODEL 4
REMARK VINA RESULT:      -4.0      1.366      1.620
REMARK  4 active torsions:
REMARK  status: ('A' for Active; 'I' for Inactive)
REMARK    1  A    between atoms: C1_1  and  C4_4 
REMARK    2  A    between atoms: C1_1  and  C9_9 
REMARK    3  A    between atoms: C9_9  and  C10_10 
REMARK    4  A    between atoms: C10_10  and  C11_11 
ROOT
HETATM    1  C1  UNL     1     -34.968  14.633  -4.014  1.00 20.00     0.135 C 
HETATM    2  O12 UNL     1     -34.853  13.415  -4.065  1.00 20.00    -0.297 OA
ENDROOT
BRANCH   1   3
HETATM    3  C4  UNL     1     -35.428  15.389  -5.216  1.00 20.00     0.017 A 
HETATM    4  C2  UNL     1     -35.600  14.597  -6.490  1.00 20.00     0.018 A 
HETATM    5  C3  UNL     1     -34.436  15.529  -6.347  1.00 20.00     0.018 A 
HETATM    6  C5  UNL     1     -36.374  16.532  -4.974  1.00 20.00     0.023 C 
ENDBRANCH   1   3
BRANCH   1   7
HETATM    7  C9  UNL     1     -34.675  15.477  -2.791  1.00 20.00     0.080 C 
BRANCH   7   8
HETATM    8  C10 UNL     1     -33.312  16.168  -2.885  1.00 20.00     0.015 C 
BRANCH   8   9
HETATM    9  C11 UNL     1     -33.305  17.688  -2.570  1.00 20.00    -0.051 C 
HETATM   10  C6  UNL     1     -34.689  18.069  -2.010  1.00 20.00     0.014 C 
HETATM   11  C7  UNL     1     -33.045  18.517  -3.839  1.00 20.00     0.014 C 
HETATM   12  C8  UNL     1     -32.240  18.032  -1.514  1.00 20.00     0.014 C 
ENDBRANCH   8   9
ENDBRANCH   7   8
ENDBRANCH   1   7
TORSDOF 4
ENDMDL
MODEL 5
REMARK VINA RESULT:      -4.0      1.326      1.778
REMARK  4 active torsions:
REMARK  status: ('A' for Active; 'I' for Inactive)
REMARK    1  A    between atoms: C1_1  and  C4_4 
REMARK    2  A    between atoms: C1_1  and  C9_9 
REMARK    3  A    between atoms: C9_9  and  C10_10 
REMARK    4  A    between atoms: C10_10  and  C11_11 
ROOT
HETATM    1  C1  UNL     1     -34.767  14.537  -4.054  1.00 20.00     0.135 C 
HETATM    2  O12 UNL     1     -34.666  13.318  -4.002  1.00 20.00    -0.297 OA
ENDROOT
BRANCH   1   3
HETATM    3  C4  UNL     1     -35.080  15.204  -5.351  1.00 20.00     0.017 A 
HETATM    4  C2  UNL     1     -35.863  16.493  -5.278  1.00 20.00     0.018 A 
HETATM    5  C3  UNL     1     -36.534  15.243  -5.758  1.00 20.00     0.018 A 
HETATM    6  C5  UNL     1     -34.054  15.075  -6.443  1.00 20.00     0.023 C 
ENDBRANCH   1   3
BRANCH   1   7
HETATM    7  C9  UNL     1     -34.598  15.468  -2.870  1.00 20.00     0.080 C 
BRANCH   7   8
HETATM    8  C10 UNL     1     -33.241  16.177  -2.890  1.00 20.00     0.015 C 
BRANCH   8   9
HETATM    9  C11 UNL     1     -33.270  17.695  -2.572  1.00 20.00    -0.051 C 
HETATM   10  C6  UNL     1     -34.673  18.048  -2.039  1.00 20.00     0.014 C 
HETATM   11  C7  UNL     1     -33.002  18.532  -3.834  1.00 20.00     0.014 C 
HETATM   12  C8  UNL     1     -32.234  18.058  -1.494  1.00 20.00     0.014 C 
ENDBRANCH   8   9
ENDBRANCH   7   8
ENDBRANCH   1   7
TORSDOF 4
ENDMDL
MODEL 6
REMARK VINA RESULT:      -4.0      0.987      1.620
REMARK  4 active torsions:
REMARK  status: ('A' for Active; 'I' for Inactive)
REMARK    1  A    between atoms: C1_1  and  C4_4 
REMARK    2  A    between atoms: C1_1  and  C9_9 
REMARK    3  A    between atoms: C9_9  and  C10_10 
REMARK    4  A    between atoms: C10_10  and  C11_11 
ROOT
HETATM    1  C1  UNL     1     -34.039  14.809  -4.660  1.00 20.00     0.135 C 
HETATM    2  O12 UNL     1     -33.291  13.843  -4.568  1.00 20.00    -0.297 OA
ENDROOT
BRANCH   1   3
HETATM    3  C4  UNL     1     -35.420  14.633  -5.197  1.00 20.00     0.017 A 
HETATM    4  C2  UNL     1     -36.552  15.132  -4.332  1.00 20.00     0.018 A 
HETATM    5  C3  UNL     1     -36.312  13.659  -4.464  1.00 20.00     0.018 A 
HETATM    6  C5  UNL     1     -35.585  14.740  -6.688  1.00 20.00     0.023 C 
ENDBRANCH   1   3
BRANCH   1   7
HETATM    7  C9  UNL     1     -33.675  16.224  -4.261  1.00 20.00     0.080 C 
BRANCH   7   8
HETATM    8  C10 UNL     1     -33.306  16.324  -2.778  1.00 20.00     0.015 C 
BRANCH   8   9
HETATM    9  C11 UNL     1     -34.100  17.372  -1.955  1.00 20.00    -0.051 C 
HETATM   10  C6  UNL     1     -35.215  16.635  -1.187  1.00 20.00     0.014 C 
HETATM   11  C7  UNL     1     -34.750  18.421  -2.873  1.00 20.00     0.014 C 
HETATM   12  C8  UNL     1     -33.194  18.083  -0.936  1.00 20.00     0.014 C 
ENDBRANCH   8   9
ENDBRANCH   7   8
ENDBRANCH   1   7
TORSDOF 4
ENDMDL
MODEL 7
REMARK VINA RESULT:      -3.7     16.912     18.230
REMARK  4 active torsions:
REMARK  status: ('A' for Active; 'I' for Inactive)
REMARK    1  A    between atoms: C1_1  and  C4_4 
REMARK    2  A    between atoms: C1_1  and  C9_9 
REMARK    3  A    between atoms: C9_9  and  C10_10 
REMARK    4  A    between atoms: C10_10  and  C11_11 
ROOT
HETATM    1  C1  UNL     1     -23.507  18.195   8.044  1.00 20.00     0.135 C 
HETATM    2  O12 UNL     1     -23.779  18.998   7.161  1.00 20.00    -0.297 OA
ENDROOT
BRANCH   1   3
HETATM    3  C4  UNL     1     -22.101  17.730   8.222  1.00 20.00     0.017 A 
HETATM    4  C2  UNL     1     -21.782  17.015   9.513  1.00 20.00     0.018 A 
HETATM    5  C3  UNL     1     -21.294  18.415   9.301  1.00 20.00     0.018 A 
HETATM    6  C5  UNL     1     -21.372  17.287   6.983  1.00 20.00     0.023 C 
ENDBRANCH   1   3
BRANCH   1   7
HETATM    7  C9  UNL     1     -24.512  17.606   9.014  1.00 20.00     0.080 C 
BRANCH   7   8
HETATM    8  C10 UNL     1     -24.896  18.599  10.113  1.00 20.00     0.015 C 
BRANCH   8   9
HETATM    9  C11 UNL     1     -24.923  18.030  11.556  1.00 20.00    -0.051 C 
HETATM   10  C6  UNL     1     -24.992  16.493  11.465  1.00 20.00     0.014 C 
HETATM   11  C7  UNL     1     -26.156  18.530  12.327  1.00 20.00     0.014 C 
HETATM   12  C8  UNL     1     -23.651  18.416  12.330  1.00 20.00     0.014 C 
ENDBRANCH   8   9
ENDBRANCH   7   8
ENDBRANCH   1   7
TORSDOF 4
ENDMDL
MODEL 8
REMARK VINA RESULT:      -3.7      1.504      2.382
REMARK  4 active torsions:
REMARK  status: ('A' for Active; 'I' for Inactive)
REMARK    1  A    between atoms: C1_1  and  C4_4 
REMARK    2  A    between atoms: C1_1  and  C9_9 
REMARK    3  A    between atoms: C9_9  and  C10_10 
REMARK    4  A    between atoms: C10_10  and  C11_11 
ROOT
HETATM    1  C1  UNL     1     -35.862  16.627  -5.502  1.00 20.00     0.135 C 
HETATM    2  O12 UNL     1     -37.002  17.050  -5.362  1.00 20.00    -0.297 OA
ENDROOT
BRANCH   1   3
HETATM    3  C4  UNL     1     -35.638  15.246  -6.021  1.00 20.00     0.017 A 
HETATM    4  C2  UNL     1     -34.379  15.021  -6.823  1.00 20.00     0.018 A 
HETATM    5  C3  UNL     1     -35.704  15.068  -7.520  1.00 20.00     0.018 A 
HETATM    6  C5  UNL     1     -36.128  14.113  -5.162  1.00 20.00     0.023 C 
ENDBRANCH   1   3
BRANCH   1   7
HETATM    7  C9  UNL     1     -34.605  17.411  -5.183  1.00 20.00     0.080 C 
BRANCH   7   8
HETATM    8  C10 UNL     1     -34.562  17.852  -3.717  1.00 20.00     0.015 C 
BRANCH   8   9
HETATM    9  C11 UNL     1     -33.948  16.830  -2.724  1.00 20.00    -0.051 C 
HETATM   10  C6  UNL     1     -33.114  17.608  -1.688  1.00 20.00     0.014 C 
HETATM   11  C7  UNL     1     -33.025  15.837  -3.450  1.00 20.00     0.014 C 
HETATM   12  C8  UNL     1     -35.045  16.050  -1.980  1.00 20.00     0.014 C 
ENDBRANCH   8   9
ENDBRANCH   7   8
ENDBRANCH   1   7
TORSDOF 4
ENDMDL
MODEL 9
REMARK VINA RESULT:      -3.7      2.387      3.456
REMARK  4 active torsions:
REMARK  status: ('A' for Active; 'I' for Inactive)
REMARK    1  A    between atoms: C1_1  and  C4_4 
REMARK    2  A    between atoms: C1_1  and  C9_9 
REMARK    3  A    between atoms: C9_9  and  C10_10 
REMARK    4  A    between atoms: C10_10  and  C11_11 
ROOT
HETATM    1  C1  UNL     1     -37.612  14.783  -4.704  1.00 20.00     0.135 C 
HETATM    2  O12 UNL     1     -38.384  13.926  -4.295  1.00 20.00    -0.297 OA
ENDROOT
BRANCH   1   3
HETATM    3  C4  UNL     1     -38.013  16.221  -4.679  1.00 20.00     0.017 A 
HETATM    4  C2  UNL     1     -37.645  17.005  -3.442  1.00 20.00     0.018 A 
HETATM    5  C3  UNL     1     -39.072  16.610  -3.674  1.00 20.00     0.018 A 
HETATM    6  C5  UNL     1     -37.999  16.950  -5.995  1.00 20.00     0.023 C 
ENDBRANCH   1   3
BRANCH   1   7
HETATM    7  C9  UNL     1     -36.228  14.506  -5.256  1.00 20.00     0.080 C 
BRANCH   7   8
HETATM    8  C10 UNL     1     -35.212  14.236  -4.143  1.00 20.00     0.015 C 
BRANCH   8   9
HETATM    9  C11 UNL     1     -34.080  15.286  -3.995  1.00 20.00    -0.051 C 
HETATM   10  C6  UNL     1     -34.310  16.392  -5.044  1.00 20.00     0.014 C 
HETATM   11  C7  UNL     1     -32.700  14.654  -4.245  1.00 20.00     0.014 C 
HETATM   12  C8  UNL     1     -34.097  15.929  -2.598  1.00 20.00     0.014 C 
ENDBRANCH   8   9
ENDBRANCH   7   8
ENDBRANCH   1   7
TORSDOF 4
ENDMDL
