MODEL 1
REMARK VINA RESULT:      -4.6      0.000      0.000
REMARK  2 active torsions:
REMARK  status: ('A' for Active; 'I' for Inactive)
REMARK    1  A    between atoms: C7_7  and  C9_9 
REMARK    2  A    between atoms: C9_9  and  O11_11 
ROOT
HETATM    1  C1  UNL     1     -34.039  16.264  -2.310  1.00 20.00     0.010 A 
HETATM    2  C2  UNL     1     -35.624  15.919  -4.373  1.00 20.00     0.012 C 
HETATM    3  C3  UNL     1     -33.727  14.404  -4.133  1.00 20.00     0.012 C 
HETATM    4  C5  UNL     1     -34.514  16.659  -3.681  1.00 20.00    -0.010 A 
HETATM    5  C6  UNL     1     -33.350  15.730  -3.534  1.00 20.00    -0.010 A 
HETATM    6  C7  UNL     1     -34.927  14.722  -5.050  1.00 20.00     0.021 C 
ENDROOT
BRANCH   6   7
HETATM    7  C9  UNL     1     -34.477  15.064  -6.448  1.00 20.00     0.065 A 
HETATM    8  C4  UNL     1     -35.484  15.088  -7.560  1.00 20.00     0.045 A 
HETATM    9  C8  UNL     1     -34.886  16.376  -7.055  1.00 20.00     0.019 A 
HETATM   10  C10 UNL     1     -33.947  17.152  -7.915  1.00 20.00     0.013 C 
BRANCH   7  11
HETATM   11  O11 UNL     1     -33.181  14.545  -6.765  1.00 20.00    -0.389 OA
HETATM   12  H27 UNL     1     -32.544  15.114  -6.310  1.00 20.00     0.210 HD
ENDBRANCH   7  11
ENDBRANCH   6   7
TORSDOF 2
ENDMDL
MODEL 2
REMARK VINA RESULT:      -4.6      1.896      2.244
REMARK  2 active torsions:
REMARK  status: ('A' for Active; 'I' for Inactive)
REMARK    1  A    between atoms: C7_7  and  C9_9 
REMARK    2  A    between atoms: C9_9  and  O11_11 
ROOT
HETATM    1  C1  UNL     1     -32.977  17.366  -2.281  1.00 20.00     0.010 A 
HETATM    2  C2  UNL     1     -35.012  15.715  -2.405  1.00 20.00     0.012 C 
HETATM    3  C3  UNL     1     -33.099  15.267  -3.849  1.00 20.00     0.012 C 
HETATM    4  C5  UNL     1     -34.365  17.027  -2.749  1.00 20.00    -0.010 A 
HETATM    5  C6  UNL     1     -33.190  16.752  -3.636  1.00 20.00    -0.010 A 
HETATM    6  C7  UNL     1     -34.500  14.737  -3.481  1.00 20.00     0.021 C 
ENDROOT
BRANCH   6   7
HETATM    7  C9  UNL     1     -35.412  14.708  -4.681  1.00 20.00     0.065 A 
HETATM    8  C4  UNL     1     -36.766  14.075  -4.561  1.00 20.00     0.045 A 
HETATM    9  C8  UNL     1     -36.642  15.571  -4.694  1.00 20.00     0.019 A 
HETATM   10  C10 UNL     1     -37.093  16.251  -5.942  1.00 20.00     0.013 C 
BRANCH   7  11
HETATM   11  O11 UNL     1     -34.714  14.505  -5.914  1.00 20.00    -0.389 OA
HETATM   12  H27 UNL     1     -33.807  14.809  -5.764  1.00 20.00     0.210 HD
ENDBRANCH   7  11
ENDBRANCH   6   7
TORSDOF 2
ENDMDL
MODEL 3
REMARK VINA RESULT:      -4.4     11.833     13.341
REMARK  2 active torsions:
REMARK  status: ('A' for Active; 'I' for Inactive)
REMARK    1  A    between atoms: C7_7  and  C9_9 
REMARK    2  A    between atoms: C9_9  and  O11_11 
ROOT
HETATM    1  C1  UNL     1     -35.095   4.753   6.383  1.00 20.00     0.010 A 
HETATM    2  C2  UNL     1     -33.823   6.949   5.719  1.00 20.00     0.012 C 
HETATM    3  C3  UNL     1     -35.081   5.795   3.976  1.00 20.00     0.012 C 
HETATM    4  C5  UNL     1     -33.826   5.480   6.035  1.00 20.00    -0.010 A 
HETATM    5  C6  UNL     1     -34.598   4.771   4.965  1.00 20.00    -0.010 A 
HETATM    6  C7  UNL     1     -34.179   7.023   4.221  1.00 20.00     0.021 C 
ENDROOT
BRANCH   6   7
HETATM    7  C9  UNL     1     -32.944   6.982   3.357  1.00 20.00     0.065 A 
HETATM    8  C4  UNL     1     -32.733   5.821   2.430  1.00 20.00     0.045 A 
HETATM    9  C8  UNL     1     -33.074   7.179   1.873  1.00 20.00     0.019 A 
HETATM   10  C10 UNL     1     -32.055   7.951   1.106  1.00 20.00     0.013 C 
BRANCH   7  11
HETATM   11  O11 UNL     1     -31.782   7.504   4.011  1.00 20.00    -0.389 OA
HETATM   12  H27 UNL     1     -31.997   7.540   4.953  1.00 20.00     0.210 HD
ENDBRANCH   7  11
ENDBRANCH   6   7
TORSDOF 2
ENDMDL
MODEL 4
REMARK VINA RESULT:      -4.4     12.293     13.266
REMARK  2 active torsions:
REMARK  status: ('A' for Active; 'I' for Inactive)
REMARK    1  A    between atoms: C7_7  and  C9_9 
REMARK    2  A    between atoms: C9_9  and  O11_11 
ROOT
HETATM    1  C1  UNL     1     -41.205   9.200   0.302  1.00 20.00     0.010 A 
HETATM    2  C2  UNL     1     -41.170   6.622   0.787  1.00 20.00     0.012 C 
HETATM    3  C3  UNL     1     -41.191   7.337  -1.544  1.00 20.00     0.012 C 
HETATM    4  C5  UNL     1     -41.903   7.931   0.703  1.00 20.00    -0.010 A 
HETATM    5  C6  UNL     1     -41.917   8.370  -0.728  1.00 20.00    -0.010 A 
HETATM    6  C7  UNL     1     -41.184   6.077  -0.655  1.00 20.00     0.021 C 
ENDROOT
BRANCH   6   7
HETATM    7  C9  UNL     1     -42.396   5.216  -0.908  1.00 20.00     0.065 A 
HETATM    8  C4  UNL     1     -43.417   5.660  -1.912  1.00 20.00     0.045 A 
HETATM    9  C8  UNL     1     -42.523   4.486  -2.214  1.00 20.00     0.019 A 
HETATM   10  C10 UNL     1     -43.091   3.109  -2.275  1.00 20.00     0.013 C 
BRANCH   7  11
HETATM   11  O11 UNL     1     -42.891   4.579   0.276  1.00 20.00    -0.389 OA
HETATM   12  H27 UNL     1     -42.833   3.627   0.114  1.00 20.00     0.210 HD
ENDBRANCH   7  11
ENDBRANCH   6   7
TORSDOF 2
ENDMDL
MODEL 5
REMARK VINA RESULT:      -4.3      1.607      2.012
REMARK  2 active torsions:
REMARK  status: ('A' for Active; 'I' for Inactive)
REMARK    1  A    between atoms: C7_7  and  C9_9 
REMARK    2  A    between atoms: C9_9  and  O11_11 
ROOT
HETATM    1  C1  UNL     1     -34.998  16.636  -1.125  1.00 20.00     0.010 A 
HETATM    2  C2  UNL     1     -35.126  14.987  -3.162  1.00 20.00     0.012 C 
HETATM    3  C3  UNL     1     -33.199  16.476  -3.028  1.00 20.00     0.012 C 
HETATM    4  C5  UNL     1     -35.554  16.249  -2.468  1.00 20.00    -0.010 A 
HETATM    5  C6  UNL     1     -34.371  17.164  -2.385  1.00 20.00    -0.010 A 
HETATM    6  C7  UNL     1     -33.830  15.373  -3.902  1.00 20.00     0.021 C 
ENDROOT
BRANCH   6   7
HETATM    7  C9  UNL     1     -34.118  15.871  -5.296  1.00 20.00     0.065 A 
HETATM    8  C4  UNL     1     -33.970  14.933  -6.458  1.00 20.00     0.045 A 
HETATM    9  C8  UNL     1     -35.340  15.379  -6.017  1.00 20.00     0.019 A 
HETATM   10  C10 UNL     1     -36.144  16.291  -6.881  1.00 20.00     0.013 C 
BRANCH   7  11
HETATM   11  O11 UNL     1     -33.706  17.226  -5.506  1.00 20.00    -0.389 OA
HETATM   12  H27 UNL     1     -34.364  17.780  -5.063  1.00 20.00     0.210 HD
ENDBRANCH   7  11
ENDBRANCH   6   7
TORSDOF 2
ENDMDL
MODEL 6
REMARK VINA RESULT:      -4.3      1.396      1.594
REMARK  2 active torsions:
REMARK  status: ('A' for Active; 'I' for Inactive)
REMARK    1  A    between atoms: C7_7  and  C9_9 
REMARK    2  A    between atoms: C9_9  and  O11_11 
ROOT
HETATM    1  C1  UNL     1     -34.596  15.932  -2.315  1.00 20.00     0.010 A 
HETATM    2  C2  UNL     1     -35.602  16.880  -4.544  1.00 20.00     0.012 C 
HETATM    3  C3  UNL     1     -36.161  14.586  -3.932  1.00 20.00     0.012 C 
HETATM    4  C5  UNL     1     -34.453  16.307  -3.763  1.00 20.00    -0.010 A 
HETATM    5  C6  UNL     1     -34.796  14.899  -3.388  1.00 20.00    -0.010 A 
HETATM    6  C7  UNL     1     -36.393  15.648  -5.027  1.00 20.00     0.021 C 
ENDROOT
BRANCH   6   7
HETATM    7  C9  UNL     1     -35.905  15.171  -6.372  1.00 20.00     0.065 A 
HETATM    8  C4  UNL     1     -36.320  15.909  -7.610  1.00 20.00     0.045 A 
HETATM    9  C8  UNL     1     -34.896  15.990  -7.124  1.00 20.00     0.019 A 
HETATM   10  C10 UNL     1     -33.802  15.341  -7.902  1.00 20.00     0.013 C 
BRANCH   7  11
HETATM   11  O11 UNL     1     -35.828  13.744  -6.468  1.00 20.00    -0.389 OA
HETATM   12  H27 UNL     1     -36.538  13.475  -7.067  1.00 20.00     0.210 HD
ENDBRANCH   7  11
ENDBRANCH   6   7
TORSDOF 2
ENDMDL
MODEL 7
REMARK VINA RESULT:      -4.3      1.548      2.313
REMARK  2 active torsions:
REMARK  status: ('A' for Active; 'I' for Inactive)
REMARK    1  A    between atoms: C7_7  and  C9_9 
REMARK    2  A    between atoms: C9_9  and  O11_11 
ROOT
HETATM    1  C1  UNL     1     -34.166  18.560  -2.918  1.00 20.00     0.010 A 
HETATM    2  C2  UNL     1     -35.554  16.334  -2.897  1.00 20.00     0.012 C 
HETATM    3  C3  UNL     1     -33.135  16.160  -3.154  1.00 20.00     0.012 C 
HETATM    4  C5  UNL     1     -35.066  17.568  -3.601  1.00 20.00    -0.010 A 
HETATM    5  C6  UNL     1     -33.581  17.462  -3.760  1.00 20.00    -0.010 A 
HETATM    6  C7  UNL     1     -34.419  15.307  -3.083  1.00 20.00     0.021 C 
ENDROOT
BRANCH   6   7
HETATM    7  C9  UNL     1     -34.611  14.493  -4.337  1.00 20.00     0.065 A 
HETATM    8  C4  UNL     1     -35.747  13.517  -4.414  1.00 20.00     0.045 A 
HETATM    9  C8  UNL     1     -35.782  14.781  -5.232  1.00 20.00     0.019 A 
HETATM   10  C10 UNL     1     -35.651  14.716  -6.716  1.00 20.00     0.013 C 
BRANCH   7  11
HETATM   11  O11 UNL     1     -33.377  14.092  -4.942  1.00 20.00    -0.389 OA
HETATM   12  H27 UNL     1     -33.278  14.634  -5.738  1.00 20.00     0.210 HD
ENDBRANCH   7  11
ENDBRANCH   6   7
TORSDOF 2
ENDMDL
MODEL 8
REMARK VINA RESULT:      -4.2      2.755      3.687
REMARK  2 active torsions:
REMARK  status: ('A' for Active; 'I' for Inactive)
REMARK    1  A    between atoms: C7_7  and  C9_9 
REMARK    2  A    between atoms: C9_9  and  O11_11 
ROOT
HETATM    1  C1  UNL     1     -32.421  18.233  -1.756  1.00 20.00     0.010 A 
HETATM    2  C2  UNL     1     -34.703  17.072  -1.187  1.00 20.00     0.012 C 
HETATM    3  C3  UNL     1     -33.370  16.127  -2.997  1.00 20.00     0.012 C 
HETATM    4  C5  UNL     1     -33.921  18.185  -1.827  1.00 20.00    -0.010 A 
HETATM    5  C6  UNL     1     -33.103  17.605  -2.938  1.00 20.00    -0.010 A 
HETATM    6  C7  UNL     1     -34.700  15.943  -2.237  1.00 20.00     0.021 C 
ENDROOT
BRANCH   6   7
HETATM    7  C9  UNL     1     -35.884  16.048  -3.165  1.00 20.00     0.065 A 
HETATM    8  C4  UNL     1     -35.654  16.155  -4.643  1.00 20.00     0.045 A 
HETATM    9  C8  UNL     1     -36.227  14.890  -4.058  1.00 20.00     0.019 A 
HETATM   10  C10 UNL     1     -37.646  14.517  -4.326  1.00 20.00     0.013 C 
BRANCH   7  11
HETATM   11  O11 UNL     1     -36.957  16.827  -2.622  1.00 20.00    -0.389 OA
HETATM   12  H27 UNL     1     -36.555  17.639  -2.283  1.00 20.00     0.210 HD
ENDBRANCH   7  11
ENDBRANCH   6   7
TORSDOF 2
ENDMDL
MODEL 9
REMARK VINA RESULT:      -4.1      1.949      4.182
REMARK  2 active torsions:
REMARK  status: ('A' for Active; 'I' for Inactive)
REMARK    1  A    between atoms: C7_7  and  C9_9 
REMARK    2  A    between atoms: C9_9  and  O11_11 
ROOT
HETATM    1  C1  UNL     1     -35.912  14.188  -5.390  1.00 20.00     0.010 A 
HETATM    2  C2  UNL     1     -33.563  14.837  -4.420  1.00 20.00     0.012 C 
HETATM    3  C3  UNL     1     -35.529  15.369  -3.079  1.00 20.00     0.012 C 
HETATM    4  C5  UNL     1     -34.713  15.093  -5.352  1.00 20.00    -0.010 A 
HETATM    5  C6  UNL     1     -35.920  15.420  -4.530  1.00 20.00    -0.010 A 
HETATM    6  C7  UNL     1     -33.991  15.487  -3.089  1.00 20.00     0.021 C 
ENDROOT
BRANCH   6   7
HETATM    7  C9  UNL     1     -33.547  16.926  -3.010  1.00 20.00     0.065 A 
HETATM    8  C4  UNL     1     -34.468  17.948  -2.413  1.00 20.00     0.045 A 
HETATM    9  C8  UNL     1     -33.226  17.526  -1.670  1.00 20.00     0.019 A 
HETATM   10  C10 UNL     1     -32.093  18.480  -1.505  1.00 20.00     0.013 C 
BRANCH   7  11
HETATM   11  O11 UNL     1     -32.772  17.339  -4.141  1.00 20.00    -0.389 OA
HETATM   12  H27 UNL     1     -32.280  16.559  -4.430  1.00 20.00     0.210 HD
ENDBRANCH   7  11
ENDBRANCH   6   7
TORSDOF 2
ENDMDL
