MODEL 1
REMARK VINA RESULT:      -4.2      0.000      0.000
REMARK  4 active torsions:
REMARK  status: ('A' for Active; 'I' for Inactive)
REMARK    1  A    between atoms: C5_5  and  C6_6 
REMARK    2  A    between atoms: C5_5  and  C8_8 
REMARK    3  A    between atoms: C6_6  and  C7_7 
REMARK    4  A    between atoms: C6_6  and  N9_9 
ROOT
HETATM    1  C6  UNL     1     -36.404  15.195  -4.145  1.00 20.00     0.285 C 
ENDROOT
BRANCH   1   2
HETATM    2  C5  UNL     1     -35.211  15.277  -3.165  1.00 20.00     0.049 C 
BRANCH   2   3
HETATM    3  C8  UNL     1     -33.880  15.903  -3.678  1.00 20.00    -0.049 C 
HETATM    4  C1  UNL     1     -32.935  14.823  -4.230  1.00 20.00     0.014 C 
HETATM    5  C2  UNL     1     -34.231  16.872  -4.828  1.00 20.00     0.014 C 
HETATM    6  C3  UNL     1     -33.148  16.706  -2.590  1.00 20.00     0.014 C 
ENDBRANCH   2   3
ENDBRANCH   1   2
BRANCH   1   7
HETATM    7  C7  UNL     1     -36.457  13.821  -4.814  1.00 20.00     0.386 C 
HETATM    8  F10 UNL     1     -35.939  13.882  -6.066  1.00 20.00    -0.212 F 
HETATM    9  F11 UNL     1     -35.692  12.942  -4.118  1.00 20.00    -0.212 F 
ENDBRANCH   1   7
BRANCH   1  10
HETATM   10  N9  UNL     1     -37.676  15.431  -3.468  1.00 20.00     0.089 N 
HETATM   11  C4  UNL     1     -38.777  14.851  -4.222  1.00 20.00     0.307 C 
HETATM   12  H28 UNL     1     -37.821  16.434  -3.375  1.00 20.00     0.316 HD
ENDBRANCH   1  10
TORSDOF 4
ENDMDL
MODEL 2
REMARK VINA RESULT:      -4.1      0.085      1.300
REMARK  4 active torsions:
REMARK  status: ('A' for Active; 'I' for Inactive)
REMARK    1  A    between atoms: C5_5  and  C6_6 
REMARK    2  A    between atoms: C5_5  and  C8_8 
REMARK    3  A    between atoms: C6_6  and  C7_7 
REMARK    4  A    between atoms: C6_6  and  N9_9 
ROOT
HETATM    1  C6  UNL     1     -36.431  15.204  -4.145  1.00 20.00     0.285 C 
ENDROOT
BRANCH   1   2
HETATM    2  C5  UNL     1     -35.244  15.293  -3.160  1.00 20.00     0.049 C 
BRANCH   2   3
HETATM    3  C8  UNL     1     -33.942  16.003  -3.639  1.00 20.00    -0.049 C 
HETATM    4  C1  UNL     1     -33.244  16.726  -2.476  1.00 20.00     0.014 C 
HETATM    5  C2  UNL     1     -32.986  14.915  -4.175  1.00 20.00     0.014 C 
HETATM    6  C3  UNL     1     -34.200  17.006  -4.775  1.00 20.00     0.014 C 
ENDBRANCH   2   3
ENDBRANCH   1   2
BRANCH   1   7
HETATM    7  C7  UNL     1     -36.468  13.833  -4.821  1.00 20.00     0.386 C 
HETATM    8  F10 UNL     1     -35.944  13.904  -6.070  1.00 20.00    -0.212 F 
HETATM    9  F11 UNL     1     -35.699  12.958  -4.125  1.00 20.00    -0.212 F 
ENDBRANCH   1   7
BRANCH   1  10
HETATM   10  N9  UNL     1     -37.709  15.424  -3.472  1.00 20.00     0.089 N 
HETATM   11  C4  UNL     1     -38.801  14.841  -4.236  1.00 20.00     0.307 C 
HETATM   12  H28 UNL     1     -37.863  16.425  -3.373  1.00 20.00     0.316 HD
ENDBRANCH   1  10
TORSDOF 4
ENDMDL
MODEL 3
REMARK VINA RESULT:      -3.8      1.920      2.733
REMARK  4 active torsions:
REMARK  status: ('A' for Active; 'I' for Inactive)
REMARK    1  A    between atoms: C5_5  and  C6_6 
REMARK    2  A    between atoms: C5_5  and  C8_8 
REMARK    3  A    between atoms: C6_6  and  C7_7 
REMARK    4  A    between atoms: C6_6  and  N9_9 
ROOT
HETATM    1  C6  UNL     1     -35.161  14.596  -5.479  1.00 20.00     0.285 C 
ENDROOT
BRANCH   1   2
HETATM    2  C5  UNL     1     -35.131  15.988  -4.810  1.00 20.00     0.049 C 
BRANCH   2   3
HETATM    3  C8  UNL     1     -34.086  16.240  -3.682  1.00 20.00    -0.049 C 
HETATM    4  C1  UNL     1     -34.703  16.009  -2.292  1.00 20.00     0.014 C 
HETATM    5  C2  UNL     1     -32.936  15.228  -3.875  1.00 20.00     0.014 C 
HETATM    6  C3  UNL     1     -33.486  17.654  -3.738  1.00 20.00     0.014 C 
ENDBRANCH   2   3
ENDBRANCH   1   2
BRANCH   1   7
HETATM    7  C7  UNL     1     -36.281  13.739  -4.888  1.00 20.00     0.386 C 
HETATM    8  F10 UNL     1     -35.765  12.748  -4.119  1.00 20.00    -0.212 F 
HETATM    9  F11 UNL     1     -37.060  14.497  -4.077  1.00 20.00    -0.212 F 
ENDBRANCH   1   7
BRANCH   1  10
HETATM   10  N9  UNL     1     -35.365  14.695  -6.923  1.00 20.00     0.089 N 
HETATM   11  C4  UNL     1     -34.241  15.367  -7.558  1.00 20.00     0.307 C 
HETATM   12  H28 UNL     1     -36.217  15.221  -7.101  1.00 20.00     0.316 HD
ENDBRANCH   1  10
TORSDOF 4
ENDMDL
MODEL 4
REMARK VINA RESULT:      -3.7      1.762      2.247
REMARK  4 active torsions:
REMARK  status: ('A' for Active; 'I' for Inactive)
REMARK    1  A    between atoms: C5_5  and  C6_6 
REMARK    2  A    between atoms: C5_5  and  C8_8 
REMARK    3  A    between atoms: C6_6  and  C7_7 
REMARK    4  A    between atoms: C6_6  and  N9_9 
ROOT
HETATM    1  C6  UNL     1     -35.394  15.507  -3.558  1.00 20.00     0.285 C 
ENDROOT
BRANCH   1   2
HETATM    2  C5  UNL     1     -34.885  15.847  -2.139  1.00 20.00     0.049 C 
BRANCH   2   3
HETATM    3  C8  UNL     1     -34.367  17.292  -1.869  1.00 20.00    -0.049 C 
HETATM    4  C1  UNL     1     -32.870  17.416  -2.197  1.00 20.00     0.014 C 
HETATM    5  C2  UNL     1     -35.146  18.248  -2.797  1.00 20.00     0.014 C 
HETATM    6  C3  UNL     1     -34.605  17.742  -0.419  1.00 20.00     0.014 C 
ENDBRANCH   2   3
ENDBRANCH   1   2
BRANCH   1   7
HETATM    7  C7  UNL     1     -34.510  14.441  -4.206  1.00 20.00     0.386 C 
HETATM    8  F10 UNL     1     -33.208  14.643  -3.884  1.00 20.00    -0.212 F 
HETATM    9  F11 UNL     1     -34.844  13.216  -3.727  1.00 20.00    -0.212 F 
ENDBRANCH   1   7
BRANCH   1  10
HETATM   10  N9  UNL     1     -36.770  15.018  -3.535  1.00 20.00     0.089 N 
HETATM   11  C4  UNL     1     -37.532  15.570  -4.645  1.00 20.00     0.307 C 
HETATM   12  H28 UNL     1     -37.205  15.293  -2.657  1.00 20.00     0.316 HD
ENDBRANCH   1  10
TORSDOF 4
ENDMDL
MODEL 5
REMARK VINA RESULT:      -3.7      1.773      2.572
REMARK  4 active torsions:
REMARK  status: ('A' for Active; 'I' for Inactive)
REMARK    1  A    between atoms: C5_5  and  C6_6 
REMARK    2  A    between atoms: C5_5  and  C8_8 
REMARK    3  A    between atoms: C6_6  and  C7_7 
REMARK    4  A    between atoms: C6_6  and  N9_9 
ROOT
HETATM    1  C6  UNL     1     -35.353  15.535  -3.534  1.00 20.00     0.285 C 
ENDROOT
BRANCH   1   2
HETATM    2  C5  UNL     1     -34.809  15.886  -2.131  1.00 20.00     0.049 C 
BRANCH   2   3
HETATM    3  C8  UNL     1     -34.366  17.355  -1.859  1.00 20.00    -0.049 C 
HETATM    4  C1  UNL     1     -34.587  17.738  -0.386  1.00 20.00     0.014 C 
HETATM    5  C2  UNL     1     -32.855  17.450  -2.162  1.00 20.00     0.014 C 
HETATM    6  C3  UNL     1     -35.093  18.367  -2.758  1.00 20.00     0.014 C 
ENDBRANCH   2   3
ENDBRANCH   1   2
BRANCH   1   7
HETATM    7  C7  UNL     1     -34.485  14.463  -4.195  1.00 20.00     0.386 C 
HETATM    8  F10 UNL     1     -33.179  14.649  -3.882  1.00 20.00    -0.212 F 
HETATM    9  F11 UNL     1     -34.829  13.239  -3.721  1.00 20.00    -0.212 F 
ENDBRANCH   1   7
BRANCH   1  10
HETATM   10  N9  UNL     1     -36.728  15.047  -3.474  1.00 20.00     0.089 N 
HETATM   11  C4  UNL     1     -37.404  15.252  -4.746  1.00 20.00     0.307 C 
HETATM   12  H28 UNL     1     -37.226  15.549  -2.742  1.00 20.00     0.316 HD
ENDBRANCH   1  10
TORSDOF 4
ENDMDL
MODEL 6
REMARK VINA RESULT:      -3.7      1.937      2.407
REMARK  4 active torsions:
REMARK  status: ('A' for Active; 'I' for Inactive)
REMARK    1  A    between atoms: C5_5  and  C6_6 
REMARK    2  A    between atoms: C5_5  and  C8_8 
REMARK    3  A    between atoms: C6_6  and  C7_7 
REMARK    4  A    between atoms: C6_6  and  N9_9 
ROOT
HETATM    1  C6  UNL     1     -35.348  15.102  -4.677  1.00 20.00     0.285 C 
ENDROOT
BRANCH   1   2
HETATM    2  C5  UNL     1     -34.764  15.190  -3.250  1.00 20.00     0.049 C 
BRANCH   2   3
HETATM    3  C8  UNL     1     -34.512  16.603  -2.643  1.00 20.00    -0.049 C 
HETATM    4  C1  UNL     1     -35.186  17.697  -3.486  1.00 20.00     0.014 C 
HETATM    5  C2  UNL     1     -35.139  16.624  -1.232  1.00 20.00     0.014 C 
HETATM    6  C3  UNL     1     -33.016  16.925  -2.499  1.00 20.00     0.014 C 
ENDBRANCH   2   3
ENDBRANCH   1   2
BRANCH   1   7
HETATM    7  C7  UNL     1     -34.238  14.855  -5.699  1.00 20.00     0.386 C 
HETATM    8  F10 UNL     1     -34.029  15.963  -6.452  1.00 20.00    -0.212 F 
HETATM    9  F11 UNL     1     -33.072  14.596  -5.055  1.00 20.00    -0.212 F 
ENDBRANCH   1   7
BRANCH   1  10
HETATM   10  N9  UNL     1     -36.333  14.030  -4.793  1.00 20.00     0.089 N 
HETATM   11  C4  UNL     1     -37.632  14.467  -4.307  1.00 20.00     0.307 C 
HETATM   12  H28 UNL     1     -36.019  13.231  -4.247  1.00 20.00     0.316 HD
ENDBRANCH   1  10
TORSDOF 4
ENDMDL
MODEL 7
REMARK VINA RESULT:      -3.6      2.409      3.367
REMARK  4 active torsions:
REMARK  status: ('A' for Active; 'I' for Inactive)
REMARK    1  A    between atoms: C5_5  and  C6_6 
REMARK    2  A    between atoms: C5_5  and  C8_8 
REMARK    3  A    between atoms: C6_6  and  C7_7 
REMARK    4  A    between atoms: C6_6  and  N9_9 
ROOT
HETATM    1  C6  UNL     1     -34.326  15.721  -6.503  1.00 20.00     0.285 C 
ENDROOT
BRANCH   1   2
HETATM    2  C5  UNL     1     -34.381  16.462  -5.148  1.00 20.00     0.049 C 
BRANCH   2   3
HETATM    3  C8  UNL     1     -33.921  15.697  -3.871  1.00 20.00    -0.049 C 
HETATM    4  C1  UNL     1     -35.124  15.120  -3.106  1.00 20.00     0.014 C 
HETATM    5  C2  UNL     1     -33.029  14.521  -4.327  1.00 20.00     0.014 C 
HETATM    6  C3  UNL     1     -33.094  16.577  -2.921  1.00 20.00     0.014 C 
ENDBRANCH   2   3
ENDBRANCH   1   2
BRANCH   1   7
HETATM    7  C7  UNL     1     -35.710  15.196  -6.886  1.00 20.00     0.386 C 
HETATM    8  F10 UNL     1     -35.876  13.925  -6.443  1.00 20.00    -0.212 F 
HETATM    9  F11 UNL     1     -36.668  15.946  -6.284  1.00 20.00    -0.212 F 
ENDBRANCH   1   7
BRANCH   1  10
HETATM   10  N9  UNL     1     -33.846  16.590  -7.575  1.00 20.00     0.089 N 
HETATM   11  C4  UNL     1     -34.158  17.982  -7.288  1.00 20.00     0.307 C 
HETATM   12  H28 UNL     1     -34.293  16.317  -8.447  1.00 20.00     0.316 HD
ENDBRANCH   1  10
TORSDOF 4
ENDMDL
MODEL 8
REMARK VINA RESULT:      -3.6      2.553      3.978
REMARK  4 active torsions:
REMARK  status: ('A' for Active; 'I' for Inactive)
REMARK    1  A    between atoms: C5_5  and  C6_6 
REMARK    2  A    between atoms: C5_5  and  C8_8 
REMARK    3  A    between atoms: C6_6  and  C7_7 
REMARK    4  A    between atoms: C6_6  and  N9_9 
ROOT
HETATM    1  C6  UNL     1     -34.196  15.189  -5.418  1.00 20.00     0.285 C 
ENDROOT
BRANCH   1   2
HETATM    2  C5  UNL     1     -35.656  14.772  -5.705  1.00 20.00     0.049 C 
BRANCH   2   3
HETATM    3  C8  UNL     1     -36.800  15.676  -5.155  1.00 20.00    -0.049 C 
HETATM    4  C1  UNL     1     -37.609  16.307  -6.301  1.00 20.00     0.014 C 
HETATM    5  C2  UNL     1     -37.749  14.778  -4.331  1.00 20.00     0.014 C 
HETATM    6  C3  UNL     1     -36.282  16.789  -4.231  1.00 20.00     0.014 C 
ENDBRANCH   2   3
ENDBRANCH   1   2
BRANCH   1   7
HETATM    7  C7  UNL     1     -33.653  14.443  -4.198  1.00 20.00     0.386 C 
HETATM    8  F10 UNL     1     -33.470  15.297  -3.161  1.00 20.00    -0.212 F 
HETATM    9  F11 UNL     1     -34.557  13.518  -3.787  1.00 20.00    -0.212 F 
ENDBRANCH   1   7
BRANCH   1  10
HETATM   10  N9  UNL     1     -33.322  14.915  -6.556  1.00 20.00     0.089 N 
HETATM   11  C4  UNL     1     -33.946  15.340  -7.800  1.00 20.00     0.307 C 
HETATM   12  H28 UNL     1     -33.135  13.916  -6.596  1.00 20.00     0.316 HD
ENDBRANCH   1  10
TORSDOF 4
ENDMDL
MODEL 9
REMARK VINA RESULT:      -3.6      2.333      3.220
REMARK  4 active torsions:
REMARK  status: ('A' for Active; 'I' for Inactive)
REMARK    1  A    between atoms: C5_5  and  C6_6 
REMARK    2  A    between atoms: C5_5  and  C8_8 
REMARK    3  A    between atoms: C6_6  and  C7_7 
REMARK    4  A    between atoms: C6_6  and  N9_9 
ROOT
HETATM    1  C6  UNL     1     -33.656  15.404  -4.271  1.00 20.00     0.285 C 
ENDROOT
BRANCH   1   2
HETATM    2  C5  UNL     1     -34.027  16.883  -4.523  1.00 20.00     0.049 C 
BRANCH   2   3
HETATM    3  C8  UNL     1     -33.674  17.928  -3.422  1.00 20.00    -0.049 C 
HETATM    4  C1  UNL     1     -32.850  17.287  -2.293  1.00 20.00     0.014 C 
HETATM    5  C2  UNL     1     -32.816  19.030  -4.082  1.00 20.00     0.014 C 
HETATM    6  C3  UNL     1     -34.920  18.597  -2.821  1.00 20.00     0.014 C 
ENDBRANCH   2   3
ENDBRANCH   1   2
BRANCH   1   7
HETATM    7  C7  UNL     1     -34.877  14.617  -3.794  1.00 20.00     0.386 C 
HETATM    8  F10 UNL     1     -34.587  13.295  -3.711  1.00 20.00    -0.212 F 
HETATM    9  F11 UNL     1     -35.223  15.020  -2.545  1.00 20.00    -0.212 F 
ENDBRANCH   1   7
BRANCH   1  10
HETATM   10  N9  UNL     1     -33.135  14.766  -5.477  1.00 20.00     0.089 N 
HETATM   11  C4  UNL     1     -34.001  15.028  -6.616  1.00 20.00     0.307 C 
HETATM   12  H28 UNL     1     -33.076  13.762  -5.321  1.00 20.00     0.316 HD
ENDBRANCH   1  10
TORSDOF 4
ENDMDL
