MODEL 1
REMARK VINA RESULT:      -4.7      0.000      0.000
REMARK  1 active torsions:
REMARK  status: ('A' for Active; 'I' for Inactive)
REMARK    1  A    between atoms: C5_5  and  C6_6 
ROOT
HETATM    1  C3  UNL     1     -24.878  15.760  12.151  1.00 20.00     0.282 C 
HETATM    2  C4  UNL     1     -25.966  16.820  12.126  1.00 20.00     0.106 C 
HETATM    3  C6  UNL     1     -23.606  17.495  11.143  1.00 20.00     0.208 C 
HETATM    4  C8  UNL     1     -22.398  17.718  12.057  1.00 20.00     0.062 C 
HETATM    5  N9  UNL     1     -23.927  16.056  11.069  1.00 20.00     0.104 N 
HETATM    6  S10 UNL     1     -25.064  18.356  11.838  1.00 20.00    -0.126 SA
HETATM    7  H25 UNL     1     -23.081  15.520  11.244  1.00 20.00     0.318 HD
ENDROOT
BRANCH   3   8
HETATM    8  C5  UNL     1     -23.317  18.038   9.741  1.00 20.00     0.001 A 
HETATM    9  C1  UNL     1     -21.884  18.360   9.388  1.00 20.00     0.013 A 
HETATM   10  C2  UNL     1     -22.550  17.156   8.784  1.00 20.00     0.013 A 
HETATM   11  C7  UNL     1     -24.397  18.919   9.176  1.00 20.00     0.019 C 
ENDBRANCH   3   8
TORSDOF 1
ENDMDL
MODEL 2
REMARK VINA RESULT:      -4.2     17.979     19.173
REMARK  1 active torsions:
REMARK  status: ('A' for Active; 'I' for Inactive)
REMARK    1  A    between atoms: C5_5  and  C6_6 
ROOT
HETATM    1  C3  UNL     1     -34.249  15.298  -7.218  1.00 20.00     0.282 C 
HETATM    2  C4  UNL     1     -35.693  14.892  -6.976  1.00 20.00     0.106 C 
HETATM    3  C6  UNL     1     -34.208  15.387  -4.844  1.00 20.00     0.208 C 
HETATM    4  C8  UNL     1     -33.102  14.424  -4.405  1.00 20.00     0.062 C 
HETATM    5  N9  UNL     1     -33.801  16.101  -6.070  1.00 20.00     0.104 N 
HETATM    6  S10 UNL     1     -35.725  14.438  -5.230  1.00 20.00    -0.126 SA
HETATM    7  H25 UNL     1     -32.786  16.149  -6.103  1.00 20.00     0.318 HD
ENDROOT
BRANCH   3   8
HETATM    8  C5  UNL     1     -34.509  16.393  -3.730  1.00 20.00     0.001 A 
HETATM    9  C1  UNL     1     -34.844  15.852  -2.360  1.00 20.00     0.013 A 
HETATM   10  C2  UNL     1     -33.516  16.514  -2.598  1.00 20.00     0.013 A 
HETATM   11  C7  UNL     1     -35.213  17.641  -4.187  1.00 20.00     0.019 C 
ENDBRANCH   3   8
TORSDOF 1
ENDMDL
MODEL 3
REMARK VINA RESULT:      -4.2     17.491     18.687
REMARK  1 active torsions:
REMARK  status: ('A' for Active; 'I' for Inactive)
REMARK    1  A    between atoms: C5_5  and  C6_6 
ROOT
HETATM    1  C3  UNL     1     -34.634  15.168  -6.600  1.00 20.00     0.282 C 
HETATM    2  C4  UNL     1     -35.865  14.533  -5.977  1.00 20.00     0.106 C 
HETATM    3  C6  UNL     1     -33.959  15.331  -4.328  1.00 20.00     0.208 C 
HETATM    4  C8  UNL     1     -32.628  14.580  -4.229  1.00 20.00     0.062 C 
HETATM    5  N9  UNL     1     -34.031  16.067  -5.605  1.00 20.00     0.104 N 
HETATM    6  S10 UNL     1     -35.339  14.130  -4.298  1.00 20.00    -0.126 SA
HETATM    7  H25 UNL     1     -33.088  16.285  -5.915  1.00 20.00     0.318 HD
ENDROOT
BRANCH   3   8
HETATM    8  C5  UNL     1     -34.108  16.304  -3.155  1.00 20.00     0.001 A 
HETATM    9  C1  UNL     1     -35.385  17.105  -3.059  1.00 20.00     0.013 A 
HETATM   10  C2  UNL     1     -35.134  15.981  -2.094  1.00 20.00     0.013 A 
HETATM   11  C7  UNL     1     -32.828  16.963  -2.722  1.00 20.00     0.019 C 
ENDBRANCH   3   8
TORSDOF 1
ENDMDL
MODEL 4
REMARK VINA RESULT:      -4.0     17.760     18.975
REMARK  1 active torsions:
REMARK  status: ('A' for Active; 'I' for Inactive)
REMARK    1  A    between atoms: C5_5  and  C6_6 
ROOT
HETATM    1  C3  UNL     1     -34.053  15.090  -6.807  1.00 20.00     0.282 C 
HETATM    2  C4  UNL     1     -35.048  16.218  -7.015  1.00 20.00     0.106 C 
HETATM    3  C6  UNL     1     -34.705  15.357  -4.538  1.00 20.00     0.208 C 
HETATM    4  C8  UNL     1     -35.240  13.994  -4.090  1.00 20.00     0.062 C 
HETATM    5  N9  UNL     1     -33.544  15.176  -5.430  1.00 20.00     0.104 N 
HETATM    6  S10 UNL     1     -36.001  16.239  -5.482  1.00 20.00    -0.126 SA
HETATM    7  H25 UNL     1     -33.092  14.293  -5.210  1.00 20.00     0.318 HD
ENDROOT
BRANCH   3   8
HETATM    8  C5  UNL     1     -34.304  16.196  -3.322  1.00 20.00     0.001 A 
HETATM    9  C1  UNL     1     -32.836  16.489  -3.117  1.00 20.00     0.013 A 
HETATM   10  C2  UNL     1     -33.761  17.584  -3.567  1.00 20.00     0.013 A 
HETATM   11  C7  UNL     1     -35.156  15.977  -2.103  1.00 20.00     0.019 C 
ENDBRANCH   3   8
TORSDOF 1
ENDMDL
MODEL 5
REMARK VINA RESULT:      -4.0     18.243     19.380
REMARK  1 active torsions:
REMARK  status: ('A' for Active; 'I' for Inactive)
REMARK    1  A    between atoms: C5_5  and  C6_6 
ROOT
HETATM    1  C3  UNL     1     -37.306  16.123  -5.340  1.00 20.00     0.282 C 
HETATM    2  C4  UNL     1     -37.657  14.932  -4.466  1.00 20.00     0.106 C 
HETATM    3  C6  UNL     1     -35.106  15.264  -5.078  1.00 20.00     0.208 C 
HETATM    4  C8  UNL     1     -34.587  14.994  -6.493  1.00 20.00     0.062 C 
HETATM    5  N9  UNL     1     -35.912  16.500  -5.061  1.00 20.00     0.104 N 
HETATM    6  S10 UNL     1     -36.190  13.885  -4.554  1.00 20.00    -0.126 SA
HETATM    7  H25 UNL     1     -35.598  17.109  -5.812  1.00 20.00     0.318 HD
ENDROOT
BRANCH   3   8
HETATM    8  C5  UNL     1     -33.936  15.389  -4.099  1.00 20.00     0.001 A 
HETATM    9  C1  UNL     1     -33.590  16.766  -3.582  1.00 20.00     0.013 A 
HETATM   10  C2  UNL     1     -34.247  15.769  -2.670  1.00 20.00     0.013 A 
HETATM   11  C7  UNL     1     -32.810  14.423  -4.343  1.00 20.00     0.019 C 
ENDBRANCH   3   8
TORSDOF 1
ENDMDL
MODEL 6
REMARK VINA RESULT:      -4.0     17.798     19.086
REMARK  1 active torsions:
REMARK  status: ('A' for Active; 'I' for Inactive)
REMARK    1  A    between atoms: C5_5  and  C6_6 
ROOT
HETATM    1  C3  UNL     1     -34.663  18.470  -6.074  1.00 20.00     0.282 C 
HETATM    2  C4  UNL     1     -35.927  18.437  -5.232  1.00 20.00     0.106 C 
HETATM    3  C6  UNL     1     -34.420  16.264  -5.225  1.00 20.00     0.208 C 
HETATM    4  C8  UNL     1     -34.342  15.347  -6.449  1.00 20.00     0.062 C 
HETATM    5  N9  UNL     1     -33.700  17.525  -5.490  1.00 20.00     0.104 N 
HETATM    6  S10 UNL     1     -36.170  16.682  -4.888  1.00 20.00    -0.126 SA
HETATM    7  H25 UNL     1     -32.975  17.352  -6.181  1.00 20.00     0.318 HD
ENDROOT
BRANCH   3   8
HETATM    8  C5  UNL     1     -33.821  15.567  -4.001  1.00 20.00     0.001 A 
HETATM    9  C1  UNL     1     -33.469  16.419  -2.803  1.00 20.00     0.013 A 
HETATM   10  C2  UNL     1     -34.657  15.501  -2.744  1.00 20.00     0.013 A 
HETATM   11  C7  UNL     1     -32.932  14.398  -4.319  1.00 20.00     0.019 C 
ENDBRANCH   3   8
TORSDOF 1
ENDMDL
MODEL 7
REMARK VINA RESULT:      -3.9     17.558     18.735
REMARK  1 active torsions:
REMARK  status: ('A' for Active; 'I' for Inactive)
REMARK    1  A    between atoms: C5_5  and  C6_6 
ROOT
HETATM    1  C3  UNL     1     -37.357  14.611  -4.288  1.00 20.00     0.282 C 
HETATM    2  C4  UNL     1     -36.230  13.641  -4.598  1.00 20.00     0.106 C 
HETATM    3  C6  UNL     1     -35.547  16.112  -3.950  1.00 20.00     0.208 C 
HETATM    4  C8  UNL     1     -35.782  17.280  -4.913  1.00 20.00     0.062 C 
HETATM    5  N9  UNL     1     -36.832  15.651  -3.390  1.00 20.00     0.104 N 
HETATM    6  S10 UNL     1     -34.802  14.711  -4.862  1.00 20.00    -0.126 SA
HETATM    7  H25 UNL     1     -37.491  16.425  -3.393  1.00 20.00     0.318 HD
ENDROOT
BRANCH   3   8
HETATM    8  C5  UNL     1     -34.608  16.538  -2.819  1.00 20.00     0.001 A 
HETATM    9  C1  UNL     1     -34.948  17.794  -2.052  1.00 20.00     0.013 A 
HETATM   10  C2  UNL     1     -35.122  16.451  -1.401  1.00 20.00     0.013 A 
HETATM   11  C7  UNL     1     -33.156  16.232  -3.062  1.00 20.00     0.019 C 
ENDBRANCH   3   8
TORSDOF 1
ENDMDL
MODEL 8
REMARK VINA RESULT:      -3.8     17.114     18.235
REMARK  1 active torsions:
REMARK  status: ('A' for Active; 'I' for Inactive)
REMARK    1  A    between atoms: C5_5  and  C6_6 
ROOT
HETATM    1  C3  UNL     1     -35.920  17.153  -1.579  1.00 20.00     0.282 C 
HETATM    2  C4  UNL     1     -36.566  17.784  -2.800  1.00 20.00     0.106 C 
HETATM    3  C6  UNL     1     -34.470  16.227  -3.217  1.00 20.00     0.208 C 
HETATM    4  C8  UNL     1     -33.057  16.676  -2.833  1.00 20.00     0.062 C 
HETATM    5  N9  UNL     1     -35.250  15.915  -2.004  1.00 20.00     0.104 N 
HETATM    6  S10 UNL     1     -35.323  17.588  -4.094  1.00 20.00    -0.126 SA
HETATM    7  H25 UNL     1     -34.612  15.636  -1.264  1.00 20.00     0.318 HD
ENDROOT
BRANCH   3   8
HETATM    8  C5  UNL     1     -34.406  14.998  -4.128  1.00 20.00     0.001 A 
HETATM    9  C1  UNL     1     -35.536  13.998  -4.047  1.00 20.00     0.013 A 
HETATM   10  C2  UNL     1     -35.416  14.894  -5.247  1.00 20.00     0.013 A 
HETATM   11  C7  UNL     1     -33.019  14.476  -4.379  1.00 20.00     0.019 C 
ENDBRANCH   3   8
TORSDOF 1
ENDMDL
MODEL 9
REMARK VINA RESULT:      -3.8     16.924     18.157
REMARK  1 active torsions:
REMARK  status: ('A' for Active; 'I' for Inactive)
REMARK    1  A    between atoms: C5_5  and  C6_6 
ROOT
HETATM    1  C3  UNL     1     -32.853  18.417  -3.251  1.00 20.00     0.282 C 
HETATM    2  C4  UNL     1     -32.931  17.568  -1.993  1.00 20.00     0.106 C 
HETATM    3  C6  UNL     1     -34.275  16.716  -4.105  1.00 20.00     0.208 C 
HETATM    4  C8  UNL     1     -35.546  17.428  -4.579  1.00 20.00     0.062 C 
HETATM    5  N9  UNL     1     -33.090  17.541  -4.409  1.00 20.00     0.104 N 
HETATM    6  S10 UNL     1     -34.345  16.487  -2.291  1.00 20.00    -0.126 SA
HETATM    7  H25 UNL     1     -33.296  18.134  -5.209  1.00 20.00     0.318 HD
ENDROOT
BRANCH   3   8
HETATM    8  C5  UNL     1     -34.148  15.350  -4.784  1.00 20.00     0.001 A 
HETATM    9  C1  UNL     1     -32.995  14.463  -4.378  1.00 20.00     0.013 A 
HETATM   10  C2  UNL     1     -34.391  14.117  -3.945  1.00 20.00     0.013 A 
HETATM   11  C7  UNL     1     -34.586  15.322  -6.222  1.00 20.00     0.019 C 
ENDBRANCH   3   8
TORSDOF 1
ENDMDL
