MODEL 1
REMARK VINA RESULT:      -4.4      0.000      0.000
REMARK  1 active torsions:
REMARK  status: ('A' for Active; 'I' for Inactive)
REMARK    1  A    between atoms: C4_4  and  C7_7 
ROOT
HETATM    1  C1  UNL     1     -23.141  18.134   8.218  1.00 20.00     0.040 C 
HETATM    2  C2  UNL     1     -22.346  17.050   8.943  1.00 20.00     0.272 C 
HETATM    3  C3  UNL     1     -23.765  19.156   9.159  1.00 20.00     0.078 C 
HETATM    4  C4  UNL     1     -23.770  17.031  10.962  1.00 20.00     0.201 C 
HETATM    5  C5  UNL     1     -22.715  17.614  11.915  1.00 20.00     0.061 C 
HETATM    6  N8  UNL     1     -23.166  16.263   9.862  1.00 20.00     0.102 N 
HETATM    7  S9  UNL     1     -24.879  18.366  10.354  1.00 20.00    -0.128 SA
HETATM    8  H24 UNL     1     -23.902  15.798   9.331  1.00 20.00     0.317 HD
ENDROOT
BRANCH   4   9
HETATM    9  C7  UNL     1     -24.654  16.054  11.757  1.00 20.00     0.048 C 
HETATM   10  C6  UNL     1     -25.843  16.744  12.332  1.00 20.00     0.009 C 
ENDBRANCH   4   9
TORSDOF 1
ENDMDL
MODEL 2
REMARK VINA RESULT:      -4.1      1.724      2.748
REMARK  1 active torsions:
REMARK  status: ('A' for Active; 'I' for Inactive)
REMARK    1  A    between atoms: C4_4  and  C7_7 
ROOT
HETATM    1  C1  UNL     1     -24.208  19.174   8.429  1.00 20.00     0.040 C 
HETATM    2  C2  UNL     1     -25.144  18.958   9.616  1.00 20.00     0.272 C 
HETATM    3  C3  UNL     1     -23.227  18.029   8.218  1.00 20.00     0.078 C 
HETATM    4  C4  UNL     1     -23.511  17.690  10.969  1.00 20.00     0.201 C 
HETATM    5  C5  UNL     1     -24.248  16.343  10.899  1.00 20.00     0.061 C 
HETATM    6  N8  UNL     1     -24.432  18.835  10.887  1.00 20.00     0.102 N 
HETATM    7  S9  UNL     1     -22.195  17.758   9.687  1.00 20.00    -0.128 SA
HETATM    8  H24 UNL     1     -23.914  19.698  11.059  1.00 20.00     0.317 HD
ENDROOT
BRANCH   4   9
HETATM    9  C7  UNL     1     -22.802  17.784  12.332  1.00 20.00     0.048 C 
HETATM   10  C6  UNL     1     -21.325  17.903  12.167  1.00 20.00     0.009 C 
ENDBRANCH   4   9
TORSDOF 1
ENDMDL
MODEL 3
REMARK VINA RESULT:      -3.6     17.956     18.930
REMARK  1 active torsions:
REMARK  status: ('A' for Active; 'I' for Inactive)
REMARK    1  A    between atoms: C4_4  and  C7_7 
ROOT
HETATM    1  C1  UNL     1     -37.439  15.937  -5.586  1.00 20.00     0.040 C 
HETATM    2  C2  UNL     1     -37.505  14.962  -4.412  1.00 20.00     0.272 C 
HETATM    3  C3  UNL     1     -36.041  16.082  -6.172  1.00 20.00     0.078 C 
HETATM    4  C4  UNL     1     -35.228  15.445  -3.584  1.00 20.00     0.201 C 
HETATM    5  C5  UNL     1     -34.631  14.070  -3.927  1.00 20.00     0.061 C 
HETATM    6  N8  UNL     1     -36.667  15.371  -3.287  1.00 20.00     0.102 N 
HETATM    7  S9  UNL     1     -34.852  16.648  -4.922  1.00 20.00    -0.128 SA
HETATM    8  H24 UNL     1     -36.989  16.278  -2.949  1.00 20.00     0.317 HD
ENDROOT
BRANCH   4   9
HETATM    9  C7  UNL     1     -34.535  15.970  -2.314  1.00 20.00     0.048 C 
HETATM   10  C6  UNL     1     -33.264  16.675  -2.642  1.00 20.00     0.009 C 
ENDBRANCH   4   9
TORSDOF 1
ENDMDL
MODEL 4
REMARK VINA RESULT:      -3.6     16.145     17.222
REMARK  1 active torsions:
REMARK  status: ('A' for Active; 'I' for Inactive)
REMARK    1  A    between atoms: C4_4  and  C7_7 
ROOT
HETATM    1  C1  UNL     1     -34.734  14.108  -4.020  1.00 20.00     0.040 C 
HETATM    2  C2  UNL     1     -33.561  14.822  -4.689  1.00 20.00     0.272 C 
HETATM    3  C3  UNL     1     -35.778  15.062  -3.455  1.00 20.00     0.078 C 
HETATM    4  C4  UNL     1     -33.607  16.791  -3.198  1.00 20.00     0.201 C 
HETATM    5  C5  UNL     1     -34.064  17.798  -4.266  1.00 20.00     0.061 C 
HETATM    6  N8  UNL     1     -32.822  15.686  -3.771  1.00 20.00     0.102 N 
HETATM    7  S9  UNL     1     -35.054  16.193  -2.233  1.00 20.00    -0.128 SA
HETATM    8  H24 UNL     1     -32.441  15.115  -3.016  1.00 20.00     0.317 HD
ENDROOT
BRANCH   4   9
HETATM    9  C7  UNL     1     -32.689  17.523  -2.204  1.00 20.00     0.048 C 
HETATM   10  C6  UNL     1     -33.435  17.941  -0.983  1.00 20.00     0.009 C 
ENDBRANCH   4   9
TORSDOF 1
ENDMDL
MODEL 5
REMARK VINA RESULT:      -3.5     18.098     19.349
REMARK  1 active torsions:
REMARK  status: ('A' for Active; 'I' for Inactive)
REMARK    1  A    between atoms: C4_4  and  C7_7 
ROOT
HETATM    1  C1  UNL     1     -33.271  15.890  -3.411  1.00 20.00     0.040 C 
HETATM    2  C2  UNL     1     -33.137  14.619  -4.247  1.00 20.00     0.272 C 
HETATM    3  C3  UNL     1     -34.594  16.614  -3.622  1.00 20.00     0.078 C 
HETATM    4  C4  UNL     1     -34.467  15.456  -6.154  1.00 20.00     0.201 C 
HETATM    5  C5  UNL     1     -35.653  14.498  -5.962  1.00 20.00     0.061 C 
HETATM    6  N8  UNL     1     -33.199  14.876  -5.685  1.00 20.00     0.102 N 
HETATM    7  S9  UNL     1     -34.829  17.076  -5.362  1.00 20.00    -0.128 SA
HETATM    8  H24 UNL     1     -32.429  15.494  -5.942  1.00 20.00     0.317 HD
ENDROOT
BRANCH   4   9
HETATM    9  C7  UNL     1     -34.304  15.730  -7.659  1.00 20.00     0.048 C 
HETATM   10  C6  UNL     1     -33.878  17.136  -7.911  1.00 20.00     0.009 C 
ENDBRANCH   4   9
TORSDOF 1
ENDMDL
MODEL 6
REMARK VINA RESULT:      -3.5     17.901     18.893
REMARK  1 active torsions:
REMARK  status: ('A' for Active; 'I' for Inactive)
REMARK    1  A    between atoms: C4_4  and  C7_7 
ROOT
HETATM    1  C1  UNL     1     -35.556  14.759  -6.797  1.00 20.00     0.040 C 
HETATM    2  C2  UNL     1     -34.101  15.198  -6.647  1.00 20.00     0.272 C 
HETATM    3  C3  UNL     1     -36.537  15.663  -6.061  1.00 20.00     0.078 C 
HETATM    4  C4  UNL     1     -34.370  16.116  -4.369  1.00 20.00     0.201 C 
HETATM    5  C5  UNL     1     -34.157  17.588  -4.757  1.00 20.00     0.061 C 
HETATM    6  N8  UNL     1     -33.646  15.194  -5.258  1.00 20.00     0.102 N 
HETATM    7  S9  UNL     1     -36.168  15.739  -4.286  1.00 20.00    -0.128 SA
HETATM    8  H24 UNL     1     -33.718  14.245  -4.891  1.00 20.00     0.317 HD
ENDROOT
BRANCH   4   9
HETATM    9  C7  UNL     1     -33.810  15.903  -2.952  1.00 20.00     0.048 C 
HETATM   10  C6  UNL     1     -34.840  16.190  -1.914  1.00 20.00     0.009 C 
ENDBRANCH   4   9
TORSDOF 1
ENDMDL
MODEL 7
REMARK VINA RESULT:      -3.5     16.842     18.036
REMARK  1 active torsions:
REMARK  status: ('A' for Active; 'I' for Inactive)
REMARK    1  A    between atoms: C4_4  and  C7_7 
ROOT
HETATM    1  C1  UNL     1     -34.068  17.261  -1.784  1.00 20.00     0.040 C 
HETATM    2  C2  UNL     1     -32.879  17.117  -2.732  1.00 20.00     0.272 C 
HETATM    3  C3  UNL     1     -35.063  16.112  -1.886  1.00 20.00     0.078 C 
HETATM    4  C4  UNL     1     -34.140  15.956  -4.511  1.00 20.00     0.201 C 
HETATM    5  C5  UNL     1     -33.430  14.601  -4.362  1.00 20.00     0.061 C 
HETATM    6  N8  UNL     1     -33.273  17.085  -4.139  1.00 20.00     0.102 N 
HETATM    7  S9  UNL     1     -35.720  15.948  -3.571  1.00 20.00    -0.128 SA
HETATM    8  H24 UNL     1     -33.743  17.962  -4.369  1.00 20.00     0.317 HD
ENDROOT
BRANCH   4   9
HETATM    9  C7  UNL     1     -34.512  16.148  -5.992  1.00 20.00     0.048 C 
HETATM   10  C6  UNL     1     -33.943  15.061  -6.838  1.00 20.00     0.009 C 
ENDBRANCH   4   9
TORSDOF 1
ENDMDL
MODEL 8
REMARK VINA RESULT:      -3.5      1.541      1.753
REMARK  1 active torsions:
REMARK  status: ('A' for Active; 'I' for Inactive)
REMARK    1  A    between atoms: C4_4  and  C7_7 
ROOT
HETATM    1  C1  UNL     1     -23.609  17.520   8.729  1.00 20.00     0.040 C 
HETATM    2  C2  UNL     1     -23.528  16.639   9.974  1.00 20.00     0.272 C 
HETATM    3  C3  UNL     1     -23.817  18.995   9.047  1.00 20.00     0.078 C 
HETATM    4  C4  UNL     1     -25.077  18.007  11.328  1.00 20.00     0.201 C 
HETATM    5  C5  UNL     1     -24.025  18.505  12.332  1.00 20.00     0.061 C 
HETATM    6  N8  UNL     1     -24.745  16.682  10.782  1.00 20.00     0.102 N 
HETATM    7  S9  UNL     1     -25.334  19.262  10.008  1.00 20.00    -0.128 SA
HETATM    8  H24 UNL     1     -25.526  16.343  10.219  1.00 20.00     0.317 HD
ENDROOT
BRANCH   4   9
HETATM    9  C7  UNL     1     -26.421  17.864  12.064  1.00 20.00     0.048 C 
HETATM   10  C6  UNL     1     -27.422  18.845  11.561  1.00 20.00     0.009 C 
ENDBRANCH   4   9
TORSDOF 1
ENDMDL
MODEL 9
REMARK VINA RESULT:      -3.4     16.610     17.633
REMARK  1 active torsions:
REMARK  status: ('A' for Active; 'I' for Inactive)
REMARK    1  A    between atoms: C4_4  and  C7_7 
ROOT
HETATM    1  C1  UNL     1     -34.030  17.537  -1.264  1.00 20.00     0.040 C 
HETATM    2  C2  UNL     1     -35.451  17.047  -1.533  1.00 20.00     0.272 C 
HETATM    3  C3  UNL     1     -33.187  17.665  -2.526  1.00 20.00     0.078 C 
HETATM    4  C4  UNL     1     -34.846  15.632  -3.466  1.00 20.00     0.201 C 
HETATM    5  C5  UNL     1     -35.570  16.479  -4.524  1.00 20.00     0.061 C 
HETATM    6  N8  UNL     1     -35.489  15.720  -2.145  1.00 20.00     0.102 N 
HETATM    7  S9  UNL     1     -33.064  16.082  -3.407  1.00 20.00    -0.128 SA
HETATM    8  H24 UNL     1     -35.050  15.052  -1.510  1.00 20.00     0.317 HD
ENDROOT
BRANCH   4   9
HETATM    9  C7  UNL     1     -34.912  14.156  -3.897  1.00 20.00     0.048 C 
HETATM   10  C6  UNL     1     -36.247  13.817  -4.466  1.00 20.00     0.009 C 
ENDBRANCH   4   9
TORSDOF 1
ENDMDL
