MODEL 1
REMARK VINA RESULT:      -4.2      0.000      0.000
REMARK  2 active torsions:
REMARK  status: ('A' for Active; 'I' for Inactive)
REMARK    1  A    between atoms: C5_5  and  C8_8 
REMARK    2  A    between atoms: C5_5  and  O9_9 
ROOT
HETATM    1  C1  UNL     1     -36.127  13.638  -4.543  1.00 20.00     0.004 C 
HETATM    2  C2  UNL     1     -36.849  14.963  -4.794  1.00 20.00     0.012 C 
HETATM    3  C3  UNL     1     -34.793  13.982  -3.874  1.00 20.00     0.044 C 
HETATM    4  C4  UNL     1     -35.762  16.052  -4.692  1.00 20.00    -0.011 C 
HETATM    5  C5  UNL     1     -34.868  15.483  -3.557  1.00 20.00     0.123 C 
HETATM    6  C6  UNL     1     -36.393  17.411  -4.350  1.00 20.00     0.018 C 
HETATM    7  C7  UNL     1     -35.027  16.184  -6.040  1.00 20.00     0.018 C 
ENDROOT
BRANCH   5   8
HETATM    8  C8  UNL     1     -33.488  16.119  -3.419  1.00 20.00     0.388 C 
HETATM    9  F10 UNL     1     -32.554  15.220  -3.793  1.00 20.00    -0.211 F 
HETATM   10  F11 UNL     1     -33.273  16.412  -2.119  1.00 20.00    -0.211 F 
ENDBRANCH   5   8
BRANCH   5  11
HETATM   11  O9  UNL     1     -35.543  15.632  -2.302  1.00 20.00    -0.383 OA
HETATM   12  H25 UNL     1     -36.463  15.380  -2.460  1.00 20.00     0.210 HD
ENDBRANCH   5  11
TORSDOF 2
ENDMDL
MODEL 2
REMARK VINA RESULT:      -4.2      2.649      3.389
REMARK  2 active torsions:
REMARK  status: ('A' for Active; 'I' for Inactive)
REMARK    1  A    between atoms: C5_5  and  C8_8 
REMARK    2  A    between atoms: C5_5  and  O9_9 
ROOT
HETATM    1  C1  UNL     1     -36.081  13.599  -4.764  1.00 20.00     0.004 C 
HETATM    2  C2  UNL     1     -34.969  13.973  -3.783  1.00 20.00     0.012 C 
HETATM    3  C3  UNL     1     -35.909  14.499  -5.992  1.00 20.00     0.044 C 
HETATM    4  C4  UNL     1     -34.462  15.356  -4.240  1.00 20.00    -0.011 C 
HETATM    5  C5  UNL     1     -34.572  15.225  -5.784  1.00 20.00     0.123 C 
HETATM    6  C6  UNL     1     -33.027  15.593  -3.746  1.00 20.00     0.018 C 
HETATM    7  C7  UNL     1     -35.366  16.462  -3.657  1.00 20.00     0.018 C 
ENDROOT
BRANCH   5   8
HETATM    8  C8  UNL     1     -34.489  16.531  -6.568  1.00 20.00     0.388 C 
HETATM    9  F10 UNL     1     -35.728  16.872  -6.978  1.00 20.00    -0.211 F 
HETATM   10  F11 UNL     1     -33.737  16.329  -7.671  1.00 20.00    -0.211 F 
ENDBRANCH   5   8
BRANCH   5  11
HETATM   11  O9  UNL     1     -33.529  14.365  -6.261  1.00 20.00    -0.383 OA
HETATM   12  H25 UNL     1     -32.951  14.199  -5.504  1.00 20.00     0.210 HD
ENDBRANCH   5  11
TORSDOF 2
ENDMDL
MODEL 3
REMARK VINA RESULT:      -4.2      2.378      3.431
REMARK  2 active torsions:
REMARK  status: ('A' for Active; 'I' for Inactive)
REMARK    1  A    between atoms: C5_5  and  C8_8 
REMARK    2  A    between atoms: C5_5  and  O9_9 
ROOT
HETATM    1  C1  UNL     1     -33.895  16.219  -2.640  1.00 20.00     0.004 C 
HETATM    2  C2  UNL     1     -33.249  16.184  -4.026  1.00 20.00     0.012 C 
HETATM    3  C3  UNL     1     -35.152  15.346  -2.716  1.00 20.00     0.044 C 
HETATM    4  C4  UNL     1     -34.350  15.681  -4.982  1.00 20.00    -0.011 C 
HETATM    5  C5  UNL     1     -35.087  14.651  -4.083  1.00 20.00     0.123 C 
HETATM    6  C6  UNL     1     -33.725  15.059  -6.240  1.00 20.00     0.018 C 
HETATM    7  C7  UNL     1     -35.242  16.861  -5.416  1.00 20.00     0.018 C 
ENDROOT
BRANCH   5   8
HETATM    8  C8  UNL     1     -36.460  14.204  -4.576  1.00 20.00     0.388 C 
HETATM    9  F10 UNL     1     -37.401  14.687  -3.739  1.00 20.00    -0.211 F 
HETATM   10  F11 UNL     1     -36.522  12.857  -4.526  1.00 20.00    -0.211 F 
ENDBRANCH   5   8
BRANCH   5  11
HETATM   11  O9  UNL     1     -34.274  13.480  -3.940  1.00 20.00    -0.383 OA
HETATM   12  H25 UNL     1     -34.637  12.825  -4.552  1.00 20.00     0.210 HD
ENDBRANCH   5  11
TORSDOF 2
ENDMDL
MODEL 4
REMARK VINA RESULT:      -4.1      2.499      3.419
REMARK  2 active torsions:
REMARK  status: ('A' for Active; 'I' for Inactive)
REMARK    1  A    between atoms: C5_5  and  C8_8 
REMARK    2  A    between atoms: C5_5  and  O9_9 
ROOT
HETATM    1  C1  UNL     1     -33.676  15.924  -2.983  1.00 20.00     0.004 C 
HETATM    2  C2  UNL     1     -33.604  16.929  -4.134  1.00 20.00     0.012 C 
HETATM    3  C3  UNL     1     -34.538  14.755  -3.471  1.00 20.00     0.044 C 
HETATM    4  C4  UNL     1     -34.765  16.558  -5.080  1.00 20.00    -0.011 C 
HETATM    5  C5  UNL     1     -34.766  15.009  -4.968  1.00 20.00     0.123 C 
HETATM    6  C6  UNL     1     -34.484  17.069  -6.501  1.00 20.00     0.018 C 
HETATM    7  C7  UNL     1     -36.072  17.206  -4.580  1.00 20.00     0.018 C 
ENDROOT
BRANCH   5   8
HETATM    8  C8  UNL     1     -36.013  14.308  -5.495  1.00 20.00     0.388 C 
HETATM    9  F10 UNL     1     -36.178  13.149  -4.824  1.00 20.00    -0.211 F 
HETATM   10  F11 UNL     1     -35.822  14.000  -6.796  1.00 20.00    -0.211 F 
ENDBRANCH   5   8
BRANCH   5  11
HETATM   11  O9  UNL     1     -33.638  14.482  -5.677  1.00 20.00    -0.383 OA
HETATM   12  H25 UNL     1     -33.857  13.564  -5.884  1.00 20.00     0.210 HD
ENDBRANCH   5  11
TORSDOF 2
ENDMDL
MODEL 5
REMARK VINA RESULT:      -4.1     11.412     12.728
REMARK  2 active torsions:
REMARK  status: ('A' for Active; 'I' for Inactive)
REMARK    1  A    between atoms: C5_5  and  C8_8 
REMARK    2  A    between atoms: C5_5  and  O9_9 
ROOT
HETATM    1  C1  UNL     1     -41.863   8.725  -0.652  1.00 20.00     0.004 C 
HETATM    2  C2  UNL     1     -41.295   7.553  -1.456  1.00 20.00     0.012 C 
HETATM    3  C3  UNL     1     -42.603   8.121   0.546  1.00 20.00     0.044 C 
HETATM    4  C4  UNL     1     -42.077   6.310  -0.984  1.00 20.00    -0.011 C 
HETATM    5  C5  UNL     1     -42.263   6.623   0.526  1.00 20.00     0.123 C 
HETATM    6  C6  UNL     1     -41.267   5.033  -1.249  1.00 20.00     0.018 C 
HETATM    7  C7  UNL     1     -43.409   6.209  -1.754  1.00 20.00     0.018 C 
ENDROOT
BRANCH   5   8
HETATM    8  C8  UNL     1     -43.304   5.780   1.254  1.00 20.00     0.388 C 
HETATM    9  F10 UNL     1     -43.417   6.227   2.522  1.00 20.00    -0.211 F 
HETATM   10  F11 UNL     1     -42.867   4.503   1.311  1.00 20.00    -0.211 F 
ENDBRANCH   5   8
BRANCH   5  11
HETATM   11  O9  UNL     1     -41.012   6.450   1.203  1.00 20.00    -0.383 OA
HETATM   12  H25 UNL     1     -41.229   6.313   2.136  1.00 20.00     0.210 HD
ENDBRANCH   5  11
TORSDOF 2
ENDMDL
MODEL 6
REMARK VINA RESULT:      -4.0      1.659      2.603
REMARK  2 active torsions:
REMARK  status: ('A' for Active; 'I' for Inactive)
REMARK    1  A    between atoms: C5_5  and  C8_8 
REMARK    2  A    between atoms: C5_5  and  O9_9 
ROOT
HETATM    1  C1  UNL     1     -35.350  16.581  -2.211  1.00 20.00     0.004 C 
HETATM    2  C2  UNL     1     -36.248  16.734  -3.440  1.00 20.00     0.012 C 
HETATM    3  C3  UNL     1     -34.109  15.804  -2.665  1.00 20.00     0.044 C 
HETATM    4  C4  UNL     1     -35.750  15.681  -4.451  1.00 20.00    -0.011 C 
HETATM    5  C5  UNL     1     -34.218  15.714  -4.194  1.00 20.00     0.123 C 
HETATM    6  C6  UNL     1     -36.139  16.082  -5.881  1.00 20.00     0.018 C 
HETATM    7  C7  UNL     1     -36.391  14.314  -4.138  1.00 20.00     0.018 C 
ENDROOT
BRANCH   5   8
HETATM    8  C8  UNL     1     -33.425  14.543  -4.767  1.00 20.00     0.388 C 
HETATM    9  F10 UNL     1     -32.173  14.579  -4.265  1.00 20.00    -0.211 F 
HETATM   10  F11 UNL     1     -33.332  14.695  -6.105  1.00 20.00    -0.211 F 
ENDBRANCH   5   8
BRANCH   5  11
HETATM   11  O9  UNL     1     -33.671  16.919  -4.743  1.00 20.00    -0.383 OA
HETATM   12  H25 UNL     1     -33.162  17.331  -4.032  1.00 20.00     0.210 HD
ENDBRANCH   5  11
TORSDOF 2
ENDMDL
MODEL 7
REMARK VINA RESULT:      -4.0      1.685      2.927
REMARK  2 active torsions:
REMARK  status: ('A' for Active; 'I' for Inactive)
REMARK    1  A    between atoms: C5_5  and  C8_8 
REMARK    2  A    between atoms: C5_5  and  O9_9 
ROOT
HETATM    1  C1  UNL     1     -35.430  16.579  -5.800  1.00 20.00     0.004 C 
HETATM    2  C2  UNL     1     -34.396  15.460  -5.939  1.00 20.00     0.012 C 
HETATM    3  C3  UNL     1     -35.385  17.044  -4.341  1.00 20.00     0.044 C 
HETATM    4  C4  UNL     1     -34.100  14.990  -4.500  1.00 20.00    -0.011 C 
HETATM    5  C5  UNL     1     -34.175  16.331  -3.720  1.00 20.00     0.123 C 
HETATM    6  C6  UNL     1     -32.722  14.316  -4.427  1.00 20.00     0.018 C 
HETATM    7  C7  UNL     1     -35.165  13.967  -4.057  1.00 20.00     0.018 C 
ENDROOT
BRANCH   5   8
HETATM    8  C8  UNL     1     -34.284  16.211  -2.203  1.00 20.00     0.388 C 
HETATM    9  F10 UNL     1     -35.509  16.626  -1.821  1.00 20.00    -0.211 F 
HETATM   10  F11 UNL     1     -33.379  17.036  -1.636  1.00 20.00    -0.211 F 
ENDBRANCH   5   8
BRANCH   5  11
HETATM   11  O9  UNL     1     -33.010  17.114  -4.011  1.00 20.00    -0.383 OA
HETATM   12  H25 UNL     1     -32.687  16.805  -4.868  1.00 20.00     0.210 HD
ENDBRANCH   5  11
TORSDOF 2
ENDMDL
MODEL 8
REMARK VINA RESULT:      -4.0      2.486      3.412
REMARK  2 active torsions:
REMARK  status: ('A' for Active; 'I' for Inactive)
REMARK    1  A    between atoms: C5_5  and  C8_8 
REMARK    2  A    between atoms: C5_5  and  O9_9 
ROOT
HETATM    1  C1  UNL     1     -37.724  15.666  -5.023  1.00 20.00     0.004 C 
HETATM    2  C2  UNL     1     -37.249  14.461  -4.209  1.00 20.00     0.012 C 
HETATM    3  C3  UNL     1     -36.559  16.071  -5.933  1.00 20.00     0.044 C 
HETATM    4  C4  UNL     1     -35.710  14.468  -4.320  1.00 20.00    -0.011 C 
HETATM    5  C5  UNL     1     -35.513  14.958  -5.780  1.00 20.00     0.123 C 
HETATM    6  C6  UNL     1     -35.147  13.062  -4.065  1.00 20.00     0.018 C 
HETATM    7  C7  UNL     1     -35.116  15.427  -3.269  1.00 20.00     0.018 C 
ENDROOT
BRANCH   5   8
HETATM    8  C8  UNL     1     -34.106  15.428  -6.137  1.00 20.00     0.388 C 
HETATM    9  F10 UNL     1     -34.154  16.736  -6.466  1.00 20.00    -0.211 F 
HETATM   10  F11 UNL     1     -33.685  14.750  -7.226  1.00 20.00    -0.211 F 
ENDBRANCH   5   8
BRANCH   5  11
HETATM   11  O9  UNL     1     -35.861  13.903  -6.685  1.00 20.00    -0.383 OA
HETATM   12  H25 UNL     1     -35.938  13.103  -6.148  1.00 20.00     0.210 HD
ENDBRANCH   5  11
TORSDOF 2
ENDMDL
MODEL 9
REMARK VINA RESULT:      -3.9      2.142      3.671
REMARK  2 active torsions:
REMARK  status: ('A' for Active; 'I' for Inactive)
REMARK    1  A    between atoms: C5_5  and  C8_8 
REMARK    2  A    between atoms: C5_5  and  O9_9 
ROOT
HETATM    1  C1  UNL     1     -32.453  18.576  -2.497  1.00 20.00     0.004 C 
HETATM    2  C2  UNL     1     -32.918  18.790  -3.939  1.00 20.00     0.012 C 
HETATM    3  C3  UNL     1     -33.115  17.284  -2.007  1.00 20.00     0.044 C 
HETATM    4  C4  UNL     1     -34.164  17.898  -4.108  1.00 20.00    -0.011 C 
HETATM    5  C5  UNL     1     -33.776  16.665  -3.247  1.00 20.00     0.123 C 
HETATM    6  C6  UNL     1     -34.389  17.563  -5.591  1.00 20.00     0.018 C 
HETATM    7  C7  UNL     1     -35.411  18.639  -3.584  1.00 20.00     0.018 C 
ENDROOT
BRANCH   5   8
HETATM    8  C8  UNL     1     -34.919  15.720  -2.889  1.00 20.00     0.388 C 
HETATM    9  F10 UNL     1     -35.118  15.765  -1.555  1.00 20.00    -0.211 F 
HETATM   10  F11 UNL     1     -34.555  14.459  -3.204  1.00 20.00    -0.211 F 
ENDBRANCH   5   8
BRANCH   5  11
HETATM   11  O9  UNL     1     -32.780  15.900  -3.938  1.00 20.00    -0.383 OA
HETATM   12  H25 UNL     1     -32.571  16.395  -4.742  1.00 20.00     0.210 HD
ENDBRANCH   5  11
TORSDOF 2
ENDMDL
