MODEL 1
REMARK VINA RESULT:      -4.1      0.000      0.000
REMARK  4 active torsions:
REMARK  status: ('A' for Active; 'I' for Inactive)
REMARK    1  A    between atoms: C5_5  and  C8_8 
REMARK    2  A    between atoms: C6_6  and  C8_8 
REMARK    3  A    between atoms: C7_7  and  C8_8 
REMARK    4  A    between atoms: C8_8  and  N9_9 
ROOT
HETATM    1  C8  UNL     1     -34.244  15.666  -4.154  1.00 20.00     0.217 C 
ENDROOT
BRANCH   1   2
HETATM    2  C5  UNL     1     -35.750  15.293  -4.307  1.00 20.00     0.043 C 
HETATM    3  C1  UNL     1     -36.063  13.807  -4.451  1.00 20.00     0.008 C 
ENDBRANCH   1   2
BRANCH   1   4
HETATM    4  C6  UNL     1     -33.858  16.043  -2.679  1.00 20.00     0.021 C 
HETATM    5  C2  UNL     1     -35.059  16.257  -1.748  1.00 20.00     0.012 C 
HETATM    6  C3  UNL     1     -32.944  17.277  -2.577  1.00 20.00     0.012 C 
ENDBRANCH   1   4
BRANCH   1   7
HETATM    7  C7  UNL     1     -33.397  14.505  -4.711  1.00 20.00     0.391 C 
HETATM    8  F10 UNL     1     -33.285  14.614  -6.062  1.00 20.00    -0.212 F 
HETATM    9  F11 UNL     1     -32.132  14.558  -4.226  1.00 20.00    -0.212 F 
ENDBRANCH   1   7
BRANCH   1  10
HETATM   10  N9  UNL     1     -33.958  16.826  -5.020  1.00 20.00     0.094 N 
HETATM   11  C4  UNL     1     -35.190  17.357  -5.571  1.00 20.00     0.307 C 
HETATM   12  H28 UNL     1     -33.345  16.519  -5.767  1.00 20.00     0.316 HD
ENDBRANCH   1  10
TORSDOF 4
ENDMDL
MODEL 2
REMARK VINA RESULT:      -4.0      1.755      2.393
REMARK  4 active torsions:
REMARK  status: ('A' for Active; 'I' for Inactive)
REMARK    1  A    between atoms: C5_5  and  C8_8 
REMARK    2  A    between atoms: C6_6  and  C8_8 
REMARK    3  A    between atoms: C7_7  and  C8_8 
REMARK    4  A    between atoms: C8_8  and  N9_9 
ROOT
HETATM    1  C8  UNL     1     -34.942  15.569  -4.224  1.00 20.00     0.217 C 
ENDROOT
BRANCH   1   2
HETATM    2  C5  UNL     1     -36.173  16.510  -4.393  1.00 20.00     0.043 C 
HETATM    3  C1  UNL     1     -35.884  17.904  -4.940  1.00 20.00     0.008 C 
ENDBRANCH   1   2
BRANCH   1   4
HETATM    4  C6  UNL     1     -34.226  15.746  -2.838  1.00 20.00     0.021 C 
HETATM    5  C2  UNL     1     -35.145  16.246  -1.714  1.00 20.00     0.012 C 
HETATM    6  C3  UNL     1     -32.991  16.661  -2.893  1.00 20.00     0.012 C 
ENDBRANCH   1   4
BRANCH   1   7
HETATM    7  C7  UNL     1     -35.401  14.119  -4.475  1.00 20.00     0.391 C 
HETATM    8  F10 UNL     1     -34.688  13.261  -3.698  1.00 20.00    -0.212 F 
HETATM    9  F11 UNL     1     -36.699  13.958  -4.116  1.00 20.00    -0.212 F 
ENDBRANCH   1   7
BRANCH   1  10
HETATM   10  N9  UNL     1     -33.969  15.874  -5.292  1.00 20.00     0.094 N 
HETATM   11  C4  UNL     1     -34.198  15.017  -6.438  1.00 20.00     0.307 C 
HETATM   12  H28 UNL     1     -33.037  15.723  -4.923  1.00 20.00     0.316 HD
ENDBRANCH   1  10
TORSDOF 4
ENDMDL
MODEL 3
REMARK VINA RESULT:      -3.8      1.780      2.484
REMARK  4 active torsions:
REMARK  status: ('A' for Active; 'I' for Inactive)
REMARK    1  A    between atoms: C5_5  and  C8_8 
REMARK    2  A    between atoms: C6_6  and  C8_8 
REMARK    3  A    between atoms: C7_7  and  C8_8 
REMARK    4  A    between atoms: C8_8  and  N9_9 
ROOT
HETATM    1  C8  UNL     1     -34.877  15.348  -4.633  1.00 20.00     0.217 C 
ENDROOT
BRANCH   1   2
HETATM    2  C5  UNL     1     -35.859  16.024  -5.637  1.00 20.00     0.043 C 
HETATM    3  C1  UNL     1     -36.302  17.442  -5.291  1.00 20.00     0.008 C 
ENDBRANCH   1   2
BRANCH   1   4
HETATM    4  C6  UNL     1     -34.450  16.302  -3.463  1.00 20.00     0.021 C 
HETATM    5  C2  UNL     1     -32.934  16.372  -3.228  1.00 20.00     0.012 C 
HETATM    6  C3  UNL     1     -35.129  15.976  -2.121  1.00 20.00     0.012 C 
ENDBRANCH   1   4
BRANCH   1   7
HETATM    7  C7  UNL     1     -35.523  14.041  -4.128  1.00 20.00     0.391 C 
HETATM    8  F10 UNL     1     -36.232  13.453  -5.129  1.00 20.00    -0.212 F 
HETATM    9  F11 UNL     1     -34.571  13.144  -3.768  1.00 20.00    -0.212 F 
ENDBRANCH   1   7
BRANCH   1  10
HETATM   10  N9  UNL     1     -33.664  14.940  -5.368  1.00 20.00     0.094 N 
HETATM   11  C4  UNL     1     -33.883  15.047  -6.797  1.00 20.00     0.307 C 
HETATM   12  H28 UNL     1     -33.451  13.981  -5.119  1.00 20.00     0.316 HD
ENDBRANCH   1  10
TORSDOF 4
ENDMDL
MODEL 4
REMARK VINA RESULT:      -3.8      1.808      2.235
REMARK  4 active torsions:
REMARK  status: ('A' for Active; 'I' for Inactive)
REMARK    1  A    between atoms: C5_5  and  C8_8 
REMARK    2  A    between atoms: C6_6  and  C8_8 
REMARK    3  A    between atoms: C7_7  and  C8_8 
REMARK    4  A    between atoms: C8_8  and  N9_9 
ROOT
HETATM    1  C8  UNL     1     -35.864  15.278  -4.336  1.00 20.00     0.217 C 
ENDROOT
BRANCH   1   2
HETATM    2  C5  UNL     1     -37.147  16.062  -3.924  1.00 20.00     0.043 C 
HETATM    3  C1  UNL     1     -38.473  15.338  -4.133  1.00 20.00     0.008 C 
ENDBRANCH   1   2
BRANCH   1   4
HETATM    4  C6  UNL     1     -34.795  15.214  -3.188  1.00 20.00     0.021 C 
HETATM    5  C2  UNL     1     -35.084  16.148  -2.005  1.00 20.00     0.012 C 
HETATM    6  C3  UNL     1     -33.357  15.476  -3.668  1.00 20.00     0.012 C 
ENDBRANCH   1   4
BRANCH   1   7
HETATM    7  C7  UNL     1     -36.288  13.881  -4.833  1.00 20.00     0.391 C 
HETATM    8  F10 UNL     1     -35.939  13.723  -6.137  1.00 20.00    -0.212 F 
HETATM    9  F11 UNL     1     -35.631  12.910  -4.150  1.00 20.00    -0.212 F 
ENDBRANCH   1   7
BRANCH   1  10
HETATM   10  N9  UNL     1     -35.256  15.952  -5.500  1.00 20.00     0.094 N 
HETATM   11  C4  UNL     1     -35.831  17.272  -5.671  1.00 20.00     0.307 C 
HETATM   12  H28 UNL     1     -35.432  15.386  -6.321  1.00 20.00     0.316 HD
ENDBRANCH   1  10
TORSDOF 4
ENDMDL
MODEL 5
REMARK VINA RESULT:      -3.7      1.911      2.609
REMARK  4 active torsions:
REMARK  status: ('A' for Active; 'I' for Inactive)
REMARK    1  A    between atoms: C5_5  and  C8_8 
REMARK    2  A    between atoms: C6_6  and  C8_8 
REMARK    3  A    between atoms: C7_7  and  C8_8 
REMARK    4  A    between atoms: C8_8  and  N9_9 
ROOT
HETATM    1  C8  UNL     1     -34.943  15.729  -3.594  1.00 20.00     0.217 C 
ENDROOT
BRANCH   1   2
HETATM    2  C5  UNL     1     -34.388  14.379  -4.142  1.00 20.00     0.043 C 
HETATM    3  C1  UNL     1     -32.893  14.340  -4.441  1.00 20.00     0.008 C 
ENDBRANCH   1   2
BRANCH   1   4
HETATM    4  C6  UNL     1     -34.274  16.159  -2.241  1.00 20.00     0.021 C 
HETATM    5  C2  UNL     1     -35.260  16.689  -1.191  1.00 20.00     0.012 C 
HETATM    6  C3  UNL     1     -33.149  17.195  -2.411  1.00 20.00     0.012 C 
ENDBRANCH   1   4
BRANCH   1   7
HETATM    7  C7  UNL     1     -34.794  16.797  -4.696  1.00 20.00     0.391 C 
HETATM    8  F10 UNL     1     -35.038  16.248  -5.916  1.00 20.00    -0.212 F 
HETATM    9  F11 UNL     1     -35.716  17.780  -4.539  1.00 20.00    -0.212 F 
ENDBRANCH   1   7
BRANCH   1  10
HETATM   10  N9  UNL     1     -36.395  15.582  -3.370  1.00 20.00     0.094 N 
HETATM   11  C4  UNL     1     -36.905  14.449  -4.116  1.00 20.00     0.307 C 
HETATM   12  H28 UNL     1     -36.850  16.434  -3.675  1.00 20.00     0.316 HD
ENDBRANCH   1  10
TORSDOF 4
ENDMDL
MODEL 6
REMARK VINA RESULT:      -3.6      1.907      3.116
REMARK  4 active torsions:
REMARK  status: ('A' for Active; 'I' for Inactive)
REMARK    1  A    between atoms: C5_5  and  C8_8 
REMARK    2  A    between atoms: C6_6  and  C8_8 
REMARK    3  A    between atoms: C7_7  and  C8_8 
REMARK    4  A    between atoms: C8_8  and  N9_9 
ROOT
HETATM    1  C8  UNL     1     -34.547  15.807  -3.921  1.00 20.00     0.217 C 
ENDROOT
BRANCH   1   2
HETATM    2  C5  UNL     1     -35.046  14.340  -3.751  1.00 20.00     0.043 C 
HETATM    3  C1  UNL     1     -36.388  14.007  -4.397  1.00 20.00     0.008 C 
ENDBRANCH   1   2
BRANCH   1   4
HETATM    4  C6  UNL     1     -35.391  16.620  -4.965  1.00 20.00     0.021 C 
HETATM    5  C2  UNL     1     -34.585  17.127  -6.169  1.00 20.00     0.012 C 
HETATM    6  C3  UNL     1     -36.144  17.815  -4.353  1.00 20.00     0.012 C 
ENDBRANCH   1   4
BRANCH   1   7
HETATM    7  C7  UNL     1     -34.519  16.473  -2.531  1.00 20.00     0.391 C 
HETATM    8  F10 UNL     1     -35.178  15.699  -1.627  1.00 20.00    -0.212 F 
HETATM    9  F11 UNL     1     -33.246  16.578  -2.074  1.00 20.00    -0.212 F 
ENDBRANCH   1   7
BRANCH   1  10
HETATM   10  N9  UNL     1     -33.145  15.774  -4.380  1.00 20.00     0.094 N 
HETATM   11  C4  UNL     1     -32.677  14.405  -4.469  1.00 20.00     0.307 C 
HETATM   12  H28 UNL     1     -32.582  16.292  -3.715  1.00 20.00     0.316 HD
ENDBRANCH   1  10
TORSDOF 4
ENDMDL
MODEL 7
REMARK VINA RESULT:      -3.6      1.519      2.838
REMARK  4 active torsions:
REMARK  status: ('A' for Active; 'I' for Inactive)
REMARK    1  A    between atoms: C5_5  and  C8_8 
REMARK    2  A    between atoms: C6_6  and  C8_8 
REMARK    3  A    between atoms: C7_7  and  C8_8 
REMARK    4  A    between atoms: C8_8  and  N9_9 
ROOT
HETATM    1  C8  UNL     1     -34.553  15.743  -4.677  1.00 20.00     0.217 C 
ENDROOT
BRANCH   1   2
HETATM    2  C5  UNL     1     -33.910  14.855  -5.785  1.00 20.00     0.043 C 
HETATM    3  C1  UNL     1     -34.124  15.314  -7.224  1.00 20.00     0.008 C 
ENDBRANCH   1   2
BRANCH   1   4
HETATM    4  C6  UNL     1     -35.898  15.150  -4.126  1.00 20.00     0.021 C 
HETATM    5  C2  UNL     1     -36.129  13.675  -4.483  1.00 20.00     0.012 C 
HETATM    6  C3  UNL     1     -37.144  15.948  -4.549  1.00 20.00     0.012 C 
ENDBRANCH   1   4
BRANCH   1   7
HETATM    7  C7  UNL     1     -33.506  15.971  -3.569  1.00 20.00     0.391 C 
HETATM    8  F10 UNL     1     -34.014  15.603  -2.362  1.00 20.00    -0.212 F 
HETATM    9  F11 UNL     1     -32.417  15.188  -3.770  1.00 20.00    -0.212 F 
ENDBRANCH   1   7
BRANCH   1  10
HETATM   10  N9  UNL     1     -34.832  17.075  -5.248  1.00 20.00     0.094 N 
HETATM   11  C4  UNL     1     -33.954  18.067  -4.659  1.00 20.00     0.307 C 
HETATM   12  H28 UNL     1     -35.799  17.307  -5.054  1.00 20.00     0.316 HD
ENDBRANCH   1  10
TORSDOF 4
ENDMDL
MODEL 8
REMARK VINA RESULT:      -3.6      1.653      2.245
REMARK  4 active torsions:
REMARK  status: ('A' for Active; 'I' for Inactive)
REMARK    1  A    between atoms: C5_5  and  C8_8 
REMARK    2  A    between atoms: C6_6  and  C8_8 
REMARK    3  A    between atoms: C7_7  and  C8_8 
REMARK    4  A    between atoms: C8_8  and  N9_9 
ROOT
HETATM    1  C8  UNL     1     -34.648  15.605  -4.970  1.00 20.00     0.217 C 
ENDROOT
BRANCH   1   2
HETATM    2  C5  UNL     1     -35.773  14.681  -5.526  1.00 20.00     0.043 C 
HETATM    3  C1  UNL     1     -36.295  13.609  -4.573  1.00 20.00     0.008 C 
ENDBRANCH   1   2
BRANCH   1   4
HETATM    4  C6  UNL     1     -35.183  17.009  -4.515  1.00 20.00     0.021 C 
HETATM    5  C2  UNL     1     -36.521  17.410  -5.152  1.00 20.00     0.012 C 
HETATM    6  C3  UNL     1     -34.180  18.154  -4.742  1.00 20.00     0.012 C 
ENDBRANCH   1   4
BRANCH   1   7
HETATM    7  C7  UNL     1     -33.917  14.853  -3.839  1.00 20.00     0.391 C 
HETATM    8  F10 UNL     1     -32.572  14.991  -3.979  1.00 20.00    -0.212 F 
HETATM    9  F11 UNL     1     -34.224  15.389  -2.631  1.00 20.00    -0.212 F 
ENDBRANCH   1   7
BRANCH   1  10
HETATM   10  N9  UNL     1     -33.644  15.811  -6.031  1.00 20.00     0.094 N 
HETATM   11  C4  UNL     1     -34.101  15.223  -7.275  1.00 20.00     0.307 C 
HETATM   12  H28 UNL     1     -32.778  15.374  -5.736  1.00 20.00     0.316 HD
ENDBRANCH   1  10
TORSDOF 4
ENDMDL
MODEL 9
REMARK VINA RESULT:      -3.6      1.163      2.797
REMARK  4 active torsions:
REMARK  status: ('A' for Active; 'I' for Inactive)
REMARK    1  A    between atoms: C5_5  and  C8_8 
REMARK    2  A    between atoms: C6_6  and  C8_8 
REMARK    3  A    between atoms: C7_7  and  C8_8 
REMARK    4  A    between atoms: C8_8  and  N9_9 
ROOT
HETATM    1  C8  UNL     1     -34.716  15.639  -4.088  1.00 20.00     0.217 C 
ENDROOT
BRANCH   1   2
HETATM    2  C5  UNL     1     -34.071  16.054  -2.731  1.00 20.00     0.043 C 
HETATM    3  C1  UNL     1     -35.040  16.386  -1.601  1.00 20.00     0.008 C 
ENDBRANCH   1   2
BRANCH   1   4
HETATM    4  C6  UNL     1     -34.985  16.862  -5.034  1.00 20.00     0.021 C 
HETATM    5  C2  UNL     1     -34.033  18.047  -4.819  1.00 20.00     0.012 C 
HETATM    6  C3  UNL     1     -36.430  17.388  -4.966  1.00 20.00     0.012 C 
ENDBRANCH   1   4
BRANCH   1   7
HETATM    7  C7  UNL     1     -33.820  14.568  -4.743  1.00 20.00     0.391 C 
HETATM    8  F10 UNL     1     -33.554  14.905  -6.033  1.00 20.00    -0.212 F 
HETATM    9  F11 UNL     1     -32.617  14.502  -4.119  1.00 20.00    -0.212 F 
ENDBRANCH   1   7
BRANCH   1  10
HETATM   10  N9  UNL     1     -36.003  14.972  -3.811  1.00 20.00     0.094 N 
HETATM   11  C4  UNL     1     -36.056  13.686  -4.478  1.00 20.00     0.307 C 
HETATM   12  H28 UNL     1     -36.748  15.571  -4.149  1.00 20.00     0.316 HD
ENDBRANCH   1  10
TORSDOF 4
ENDMDL
