MODEL 1
REMARK VINA RESULT:      -4.4      0.000      0.000
REMARK  5 active torsions:
REMARK  status: ('A' for Active; 'I' for Inactive)
REMARK    1  A    between atoms: C5_5  and  C7_7 
REMARK    2  A    between atoms: C6_6  and  C8_8 
REMARK    3  A    between atoms: C7_7  and  C9_9 
REMARK    4  A    between atoms: C8_8  and  C9_9 
REMARK    5  A    between atoms: C9_9  and  O10_10 
ROOT
HETATM    1  C1  UNL     1     -35.113  16.338  -1.575  1.00 20.00     0.012 C 
HETATM    2  C2  UNL     1     -34.286  16.143  -2.423  1.00 20.00    -0.117 C 
HETATM    3  C5  UNL     1     -33.269  15.907  -3.459  1.00 20.00     0.096 C 
ENDROOT
BRANCH   3   4
HETATM    4  C7  UNL     1     -33.636  14.695  -4.318  1.00 20.00     0.049 C 
BRANCH   4   5
HETATM    5  C9  UNL     1     -34.243  15.023  -5.701  1.00 20.00     0.055 C 
HETATM    6  C4  UNL     1     -34.352  16.540  -5.908  1.00 20.00     0.045 C 
BRANCH   5   7
HETATM    7  C8  UNL     1     -35.618  14.373  -5.973  1.00 20.00     0.037 C 
BRANCH   7   8
HETATM    8  C6  UNL     1     -36.307  13.775  -4.741  1.00 20.00    -0.002 C 
HETATM    9  C3  UNL     1     -37.459  14.652  -4.272  1.00 20.00     0.005 C 
ENDBRANCH   7   8
ENDBRANCH   5   7
BRANCH   5  10
HETATM   10  O10 UNL     1     -33.322  14.561  -6.699  1.00 20.00    -0.390 OA
HETATM   11  H26 UNL     1     -32.630  15.235  -6.757  1.00 20.00     0.210 HD
ENDBRANCH   5  10
ENDBRANCH   4   5
ENDBRANCH   3   4
TORSDOF 5
ENDMDL
MODEL 2
REMARK VINA RESULT:      -4.2      1.483      1.832
REMARK  5 active torsions:
REMARK  status: ('A' for Active; 'I' for Inactive)
REMARK    1  A    between atoms: C5_5  and  C7_7 
REMARK    2  A    between atoms: C6_6  and  C8_8 
REMARK    3  A    between atoms: C7_7  and  C9_9 
REMARK    4  A    between atoms: C8_8  and  C9_9 
REMARK    5  A    between atoms: C9_9  and  O10_10 
ROOT
HETATM    1  C1  UNL     1     -32.317  18.149  -1.299  1.00 20.00     0.012 C 
HETATM    2  C2  UNL     1     -32.986  17.354  -1.901  1.00 20.00    -0.117 C 
HETATM    3  C5  UNL     1     -33.809  16.383  -2.638  1.00 20.00     0.096 C 
ENDROOT
BRANCH   3   4
HETATM    4  C7  UNL     1     -32.988  15.682  -3.722  1.00 20.00     0.049 C 
BRANCH   4   5
HETATM    5  C9  UNL     1     -33.717  14.542  -4.470  1.00 20.00     0.055 C 
HETATM    6  C4  UNL     1     -34.030  14.947  -5.917  1.00 20.00     0.045 C 
BRANCH   5   7
HETATM    7  C8  UNL     1     -35.013  14.049  -3.788  1.00 20.00     0.037 C 
BRANCH   7   8
HETATM    8  C6  UNL     1     -36.184  13.782  -4.741  1.00 20.00    -0.002 C 
HETATM    9  C3  UNL     1     -37.427  14.551  -4.315  1.00 20.00     0.005 C 
ENDBRANCH   7   8
ENDBRANCH   5   7
BRANCH   5  10
HETATM   10  O10 UNL     1     -32.809  13.435  -4.564  1.00 20.00    -0.390 OA
HETATM   11  H26 UNL     1     -32.929  13.067  -5.450  1.00 20.00     0.210 HD
ENDBRANCH   5  10
ENDBRANCH   4   5
ENDBRANCH   3   4
TORSDOF 5
ENDMDL
MODEL 3
REMARK VINA RESULT:      -4.1      1.480      3.650
REMARK  5 active torsions:
REMARK  status: ('A' for Active; 'I' for Inactive)
REMARK    1  A    between atoms: C5_5  and  C7_7 
REMARK    2  A    between atoms: C6_6  and  C8_8 
REMARK    3  A    between atoms: C7_7  and  C9_9 
REMARK    4  A    between atoms: C8_8  and  C9_9 
REMARK    5  A    between atoms: C9_9  and  O10_10 
ROOT
HETATM    1  C1  UNL     1     -34.585  17.792  -6.512  1.00 20.00     0.012 C 
HETATM    2  C2  UNL     1     -34.475  16.597  -6.544  1.00 20.00    -0.117 C 
HETATM    3  C5  UNL     1     -34.336  15.133  -6.584  1.00 20.00     0.096 C 
ENDROOT
BRANCH   3   4
HETATM    4  C7  UNL     1     -35.637  14.449  -6.159  1.00 20.00     0.049 C 
BRANCH   4   5
HETATM    5  C9  UNL     1     -35.727  14.069  -4.663  1.00 20.00     0.055 C 
HETATM    6  C4  UNL     1     -36.943  14.729  -4.000  1.00 20.00     0.045 C 
BRANCH   5   7
HETATM    7  C8  UNL     1     -34.461  14.393  -3.839  1.00 20.00     0.037 C 
BRANCH   7   8
HETATM    8  C6  UNL     1     -34.614  15.549  -2.843  1.00 20.00    -0.002 C 
HETATM    9  C3  UNL     1     -33.378  16.438  -2.834  1.00 20.00     0.005 C 
ENDBRANCH   7   8
ENDBRANCH   5   7
BRANCH   5  10
HETATM   10  O10 UNL     1     -35.962  12.656  -4.587  1.00 20.00    -0.390 OA
HETATM   11  H26 UNL     1     -36.892  12.528  -4.823  1.00 20.00     0.210 HD
ENDBRANCH   5  10
ENDBRANCH   4   5
ENDBRANCH   3   4
TORSDOF 5
ENDMDL
MODEL 4
REMARK VINA RESULT:      -4.0      1.699      2.348
REMARK  5 active torsions:
REMARK  status: ('A' for Active; 'I' for Inactive)
REMARK    1  A    between atoms: C5_5  and  C7_7 
REMARK    2  A    between atoms: C6_6  and  C8_8 
REMARK    3  A    between atoms: C7_7  and  C9_9 
REMARK    4  A    between atoms: C8_8  and  C9_9 
REMARK    5  A    between atoms: C9_9  and  O10_10 
ROOT
HETATM    1  C1  UNL     1     -32.935  17.301  -2.468  1.00 20.00     0.012 C 
HETATM    2  C2  UNL     1     -33.803  16.477  -2.551  1.00 20.00    -0.117 C 
HETATM    3  C5  UNL     1     -34.871  15.470  -2.651  1.00 20.00     0.096 C 
ENDROOT
BRANCH   3   4
HETATM    4  C7  UNL     1     -34.598  14.498  -3.802  1.00 20.00     0.049 C 
BRANCH   4   5
HETATM    5  C9  UNL     1     -35.836  14.098  -4.637  1.00 20.00     0.055 C 
HETATM    6  C4  UNL     1     -35.647  14.472  -6.114  1.00 20.00     0.045 C 
BRANCH   5   7
HETATM    7  C8  UNL     1     -37.172  14.686  -4.131  1.00 20.00     0.037 C 
BRANCH   7   8
HETATM    8  C6  UNL     1     -37.800  15.747  -5.042  1.00 20.00    -0.002 C 
HETATM    9  C3  UNL     1     -37.715  17.132  -4.416  1.00 20.00     0.005 C 
ENDBRANCH   7   8
ENDBRANCH   5   7
BRANCH   5  10
HETATM   10  O10 UNL     1     -35.935  12.667  -4.609  1.00 20.00    -0.390 OA
HETATM   11  H26 UNL     1     -35.158  12.337  -5.081  1.00 20.00     0.210 HD
ENDBRANCH   5  10
ENDBRANCH   4   5
ENDBRANCH   3   4
TORSDOF 5
ENDMDL
MODEL 5
REMARK VINA RESULT:      -3.9     16.422     18.283
REMARK  5 active torsions:
REMARK  status: ('A' for Active; 'I' for Inactive)
REMARK    1  A    between atoms: C5_5  and  C7_7 
REMARK    2  A    between atoms: C6_6  and  C8_8 
REMARK    3  A    between atoms: C7_7  and  C9_9 
REMARK    4  A    between atoms: C8_8  and  C9_9 
REMARK    5  A    between atoms: C9_9  and  O10_10 
ROOT
HETATM    1  C1  UNL     1     -25.425  19.209   6.575  1.00 20.00     0.012 C 
HETATM    2  C2  UNL     1     -25.156  19.119   7.741  1.00 20.00    -0.117 C 
HETATM    3  C5  UNL     1     -24.831  19.009   9.172  1.00 20.00     0.096 C 
ENDROOT
BRANCH   3   4
HETATM    4  C7  UNL     1     -23.318  18.913   9.382  1.00 20.00     0.049 C 
BRANCH   4   5
HETATM    5  C9  UNL     1     -22.784  17.500   9.713  1.00 20.00     0.055 C 
HETATM    6  C4  UNL     1     -21.971  16.931   8.542  1.00 20.00     0.045 C 
BRANCH   5   7
HETATM    7  C8  UNL     1     -23.870  16.480  10.121  1.00 20.00     0.037 C 
BRANCH   7   8
HETATM    8  C6  UNL     1     -24.039  16.283  11.632  1.00 20.00    -0.002 C 
HETATM    9  C3  UNL     1     -25.450  16.639  12.081  1.00 20.00     0.005 C 
ENDBRANCH   7   8
ENDBRANCH   5   7
BRANCH   5  10
HETATM   10  O10 UNL     1     -21.859  17.631  10.801  1.00 20.00    -0.390 OA
HETATM   11  H26 UNL     1     -21.764  18.581  10.958  1.00 20.00     0.210 HD
ENDBRANCH   5  10
ENDBRANCH   4   5
ENDBRANCH   3   4
TORSDOF 5
ENDMDL
MODEL 6
REMARK VINA RESULT:      -3.8      1.630      2.628
REMARK  5 active torsions:
REMARK  status: ('A' for Active; 'I' for Inactive)
REMARK    1  A    between atoms: C5_5  and  C7_7 
REMARK    2  A    between atoms: C6_6  and  C8_8 
REMARK    3  A    between atoms: C7_7  and  C9_9 
REMARK    4  A    between atoms: C8_8  and  C9_9 
REMARK    5  A    between atoms: C9_9  and  O10_10 
ROOT
HETATM    1  C1  UNL     1     -35.541  17.253  -0.292  1.00 20.00     0.012 C 
HETATM    2  C2  UNL     1     -34.976  16.760  -1.230  1.00 20.00    -0.117 C 
HETATM    3  C5  UNL     1     -34.281  16.158  -2.377  1.00 20.00     0.096 C 
ENDROOT
BRANCH   3   4
HETATM    4  C7  UNL     1     -35.167  15.119  -3.069  1.00 20.00     0.049 C 
BRANCH   4   5
HETATM    5  C9  UNL     1     -34.512  14.376  -4.255  1.00 20.00     0.055 C 
HETATM    6  C4  UNL     1     -33.002  14.648  -4.309  1.00 20.00     0.045 C 
BRANCH   5   7
HETATM    7  C8  UNL     1     -35.133  14.688  -5.635  1.00 20.00     0.037 C 
BRANCH   7   8
HETATM    8  C6  UNL     1     -34.443  15.811  -6.417  1.00 20.00    -0.002 C 
HETATM    9  C3  UNL     1     -33.999  15.334  -7.793  1.00 20.00     0.005 C 
ENDBRANCH   7   8
ENDBRANCH   5   7
BRANCH   5  10
HETATM   10  O10 UNL     1     -34.644  12.968  -4.011  1.00 20.00    -0.390 OA
HETATM   11  H26 UNL     1     -34.546  12.538  -4.872  1.00 20.00     0.210 HD
ENDBRANCH   5  10
ENDBRANCH   4   5
ENDBRANCH   3   4
TORSDOF 5
ENDMDL
MODEL 7
REMARK VINA RESULT:      -3.8      1.525      2.244
REMARK  5 active torsions:
REMARK  status: ('A' for Active; 'I' for Inactive)
REMARK    1  A    between atoms: C5_5  and  C7_7 
REMARK    2  A    between atoms: C6_6  and  C8_8 
REMARK    3  A    between atoms: C7_7  and  C9_9 
REMARK    4  A    between atoms: C8_8  and  C9_9 
REMARK    5  A    between atoms: C9_9  and  O10_10 
ROOT
HETATM    1  C1  UNL     1     -35.136  16.564  -1.516  1.00 20.00     0.012 C 
HETATM    2  C2  UNL     1     -34.644  15.903  -2.389  1.00 20.00    -0.117 C 
HETATM    3  C5  UNL     1     -34.037  15.093  -3.456  1.00 20.00     0.096 C 
ENDROOT
BRANCH   3   4
HETATM    4  C7  UNL     1     -35.105  14.305  -4.219  1.00 20.00     0.049 C 
BRANCH   4   5
HETATM    5  C9  UNL     1     -35.374  14.783  -5.664  1.00 20.00     0.055 C 
HETATM    6  C4  UNL     1     -34.061  15.114  -6.387  1.00 20.00     0.045 C 
BRANCH   5   7
HETATM    7  C8  UNL     1     -36.334  15.989  -5.777  1.00 20.00     0.037 C 
BRANCH   7   8
HETATM    8  C6  UNL     1     -35.666  17.314  -6.163  1.00 20.00    -0.002 C 
HETATM    9  C3  UNL     1     -35.719  18.313  -5.015  1.00 20.00     0.005 C 
ENDBRANCH   7   8
ENDBRANCH   5   7
BRANCH   5  10
HETATM   10  O10 UNL     1     -35.947  13.683  -6.385  1.00 20.00    -0.390 OA
HETATM   11  H26 UNL     1     -35.214  13.087  -6.589  1.00 20.00     0.210 HD
ENDBRANCH   5  10
ENDBRANCH   4   5
ENDBRANCH   3   4
TORSDOF 5
ENDMDL
MODEL 8
REMARK VINA RESULT:      -3.8     17.925     18.885
REMARK  5 active torsions:
REMARK  status: ('A' for Active; 'I' for Inactive)
REMARK    1  A    between atoms: C5_5  and  C7_7 
REMARK    2  A    between atoms: C6_6  and  C8_8 
REMARK    3  A    between atoms: C7_7  and  C9_9 
REMARK    4  A    between atoms: C8_8  and  C9_9 
REMARK    5  A    between atoms: C9_9  and  O10_10 
ROOT
HETATM    1  C1  UNL     1     -28.738  17.990  12.230  1.00 20.00     0.012 C 
HETATM    2  C2  UNL     1     -27.556  18.194  12.170  1.00 20.00    -0.117 C 
HETATM    3  C5  UNL     1     -26.109  18.448  12.099  1.00 20.00     0.096 C 
ENDROOT
BRANCH   3   4
HETATM    4  C7  UNL     1     -25.325  17.134  12.068  1.00 20.00     0.049 C 
BRANCH   4   5
HETATM    5  C9  UNL     1     -24.087  17.124  11.142  1.00 20.00     0.055 C 
HETATM    6  C4  UNL     1     -22.805  17.412  11.934  1.00 20.00     0.045 C 
BRANCH   5   7
HETATM    7  C8  UNL     1     -24.172  18.094   9.942  1.00 20.00     0.037 C 
BRANCH   7   8
HETATM    8  C6  UNL     1     -22.820  18.538   9.372  1.00 20.00    -0.002 C 
HETATM    9  C3  UNL     1     -22.404  17.668   8.194  1.00 20.00     0.005 C 
ENDBRANCH   7   8
ENDBRANCH   5   7
BRANCH   5  10
HETATM   10  O10 UNL     1     -23.938  15.791  10.633  1.00 20.00    -0.390 OA
HETATM   11  H26 UNL     1     -23.039  15.740  10.279  1.00 20.00     0.210 HD
ENDBRANCH   5  10
ENDBRANCH   4   5
ENDBRANCH   3   4
TORSDOF 5
ENDMDL
MODEL 9
REMARK VINA RESULT:      -3.7      1.421      3.497
REMARK  5 active torsions:
REMARK  status: ('A' for Active; 'I' for Inactive)
REMARK    1  A    between atoms: C5_5  and  C7_7 
REMARK    2  A    between atoms: C6_6  and  C8_8 
REMARK    3  A    between atoms: C7_7  and  C9_9 
REMARK    4  A    between atoms: C8_8  and  C9_9 
REMARK    5  A    between atoms: C9_9  and  O10_10 
ROOT
HETATM    1  C1  UNL     1     -37.212  16.917  -5.591  1.00 20.00     0.012 C 
HETATM    2  C2  UNL     1     -36.508  16.001  -5.918  1.00 20.00    -0.117 C 
HETATM    3  C5  UNL     1     -35.649  14.877  -6.322  1.00 20.00     0.096 C 
ENDROOT
BRANCH   3   4
HETATM    4  C7  UNL     1     -34.201  15.112  -5.886  1.00 20.00     0.049 C 
BRANCH   4   5
HETATM    5  C9  UNL     1     -33.836  14.570  -4.485  1.00 20.00     0.055 C 
HETATM    6  C4  UNL     1     -34.900  13.586  -3.982  1.00 20.00     0.045 C 
BRANCH   5   7
HETATM    7  C8  UNL     1     -33.602  15.658  -3.413  1.00 20.00     0.037 C 
BRANCH   7   8
HETATM    8  C6  UNL     1     -34.757  15.849  -2.423  1.00 20.00    -0.002 C 
HETATM    9  C3  UNL     1     -34.506  17.038  -1.505  1.00 20.00     0.005 C 
ENDBRANCH   7   8
ENDBRANCH   5   7
BRANCH   5  10
HETATM   10  O10 UNL     1     -32.630  13.804  -4.618  1.00 20.00    -0.390 OA
HETATM   11  H26 UNL     1     -32.000  14.377  -5.077  1.00 20.00     0.210 HD
ENDBRANCH   5  10
ENDBRANCH   4   5
ENDBRANCH   3   4
TORSDOF 5
ENDMDL
