MODEL 1
REMARK VINA RESULT:      -4.2      0.000      0.000
REMARK  2 active torsions:
REMARK  status: ('A' for Active; 'I' for Inactive)
REMARK    1  A    between atoms: C3_3  and  C7_7 
REMARK    2  A    between atoms: C3_3  and  C8_8 
ROOT
HETATM    1  C1  UNL     1     -33.983  15.032  -6.930  1.00 20.00     0.286 C 
HETATM    2  C2  UNL     1     -34.698  16.378  -6.844  1.00 20.00     0.074 C 
HETATM    3  C3  UNL     1     -34.078  15.189  -4.559  1.00 20.00     0.205 C 
HETATM    4  C4  UNL     1     -35.831  16.508  -7.848  1.00 20.00     0.023 C 
HETATM    5  N9  UNL     1     -33.206  14.872  -5.700  1.00 20.00     0.104 N 
HETATM    6  S10 UNL     1     -35.307  16.419  -5.136  1.00 20.00    -0.122 SA
HETATM    7  H27 UNL     1     -32.840  13.923  -5.630  1.00 20.00     0.318 HD
ENDROOT
BRANCH   3   8
HETATM    8  C7  UNL     1     -34.810  13.943  -4.051  1.00 20.00     0.048 C 
HETATM    9  C5  UNL     1     -36.271  14.010  -4.342  1.00 20.00     0.009 C 
ENDBRANCH   3   8
BRANCH   3  10
HETATM   10  C8  UNL     1     -33.227  15.804  -3.448  1.00 20.00     0.048 C 
HETATM   11  C6  UNL     1     -34.070  16.314  -2.328  1.00 20.00     0.009 C 
ENDBRANCH   3  10
TORSDOF 2
ENDMDL
MODEL 2
REMARK VINA RESULT:      -4.2     17.281     19.176
REMARK  2 active torsions:
REMARK  status: ('A' for Active; 'I' for Inactive)
REMARK    1  A    between atoms: C3_3  and  C7_7 
REMARK    2  A    between atoms: C3_3  and  C8_8 
ROOT
HETATM    1  C1  UNL     1     -22.937  17.086   8.712  1.00 20.00     0.286 C 
HETATM    2  C2  UNL     1     -23.464  18.517   8.767  1.00 20.00     0.074 C 
HETATM    3  C3  UNL     1     -23.547  17.111  11.010  1.00 20.00     0.205 C 
HETATM    4  C4  UNL     1     -24.310  18.879   7.557  1.00 20.00     0.023 C 
HETATM    5  N9  UNL     1     -22.489  16.735  10.061  1.00 20.00     0.104 N 
HETATM    6  S10 UNL     1     -24.434  18.547  10.299  1.00 20.00    -0.122 SA
HETATM    7  H27 UNL     1     -22.280  15.739  10.119  1.00 20.00     0.318 HD
ENDROOT
BRANCH   3   8
HETATM    8  C7  UNL     1     -24.536  15.963  11.229  1.00 20.00     0.048 C 
HETATM    9  C5  UNL     1     -25.493  16.269  12.332  1.00 20.00     0.009 C 
ENDBRANCH   3   8
BRANCH   3  10
HETATM   10  C8  UNL     1     -22.896  17.520  12.332  1.00 20.00     0.048 C 
HETATM   11  C6  UNL     1     -21.483  17.957  12.137  1.00 20.00     0.009 C 
ENDBRANCH   3  10
TORSDOF 2
ENDMDL
MODEL 3
REMARK VINA RESULT:      -3.7      0.924      1.018
REMARK  2 active torsions:
REMARK  status: ('A' for Active; 'I' for Inactive)
REMARK    1  A    between atoms: C3_3  and  C7_7 
REMARK    2  A    between atoms: C3_3  and  C8_8 
ROOT
HETATM    1  C1  UNL     1     -34.425  16.056  -6.396  1.00 20.00     0.286 C 
HETATM    2  C2  UNL     1     -35.543  17.021  -6.009  1.00 20.00     0.074 C 
HETATM    3  C3  UNL     1     -34.554  15.486  -4.091  1.00 20.00     0.205 C 
HETATM    4  C4  UNL     1     -36.661  17.069  -7.037  1.00 20.00     0.023 C 
HETATM    5  N9  UNL     1     -33.632  15.803  -5.191  1.00 20.00     0.104 N 
HETATM    6  S10 UNL     1     -36.122  16.374  -4.417  1.00 20.00    -0.122 SA
HETATM    7  H27 UNL     1     -32.975  15.042  -5.351  1.00 20.00     0.318 HD
ENDROOT
BRANCH   3   8
HETATM    8  C7  UNL     1     -34.833  13.981  -4.010  1.00 20.00     0.048 C 
HETATM    9  C5  UNL     1     -36.216  13.656  -4.463  1.00 20.00     0.009 C 
ENDBRANCH   3   8
BRANCH   3  10
HETATM   10  C8  UNL     1     -33.947  15.991  -2.782  1.00 20.00     0.048 C 
HETATM   11  C6  UNL     1     -35.000  16.297  -1.769  1.00 20.00     0.009 C 
ENDBRANCH   3  10
TORSDOF 2
ENDMDL
MODEL 4
REMARK VINA RESULT:      -3.6      1.430      1.977
REMARK  2 active torsions:
REMARK  status: ('A' for Active; 'I' for Inactive)
REMARK    1  A    between atoms: C3_3  and  C7_7 
REMARK    2  A    between atoms: C3_3  and  C8_8 
ROOT
HETATM    1  C1  UNL     1     -33.903  14.870  -5.622  1.00 20.00     0.286 C 
HETATM    2  C2  UNL     1     -34.494  16.109  -6.291  1.00 20.00     0.074 C 
HETATM    3  C3  UNL     1     -33.912  16.288  -3.713  1.00 20.00     0.205 C 
HETATM    4  C4  UNL     1     -35.641  15.779  -7.231  1.00 20.00     0.023 C 
HETATM    5  N9  UNL     1     -33.106  15.329  -4.483  1.00 20.00     0.104 N 
HETATM    6  S10 UNL     1     -35.045  17.118  -4.888  1.00 20.00    -0.122 SA
HETATM    7  H27 UNL     1     -32.823  14.539  -3.905  1.00 20.00     0.318 HD
ENDROOT
BRANCH   3   8
HETATM    8  C7  UNL     1     -34.735  15.584  -2.629  1.00 20.00     0.048 C 
HETATM    9  C5  UNL     1     -35.080  16.513  -1.515  1.00 20.00     0.009 C 
ENDBRANCH   3   8
BRANCH   3  10
HETATM   10  C8  UNL     1     -32.977  17.325  -3.090  1.00 20.00     0.048 C 
HETATM   11  C6  UNL     1     -32.963  18.594  -3.874  1.00 20.00     0.009 C 
ENDBRANCH   3  10
TORSDOF 2
ENDMDL
MODEL 5
REMARK VINA RESULT:      -3.6      2.316      3.410
REMARK  2 active torsions:
REMARK  status: ('A' for Active; 'I' for Inactive)
REMARK    1  A    between atoms: C3_3  and  C7_7 
REMARK    2  A    between atoms: C3_3  and  C8_8 
ROOT
HETATM    1  C1  UNL     1     -37.118  17.148  -3.712  1.00 20.00     0.286 C 
HETATM    2  C2  UNL     1     -36.494  17.422  -5.078  1.00 20.00     0.074 C 
HETATM    3  C3  UNL     1     -35.266  15.670  -3.517  1.00 20.00     0.205 C 
HETATM    4  C4  UNL     1     -36.495  18.898  -5.439  1.00 20.00     0.023 C 
HETATM    5  N9  UNL     1     -36.716  15.798  -3.313  1.00 20.00     0.104 N 
HETATM    6  S10 UNL     1     -34.810  16.773  -4.905  1.00 20.00    -0.122 SA
HETATM    7  H27 UNL     1     -36.967  15.624  -2.341  1.00 20.00     0.318 HD
ENDROOT
BRANCH   3   8
HETATM    8  C7  UNL     1     -34.486  16.082  -2.265  1.00 20.00     0.048 C 
HETATM    9  C5  UNL     1     -33.200  16.751  -2.618  1.00 20.00     0.009 C 
ENDBRANCH   3   8
BRANCH   3  10
HETATM   10  C8  UNL     1     -34.951  14.222  -3.894  1.00 20.00     0.048 C 
HETATM   11  C6  UNL     1     -36.109  13.564  -4.567  1.00 20.00     0.009 C 
ENDBRANCH   3  10
TORSDOF 2
ENDMDL
MODEL 6
REMARK VINA RESULT:      -3.6      2.015      2.961
REMARK  2 active torsions:
REMARK  status: ('A' for Active; 'I' for Inactive)
REMARK    1  A    between atoms: C3_3  and  C7_7 
REMARK    2  A    between atoms: C3_3  and  C8_8 
ROOT
HETATM    1  C1  UNL     1     -36.765  14.622  -4.136  1.00 20.00     0.286 C 
HETATM    2  C2  UNL     1     -36.725  15.715  -5.201  1.00 20.00     0.074 C 
HETATM    3  C3  UNL     1     -34.816  15.746  -3.365  1.00 20.00     0.205 C 
HETATM    4  C4  UNL     1     -38.097  16.295  -5.501  1.00 20.00     0.023 C 
HETATM    5  N9  UNL     1     -35.393  14.427  -3.661  1.00 20.00     0.104 N 
HETATM    6  S10 UNL     1     -35.612  16.956  -4.485  1.00 20.00    -0.122 SA
HETATM    7  H27 UNL     1     -35.384  13.828  -2.836  1.00 20.00     0.318 HD
ENDROOT
BRANCH   3   8
HETATM    8  C7  UNL     1     -35.074  16.157  -1.912  1.00 20.00     0.048 C 
HETATM    9  C5  UNL     1     -34.151  17.246  -1.479  1.00 20.00     0.009 C 
ENDBRANCH   3   8
BRANCH   3  10
HETATM   10  C8  UNL     1     -33.315  15.700  -3.652  1.00 20.00     0.048 C 
HETATM   11  C6  UNL     1     -32.940  14.479  -4.424  1.00 20.00     0.009 C 
ENDBRANCH   3  10
TORSDOF 2
ENDMDL
MODEL 7
REMARK VINA RESULT:      -3.6      1.098      3.651
REMARK  2 active torsions:
REMARK  status: ('A' for Active; 'I' for Inactive)
REMARK    1  A    between atoms: C3_3  and  C7_7 
REMARK    2  A    between atoms: C3_3  and  C8_8 
ROOT
HETATM    1  C1  UNL     1     -32.992  15.519  -3.794  1.00 20.00     0.286 C 
HETATM    2  C2  UNL     1     -34.103  15.959  -2.845  1.00 20.00     0.074 C 
HETATM    3  C3  UNL     1     -34.794  15.410  -5.342  1.00 20.00     0.205 C 
HETATM    4  C4  UNL     1     -33.690  17.117  -1.952  1.00 20.00     0.023 C 
HETATM    5  N9  UNL     1     -33.611  14.698  -4.838  1.00 20.00     0.104 N 
HETATM    6  S10 UNL     1     -35.452  16.423  -3.966  1.00 20.00    -0.122 SA
HETATM    7  H27 UNL     1     -32.946  14.514  -5.587  1.00 20.00     0.318 HD
ENDROOT
BRANCH   3   8
HETATM    8  C7  UNL     1     -34.438  16.325  -6.518  1.00 20.00     0.048 C 
HETATM    9  C5  UNL     1     -34.024  15.539  -7.716  1.00 20.00     0.009 C 
ENDBRANCH   3   8
BRANCH   3  10
HETATM   10  C8  UNL     1     -35.844  14.380  -5.761  1.00 20.00     0.048 C 
HETATM   11  C6  UNL     1     -36.401  13.652  -4.583  1.00 20.00     0.009 C 
ENDBRANCH   3  10
TORSDOF 2
ENDMDL
MODEL 8
REMARK VINA RESULT:      -3.5     11.452     13.338
REMARK  2 active torsions:
REMARK  status: ('A' for Active; 'I' for Inactive)
REMARK    1  A    between atoms: C3_3  and  C7_7 
REMARK    2  A    between atoms: C3_3  and  C8_8 
ROOT
HETATM    1  C1  UNL     1     -43.153   7.816  -1.107  1.00 20.00     0.286 C 
HETATM    2  C2  UNL     1     -41.681   8.032  -0.766  1.00 20.00     0.074 C 
HETATM    3  C3  UNL     1     -42.518   5.528  -0.979  1.00 20.00     0.205 C 
HETATM    4  C4  UNL     1     -41.470   9.133   0.260  1.00 20.00     0.023 C 
HETATM    5  N9  UNL     1     -43.259   6.517  -1.775  1.00 20.00     0.104 N 
HETATM    6  S10 UNL     1     -41.157   6.415  -0.134  1.00 20.00    -0.122 SA
HETATM    7  H27 UNL     1     -44.237   6.248  -1.878  1.00 20.00     0.318 HD
ENDROOT
BRANCH   3   8
HETATM    8  C7  UNL     1     -43.417   4.865   0.069  1.00 20.00     0.048 C 
HETATM    9  C5  UNL     1     -42.996   5.221   1.454  1.00 20.00     0.009 C 
ENDBRANCH   3   8
BRANCH   3  10
HETATM   10  C8  UNL     1     -41.931   4.479  -1.925  1.00 20.00     0.048 C 
HETATM   11  C6  UNL     1     -42.975   3.527  -2.406  1.00 20.00     0.009 C 
ENDBRANCH   3  10
TORSDOF 2
ENDMDL
MODEL 9
REMARK VINA RESULT:      -3.5      1.520      2.681
REMARK  2 active torsions:
REMARK  status: ('A' for Active; 'I' for Inactive)
REMARK    1  A    between atoms: C3_3  and  C7_7 
REMARK    2  A    between atoms: C3_3  and  C8_8 
ROOT
HETATM    1  C1  UNL     1     -35.278  17.373  -5.734  1.00 20.00     0.286 C 
HETATM    2  C2  UNL     1     -34.937  16.558  -6.979  1.00 20.00     0.074 C 
HETATM    3  C3  UNL     1     -34.985  15.269  -4.666  1.00 20.00     0.205 C 
HETATM    4  C4  UNL     1     -33.988  17.285  -7.917  1.00 20.00     0.023 C 
HETATM    5  N9  UNL     1     -35.856  16.450  -4.755  1.00 20.00     0.104 N 
HETATM    6  S10 UNL     1     -34.189  15.052  -6.300  1.00 20.00    -0.122 SA
HETATM    7  H27 UNL     1     -35.950  16.906  -3.849  1.00 20.00     0.318 HD
ENDROOT
BRANCH   3   8
HETATM    8  C7  UNL     1     -33.903  15.450  -3.596  1.00 20.00     0.048 C 
HETATM    9  C5  UNL     1     -34.473  15.995  -2.330  1.00 20.00     0.009 C 
ENDBRANCH   3   8
BRANCH   3  10
HETATM   10  C8  UNL     1     -35.849  14.046  -4.355  1.00 20.00     0.048 C 
HETATM   11  C6  UNL     1     -37.301  14.390  -4.335  1.00 20.00     0.009 C 
ENDBRANCH   3  10
TORSDOF 2
ENDMDL
