MODEL 1
REMARK VINA RESULT:      -4.0      0.000      0.000
REMARK  1 active torsions:
REMARK  status: ('A' for Active; 'I' for Inactive)
REMARK    1  A    between atoms: C3_3  and  C8_8 
ROOT
HETATM    1  C1  UNL     1     -35.728  16.646  -6.389  1.00 20.00     0.111 C 
HETATM    2  C2  UNL     1     -34.985  15.369  -6.773  1.00 20.00     0.227 C 
HETATM    3  C3  UNL     1     -35.201  14.940  -4.439  1.00 20.00     0.205 C 
HETATM    4  C4  UNL     1     -34.008  15.615  -7.918  1.00 20.00     0.043 C 
HETATM    5  C5  UNL     1     -35.946  13.607  -4.320  1.00 20.00     0.062 C 
HETATM    6  N9  UNL     1     -34.264  14.897  -5.576  1.00 20.00     0.108 N 
HETATM    7  S10 UNL     1     -36.403  16.282  -4.756  1.00 20.00    -0.126 SA
HETATM    8  H27 UNL     1     -33.905  13.955  -5.724  1.00 20.00     0.318 HD
ENDROOT
BRANCH   3   9
HETATM    9  C8  UNL     1     -34.440  15.238  -3.144  1.00 20.00     0.026 C 
HETATM   10  C6  UNL     1     -33.107  15.913  -3.451  1.00 20.00     0.013 C 
HETATM   11  C7  UNL     1     -35.283  16.107  -2.216  1.00 20.00     0.013 C 
ENDBRANCH   3   9
TORSDOF 1
ENDMDL
MODEL 2
REMARK VINA RESULT:      -4.0      1.405      1.780
REMARK  1 active torsions:
REMARK  status: ('A' for Active; 'I' for Inactive)
REMARK    1  A    between atoms: C3_3  and  C8_8 
ROOT
HETATM    1  C1  UNL     1     -35.778  14.725  -5.861  1.00 20.00     0.111 C 
HETATM    2  C2  UNL     1     -34.503  15.226  -6.535  1.00 20.00     0.227 C 
HETATM    3  C3  UNL     1     -33.683  15.131  -4.300  1.00 20.00     0.205 C 
HETATM    4  C4  UNL     1     -34.817  16.136  -7.718  1.00 20.00     0.043 C 
HETATM    5  C5  UNL     1     -32.468  14.198  -4.334  1.00 20.00     0.062 C 
HETATM    6  N9  UNL     1     -33.721  15.957  -5.521  1.00 20.00     0.108 N 
HETATM    7  S10 UNL     1     -35.215  14.133  -4.252  1.00 20.00    -0.126 SA
HETATM    8  H27 UNL     1     -32.782  16.151  -5.865  1.00 20.00     0.318 HD
ENDROOT
BRANCH   3   9
HETATM    9  C8  UNL     1     -33.626  16.030  -3.062  1.00 20.00     0.026 C 
HETATM   10  C6  UNL     1     -33.334  17.473  -3.461  1.00 20.00     0.013 C 
HETATM   11  C7  UNL     1     -34.931  15.941  -2.276  1.00 20.00     0.013 C 
ENDBRANCH   3   9
TORSDOF 1
ENDMDL
MODEL 3
REMARK VINA RESULT:      -3.9      1.607      1.758
REMARK  1 active torsions:
REMARK  status: ('A' for Active; 'I' for Inactive)
REMARK    1  A    between atoms: C3_3  and  C8_8 
ROOT
HETATM    1  C1  UNL     1     -36.085  16.093  -5.598  1.00 20.00     0.111 C 
HETATM    2  C2  UNL     1     -34.714  16.493  -6.137  1.00 20.00     0.227 C 
HETATM    3  C3  UNL     1     -34.001  15.583  -4.053  1.00 20.00     0.205 C 
HETATM    4  C4  UNL     1     -34.796  17.752  -6.993  1.00 20.00     0.043 C 
HETATM    5  C5  UNL     1     -33.006  14.469  -4.395  1.00 20.00     0.062 C 
HETATM    6  N9  UNL     1     -33.829  16.718  -4.979  1.00 20.00     0.108 N 
HETATM    7  S10 UNL     1     -35.708  14.955  -4.249  1.00 20.00    -0.126 SA
HETATM    8  H27 UNL     1     -32.860  16.803  -5.282  1.00 20.00     0.318 HD
ENDROOT
BRANCH   3   9
HETATM    9  C8  UNL     1     -33.797  16.050  -2.609  1.00 20.00     0.026 C 
HETATM   10  C6  UNL     1     -32.975  17.335  -2.574  1.00 20.00     0.013 C 
HETATM   11  C7  UNL     1     -35.141  16.251  -1.917  1.00 20.00     0.013 C 
ENDBRANCH   3   9
TORSDOF 1
ENDMDL
MODEL 4
REMARK VINA RESULT:      -3.9      2.267      3.114
REMARK  1 active torsions:
REMARK  status: ('A' for Active; 'I' for Inactive)
REMARK    1  A    between atoms: C3_3  and  C8_8 
ROOT
HETATM    1  C1  UNL     1     -36.274  13.772  -4.498  1.00 20.00     0.111 C 
HETATM    2  C2  UNL     1     -37.117  15.043  -4.459  1.00 20.00     0.227 C 
HETATM    3  C3  UNL     1     -35.097  15.957  -3.586  1.00 20.00     0.205 C 
HETATM    4  C4  UNL     1     -38.582  14.732  -4.168  1.00 20.00     0.043 C 
HETATM    5  C5  UNL     1     -34.715  17.108  -4.522  1.00 20.00     0.062 C 
HETATM    6  N9  UNL     1     -36.560  15.915  -3.408  1.00 20.00     0.108 N 
HETATM    7  S10 UNL     1     -34.579  14.369  -4.332  1.00 20.00    -0.126 SA
HETATM    8  H27 UNL     1     -36.967  16.848  -3.466  1.00 20.00     0.318 HD
ENDROOT
BRANCH   3   9
HETATM    9  C8  UNL     1     -34.410  16.127  -2.229  1.00 20.00     0.026 C 
HETATM   10  C6  UNL     1     -33.129  16.943  -2.377  1.00 20.00     0.013 C 
HETATM   11  C7  UNL     1     -35.355  16.785  -1.229  1.00 20.00     0.013 C 
ENDBRANCH   3   9
TORSDOF 1
ENDMDL
MODEL 5
REMARK VINA RESULT:      -3.9      1.409      1.992
REMARK  1 active torsions:
REMARK  status: ('A' for Active; 'I' for Inactive)
REMARK    1  A    between atoms: C3_3  and  C8_8 
ROOT
HETATM    1  C1  UNL     1     -35.919  14.577  -5.969  1.00 20.00     0.111 C 
HETATM    2  C2  UNL     1     -34.656  15.157  -6.600  1.00 20.00     0.227 C 
HETATM    3  C3  UNL     1     -34.053  15.454  -4.313  1.00 20.00     0.205 C 
HETATM    4  C4  UNL     1     -34.962  15.861  -7.917  1.00 20.00     0.043 C 
HETATM    5  C5  UNL     1     -32.736  14.697  -4.121  1.00 20.00     0.062 C 
HETATM    6  N9  UNL     1     -34.073  16.108  -5.635  1.00 20.00     0.108 N 
HETATM    7  S10 UNL     1     -35.448  14.273  -4.254  1.00 20.00    -0.126 SA
HETATM    8  H27 UNL     1     -33.135  16.382  -5.925  1.00 20.00     0.318 HD
ENDROOT
BRANCH   3   9
HETATM    9  C8  UNL     1     -34.229  16.500  -3.210  1.00 20.00     0.026 C 
HETATM   10  C6  UNL     1     -35.063  15.934  -2.065  1.00 20.00     0.013 C 
HETATM   11  C7  UNL     1     -32.871  16.976  -2.703  1.00 20.00     0.013 C 
ENDBRANCH   3   9
TORSDOF 1
ENDMDL
MODEL 6
REMARK VINA RESULT:      -3.7      2.281      3.150
REMARK  1 active torsions:
REMARK  status: ('A' for Active; 'I' for Inactive)
REMARK    1  A    between atoms: C3_3  and  C8_8 
ROOT
HETATM    1  C1  UNL     1     -38.042  14.672  -4.259  1.00 20.00     0.111 C 
HETATM    2  C2  UNL     1     -37.888  16.180  -4.436  1.00 20.00     0.227 C 
HETATM    3  C3  UNL     1     -35.585  15.642  -4.143  1.00 20.00     0.205 C 
HETATM    4  C4  UNL     1     -39.083  16.934  -3.861  1.00 20.00     0.043 C 
HETATM    5  C5  UNL     1     -34.868  16.154  -5.397  1.00 20.00     0.062 C 
HETATM    6  N9  UNL     1     -36.648  16.585  -3.748  1.00 20.00     0.108 N 
HETATM    7  S10 UNL     1     -36.373  14.032  -4.507  1.00 20.00    -0.126 SA
HETATM    8  H27 UNL     1     -36.401  17.543  -3.991  1.00 20.00     0.318 HD
ENDROOT
BRANCH   3   9
HETATM    9  C8  UNL     1     -34.587  15.469  -2.996  1.00 20.00     0.026 C 
HETATM   10  C6  UNL     1     -33.190  15.900  -3.433  1.00 20.00     0.013 C 
HETATM   11  C7  UNL     1     -35.036  16.259  -1.771  1.00 20.00     0.013 C 
ENDBRANCH   3   9
TORSDOF 1
ENDMDL
MODEL 7
REMARK VINA RESULT:      -3.7      2.191      3.545
REMARK  1 active torsions:
REMARK  status: ('A' for Active; 'I' for Inactive)
REMARK    1  A    between atoms: C3_3  and  C8_8 
ROOT
HETATM    1  C1  UNL     1     -36.617  17.518  -4.836  1.00 20.00     0.111 C 
HETATM    2  C2  UNL     1     -37.198  17.205  -3.460  1.00 20.00     0.227 C 
HETATM    3  C3  UNL     1     -35.218  15.890  -3.291  1.00 20.00     0.205 C 
HETATM    4  C4  UNL     1     -38.723  17.178  -3.491  1.00 20.00     0.043 C 
HETATM    5  C5  UNL     1     -34.472  16.405  -2.056  1.00 20.00     0.062 C 
HETATM    6  N9  UNL     1     -36.672  15.892  -3.042  1.00 20.00     0.108 N 
HETATM    7  S10 UNL     1     -34.892  17.002  -4.706  1.00 20.00    -0.126 SA
HETATM    8  H27 UNL     1     -36.878  15.722  -2.058  1.00 20.00     0.318 HD
ENDROOT
BRANCH   3   9
HETATM    9  C8  UNL     1     -34.750  14.475  -3.640  1.00 20.00     0.026 C 
HETATM   10  C6  UNL     1     -35.827  13.733  -4.425  1.00 20.00     0.013 C 
HETATM   11  C7  UNL     1     -33.445  14.523  -4.430  1.00 20.00     0.013 C 
ENDBRANCH   3   9
TORSDOF 1
ENDMDL
MODEL 8
REMARK VINA RESULT:      -3.7      1.685      3.860
REMARK  1 active torsions:
REMARK  status: ('A' for Active; 'I' for Inactive)
REMARK    1  A    between atoms: C3_3  and  C8_8 
ROOT
HETATM    1  C1  UNL     1     -35.025  17.606  -3.318  1.00 20.00     0.111 C 
HETATM    2  C2  UNL     1     -34.565  16.567  -2.299  1.00 20.00     0.227 C 
HETATM    3  C3  UNL     1     -34.593  15.159  -4.221  1.00 20.00     0.205 C 
HETATM    4  C4  UNL     1     -35.174  16.826  -0.925  1.00 20.00     0.043 C 
HETATM    5  C5  UNL     1     -33.174  14.594  -4.353  1.00 20.00     0.062 C 
HETATM    6  N9  UNL     1     -34.974  15.241  -2.799  1.00 20.00     0.108 N 
HETATM    7  S10 UNL     1     -34.640  16.852  -4.912  1.00 20.00    -0.126 SA
HETATM    8  H27 UNL     1     -34.532  14.502  -2.255  1.00 20.00     0.318 HD
ENDROOT
BRANCH   3   9
HETATM    9  C8  UNL     1     -35.587  14.275  -4.979  1.00 20.00     0.026 C 
HETATM   10  C6  UNL     1     -36.974  14.370  -4.351  1.00 20.00     0.013 C 
HETATM   11  C7  UNL     1     -35.634  14.666  -6.453  1.00 20.00     0.013 C 
ENDBRANCH   3   9
TORSDOF 1
ENDMDL
MODEL 9
REMARK VINA RESULT:      -3.6      2.426      4.386
REMARK  1 active torsions:
REMARK  status: ('A' for Active; 'I' for Inactive)
REMARK    1  A    between atoms: C3_3  and  C8_8 
ROOT
HETATM    1  C1  UNL     1     -34.288  17.669  -0.836  1.00 20.00     0.111 C 
HETATM    2  C2  UNL     1     -33.130  18.002  -1.773  1.00 20.00     0.227 C 
HETATM    3  C3  UNL     1     -34.275  16.467  -3.191  1.00 20.00     0.205 C 
HETATM    4  C4  UNL     1     -31.845  18.275  -0.999  1.00 20.00     0.043 C 
HETATM    5  C5  UNL     1     -34.587  17.233  -4.481  1.00 20.00     0.062 C 
HETATM    6  N9  UNL     1     -32.947  16.854  -2.681  1.00 20.00     0.108 N 
HETATM    7  S10 UNL     1     -35.512  16.897  -1.914  1.00 20.00    -0.126 SA
HETATM    8  H27 UNL     1     -32.316  17.098  -3.442  1.00 20.00     0.318 HD
ENDROOT
BRANCH   3   9
HETATM    9  C8  UNL     1     -34.318  14.958  -3.447  1.00 20.00     0.026 C 
HETATM   10  C6  UNL     1     -35.663  14.555  -4.042  1.00 20.00     0.013 C 
HETATM   11  C7  UNL     1     -33.174  14.540  -4.367  1.00 20.00     0.013 C 
ENDBRANCH   3   9
TORSDOF 1
ENDMDL
