MODEL 1
REMARK VINA RESULT:      -4.0      0.000      0.000
REMARK  3 active torsions:
REMARK  status: ('A' for Active; 'I' for Inactive)
REMARK    1  A    between atoms: C3_3  and  N7_7 
REMARK    2  A    between atoms: C4_4  and  C5_5 
REMARK    3  A    between atoms: C4_4  and  N7_7 
ROOT
HETATM    1  C1  UNL     1     -32.586   7.879   1.523  1.00 20.00     0.089 C 
HETATM    2  C3  UNL     1     -32.401   7.084   2.735  1.00 20.00     0.395 C 
HETATM    3  N6  UNL     1     -32.731   8.511   0.562  1.00 20.00    -0.195 NA
ENDROOT
BRANCH   2   4
HETATM    4  N7  UNL     1     -33.574   6.251   2.998  1.00 20.00     0.099 N 
HETATM    5  C2  UNL     1     -33.292   4.853   2.671  1.00 20.00     0.311 C 
BRANCH   4   6
HETATM    6  C4  UNL     1     -33.987   6.375   4.395  1.00 20.00     0.304 C 
BRANCH   6   7
HETATM    7  C5  UNL     1     -34.956   5.280   4.786  1.00 20.00     0.252 C 
HETATM    8  F8  UNL     1     -35.087   5.267   6.141  1.00 20.00    -0.254 F 
ENDBRANCH   6   7
ENDBRANCH   4   6
ENDBRANCH   2   4
TORSDOF 3
ENDMDL
MODEL 2
REMARK VINA RESULT:      -3.7      0.977      1.223
REMARK  3 active torsions:
REMARK  status: ('A' for Active; 'I' for Inactive)
REMARK    1  A    between atoms: C3_3  and  N7_7 
REMARK    2  A    between atoms: C4_4  and  C5_5 
REMARK    3  A    between atoms: C4_4  and  N7_7 
ROOT
HETATM    1  C1  UNL     1     -32.743   7.212   2.493  1.00 20.00     0.089 C 
HETATM    2  C3  UNL     1     -33.370   6.525   3.622  1.00 20.00     0.395 C 
HETATM    3  N6  UNL     1     -32.245   7.758   1.600  1.00 20.00    -0.195 NA
ENDROOT
BRANCH   2   4
HETATM    4  N7  UNL     1     -34.079   5.326   3.175  1.00 20.00     0.099 N 
HETATM    5  C2  UNL     1     -33.159   4.411   2.500  1.00 20.00     0.311 C 
BRANCH   4   6
HETATM    6  C4  UNL     1     -34.723   4.661   4.307  1.00 20.00     0.304 C 
BRANCH   6   7
HETATM    7  C5  UNL     1     -34.752   5.552   5.530  1.00 20.00     0.252 C 
HETATM    8  F8  UNL     1     -34.222   4.874   6.584  1.00 20.00    -0.254 F 
ENDBRANCH   6   7
ENDBRANCH   4   6
ENDBRANCH   2   4
TORSDOF 3
ENDMDL
MODEL 3
REMARK VINA RESULT:      -3.6     15.915     16.470
REMARK  3 active torsions:
REMARK  status: ('A' for Active; 'I' for Inactive)
REMARK    1  A    between atoms: C3_3  and  N7_7 
REMARK    2  A    between atoms: C4_4  and  C5_5 
REMARK    3  A    between atoms: C4_4  and  N7_7 
ROOT
HETATM    1  C1  UNL     1     -21.687  17.426   8.168  1.00 20.00     0.089 C 
HETATM    2  C3  UNL     1     -21.774  18.132   9.445  1.00 20.00     0.395 C 
HETATM    3  N6  UNL     1     -21.614  16.867   7.155  1.00 20.00    -0.195 NA
ENDROOT
BRANCH   2   4
HETATM    4  N7  UNL     1     -23.154  18.161   9.932  1.00 20.00     0.099 N 
HETATM    5  C2  UNL     1     -23.992  18.967   9.045  1.00 20.00     0.311 C 
BRANCH   4   6
HETATM    6  C4  UNL     1     -23.686  16.804  10.045  1.00 20.00     0.304 C 
BRANCH   6   7
HETATM    7  C5  UNL     1     -23.969  16.437  11.485  1.00 20.00     0.252 C 
HETATM    8  F8  UNL     1     -24.674  15.273  11.515  1.00 20.00    -0.254 F 
ENDBRANCH   6   7
ENDBRANCH   4   6
ENDBRANCH   2   4
TORSDOF 3
ENDMDL
MODEL 4
REMARK VINA RESULT:      -3.5     11.173     11.599
REMARK  3 active torsions:
REMARK  status: ('A' for Active; 'I' for Inactive)
REMARK    1  A    between atoms: C3_3  and  N7_7 
REMARK    2  A    between atoms: C4_4  and  C5_5 
REMARK    3  A    between atoms: C4_4  and  N7_7 
ROOT
HETATM    1  C1  UNL     1     -36.868  14.229  -4.646  1.00 20.00     0.089 C 
HETATM    2  C3  UNL     1     -35.526  14.637  -5.060  1.00 20.00     0.395 C 
HETATM    3  N6  UNL     1     -37.932  13.905  -4.319  1.00 20.00    -0.195 NA
ENDROOT
BRANCH   2   4
HETATM    4  N7  UNL     1     -34.559  14.422  -3.984  1.00 20.00     0.099 N 
HETATM    5  C2  UNL     1     -33.193  14.527  -4.496  1.00 20.00     0.311 C 
BRANCH   4   6
HETATM    6  C4  UNL     1     -34.775  15.383  -2.903  1.00 20.00     0.304 C 
BRANCH   6   7
HETATM    7  C5  UNL     1     -33.580  16.296  -2.726  1.00 20.00     0.252 C 
HETATM    8  F8  UNL     1     -33.662  16.902  -1.511  1.00 20.00    -0.254 F 
ENDBRANCH   6   7
ENDBRANCH   4   6
ENDBRANCH   2   4
TORSDOF 3
ENDMDL
MODEL 5
REMARK VINA RESULT:      -3.5      8.887      9.312
REMARK  3 active torsions:
REMARK  status: ('A' for Active; 'I' for Inactive)
REMARK    1  A    between atoms: C3_3  and  N7_7 
REMARK    2  A    between atoms: C4_4  and  C5_5 
REMARK    3  A    between atoms: C4_4  and  N7_7 
ROOT
HETATM    1  C1  UNL     1     -42.058   9.099   0.325  1.00 20.00     0.089 C 
HETATM    2  C3  UNL     1     -42.933   7.928   0.348  1.00 20.00     0.395 C 
HETATM    3  N6  UNL     1     -41.366  10.029   0.306  1.00 20.00    -0.195 NA
ENDROOT
BRANCH   2   4
HETATM    4  N7  UNL     1     -42.262   6.787   0.969  1.00 20.00     0.099 N 
HETATM    5  C2  UNL     1     -43.169   5.643   1.051  1.00 20.00     0.311 C 
BRANCH   4   6
HETATM    6  C4  UNL     1     -41.057   6.432   0.220  1.00 20.00     0.304 C 
BRANCH   6   7
HETATM    7  C5  UNL     1     -41.393   5.644  -1.028  1.00 20.00     0.252 C 
HETATM    8  F8  UNL     1     -40.408   4.734  -1.256  1.00 20.00    -0.254 F 
ENDBRANCH   6   7
ENDBRANCH   4   6
ENDBRANCH   2   4
TORSDOF 3
ENDMDL
MODEL 6
REMARK VINA RESULT:      -3.4     11.076     11.598
REMARK  3 active torsions:
REMARK  status: ('A' for Active; 'I' for Inactive)
REMARK    1  A    between atoms: C3_3  and  N7_7 
REMARK    2  A    between atoms: C4_4  and  C5_5 
REMARK    3  A    between atoms: C4_4  and  N7_7 
ROOT
HETATM    1  C1  UNL     1     -35.796  13.874  -4.204  1.00 20.00     0.089 C 
HETATM    2  C3  UNL     1     -35.665  15.210  -3.626  1.00 20.00     0.395 C 
HETATM    3  N6  UNL     1     -35.902  12.815  -4.663  1.00 20.00    -0.195 NA
ENDROOT
BRANCH   2   4
HETATM    4  N7  UNL     1     -34.396  15.348  -2.911  1.00 20.00     0.099 N 
HETATM    5  C2  UNL     1     -33.281  15.411  -3.856  1.00 20.00     0.311 C 
BRANCH   4   6
HETATM    6  C4  UNL     1     -34.413  16.538  -2.061  1.00 20.00     0.304 C 
BRANCH   6   7
HETATM    7  C5  UNL     1     -33.122  17.320  -2.175  1.00 20.00     0.252 C 
HETATM    8  F8  UNL     1     -32.712  17.681  -0.929  1.00 20.00    -0.254 F 
ENDBRANCH   6   7
ENDBRANCH   4   6
ENDBRANCH   2   4
TORSDOF 3
ENDMDL
MODEL 7
REMARK VINA RESULT:      -3.4     11.074     12.073
REMARK  3 active torsions:
REMARK  status: ('A' for Active; 'I' for Inactive)
REMARK    1  A    between atoms: C3_3  and  N7_7 
REMARK    2  A    between atoms: C4_4  and  C5_5 
REMARK    3  A    between atoms: C4_4  and  N7_7 
ROOT
HETATM    1  C1  UNL     1     -35.843  13.888  -4.621  1.00 20.00     0.089 C 
HETATM    2  C3  UNL     1     -35.798  15.343  -4.758  1.00 20.00     0.395 C 
HETATM    3  N6  UNL     1     -35.881  12.734  -4.511  1.00 20.00    -0.195 NA
ENDROOT
BRANCH   2   4
HETATM    4  N7  UNL     1     -34.447  15.794  -5.093  1.00 20.00     0.099 N 
HETATM    5  C2  UNL     1     -34.404  17.253  -5.186  1.00 20.00     0.311 C 
BRANCH   4   6
HETATM    6  C4  UNL     1     -33.487  15.317  -4.097  1.00 20.00     0.304 C 
BRANCH   6   7
HETATM    7  C5  UNL     1     -33.313  16.316  -2.973  1.00 20.00     0.252 C 
HETATM    8  F8  UNL     1     -34.147  15.983  -1.951  1.00 20.00    -0.254 F 
ENDBRANCH   6   7
ENDBRANCH   4   6
ENDBRANCH   2   4
TORSDOF 3
ENDMDL
MODEL 8
REMARK VINA RESULT:      -3.4      2.947      4.473
REMARK  3 active torsions:
REMARK  status: ('A' for Active; 'I' for Inactive)
REMARK    1  A    between atoms: C3_3  and  N7_7 
REMARK    2  A    between atoms: C4_4  and  C5_5 
REMARK    3  A    between atoms: C4_4  and  N7_7 
ROOT
HETATM    1  C1  UNL     1     -34.088   5.279   3.481  1.00 20.00     0.089 C 
HETATM    2  C3  UNL     1     -33.091   5.679   2.489  1.00 20.00     0.395 C 
HETATM    3  N6  UNL     1     -34.879   4.960   4.266  1.00 20.00    -0.195 NA
ENDROOT
BRANCH   2   4
HETATM    4  N7  UNL     1     -32.883   7.127   2.512  1.00 20.00     0.099 N 
HETATM    5  C2  UNL     1     -31.987   7.498   3.607  1.00 20.00     0.311 C 
BRANCH   4   6
HETATM    6  C4  UNL     1     -32.345   7.587   1.233  1.00 20.00     0.304 C 
BRANCH   6   7
HETATM    7  C5  UNL     1     -32.957   8.907   0.816  1.00 20.00     0.252 C 
HETATM    8  F8  UNL     1     -33.682   8.720  -0.320  1.00 20.00    -0.254 F 
ENDBRANCH   6   7
ENDBRANCH   4   6
ENDBRANCH   2   4
TORSDOF 3
ENDMDL
MODEL 9
REMARK VINA RESULT:      -3.4     11.084     11.826
REMARK  3 active torsions:
REMARK  status: ('A' for Active; 'I' for Inactive)
REMARK    1  A    between atoms: C3_3  and  N7_7 
REMARK    2  A    between atoms: C4_4  and  C5_5 
REMARK    3  A    between atoms: C4_4  and  N7_7 
ROOT
HETATM    1  C1  UNL     1     -36.137  13.870  -4.394  1.00 20.00     0.089 C 
HETATM    2  C3  UNL     1     -36.553  15.264  -4.252  1.00 20.00     0.395 C 
HETATM    3  N6  UNL     1     -35.809  12.763  -4.507  1.00 20.00    -0.195 NA
ENDROOT
BRANCH   2   4
HETATM    4  N7  UNL     1     -35.445  16.094  -3.779  1.00 20.00     0.099 N 
HETATM    5  C2  UNL     1     -35.130  15.780  -2.385  1.00 20.00     0.311 C 
BRANCH   4   6
HETATM    6  C4  UNL     1     -34.266  15.905  -4.624  1.00 20.00     0.304 C 
BRANCH   6   7
HETATM    7  C5  UNL     1     -33.038  15.587  -3.798  1.00 20.00     0.252 C 
HETATM    8  F8  UNL     1     -32.489  14.426  -4.250  1.00 20.00    -0.254 F 
ENDBRANCH   6   7
ENDBRANCH   4   6
ENDBRANCH   2   4
TORSDOF 3
ENDMDL
