MODEL 1
REMARK VINA RESULT:      -4.6      0.000      0.000
REMARK  4 active torsions:
REMARK  status: ('A' for Active; 'I' for Inactive)
REMARK    1  A    between atoms: C2_2  and  C8_8 
REMARK    2  A    between atoms: C6_6  and  C9_9 
REMARK    3  A    between atoms: C8_8  and  C9_9 
REMARK    4  A    between atoms: C9_9  and  O10_10 
ROOT
HETATM    1  C1  UNL     1     -34.892  16.190  -1.889  1.00 20.00    -0.111 C 
HETATM    2  C2  UNL     1     -34.701  15.424  -2.794  1.00 20.00    -0.104 C 
HETATM    3  C7  UNL     1     -35.124  17.123  -0.789  1.00 20.00     0.112 C 
ENDROOT
BRANCH   2   4
HETATM    4  C8  UNL     1     -34.469  14.483  -3.903  1.00 20.00     0.126 C 
BRANCH   4   5
HETATM    5  C9  UNL     1     -35.781  14.093  -4.586  1.00 20.00     0.143 C 
BRANCH   5   6
HETATM    6  C6  UNL     1     -35.805  14.557  -6.038  1.00 20.00     0.077 C 
HETATM    7  C4  UNL     1     -36.717  15.761  -6.263  1.00 20.00     0.018 C 
HETATM    8  C3  UNL     1     -35.923  17.009  -5.904  1.00 20.00     0.011 C 
HETATM    9  C5  UNL     1     -34.590  16.895  -6.622  1.00 20.00     0.074 C 
HETATM   10  S11 UNL     1     -34.148  15.138  -6.533  1.00 20.00    -0.162 SA
ENDBRANCH   5   6
BRANCH   5  11
HETATM   11  O10 UNL     1     -35.907  12.672  -4.562  1.00 20.00    -0.394 OA
HETATM   12  H25 UNL     1     -36.815  12.473  -4.837  1.00 20.00     0.210 HD
ENDBRANCH   5  11
ENDBRANCH   4   5
ENDBRANCH   2   4
TORSDOF 4
ENDMDL
MODEL 2
REMARK VINA RESULT:      -4.4     11.146     12.582
REMARK  4 active torsions:
REMARK  status: ('A' for Active; 'I' for Inactive)
REMARK    1  A    between atoms: C2_2  and  C8_8 
REMARK    2  A    between atoms: C6_6  and  C9_9 
REMARK    3  A    between atoms: C8_8  and  C9_9 
REMARK    4  A    between atoms: C9_9  and  O10_10 
ROOT
HETATM    1  C1  UNL     1     -32.944   8.444   0.688  1.00 20.00    -0.111 C 
HETATM    2  C2  UNL     1     -32.481   7.920   1.665  1.00 20.00    -0.104 C 
HETATM    3  C7  UNL     1     -33.508   9.080  -0.500  1.00 20.00     0.112 C 
ENDROOT
BRANCH   2   4
HETATM    4  C8  UNL     1     -31.912   7.279   2.862  1.00 20.00     0.126 C 
BRANCH   4   5
HETATM    5  C9  UNL     1     -32.761   6.090   3.314  1.00 20.00     0.143 C 
BRANCH   5   6
HETATM    6  C6  UNL     1     -34.055   6.556   3.971  1.00 20.00     0.077 C 
HETATM    7  C4  UNL     1     -35.156   5.497   3.938  1.00 20.00     0.018 C 
HETATM    8  C3  UNL     1     -34.924   4.561   5.116  1.00 20.00     0.011 C 
HETATM    9  C5  UNL     1     -34.726   5.442   6.336  1.00 20.00     0.074 C 
HETATM   10  S11 UNL     1     -33.773   6.868   5.747  1.00 20.00    -0.162 SA
ENDBRANCH   5   6
BRANCH   5  11
HETATM   11  O10 UNL     1     -33.091   5.300   2.172  1.00 20.00    -0.394 OA
HETATM   12  H25 UNL     1     -33.812   4.712   2.445  1.00 20.00     0.210 HD
ENDBRANCH   5  11
ENDBRANCH   4   5
ENDBRANCH   2   4
TORSDOF 4
ENDMDL
MODEL 3
REMARK VINA RESULT:      -4.2     11.698     13.261
REMARK  4 active torsions:
REMARK  status: ('A' for Active; 'I' for Inactive)
REMARK    1  A    between atoms: C2_2  and  C8_8 
REMARK    2  A    between atoms: C6_6  and  C9_9 
REMARK    3  A    between atoms: C8_8  and  C9_9 
REMARK    4  A    between atoms: C9_9  and  O10_10 
ROOT
HETATM    1  C1  UNL     1     -42.211   2.934  -3.286  1.00 20.00    -0.111 C 
HETATM    2  C2  UNL     1     -42.455   3.834  -2.529  1.00 20.00    -0.104 C 
HETATM    3  C7  UNL     1     -41.913   1.839  -4.207  1.00 20.00     0.112 C 
ENDROOT
BRANCH   2   4
HETATM    4  C8  UNL     1     -42.757   4.936  -1.600  1.00 20.00     0.126 C 
BRANCH   4   5
HETATM    5  C9  UNL     1     -41.477   5.617  -1.112  1.00 20.00     0.143 C 
BRANCH   5   6
HETATM    6  C6  UNL     1     -41.647   6.158   0.304  1.00 20.00     0.077 C 
HETATM    7  C4  UNL     1     -41.020   7.537   0.494  1.00 20.00     0.018 C 
HETATM    8  C3  UNL     1     -42.029   8.568   0.007  1.00 20.00     0.011 C 
HETATM    9  C5  UNL     1     -43.355   8.216   0.658  1.00 20.00     0.074 C 
HETATM   10  S11 UNL     1     -43.417   6.404   0.667  1.00 20.00    -0.162 SA
ENDBRANCH   5   6
BRANCH   5  11
HETATM   11  O10 UNL     1     -40.419   4.660  -1.108  1.00 20.00    -0.394 OA
HETATM   12  H25 UNL     1     -40.090   4.619  -0.197  1.00 20.00     0.210 HD
ENDBRANCH   5  11
ENDBRANCH   4   5
ENDBRANCH   2   4
TORSDOF 4
ENDMDL
MODEL 4
REMARK VINA RESULT:      -4.2      1.683      2.111
REMARK  4 active torsions:
REMARK  status: ('A' for Active; 'I' for Inactive)
REMARK    1  A    between atoms: C2_2  and  C8_8 
REMARK    2  A    between atoms: C6_6  and  C9_9 
REMARK    3  A    between atoms: C8_8  and  C9_9 
REMARK    4  A    between atoms: C9_9  and  O10_10 
ROOT
HETATM    1  C1  UNL     1     -34.748  16.652  -1.473  1.00 20.00    -0.111 C 
HETATM    2  C2  UNL     1     -34.209  16.313  -2.492  1.00 20.00    -0.104 C 
HETATM    3  C7  UNL     1     -35.403  17.062  -0.234  1.00 20.00     0.112 C 
ENDROOT
BRANCH   2   4
HETATM    4  C8  UNL     1     -33.548  15.900  -3.741  1.00 20.00     0.126 C 
BRANCH   4   5
HETATM    5  C9  UNL     1     -33.953  14.481  -4.143  1.00 20.00     0.143 C 
BRANCH   5   6
HETATM    6  C6  UNL     1     -34.975  14.499  -5.274  1.00 20.00     0.077 C 
HETATM    7  C4  UNL     1     -36.291  13.820  -4.900  1.00 20.00     0.018 C 
HETATM    8  C3  UNL     1     -37.136  14.844  -4.154  1.00 20.00     0.011 C 
HETATM    9  C5  UNL     1     -37.123  16.110  -4.991  1.00 20.00     0.074 C 
HETATM   10  S11 UNL     1     -35.441  16.220  -5.663  1.00 20.00    -0.162 SA
ENDBRANCH   5   6
BRANCH   5  11
HETATM   11  O10 UNL     1     -32.794  13.780  -4.591  1.00 20.00    -0.394 OA
HETATM   12  H25 UNL     1     -32.161  14.455  -4.880  1.00 20.00     0.210 HD
ENDBRANCH   5  11
ENDBRANCH   4   5
ENDBRANCH   2   4
TORSDOF 4
ENDMDL
MODEL 5
REMARK VINA RESULT:      -4.2     15.294     17.805
REMARK  4 active torsions:
REMARK  status: ('A' for Active; 'I' for Inactive)
REMARK    1  A    between atoms: C2_2  and  C8_8 
REMARK    2  A    between atoms: C6_6  and  C9_9 
REMARK    3  A    between atoms: C8_8  and  C9_9 
REMARK    4  A    between atoms: C9_9  and  O10_10 
ROOT
HETATM    1  C1  UNL     1     -26.146  18.883   5.512  1.00 20.00    -0.111 C 
HETATM    2  C2  UNL     1     -25.851  19.054   6.664  1.00 20.00    -0.104 C 
HETATM    3  C7  UNL     1     -26.507  18.675   4.112  1.00 20.00     0.112 C 
ENDROOT
BRANCH   2   4
HETATM    4  C8  UNL     1     -25.487  19.263   8.075  1.00 20.00     0.126 C 
BRANCH   4   5
HETATM    5  C9  UNL     1     -24.052  18.812   8.352  1.00 20.00     0.143 C 
BRANCH   5   6
HETATM    6  C6  UNL     1     -24.026  17.556   9.215  1.00 20.00     0.077 C 
HETATM    7  C4  UNL     1     -22.617  17.003   9.421  1.00 20.00     0.018 C 
HETATM    8  C3  UNL     1     -21.988  17.776  10.573  1.00 20.00     0.011 C 
HETATM    9  C5  UNL     1     -23.002  17.770  11.703  1.00 20.00     0.074 C 
HETATM   10  S11 UNL     1     -24.617  17.944  10.897  1.00 20.00    -0.162 SA
ENDBRANCH   5   6
BRANCH   5  11
HETATM   11  O10 UNL     1     -23.413  18.523   7.110  1.00 20.00    -0.394 OA
HETATM   12  H25 UNL     1     -23.349  19.363   6.632  1.00 20.00     0.210 HD
ENDBRANCH   5  11
ENDBRANCH   4   5
ENDBRANCH   2   4
TORSDOF 4
ENDMDL
MODEL 6
REMARK VINA RESULT:      -4.0      2.015      2.392
REMARK  4 active torsions:
REMARK  status: ('A' for Active; 'I' for Inactive)
REMARK    1  A    between atoms: C2_2  and  C8_8 
REMARK    2  A    between atoms: C6_6  and  C9_9 
REMARK    3  A    between atoms: C8_8  and  C9_9 
REMARK    4  A    between atoms: C9_9  and  O10_10 
ROOT
HETATM    1  C1  UNL     1     -33.172  17.003  -2.303  1.00 20.00    -0.111 C 
HETATM    2  C2  UNL     1     -33.778  16.104  -2.819  1.00 20.00    -0.104 C 
HETATM    3  C7  UNL     1     -32.434  18.098  -1.676  1.00 20.00     0.112 C 
ENDROOT
BRANCH   2   4
HETATM    4  C8  UNL     1     -34.521  15.000  -3.449  1.00 20.00     0.126 C 
BRANCH   4   5
HETATM    5  C9  UNL     1     -34.121  14.826  -4.916  1.00 20.00     0.143 C 
BRANCH   5   6
HETATM    6  C6  UNL     1     -34.446  16.075  -5.727  1.00 20.00     0.077 C 
HETATM    7  C4  UNL     1     -34.205  15.893  -7.224  1.00 20.00     0.018 C 
HETATM    8  C3  UNL     1     -35.441  15.224  -7.807  1.00 20.00     0.011 C 
HETATM    9  C5  UNL     1     -36.638  16.008  -7.300  1.00 20.00     0.074 C 
HETATM   10  S11 UNL     1     -36.225  16.459  -5.593  1.00 20.00    -0.162 SA
ENDBRANCH   5   6
BRANCH   5  11
HETATM   11  O10 UNL     1     -32.715  14.594  -4.984  1.00 20.00    -0.394 OA
HETATM   12  H25 UNL     1     -32.364  15.227  -5.629  1.00 20.00     0.210 HD
ENDBRANCH   5  11
ENDBRANCH   4   5
ENDBRANCH   2   4
TORSDOF 4
ENDMDL
MODEL 7
REMARK VINA RESULT:      -3.9      1.660      2.134
REMARK  4 active torsions:
REMARK  status: ('A' for Active; 'I' for Inactive)
REMARK    1  A    between atoms: C2_2  and  C8_8 
REMARK    2  A    between atoms: C6_6  and  C9_9 
REMARK    3  A    between atoms: C8_8  and  C9_9 
REMARK    4  A    between atoms: C9_9  and  O10_10 
ROOT
HETATM    1  C1  UNL     1     -34.721  16.713  -1.491  1.00 20.00    -0.111 C 
HETATM    2  C2  UNL     1     -34.007  16.317  -2.373  1.00 20.00    -0.104 C 
HETATM    3  C7  UNL     1     -35.589  17.193  -0.419  1.00 20.00     0.112 C 
ENDROOT
BRANCH   2   4
HETATM    4  C8  UNL     1     -33.131  15.833  -3.453  1.00 20.00     0.126 C 
BRANCH   4   5
HETATM    5  C9  UNL     1     -33.936  15.143  -4.556  1.00 20.00     0.143 C 
BRANCH   5   6
HETATM    6  C6  UNL     1     -34.211  16.095  -5.714  1.00 20.00     0.077 C 
HETATM    7  C4  UNL     1     -34.316  15.381  -7.060  1.00 20.00     0.018 C 
HETATM    8  C3  UNL     1     -35.739  14.856  -7.188  1.00 20.00     0.011 C 
HETATM    9  C5  UNL     1     -36.661  16.012  -6.845  1.00 20.00     0.074 C 
HETATM   10  S11 UNL     1     -35.836  16.894  -5.490  1.00 20.00    -0.162 SA
ENDBRANCH   5   6
BRANCH   5  11
HETATM   11  O10 UNL     1     -33.186  14.034  -5.048  1.00 20.00    -0.394 OA
HETATM   12  H25 UNL     1     -33.804  13.291  -5.111  1.00 20.00     0.210 HD
ENDBRANCH   5  11
ENDBRANCH   4   5
ENDBRANCH   2   4
TORSDOF 4
ENDMDL
MODEL 8
REMARK VINA RESULT:      -3.7      1.991      2.882
REMARK  4 active torsions:
REMARK  status: ('A' for Active; 'I' for Inactive)
REMARK    1  A    between atoms: C2_2  and  C8_8 
REMARK    2  A    between atoms: C6_6  and  C9_9 
REMARK    3  A    between atoms: C8_8  and  C9_9 
REMARK    4  A    between atoms: C9_9  and  O10_10 
ROOT
HETATM    1  C1  UNL     1     -33.703  17.951  -0.809  1.00 20.00    -0.111 C 
HETATM    2  C2  UNL     1     -34.009  17.064  -1.559  1.00 20.00    -0.104 C 
HETATM    3  C7  UNL     1     -33.330  19.030   0.103  1.00 20.00     0.112 C 
ENDROOT
BRANCH   2   4
HETATM    4  C8  UNL     1     -34.387  15.977  -2.478  1.00 20.00     0.126 C 
BRANCH   4   5
HETATM    5  C9  UNL     1     -33.392  15.854  -3.633  1.00 20.00     0.143 C 
BRANCH   5   6
HETATM    6  C6  UNL     1     -33.641  14.587  -4.443  1.00 20.00     0.077 C 
HETATM    7  C4  UNL     1     -34.867  13.809  -3.970  1.00 20.00     0.018 C 
HETATM    8  C3  UNL     1     -36.088  14.438  -4.627  1.00 20.00     0.011 C 
HETATM    9  C5  UNL     1     -35.767  14.565  -6.105  1.00 20.00     0.074 C 
HETATM   10  S11 UNL     1     -34.013  15.019  -6.176  1.00 20.00    -0.162 SA
ENDBRANCH   5   6
BRANCH   5  11
HETATM   11  O10 UNL     1     -33.547  16.981  -4.495  1.00 20.00    -0.394 OA
HETATM   12  H25 UNL     1     -33.732  16.627  -5.378  1.00 20.00     0.210 HD
ENDBRANCH   5  11
ENDBRANCH   4   5
ENDBRANCH   2   4
TORSDOF 4
ENDMDL
MODEL 9
REMARK VINA RESULT:      -3.7     16.283     18.869
REMARK  4 active torsions:
REMARK  status: ('A' for Active; 'I' for Inactive)
REMARK    1  A    between atoms: C2_2  and  C8_8 
REMARK    2  A    between atoms: C6_6  and  C9_9 
REMARK    3  A    between atoms: C8_8  and  C9_9 
REMARK    4  A    between atoms: C9_9  and  O10_10 
ROOT
HETATM    1  C1  UNL     1     -24.742  19.038   7.546  1.00 20.00    -0.111 C 
HETATM    2  C2  UNL     1     -24.000  18.854   8.472  1.00 20.00    -0.104 C 
HETATM    3  C7  UNL     1     -25.645  19.262   6.419  1.00 20.00     0.112 C 
ENDROOT
BRANCH   2   4
HETATM    4  C8  UNL     1     -23.090  18.629   9.608  1.00 20.00     0.126 C 
BRANCH   4   5
HETATM    5  C9  UNL     1     -23.159  17.181  10.097  1.00 20.00     0.143 C 
BRANCH   5   6
HETATM    6  C6  UNL     1     -23.465  17.118  11.590  1.00 20.00     0.077 C 
HETATM    7  C4  UNL     1     -24.153  18.378  12.111  1.00 20.00     0.018 C 
HETATM    8  C3  UNL     1     -25.642  18.235  11.826  1.00 20.00     0.011 C 
HETATM    9  C5  UNL     1     -26.048  16.860  12.325  1.00 20.00     0.074 C 
HETATM   10  S11 UNL     1     -24.652  15.774  11.924  1.00 20.00    -0.162 SA
ENDBRANCH   5   6
BRANCH   5  11
HETATM   11  O10 UNL     1     -24.200  16.506   9.392  1.00 20.00    -0.394 OA
HETATM   12  H25 UNL     1     -23.810  16.196   8.561  1.00 20.00     0.210 HD
ENDBRANCH   5  11
ENDBRANCH   4   5
ENDBRANCH   2   4
TORSDOF 4
ENDMDL
