MODEL 1
REMARK VINA RESULT:      -4.4      0.000      0.000
REMARK  1 active torsions:
REMARK  status: ('A' for Active; 'I' for Inactive)
REMARK    1  A    between atoms: C5_5  and  O9_9 
ROOT
HETATM    1  C1  UNL     1     -22.443  18.128  11.131  1.00 20.00     0.012 C 
HETATM    2  C2  UNL     1     -23.544  18.001  12.179  1.00 20.00     0.038 C 
HETATM    3  C3  UNL     1     -24.451  17.074  10.164  1.00 20.00     0.046 C 
HETATM    4  C4  UNL     1     -23.117  17.772   9.786  1.00 20.00    -0.045 C 
HETATM    5  C5  UNL     1     -24.372  16.824  11.672  1.00 20.00     0.055 C 
HETATM    6  C6  UNL     1     -22.217  16.841   8.963  1.00 20.00     0.015 C 
HETATM    7  C7  UNL     1     -23.396  19.043   8.969  1.00 20.00     0.015 C 
HETATM    8  C8  UNL     1     -25.740  16.723  12.332  1.00 20.00     0.045 C 
ENDROOT
BRANCH   5   9
HETATM    9  O9  UNL     1     -23.665  15.605  11.897  1.00 20.00    -0.390 OA
HETATM   10  H25 UNL     1     -24.060  14.946  11.307  1.00 20.00     0.210 HD
ENDBRANCH   5   9
TORSDOF 1
ENDMDL
MODEL 2
REMARK VINA RESULT:      -4.1     18.825     19.720
REMARK  1 active torsions:
REMARK  status: ('A' for Active; 'I' for Inactive)
REMARK    1  A    between atoms: C5_5  and  O9_9 
ROOT
HETATM    1  C1  UNL     1     -35.190  13.823  -3.928  1.00 20.00     0.012 C 
HETATM    2  C2  UNL     1     -36.442  14.243  -4.691  1.00 20.00     0.038 C 
HETATM    3  C3  UNL     1     -34.820  15.957  -5.106  1.00 20.00     0.046 C 
HETATM    4  C4  UNL     1     -34.247  15.047  -3.986  1.00 20.00    -0.045 C 
HETATM    5  C5  UNL     1     -35.889  15.118  -5.811  1.00 20.00     0.055 C 
HETATM    6  C6  UNL     1     -32.813  14.606  -4.308  1.00 20.00     0.015 C 
HETATM    7  C7  UNL     1     -34.249  15.794  -2.644  1.00 20.00     0.015 C 
HETATM    8  C8  UNL     1     -36.954  15.963  -6.496  1.00 20.00     0.045 C 
ENDROOT
BRANCH   5   9
HETATM    9  O9  UNL     1     -35.255  14.299  -6.794  1.00 20.00    -0.390 OA
HETATM   10  H25 UNL     1     -34.349  14.633  -6.884  1.00 20.00     0.210 HD
ENDBRANCH   5   9
TORSDOF 1
ENDMDL
MODEL 3
REMARK VINA RESULT:      -4.0     18.253     19.226
REMARK  1 active torsions:
REMARK  status: ('A' for Active; 'I' for Inactive)
REMARK    1  A    between atoms: C5_5  and  O9_9 
ROOT
HETATM    1  C1  UNL     1     -34.828  14.566  -3.522  1.00 20.00     0.012 C 
HETATM    2  C2  UNL     1     -35.384  14.210  -4.896  1.00 20.00     0.038 C 
HETATM    3  C3  UNL     1     -34.507  16.431  -5.102  1.00 20.00     0.046 C 
HETATM    4  C4  UNL     1     -34.505  16.076  -3.590  1.00 20.00    -0.045 C 
HETATM    5  C5  UNL     1     -34.569  15.090  -5.839  1.00 20.00     0.055 C 
HETATM    6  C6  UNL     1     -33.138  16.364  -2.956  1.00 20.00     0.015 C 
HETATM    7  C7  UNL     1     -35.577  16.892  -2.853  1.00 20.00     0.015 C 
HETATM    8  C8  UNL     1     -35.175  15.203  -7.231  1.00 20.00     0.045 C 
ENDROOT
BRANCH   5   9
HETATM    9  O9  UNL     1     -33.245  14.572  -5.958  1.00 20.00    -0.390 OA
HETATM   10  H25 UNL     1     -33.130  14.324  -6.888  1.00 20.00     0.210 HD
ENDBRANCH   5   9
TORSDOF 1
ENDMDL
MODEL 4
REMARK VINA RESULT:      -4.0     22.921     23.998
REMARK  1 active torsions:
REMARK  status: ('A' for Active; 'I' for Inactive)
REMARK    1  A    between atoms: C5_5  and  O9_9 
ROOT
HETATM    1  C1  UNL     1     -43.417   6.668  -0.757  1.00 20.00     0.012 C 
HETATM    2  C2  UNL     1     -43.237   8.128  -0.358  1.00 20.00     0.038 C 
HETATM    3  C3  UNL     1     -41.250   7.003   0.368  1.00 20.00     0.046 C 
HETATM    4  C4  UNL     1     -42.264   5.909  -0.062  1.00 20.00    -0.045 C 
HETATM    5  C5  UNL     1     -41.720   8.291  -0.312  1.00 20.00     0.055 C 
HETATM    6  C6  UNL     1     -41.620   4.906  -1.029  1.00 20.00     0.015 C 
HETATM    7  C7  UNL     1     -42.781   5.151   1.169  1.00 20.00     0.015 C 
HETATM    8  C8  UNL     1     -41.272   9.549   0.418  1.00 20.00     0.045 C 
ENDROOT
BRANCH   5   9
HETATM    9  O9  UNL     1     -41.199   8.324  -1.640  1.00 20.00    -0.390 OA
HETATM   10  H25 UNL     1     -40.962   7.411  -1.864  1.00 20.00     0.210 HD
ENDBRANCH   5   9
TORSDOF 1
ENDMDL
MODEL 5
REMARK VINA RESULT:      -3.9     17.830     18.756
REMARK  1 active torsions:
REMARK  status: ('A' for Active; 'I' for Inactive)
REMARK    1  A    between atoms: C5_5  and  O9_9 
ROOT
HETATM    1  C1  UNL     1     -35.512  17.182  -3.716  1.00 20.00     0.012 C 
HETATM    2  C2  UNL     1     -35.909  16.230  -4.839  1.00 20.00     0.038 C 
HETATM    3  C3  UNL     1     -34.946  14.855  -3.129  1.00 20.00     0.046 C 
HETATM    4  C4  UNL     1     -34.665  16.332  -2.741  1.00 20.00    -0.045 C 
HETATM    5  C5  UNL     1     -36.117  14.904  -4.114  1.00 20.00     0.055 C 
HETATM    6  C6  UNL     1     -35.075  16.611  -1.289  1.00 20.00     0.015 C 
HETATM    7  C7  UNL     1     -33.171  16.649  -2.907  1.00 20.00     0.015 C 
HETATM    8  C8  UNL     1     -36.158  13.706  -5.051  1.00 20.00     0.045 C 
ENDROOT
BRANCH   5   9
HETATM    9  O9  UNL     1     -37.337  14.947  -3.373  1.00 20.00    -0.390 OA
HETATM   10  H25 UNL     1     -37.139  14.577  -2.499  1.00 20.00     0.210 HD
ENDBRANCH   5   9
TORSDOF 1
ENDMDL
MODEL 6
REMARK VINA RESULT:      -3.9     23.410     24.411
REMARK  1 active torsions:
REMARK  status: ('A' for Active; 'I' for Inactive)
REMARK    1  A    between atoms: C5_5  and  O9_9 
ROOT
HETATM    1  C1  UNL     1     -42.083   6.681   0.945  1.00 20.00     0.012 C 
HETATM    2  C2  UNL     1     -42.665   5.367   0.437  1.00 20.00     0.038 C 
HETATM    3  C3  UNL     1     -42.538   6.806  -1.474  1.00 20.00     0.046 C 
HETATM    4  C4  UNL     1     -42.245   7.679  -0.224  1.00 20.00    -0.045 C 
HETATM    5  C5  UNL     1     -42.277   5.362  -1.038  1.00 20.00     0.055 C 
HETATM    6  C6  UNL     1     -40.964   8.502  -0.411  1.00 20.00     0.015 C 
HETATM    7  C7  UNL     1     -43.417   8.635   0.041  1.00 20.00     0.015 C 
HETATM    8  C8  UNL     1     -43.052   4.342  -1.861  1.00 20.00     0.045 C 
ENDROOT
BRANCH   5   9
HETATM    9  O9  UNL     1     -40.882   5.089  -1.168  1.00 20.00    -0.390 OA
HETATM   10  H25 UNL     1     -40.810   4.176  -1.485  1.00 20.00     0.210 HD
ENDBRANCH   5   9
TORSDOF 1
ENDMDL
MODEL 7
REMARK VINA RESULT:      -3.8     23.048     24.037
REMARK  1 active torsions:
REMARK  status: ('A' for Active; 'I' for Inactive)
REMARK    1  A    between atoms: C5_5  and  O9_9 
ROOT
HETATM    1  C1  UNL     1     -41.296   7.355  -1.155  1.00 20.00     0.012 C 
HETATM    2  C2  UNL     1     -41.137   6.099  -0.306  1.00 20.00     0.038 C 
HETATM    3  C3  UNL     1     -42.948   7.323   0.675  1.00 20.00     0.046 C 
HETATM    4  C4  UNL     1     -42.280   8.255  -0.372  1.00 20.00    -0.045 C 
HETATM    5  C5  UNL     1     -42.527   5.902   0.290  1.00 20.00     0.055 C 
HETATM    6  C6  UNL     1     -43.324   8.862  -1.319  1.00 20.00     0.015 C 
HETATM    7  C7  UNL     1     -41.527   9.392   0.334  1.00 20.00     0.015 C 
HETATM    8  C8  UNL     1     -42.548   4.935   1.465  1.00 20.00     0.045 C 
ENDROOT
BRANCH   5   9
HETATM    9  O9  UNL     1     -43.417   5.418  -0.715  1.00 20.00    -0.390 OA
HETATM   10  H25 UNL     1     -43.427   6.086  -1.417  1.00 20.00     0.210 HD
ENDBRANCH   5   9
TORSDOF 1
ENDMDL
MODEL 8
REMARK VINA RESULT:      -3.8     17.869     18.819
REMARK  1 active torsions:
REMARK  status: ('A' for Active; 'I' for Inactive)
REMARK    1  A    between atoms: C5_5  and  O9_9 
ROOT
HETATM    1  C1  UNL     1     -33.096  15.558  -3.607  1.00 20.00     0.012 C 
HETATM    2  C2  UNL     1     -33.675  14.569  -4.612  1.00 20.00     0.038 C 
HETATM    3  C3  UNL     1     -35.290  16.329  -4.424  1.00 20.00     0.046 C 
HETATM    4  C4  UNL     1     -34.244  16.546  -3.297  1.00 20.00    -0.045 C 
HETATM    5  C5  UNL     1     -34.601  15.437  -5.460  1.00 20.00     0.055 C 
HETATM    6  C6  UNL     1     -33.725  17.990  -3.292  1.00 20.00     0.015 C 
HETATM    7  C7  UNL     1     -34.868  16.236  -1.929  1.00 20.00     0.015 C 
HETATM    8  C8  UNL     1     -35.581  14.630  -6.298  1.00 20.00     0.045 C 
ENDROOT
BRANCH   5   9
HETATM    9  O9  UNL     1     -33.825  16.260  -6.330  1.00 20.00    -0.390 OA
HETATM   10  H25 UNL     1     -34.186  16.133  -7.221  1.00 20.00     0.210 HD
ENDBRANCH   5   9
TORSDOF 1
ENDMDL
MODEL 9
REMARK VINA RESULT:      -3.7     17.748     18.728
REMARK  1 active torsions:
REMARK  status: ('A' for Active; 'I' for Inactive)
REMARK    1  A    between atoms: C5_5  and  O9_9 
ROOT
HETATM    1  C1  UNL     1     -35.199  15.901  -5.355  1.00 20.00     0.012 C 
HETATM    2  C2  UNL     1     -34.252  16.925  -4.738  1.00 20.00     0.038 C 
HETATM    3  C3  UNL     1     -34.851  15.436  -2.959  1.00 20.00     0.046 C 
HETATM    4  C4  UNL     1     -35.779  15.110  -4.161  1.00 20.00    -0.045 C 
HETATM    5  C5  UNL     1     -33.649  16.173  -3.555  1.00 20.00     0.055 C 
HETATM    6  C6  UNL     1     -35.786  13.605  -4.463  1.00 20.00     0.015 C 
HETATM    7  C7  UNL     1     -37.215  15.564  -3.859  1.00 20.00     0.015 C 
HETATM    8  C8  UNL     1     -32.953  17.084  -2.555  1.00 20.00     0.045 C 
ENDROOT
BRANCH   5   9
HETATM    9  O9  UNL     1     -32.709  15.208  -4.026  1.00 20.00    -0.390 OA
HETATM   10  H25 UNL     1     -32.638  15.340  -4.984  1.00 20.00     0.210 HD
ENDBRANCH   5   9
TORSDOF 1
ENDMDL
