MODEL 1
REMARK VINA RESULT:      -4.1      0.000      0.000
REMARK  3 active torsions:
REMARK  status: ('A' for Active; 'I' for Inactive)
REMARK    1  A    between atoms: C2_2  and  C8_8 
REMARK    2  A    between atoms: C6_6  and  N9_9 
REMARK    3  A    between atoms: C8_8  and  N9_9 
ROOT
HETATM    1  N9  UNL     1     -34.889  15.668  -4.670  1.00 20.00     0.094 N 
HETATM    2  H25 UNL     1     -34.243  15.335  -5.389  1.00 20.00     0.316 HD
ENDROOT
BRANCH   1   3
HETATM    3  C6  UNL     1     -36.241  15.258  -5.001  1.00 20.00     0.246 C 
HETATM    4  C3  UNL     1     -37.315  16.078  -4.318  1.00 20.00     0.064 C 
HETATM    5  C4  UNL     1     -38.514  15.161  -4.437  1.00 20.00     0.170 C 
HETATM    6  O10 UNL     1     -38.012  13.817  -4.375  1.00 20.00    -0.389 OA
HETATM    7  C5  UNL     1     -36.582  13.857  -4.525  1.00 20.00     0.203 C 
ENDBRANCH   1   3
BRANCH   1   8
HETATM    8  C8  UNL     1     -34.476  15.131  -3.377  1.00 20.00     0.303 C 
BRANCH   8   9
HETATM    9  C2  UNL     1     -34.133  16.258  -2.445  1.00 20.00    -0.066 C 
HETATM   10  C1  UNL     1     -32.982  16.939  -2.564  1.00 20.00     0.015 C 
HETATM   11  C7  UNL     1     -35.114  16.563  -1.350  1.00 20.00     0.044 C 
ENDBRANCH   8   9
ENDBRANCH   1   8
TORSDOF 3
ENDMDL
MODEL 2
REMARK VINA RESULT:      -4.0      2.162      2.515
REMARK  3 active torsions:
REMARK  status: ('A' for Active; 'I' for Inactive)
REMARK    1  A    between atoms: C2_2  and  C8_8 
REMARK    2  A    between atoms: C6_6  and  N9_9 
REMARK    3  A    between atoms: C8_8  and  N9_9 
ROOT
HETATM    1  N9  UNL     1     -33.252  14.856  -5.464  1.00 20.00     0.094 N 
HETATM    2  H25 UNL     1     -32.586  14.127  -5.728  1.00 20.00     0.316 HD
ENDROOT
BRANCH   1   3
HETATM    3  C6  UNL     1     -34.214  15.049  -6.534  1.00 20.00     0.246 C 
HETATM    4  C3  UNL     1     -34.540  16.500  -6.811  1.00 20.00     0.064 C 
HETATM    5  C4  UNL     1     -35.850  16.377  -7.559  1.00 20.00     0.170 C 
HETATM    6  O10 UNL     1     -36.523  15.226  -7.024  1.00 20.00    -0.389 OA
HETATM    7  C5  UNL     1     -35.588  14.484  -6.221  1.00 20.00     0.203 C 
ENDBRANCH   1   3
BRANCH   1   8
HETATM    8  C8  UNL     1     -33.914  14.466  -4.223  1.00 20.00     0.303 C 
BRANCH   8   9
HETATM    9  C2  UNL     1     -33.921  15.623  -3.265  1.00 20.00    -0.066 C 
HETATM   10  C1  UNL     1     -32.877  16.463  -3.175  1.00 20.00     0.015 C 
HETATM   11  C7  UNL     1     -35.128  15.776  -2.386  1.00 20.00     0.044 C 
ENDBRANCH   8   9
ENDBRANCH   1   8
TORSDOF 3
ENDMDL
MODEL 3
REMARK VINA RESULT:      -4.0      1.689      1.963
REMARK  3 active torsions:
REMARK  status: ('A' for Active; 'I' for Inactive)
REMARK    1  A    between atoms: C2_2  and  C8_8 
REMARK    2  A    between atoms: C6_6  and  N9_9 
REMARK    3  A    between atoms: C8_8  and  N9_9 
ROOT
HETATM    1  N9  UNL     1     -33.681  16.263  -4.595  1.00 20.00     0.094 N 
HETATM    2  H25 UNL     1     -32.984  15.996  -5.292  1.00 20.00     0.316 HD
ENDROOT
BRANCH   1   3
HETATM    3  C6  UNL     1     -34.934  15.587  -4.874  1.00 20.00     0.246 C 
HETATM    4  C3  UNL     1     -35.198  14.392  -3.983  1.00 20.00     0.064 C 
HETATM    5  C4  UNL     1     -36.239  13.642  -4.787  1.00 20.00     0.170 C 
HETATM    6  O10 UNL     1     -35.943  13.883  -6.171  1.00 20.00    -0.389 OA
HETATM    7  C5  UNL     1     -34.986  14.954  -6.253  1.00 20.00     0.203 C 
ENDBRANCH   1   3
BRANCH   1   8
HETATM    8  C8  UNL     1     -33.179  15.918  -3.268  1.00 20.00     0.303 C 
BRANCH   8   9
HETATM    9  C2  UNL     1     -33.403  17.065  -2.325  1.00 20.00    -0.066 C 
HETATM   10  C1  UNL     1     -32.556  18.104  -2.273  1.00 20.00     0.015 C 
HETATM   11  C7  UNL     1     -34.595  16.980  -1.415  1.00 20.00     0.044 C 
ENDBRANCH   8   9
ENDBRANCH   1   8
TORSDOF 3
ENDMDL
MODEL 4
REMARK VINA RESULT:      -4.0     11.104     11.801
REMARK  3 active torsions:
REMARK  status: ('A' for Active; 'I' for Inactive)
REMARK    1  A    between atoms: C2_2  and  C8_8 
REMARK    2  A    between atoms: C6_6  and  N9_9 
REMARK    3  A    between atoms: C8_8  and  N9_9 
ROOT
HETATM    1  N9  UNL     1     -33.058   6.204   2.646  1.00 20.00     0.094 N 
HETATM    2  H25 UNL     1     -32.390   5.442   2.783  1.00 20.00     0.316 HD
ENDROOT
BRANCH   1   3
HETATM    3  C6  UNL     1     -34.034   6.195   3.720  1.00 20.00     0.246 C 
HETATM    4  C3  UNL     1     -33.501   6.715   5.038  1.00 20.00     0.064 C 
HETATM    5  C4  UNL     1     -34.507   6.145   6.015  1.00 20.00     0.170 C 
HETATM    6  O10 UNL     1     -34.940   4.888   5.473  1.00 20.00    -0.389 OA
HETATM    7  C5  UNL     1     -34.493   4.801   4.109  1.00 20.00     0.203 C 
ENDBRANCH   1   3
BRANCH   1   8
HETATM    8  C8  UNL     1     -32.330   7.469   2.605  1.00 20.00     0.303 C 
BRANCH   8   9
HETATM    9  C2  UNL     1     -32.489   8.103   1.253  1.00 20.00    -0.066 C 
HETATM   10  C1  UNL     1     -31.952   7.551   0.154  1.00 20.00     0.015 C 
HETATM   11  C7  UNL     1     -33.241   9.401   1.190  1.00 20.00     0.044 C 
ENDBRANCH   8   9
ENDBRANCH   1   8
TORSDOF 3
ENDMDL
MODEL 5
REMARK VINA RESULT:      -3.9     10.838     11.518
REMARK  3 active torsions:
REMARK  status: ('A' for Active; 'I' for Inactive)
REMARK    1  A    between atoms: C2_2  and  C8_8 
REMARK    2  A    between atoms: C6_6  and  N9_9 
REMARK    3  A    between atoms: C8_8  and  N9_9 
ROOT
HETATM    1  N9  UNL     1     -32.667   7.244   3.136  1.00 20.00     0.094 N 
HETATM    2  H25 UNL     1     -32.779   8.235   3.355  1.00 20.00     0.316 HD
ENDROOT
BRANCH   1   3
HETATM    3  C6  UNL     1     -33.834   6.509   3.589  1.00 20.00     0.246 C 
HETATM    4  C3  UNL     1     -33.975   6.451   5.095  1.00 20.00     0.064 C 
HETATM    5  C4  UNL     1     -34.916   5.278   5.264  1.00 20.00     0.170 C 
HETATM    6  O10 UNL     1     -34.631   4.364   4.193  1.00 20.00    -0.389 OA
HETATM    7  C5  UNL     1     -33.797   5.034   3.232  1.00 20.00     0.203 C 
ENDBRANCH   1   3
BRANCH   1   8
HETATM    8  C8  UNL     1     -32.476   7.095   1.697  1.00 20.00     0.303 C 
BRANCH   8   9
HETATM    9  C2  UNL     1     -32.891   8.358   0.996  1.00 20.00    -0.066 C 
HETATM   10  C1  UNL     1     -33.024   9.515   1.662  1.00 20.00     0.015 C 
HETATM   11  C7  UNL     1     -33.186   8.259  -0.473  1.00 20.00     0.044 C 
ENDBRANCH   8   9
ENDBRANCH   1   8
TORSDOF 3
ENDMDL
MODEL 6
REMARK VINA RESULT:      -3.9      1.981      2.420
REMARK  3 active torsions:
REMARK  status: ('A' for Active; 'I' for Inactive)
REMARK    1  A    between atoms: C2_2  and  C8_8 
REMARK    2  A    between atoms: C6_6  and  N9_9 
REMARK    3  A    between atoms: C8_8  and  N9_9 
ROOT
HETATM    1  N9  UNL     1     -32.881  15.628  -3.995  1.00 20.00     0.094 N 
HETATM    2  H25 UNL     1     -32.692  15.157  -3.108  1.00 20.00     0.316 HD
ENDROOT
BRANCH   1   3
HETATM    3  C6  UNL     1     -33.706  14.777  -4.832  1.00 20.00     0.246 C 
HETATM    4  C3  UNL     1     -34.643  15.538  -5.745  1.00 20.00     0.064 C 
HETATM    5  C4  UNL     1     -35.660  14.471  -6.090  1.00 20.00     0.170 C 
HETATM    6  O10 UNL     1     -35.767  13.617  -4.940  1.00 20.00    -0.389 OA
HETATM    7  C5  UNL     1     -34.682  13.918  -4.047  1.00 20.00     0.203 C 
ENDBRANCH   1   3
BRANCH   1   8
HETATM    8  C8  UNL     1     -33.540  16.902  -3.725  1.00 20.00     0.303 C 
BRANCH   8   9
HETATM    9  C2  UNL     1     -33.693  17.091  -2.243  1.00 20.00    -0.066 C 
HETATM   10  C1  UNL     1     -34.786  16.663  -1.592  1.00 20.00     0.015 C 
HETATM   11  C7  UNL     1     -32.588  17.813  -1.528  1.00 20.00     0.044 C 
ENDBRANCH   8   9
ENDBRANCH   1   8
TORSDOF 3
ENDMDL
MODEL 7
REMARK VINA RESULT:      -3.7      2.426      3.200
REMARK  3 active torsions:
REMARK  status: ('A' for Active; 'I' for Inactive)
REMARK    1  A    between atoms: C2_2  and  C8_8 
REMARK    2  A    between atoms: C6_6  and  N9_9 
REMARK    3  A    between atoms: C8_8  and  N9_9 
ROOT
HETATM    1  N9  UNL     1     -32.926  16.803  -2.739  1.00 20.00     0.094 N 
HETATM    2  H25 UNL     1     -32.242  16.221  -2.251  1.00 20.00     0.316 HD
ENDROOT
BRANCH   1   3
HETATM    3  C6  UNL     1     -33.694  15.985  -3.660  1.00 20.00     0.246 C 
HETATM    4  C3  UNL     1     -34.867  15.275  -3.018  1.00 20.00     0.064 C 
HETATM    5  C4  UNL     1     -35.144  14.180  -4.025  1.00 20.00     0.170 C 
HETATM    6  O10 UNL     1     -33.878  13.821  -4.602  1.00 20.00    -0.389 OA
HETATM    7  C5  UNL     1     -32.910  14.816  -4.230  1.00 20.00     0.203 C 
ENDBRANCH   1   3
BRANCH   1   8
HETATM    8  C8  UNL     1     -33.792  17.443  -1.754  1.00 20.00     0.303 C 
BRANCH   8   9
HETATM    9  C2  UNL     1     -32.956  18.082  -0.682  1.00 20.00    -0.066 C 
HETATM   10  C1  UNL     1     -31.654  18.344  -0.873  1.00 20.00     0.015 C 
HETATM   11  C7  UNL     1     -33.632  18.380   0.626  1.00 20.00     0.044 C 
ENDBRANCH   8   9
ENDBRANCH   1   8
TORSDOF 3
ENDMDL
MODEL 8
REMARK VINA RESULT:      -3.7      1.693      2.306
REMARK  3 active torsions:
REMARK  status: ('A' for Active; 'I' for Inactive)
REMARK    1  A    between atoms: C2_2  and  C8_8 
REMARK    2  A    between atoms: C6_6  and  N9_9 
REMARK    3  A    between atoms: C8_8  and  N9_9 
ROOT
HETATM    1  N9  UNL     1     -35.989  15.438  -2.886  1.00 20.00     0.094 N 
HETATM    2  H25 UNL     1     -37.005  15.326  -2.883  1.00 20.00     0.316 HD
ENDROOT
BRANCH   1   3
HETATM    3  C6  UNL     1     -35.438  14.848  -4.092  1.00 20.00     0.246 C 
HETATM    4  C3  UNL     1     -35.278  15.827  -5.236  1.00 20.00     0.064 C 
HETATM    5  C4  UNL     1     -35.178  14.891  -6.421  1.00 20.00     0.170 C 
HETATM    6  O10 UNL     1     -35.994  13.750  -6.114  1.00 20.00    -0.389 OA
HETATM    7  C5  UNL     1     -36.337  13.797  -4.718  1.00 20.00     0.203 C 
ENDBRANCH   1   3
BRANCH   1   8
HETATM    8  C8  UNL     1     -35.669  16.859  -2.800  1.00 20.00     0.303 C 
BRANCH   8   9
HETATM    9  C2  UNL     1     -34.668  17.089  -1.703  1.00 20.00    -0.066 C 
HETATM   10  C1  UNL     1     -35.055  17.267  -0.430  1.00 20.00     0.015 C 
HETATM   11  C7  UNL     1     -33.221  17.149  -2.098  1.00 20.00     0.044 C 
ENDBRANCH   8   9
ENDBRANCH   1   8
TORSDOF 3
ENDMDL
MODEL 9
REMARK VINA RESULT:      -3.6     11.775     13.530
REMARK  3 active torsions:
REMARK  status: ('A' for Active; 'I' for Inactive)
REMARK    1  A    between atoms: C2_2  and  C8_8 
REMARK    2  A    between atoms: C6_6  and  N9_9 
REMARK    3  A    between atoms: C8_8  and  N9_9 
ROOT
HETATM    1  N9  UNL     1     -41.934   4.272  -1.693  1.00 20.00     0.094 N 
HETATM    2  H25 UNL     1     -41.142   4.413  -2.323  1.00 20.00     0.316 HD
ENDROOT
BRANCH   1   3
HETATM    3  C6  UNL     1     -42.270   5.526  -1.044  1.00 20.00     0.246 C 
HETATM    4  C3  UNL     1     -41.100   6.475  -0.900  1.00 20.00     0.064 C 
HETATM    5  C4  UNL     1     -41.597   7.402   0.188  1.00 20.00     0.170 C 
HETATM    6  O10 UNL     1     -42.431   6.614   1.052  1.00 20.00    -0.389 OA
HETATM    7  C5  UNL     1     -42.706   5.362   0.401  1.00 20.00     0.203 C 
ENDBRANCH   1   3
BRANCH   1   8
HETATM    8  C8  UNL     1     -43.063   3.757  -2.462  1.00 20.00     0.303 C 
BRANCH   8   9
HETATM    9  C2  UNL     1     -42.631   2.559  -3.259  1.00 20.00    -0.066 C 
HETATM   10  C1  UNL     1     -41.611   2.628  -4.128  1.00 20.00     0.015 C 
HETATM   11  C7  UNL     1     -43.416   1.293  -3.070  1.00 20.00     0.044 C 
ENDBRANCH   8   9
ENDBRANCH   1   8
TORSDOF 3
ENDMDL
