MODEL 1
REMARK VINA RESULT:      -4.5      0.000      0.000
REMARK  2 active torsions:
REMARK  status: ('A' for Active; 'I' for Inactive)
REMARK    1  A    between atoms: C4_4  and  C10_10 
REMARK    2  A    between atoms: C10_10  and  C11_11 
ROOT
HETATM    1  C1  UNL     1     -35.098  16.267  -1.705  1.00 20.00     0.007 C 
HETATM    2  C2  UNL     1     -35.752  16.126  -3.071  1.00 20.00     0.009 C 
HETATM    3  C3  UNL     1     -33.312  15.942  -3.296  1.00 20.00     0.015 C 
HETATM    4  C4  UNL     1     -33.676  16.720  -2.024  1.00 20.00     0.005 C 
HETATM    5  C5  UNL     1     -34.647  15.540  -3.973  1.00 20.00    -0.047 C 
HETATM    6  C6  UNL     1     -34.746  16.111  -5.392  1.00 20.00     0.015 C 
HETATM    7  C7  UNL     1     -34.768  14.009  -4.042  1.00 20.00     0.015 C 
ENDROOT
BRANCH   4   8
HETATM    8  C10 UNL     1     -33.583  18.230  -2.238  1.00 20.00     0.089 C 
HETATM    9 CL12 UNL     1     -32.761  18.550  -3.800  1.00 20.00    -0.124 Cl
BRANCH   8  10
HETATM   10  C11 UNL     1     -32.913  18.977  -1.056  1.00 20.00    -0.004 C 
HETATM   11  C8  UNL     1     -33.760  19.015   0.220  1.00 20.00     0.011 C 
HETATM   12  C9  UNL     1     -31.523  18.414  -0.738  1.00 20.00     0.011 C 
ENDBRANCH   8  10
ENDBRANCH   4   8
TORSDOF 2
ENDMDL
MODEL 2
REMARK VINA RESULT:      -4.3      1.785      4.849
REMARK  2 active torsions:
REMARK  status: ('A' for Active; 'I' for Inactive)
REMARK    1  A    between atoms: C4_4  and  C10_10 
REMARK    2  A    between atoms: C10_10  and  C11_11 
ROOT
HETATM    1  C1  UNL     1     -33.021  16.365  -2.993  1.00 20.00     0.007 C 
HETATM    2  C2  UNL     1     -33.245  17.848  -2.741  1.00 20.00     0.009 C 
HETATM    3  C3  UNL     1     -35.018  16.543  -1.649  1.00 20.00     0.015 C 
HETATM    4  C4  UNL     1     -34.405  15.748  -2.810  1.00 20.00     0.005 C 
HETATM    5  C5  UNL     1     -34.265  17.897  -1.586  1.00 20.00    -0.047 C 
HETATM    6  C6  UNL     1     -35.227  19.077  -1.760  1.00 20.00     0.015 C 
HETATM    7  C7  UNL     1     -33.540  18.039  -0.238  1.00 20.00     0.015 C 
ENDROOT
BRANCH   4   8
HETATM    8  C10 UNL     1     -35.256  15.848  -4.076  1.00 20.00     0.089 C 
HETATM    9 CL12 UNL     1     -36.928  16.312  -3.621  1.00 20.00    -0.124 Cl
BRANCH   8  10
HETATM   10  C11 UNL     1     -35.218  14.563  -4.942  1.00 20.00    -0.004 C 
HETATM   11  C8  UNL     1     -36.291  13.532  -4.579  1.00 20.00     0.011 C 
HETATM   12  C9  UNL     1     -35.292  14.880  -6.440  1.00 20.00     0.011 C 
ENDBRANCH   8  10
ENDBRANCH   4   8
TORSDOF 2
ENDMDL
MODEL 3
REMARK VINA RESULT:      -4.3      1.657      2.539
REMARK  2 active torsions:
REMARK  status: ('A' for Active; 'I' for Inactive)
REMARK    1  A    between atoms: C4_4  and  C10_10 
REMARK    2  A    between atoms: C10_10  and  C11_11 
ROOT
HETATM    1  C1  UNL     1     -33.268  15.166  -4.005  1.00 20.00     0.007 C 
HETATM    2  C2  UNL     1     -34.383  14.134  -4.071  1.00 20.00     0.009 C 
HETATM    3  C3  UNL     1     -35.308  16.381  -4.436  1.00 20.00     0.015 C 
HETATM    4  C4  UNL     1     -33.988  16.465  -3.655  1.00 20.00     0.005 C 
HETATM    5  C5  UNL     1     -35.564  14.880  -4.723  1.00 20.00    -0.047 C 
HETATM    6  C6  UNL     1     -36.896  14.418  -4.121  1.00 20.00     0.015 C 
HETATM    7  C7  UNL     1     -35.588  14.626  -6.239  1.00 20.00     0.015 C 
ENDROOT
BRANCH   4   8
HETATM    8  C10 UNL     1     -34.228  16.609  -2.153  1.00 20.00     0.089 C 
HETATM    9 CL12 UNL     1     -35.927  17.113  -1.876  1.00 20.00    -0.124 Cl
BRANCH   8  10
HETATM   10  C11 UNL     1     -33.214  17.554  -1.459  1.00 20.00    -0.004 C 
HETATM   11  C8  UNL     1     -32.501  18.516  -2.415  1.00 20.00     0.011 C 
HETATM   12  C9  UNL     1     -33.858  18.344  -0.314  1.00 20.00     0.011 C 
ENDBRANCH   8  10
ENDBRANCH   4   8
TORSDOF 2
ENDMDL
MODEL 4
REMARK VINA RESULT:      -4.2      2.117      5.032
REMARK  2 active torsions:
REMARK  status: ('A' for Active; 'I' for Inactive)
REMARK    1  A    between atoms: C4_4  and  C10_10 
REMARK    2  A    between atoms: C10_10  and  C11_11 
ROOT
HETATM    1  C1  UNL     1     -34.196  17.606  -4.746  1.00 20.00     0.007 C 
HETATM    2  C2  UNL     1     -34.838  17.914  -3.402  1.00 20.00     0.009 C 
HETATM    3  C3  UNL     1     -33.601  15.795  -3.264  1.00 20.00     0.015 C 
HETATM    4  C4  UNL     1     -33.994  16.093  -4.718  1.00 20.00     0.005 C 
HETATM    5  C5  UNL     1     -34.129  16.973  -2.407  1.00 20.00    -0.047 C 
HETATM    6  C6  UNL     1     -35.106  16.485  -1.331  1.00 20.00     0.015 C 
HETATM    7  C7  UNL     1     -32.958  17.699  -1.725  1.00 20.00     0.015 C 
ENDROOT
BRANCH   4   8
HETATM    8  C10 UNL     1     -35.254  15.333  -5.132  1.00 20.00     0.089 C 
HETATM    9 CL12 UNL     1     -35.415  13.868  -4.109  1.00 20.00    -0.124 Cl
BRANCH   8  10
HETATM   10  C11 UNL     1     -35.300  15.002  -6.645  1.00 20.00    -0.004 C 
HETATM   11  C8  UNL     1     -36.288  15.859  -7.443  1.00 20.00     0.011 C 
HETATM   12  C9  UNL     1     -33.912  15.077  -7.291  1.00 20.00     0.011 C 
ENDBRANCH   8  10
ENDBRANCH   4   8
TORSDOF 2
ENDMDL
MODEL 5
REMARK VINA RESULT:      -4.1      1.931      3.478
REMARK  2 active torsions:
REMARK  status: ('A' for Active; 'I' for Inactive)
REMARK    1  A    between atoms: C4_4  and  C10_10 
REMARK    2  A    between atoms: C10_10  and  C11_11 
ROOT
HETATM    1  C1  UNL     1     -35.322  17.329  -5.267  1.00 20.00     0.007 C 
HETATM    2  C2  UNL     1     -34.649  17.183  -6.623  1.00 20.00     0.009 C 
HETATM    3  C3  UNL     1     -35.132  14.961  -5.691  1.00 20.00     0.015 C 
HETATM    4  C4  UNL     1     -35.033  16.004  -4.568  1.00 20.00     0.005 C 
HETATM    5  C5  UNL     1     -34.899  15.716  -7.025  1.00 20.00    -0.047 C 
HETATM    6  C6  UNL     1     -33.695  15.148  -7.783  1.00 20.00     0.015 C 
HETATM    7  C7  UNL     1     -36.146  15.610  -7.918  1.00 20.00     0.015 C 
ENDROOT
BRANCH   4   8
HETATM    8  C10 UNL     1     -33.660  15.987  -3.899  1.00 20.00     0.089 C 
HETATM    9 CL12 UNL     1     -32.868  14.411  -4.226  1.00 20.00    -0.124 Cl
BRANCH   8  10
HETATM   10  C11 UNL     1     -33.712  16.317  -2.385  1.00 20.00    -0.004 C 
HETATM   11  C8  UNL     1     -33.076  17.661  -2.016  1.00 20.00     0.011 C 
HETATM   12  C9  UNL     1     -35.140  16.251  -1.834  1.00 20.00     0.011 C 
ENDBRANCH   8  10
ENDBRANCH   4   8
TORSDOF 2
ENDMDL
MODEL 6
REMARK VINA RESULT:      -4.1      1.979      4.676
REMARK  2 active torsions:
REMARK  status: ('A' for Active; 'I' for Inactive)
REMARK    1  A    between atoms: C4_4  and  C10_10 
REMARK    2  A    between atoms: C10_10  and  C11_11 
ROOT
HETATM    1  C1  UNL     1     -33.123  15.496  -3.737  1.00 20.00     0.007 C 
HETATM    2  C2  UNL     1     -33.401  16.991  -3.739  1.00 20.00     0.009 C 
HETATM    3  C3  UNL     1     -35.081  15.836  -2.368  1.00 20.00     0.015 C 
HETATM    4  C4  UNL     1     -34.473  14.871  -3.396  1.00 20.00     0.005 C 
HETATM    5  C5  UNL     1     -34.384  17.205  -2.571  1.00 20.00    -0.047 C 
HETATM    6  C6  UNL     1     -35.400  18.302  -2.912  1.00 20.00     0.015 C 
HETATM    7  C7  UNL     1     -33.624  17.608  -1.297  1.00 20.00     0.015 C 
ENDROOT
BRANCH   4   8
HETATM    8  C10 UNL     1     -35.367  14.717  -4.626  1.00 20.00     0.089 C 
HETATM    9 CL12 UNL     1     -34.423  15.137  -6.092  1.00 20.00    -0.124 Cl
BRANCH   8  10
HETATM   10  C11 UNL     1     -36.689  15.521  -4.527  1.00 20.00    -0.004 C 
HETATM   11  C8  UNL     1     -36.946  16.449  -5.718  1.00 20.00     0.011 C 
HETATM   12  C9  UNL     1     -37.900  14.607  -4.313  1.00 20.00     0.011 C 
ENDBRANCH   8  10
ENDBRANCH   4   8
TORSDOF 2
ENDMDL
MODEL 7
REMARK VINA RESULT:      -4.0      1.801      2.343
REMARK  2 active torsions:
REMARK  status: ('A' for Active; 'I' for Inactive)
REMARK    1  A    between atoms: C4_4  and  C10_10 
REMARK    2  A    between atoms: C10_10  and  C11_11 
ROOT
HETATM    1  C1  UNL     1     -35.359  15.275  -2.926  1.00 20.00     0.007 C 
HETATM    2  C2  UNL     1     -35.726  15.950  -4.238  1.00 20.00     0.009 C 
HETATM    3  C3  UNL     1     -33.328  16.251  -3.792  1.00 20.00     0.015 C 
HETATM    4  C4  UNL     1     -34.089  15.997  -2.483  1.00 20.00     0.005 C 
HETATM    5  C5  UNL     1     -34.375  16.208  -4.935  1.00 20.00    -0.047 C 
HETATM    6  C6  UNL     1     -34.407  17.529  -5.710  1.00 20.00     0.015 C 
HETATM    7  C7  UNL     1     -34.049  15.065  -5.910  1.00 20.00     0.015 C 
ENDROOT
BRANCH   4   8
HETATM    8  C10 UNL     1     -34.392  17.300  -1.743  1.00 20.00     0.089 C 
HETATM    9 CL12 UNL     1     -32.872  17.937  -1.035  1.00 20.00    -0.124 Cl
BRANCH   8  10
HETATM   10  C11 UNL     1     -35.518  17.156  -0.687  1.00 20.00    -0.004 C 
HETATM   11  C8  UNL     1     -35.064  17.427   0.751  1.00 20.00     0.011 C 
HETATM   12  C9  UNL     1     -36.730  18.032  -1.020  1.00 20.00     0.011 C 
ENDBRANCH   8  10
ENDBRANCH   4   8
TORSDOF 2
ENDMDL
MODEL 8
REMARK VINA RESULT:      -3.9      1.820      2.393
REMARK  2 active torsions:
REMARK  status: ('A' for Active; 'I' for Inactive)
REMARK    1  A    between atoms: C4_4  and  C10_10 
REMARK    2  A    between atoms: C10_10  and  C11_11 
ROOT
HETATM    1  C1  UNL     1     -36.188  17.276  -3.452  1.00 20.00     0.007 C 
HETATM    2  C2  UNL     1     -36.474  16.668  -4.816  1.00 20.00     0.009 C 
HETATM    3  C3  UNL     1     -35.514  14.962  -3.331  1.00 20.00     0.015 C 
HETATM    4  C4  UNL     1     -35.112  16.367  -2.862  1.00 20.00     0.005 C 
HETATM    5  C5  UNL     1     -36.407  15.146  -4.585  1.00 20.00    -0.047 C 
HETATM    6  C6  UNL     1     -35.806  14.438  -5.805  1.00 20.00     0.015 C 
HETATM    7  C7  UNL     1     -37.812  14.581  -4.323  1.00 20.00     0.015 C 
ENDROOT
BRANCH   4   8
HETATM    8  C10 UNL     1     -33.710  16.744  -3.339  1.00 20.00     0.089 C 
HETATM    9 CL12 UNL     1     -32.849  15.258  -3.856  1.00 20.00    -0.124 Cl
BRANCH   8  10
HETATM   10  C11 UNL     1     -32.905  17.556  -2.292  1.00 20.00    -0.004 C 
HETATM   11  C8  UNL     1     -32.487  18.950  -2.770  1.00 20.00     0.011 C 
HETATM   12  C9  UNL     1     -33.651  17.669  -0.958  1.00 20.00     0.011 C 
ENDBRANCH   8  10
ENDBRANCH   4   8
TORSDOF 2
ENDMDL
MODEL 9
REMARK VINA RESULT:      -3.9      1.674      2.221
REMARK  2 active torsions:
REMARK  status: ('A' for Active; 'I' for Inactive)
REMARK    1  A    between atoms: C4_4  and  C10_10 
REMARK    2  A    between atoms: C10_10  and  C11_11 
ROOT
HETATM    1  C1  UNL     1     -33.272  15.478  -3.645  1.00 20.00     0.007 C 
HETATM    2  C2  UNL     1     -34.340  14.406  -3.802  1.00 20.00     0.009 C 
HETATM    3  C3  UNL     1     -35.284  16.607  -4.355  1.00 20.00     0.015 C 
HETATM    4  C4  UNL     1     -34.069  16.762  -3.429  1.00 20.00     0.005 C 
HETATM    5  C5  UNL     1     -35.459  15.089  -4.614  1.00 20.00    -0.047 C 
HETATM    6  C6  UNL     1     -36.837  14.601  -4.154  1.00 20.00     0.015 C 
HETATM    7  C7  UNL     1     -35.296  14.784  -6.112  1.00 20.00     0.015 C 
ENDROOT
BRANCH   4   8
HETATM    8  C10 UNL     1     -34.487  16.947  -1.972  1.00 20.00     0.089 C 
HETATM    9 CL12 UNL     1     -36.261  17.204  -1.900  1.00 20.00    -0.124 Cl
BRANCH   8  10
HETATM   10  C11 UNL     1     -33.701  18.069  -1.246  1.00 20.00    -0.004 C 
HETATM   11  C8  UNL     1     -33.936  18.118   0.267  1.00 20.00     0.011 C 
HETATM   12  C9  UNL     1     -32.197  17.993  -1.534  1.00 20.00     0.011 C 
ENDBRANCH   8  10
ENDBRANCH   4   8
TORSDOF 2
ENDMDL
