MODEL 1
REMARK VINA RESULT:      -4.0      0.000      0.000
REMARK  2 active torsions:
REMARK  status: ('A' for Active; 'I' for Inactive)
REMARK    1  A    between atoms: C5_5  and  C6_6 
REMARK    2  A    between atoms: C5_5  and  N7_7 
ROOT
HETATM    1  C1  UNL     1     -33.105   5.615   2.102  1.00 20.00     0.048 C 
HETATM    2  C2  UNL     1     -33.852   5.424   3.421  1.00 20.00     0.273 C 
HETATM    3  C3  UNL     1     -32.461   7.260   3.760  1.00 20.00     0.288 C 
HETATM    4  C4  UNL     1     -32.265   6.872   2.303  1.00 20.00     0.087 C 
HETATM    5  N7  UNL     1     -33.801   6.744   4.048  1.00 20.00     0.091 N 
HETATM    6 BR9  UNL     1     -32.903   8.306   1.136  1.00 20.00    -0.089 Br
ENDROOT
BRANCH   5   7
HETATM    7  C5  UNL     1     -34.086   6.695   5.475  1.00 20.00     0.303 C 
BRANCH   7   8
HETATM    8  C6  UNL     1     -34.878   5.459   5.841  1.00 20.00     0.252 C 
HETATM    9  F8  UNL     1     -34.096   4.638   6.594  1.00 20.00    -0.254 F 
ENDBRANCH   7   8
ENDBRANCH   5   7
TORSDOF 2
ENDMDL
MODEL 2
REMARK VINA RESULT:      -3.7      3.290      4.101
REMARK  2 active torsions:
REMARK  status: ('A' for Active; 'I' for Inactive)
REMARK    1  A    between atoms: C5_5  and  C6_6 
REMARK    2  A    between atoms: C5_5  and  N7_7 
ROOT
HETATM    1  C1  UNL     1     -34.196   4.503   3.317  1.00 20.00     0.048 C 
HETATM    2  C2  UNL     1     -33.050   5.234   2.621  1.00 20.00     0.273 C 
HETATM    3  C3  UNL     1     -34.179   6.870   3.835  1.00 20.00     0.288 C 
HETATM    4  C4  UNL     1     -34.875   5.563   4.179  1.00 20.00     0.087 C 
HETATM    5  N7  UNL     1     -32.839   6.423   3.446  1.00 20.00     0.091 N 
HETATM    6 BR9  UNL     1     -34.627   5.151   6.075  1.00 20.00    -0.089 Br
ENDROOT
BRANCH   5   7
HETATM    7  C5  UNL     1     -32.085   7.457   2.752  1.00 20.00     0.303 C 
BRANCH   7   8
HETATM    8  C6  UNL     1     -32.620   7.692   1.356  1.00 20.00     0.252 C 
HETATM    9  F8  UNL     1     -32.842   9.024   1.185  1.00 20.00    -0.254 F 
ENDBRANCH   7   8
ENDBRANCH   5   7
TORSDOF 2
ENDMDL
MODEL 3
REMARK VINA RESULT:      -3.6     16.033     16.604
REMARK  2 active torsions:
REMARK  status: ('A' for Active; 'I' for Inactive)
REMARK    1  A    between atoms: C5_5  and  C6_6 
REMARK    2  A    between atoms: C5_5  and  N7_7 
ROOT
HETATM    1  C1  UNL     1     -22.229  18.226   9.546  1.00 20.00     0.048 C 
HETATM    2  C2  UNL     1     -23.280  19.044   8.800  1.00 20.00     0.273 C 
HETATM    3  C3  UNL     1     -24.483  17.521  10.088  1.00 20.00     0.288 C 
HETATM    4  C4  UNL     1     -23.025  17.293  10.454  1.00 20.00     0.087 C 
HETATM    5  N7  UNL     1     -24.480  18.912   9.626  1.00 20.00     0.091 N 
HETATM    6 BR9  UNL     1     -22.724  17.758  12.330  1.00 20.00    -0.089 Br
ENDROOT
BRANCH   5   7
HETATM    7  C5  UNL     1     -25.695  19.263   8.905  1.00 20.00     0.303 C 
BRANCH   7   8
HETATM    8  C6  UNL     1     -25.479  19.239   7.408  1.00 20.00     0.252 C 
HETATM    9  F8  UNL     1     -26.306  18.309   6.856  1.00 20.00    -0.254 F 
ENDBRANCH   7   8
ENDBRANCH   5   7
TORSDOF 2
ENDMDL
MODEL 4
REMARK VINA RESULT:      -3.5     16.548     17.052
REMARK  2 active torsions:
REMARK  status: ('A' for Active; 'I' for Inactive)
REMARK    1  A    between atoms: C5_5  and  C6_6 
REMARK    2  A    between atoms: C5_5  and  N7_7 
ROOT
HETATM    1  C1  UNL     1     -25.000  18.463  10.716  1.00 20.00     0.048 C 
HETATM    2  C2  UNL     1     -23.935  18.732   9.655  1.00 20.00     0.273 C 
HETATM    3  C3  UNL     1     -22.798  17.755  11.437  1.00 20.00     0.288 C 
HETATM    4  C4  UNL     1     -24.263  17.742  11.841  1.00 20.00     0.087 C 
HETATM    5  N7  UNL     1     -22.872  17.779   9.974  1.00 20.00     0.091 N 
HETATM    6 BR9  UNL     1     -24.901  15.899  11.993  1.00 20.00    -0.089 Br
ENDROOT
BRANCH   5   7
HETATM    7  C5  UNL     1     -21.602  18.132   9.356  1.00 20.00     0.303 C 
BRANCH   7   8
HETATM    8  C6  UNL     1     -21.293  17.240   8.174  1.00 20.00     0.252 C 
HETATM    9  F8  UNL     1     -22.018  17.658   7.101  1.00 20.00    -0.254 F 
ENDBRANCH   7   8
ENDBRANCH   5   7
TORSDOF 2
ENDMDL
MODEL 5
REMARK VINA RESULT:      -3.5     15.854     16.482
REMARK  2 active torsions:
REMARK  status: ('A' for Active; 'I' for Inactive)
REMARK    1  A    between atoms: C5_5  and  C6_6 
REMARK    2  A    between atoms: C5_5  and  N7_7 
ROOT
HETATM    1  C1  UNL     1     -25.468  18.585  11.587  1.00 20.00     0.048 C 
HETATM    2  C2  UNL     1     -25.577  19.261  10.222  1.00 20.00     0.273 C 
HETATM    3  C3  UNL     1     -23.527  18.156  10.202  1.00 20.00     0.288 C 
HETATM    4  C4  UNL     1     -24.167  17.791  11.532  1.00 20.00     0.087 C 
HETATM    5  N7  UNL     1     -24.689  18.473   9.368  1.00 20.00     0.091 N 
HETATM    6 BR9  UNL     1     -24.544  15.873  11.591  1.00 20.00    -0.089 Br
ENDROOT
BRANCH   5   7
HETATM    7  C5  UNL     1     -24.324  19.174   8.146  1.00 20.00     0.303 C 
BRANCH   7   8
HETATM    8  C6  UNL     1     -25.491  19.263   7.186  1.00 20.00     0.252 C 
HETATM    9  F8  UNL     1     -25.052  18.988   5.928  1.00 20.00    -0.254 F 
ENDBRANCH   7   8
ENDBRANCH   5   7
TORSDOF 2
ENDMDL
MODEL 6
REMARK VINA RESULT:      -3.5     16.129     16.366
REMARK  2 active torsions:
REMARK  status: ('A' for Active; 'I' for Inactive)
REMARK    1  A    between atoms: C5_5  and  C6_6 
REMARK    2  A    between atoms: C5_5  and  N7_7 
ROOT
HETATM    1  C1  UNL     1     -23.969  18.538   8.508  1.00 20.00     0.048 C 
HETATM    2  C2  UNL     1     -24.893  18.867   9.679  1.00 20.00     0.273 C 
HETATM    3  C3  UNL     1     -23.784  16.914  10.297  1.00 20.00     0.288 C 
HETATM    4  C4  UNL     1     -23.182  17.311   8.958  1.00 20.00     0.087 C 
HETATM    5  N7  UNL     1     -24.268  18.195  10.818  1.00 20.00     0.091 N 
HETATM    6 BR9  UNL     1     -21.293  17.764   9.180  1.00 20.00    -0.089 Br
ENDROOT
BRANCH   5   7
HETATM    7  C5  UNL     1     -25.183  18.031  11.939  1.00 20.00     0.303 C 
BRANCH   7   8
HETATM    8  C6  UNL     1     -26.240  19.114  11.956  1.00 20.00     0.252 C 
HETATM    9  F8  UNL     1     -27.466  18.535  12.074  1.00 20.00    -0.254 F 
ENDBRANCH   7   8
ENDBRANCH   5   7
TORSDOF 2
ENDMDL
MODEL 7
REMARK VINA RESULT:      -3.5     11.580     12.233
REMARK  2 active torsions:
REMARK  status: ('A' for Active; 'I' for Inactive)
REMARK    1  A    between atoms: C5_5  and  C6_6 
REMARK    2  A    between atoms: C5_5  and  N7_7 
ROOT
HETATM    1  C1  UNL     1     -34.666  17.257  -1.442  1.00 20.00     0.048 C 
HETATM    2  C2  UNL     1     -34.778  15.948  -2.221  1.00 20.00     0.273 C 
HETATM    3  C3  UNL     1     -33.311  17.275  -3.450  1.00 20.00     0.288 C 
HETATM    4  C4  UNL     1     -33.636  18.084  -2.205  1.00 20.00     0.087 C 
HETATM    5  N7  UNL     1     -33.544  15.899  -3.004  1.00 20.00     0.091 N 
HETATM    6 BR9  UNL     1     -32.026  18.323  -1.122  1.00 20.00    -0.089 Br
ENDROOT
BRANCH   5   7
HETATM    7  C5  UNL     1     -33.624  14.959  -4.113  1.00 20.00     0.303 C 
BRANCH   7   8
HETATM    8  C6  UNL     1     -34.949  14.227  -4.125  1.00 20.00     0.252 C 
HETATM    9  F8  UNL     1     -34.752  12.948  -3.701  1.00 20.00    -0.254 F 
ENDBRANCH   7   8
ENDBRANCH   5   7
TORSDOF 2
ENDMDL
MODEL 8
REMARK VINA RESULT:      -3.3     12.099     12.852
REMARK  2 active torsions:
REMARK  status: ('A' for Active; 'I' for Inactive)
REMARK    1  A    between atoms: C5_5  and  C6_6 
REMARK    2  A    between atoms: C5_5  and  N7_7 
ROOT
HETATM    1  C1  UNL     1     -34.820  16.830  -1.858  1.00 20.00     0.048 C 
HETATM    2  C2  UNL     1     -34.705  15.528  -2.648  1.00 20.00     0.273 C 
HETATM    3  C3  UNL     1     -33.301  17.036  -3.734  1.00 20.00     0.288 C 
HETATM    4  C4  UNL     1     -33.831  17.784  -2.520  1.00 20.00     0.087 C 
HETATM    5  N7  UNL     1     -33.407  15.636  -3.315  1.00 20.00     0.091 N 
HETATM    6 BR9  UNL     1     -32.365  18.196  -1.294  1.00 20.00    -0.089 Br
ENDROOT
BRANCH   5   7
HETATM    7  C5  UNL     1     -33.275  14.709  -4.430  1.00 20.00     0.303 C 
BRANCH   7   8
HETATM    8  C6  UNL     1     -34.113  15.139  -5.614  1.00 20.00     0.252 C 
HETATM    9  F8  UNL     1     -33.534  14.680  -6.756  1.00 20.00    -0.254 F 
ENDBRANCH   7   8
ENDBRANCH   5   7
TORSDOF 2
ENDMDL
MODEL 9
REMARK VINA RESULT:      -3.3      9.634     10.144
REMARK  2 active torsions:
REMARK  status: ('A' for Active; 'I' for Inactive)
REMARK    1  A    between atoms: C5_5  and  C6_6 
REMARK    2  A    between atoms: C5_5  and  N7_7 
ROOT
HETATM    1  C1  UNL     1     -42.962   7.145   0.991  1.00 20.00     0.048 C 
HETATM    2  C2  UNL     1     -42.355   5.799   0.602  1.00 20.00     0.273 C 
HETATM    3  C3  UNL     1     -42.038   7.176  -1.249  1.00 20.00     0.288 C 
HETATM    4  C4  UNL     1     -42.670   8.066  -0.190  1.00 20.00     0.087 C 
HETATM    5  N7  UNL     1     -41.390   6.137  -0.444  1.00 20.00     0.091 N 
HETATM    6 BR9  UNL     1     -41.417   9.470   0.341  1.00 20.00    -0.089 Br
ENDROOT
BRANCH   5   7
HETATM    7  C5  UNL     1     -40.998   4.981  -1.236  1.00 20.00     0.303 C 
BRANCH   7   8
HETATM    8  C6  UNL     1     -42.184   4.368  -1.950  1.00 20.00     0.252 C 
HETATM    9  F8  UNL     1     -41.736   3.431  -2.828  1.00 20.00    -0.254 F 
ENDBRANCH   7   8
ENDBRANCH   5   7
TORSDOF 2
ENDMDL
