MODEL 1
REMARK VINA RESULT:      -4.2      0.000      0.000
REMARK  4 active torsions:
REMARK  status: ('A' for Active; 'I' for Inactive)
REMARK    1  A    between atoms: C5_5  and  C6_6 
REMARK    2  A    between atoms: C6_6  and  C9_9 
REMARK    3  A    between atoms: C7_7  and  C8_8 
REMARK    4  A    between atoms: C7_7  and  N10_10 
ROOT
HETATM    1  C1  UNL     1     -35.210  16.882  -0.803  1.00 20.00     0.028 C 
HETATM    2  C2  UNL     1     -35.298  16.169  -2.148  1.00 20.00     0.008 C 
HETATM    3  C3  UNL     1     -34.343  18.129  -0.882  1.00 20.00     0.235 C 
HETATM    4  C4  UNL     1     -33.042  17.114  -2.771  1.00 20.00     0.239 C 
HETATM    5  C5  UNL     1     -33.903  15.851  -2.701  1.00 20.00     0.012 C 
HETATM    6  N10 UNL     1     -32.977  17.756  -1.405  1.00 20.00    -0.069 N 
HETATM    7  H30 UNL     1     -32.580  17.060  -0.758  1.00 20.00     0.280 HD
ENDROOT
BRANCH   6   8
HETATM    8  C7  UNL     1     -32.038  18.932  -1.389  1.00 20.00     0.266 C 
BRANCH   8   9
HETATM    9  C8  UNL     1     -31.247  18.913  -0.101  1.00 20.00     0.249 C 
HETATM   10  F11 UNL     1     -30.502  17.776  -0.051  1.00 20.00    -0.254 F 
ENDBRANCH   8   9
ENDBRANCH   6   8
BRANCH   5  11
HETATM   11  C6  UNL     1     -34.006  15.200  -4.078  1.00 20.00     0.021 C 
BRANCH  11  12
HETATM   12  C9  UNL     1     -35.431  15.148  -4.613  1.00 20.00     0.115 C 
HETATM   13 CL12 UNL     1     -36.124  13.514  -4.511  1.00 20.00    -0.130 Cl
ENDBRANCH  11  12
ENDBRANCH   5  11
TORSDOF 4
ENDMDL
MODEL 2
REMARK VINA RESULT:      -4.2      4.032      5.818
REMARK  4 active torsions:
REMARK  status: ('A' for Active; 'I' for Inactive)
REMARK    1  A    between atoms: C5_5  and  C6_6 
REMARK    2  A    between atoms: C6_6  and  C9_9 
REMARK    3  A    between atoms: C7_7  and  C8_8 
REMARK    4  A    between atoms: C7_7  and  N10_10 
ROOT
HETATM    1  C1  UNL     1     -32.913  15.039  -4.123  1.00 20.00     0.028 C 
HETATM    2  C2  UNL     1     -33.165  16.222  -3.195  1.00 20.00     0.008 C 
HETATM    3  C3  UNL     1     -34.158  14.668  -4.913  1.00 20.00     0.235 C 
HETATM    4  C4  UNL     1     -35.604  15.583  -3.080  1.00 20.00     0.239 C 
HETATM    5  C5  UNL     1     -34.361  15.959  -2.271  1.00 20.00     0.012 C 
HETATM    6  N10 UNL     1     -35.294  14.393  -3.958  1.00 20.00    -0.069 N 
HETATM    7  H30 UNL     1     -34.996  13.626  -3.339  1.00 20.00     0.280 HD
ENDROOT
BRANCH   6   8
HETATM    8  C7  UNL     1     -36.519  13.902  -4.680  1.00 20.00     0.266 C 
BRANCH   8   9
HETATM    9  C8  UNL     1     -37.647  14.883  -4.461  1.00 20.00     0.249 C 
HETATM   10  F11 UNL     1     -38.795  14.197  -4.214  1.00 20.00    -0.254 F 
ENDBRANCH   8   9
ENDBRANCH   6   8
BRANCH   5  11
HETATM   11  C6  UNL     1     -34.644  17.178  -1.396  1.00 20.00     0.021 C 
BRANCH  11  12
HETATM   12  C9  UNL     1     -33.625  18.295  -1.575  1.00 20.00     0.115 C 
HETATM   13 CL12 UNL     1     -32.415  18.312  -0.272  1.00 20.00    -0.130 Cl
ENDBRANCH  11  12
ENDBRANCH   5  11
TORSDOF 4
ENDMDL
MODEL 3
REMARK VINA RESULT:      -4.2      0.983      1.002
REMARK  4 active torsions:
REMARK  status: ('A' for Active; 'I' for Inactive)
REMARK    1  A    between atoms: C5_5  and  C6_6 
REMARK    2  A    between atoms: C6_6  and  C9_9 
REMARK    3  A    between atoms: C7_7  and  C8_8 
REMARK    4  A    between atoms: C7_7  and  N10_10 
ROOT
HETATM    1  C1  UNL     1     -35.158  16.301  -1.529  1.00 20.00     0.028 C 
HETATM    2  C2  UNL     1     -35.069  15.598  -2.880  1.00 20.00     0.008 C 
HETATM    3  C3  UNL     1     -34.458  17.650  -1.549  1.00 20.00     0.235 C 
HETATM    4  C4  UNL     1     -32.922  16.837  -3.357  1.00 20.00     0.239 C 
HETATM    5  C5  UNL     1     -33.613  15.472  -3.346  1.00 20.00     0.012 C 
HETATM    6  N10 UNL     1     -33.026  17.466  -1.987  1.00 20.00    -0.069 N 
HETATM    7  H30 UNL     1     -32.582  16.819  -1.319  1.00 20.00     0.280 HD
ENDROOT
BRANCH   6   8
HETATM    8  C7  UNL     1     -32.251  18.753  -1.907  1.00 20.00     0.266 C 
BRANCH   8   9
HETATM    9  C8  UNL     1     -31.580  18.842  -0.556  1.00 20.00     0.249 C 
HETATM   10  F11 UNL     1     -30.626  17.877  -0.466  1.00 20.00    -0.254 F 
ENDBRANCH   8   9
ENDBRANCH   6   8
BRANCH   5  11
HETATM   11  C6  UNL     1     -33.545  14.829  -4.729  1.00 20.00     0.021 C 
BRANCH  11  12
HETATM   12  C9  UNL     1     -34.458  15.497  -5.748  1.00 20.00     0.115 C 
HETATM   13 CL12 UNL     1     -35.769  14.420  -6.279  1.00 20.00    -0.130 Cl
ENDBRANCH  11  12
ENDBRANCH   5  11
TORSDOF 4
ENDMDL
MODEL 4
REMARK VINA RESULT:      -4.1      3.941      5.725
REMARK  4 active torsions:
REMARK  status: ('A' for Active; 'I' for Inactive)
REMARK    1  A    between atoms: C5_5  and  C6_6 
REMARK    2  A    between atoms: C6_6  and  C9_9 
REMARK    3  A    between atoms: C7_7  and  C8_8 
REMARK    4  A    between atoms: C7_7  and  N10_10 
ROOT
HETATM    1  C1  UNL     1     -33.418  14.594  -4.369  1.00 20.00     0.028 C 
HETATM    2  C2  UNL     1     -33.145  15.841  -3.535  1.00 20.00     0.008 C 
HETATM    3  C3  UNL     1     -34.833  14.586  -4.925  1.00 20.00     0.235 C 
HETATM    4  C4  UNL     1     -35.607  15.992  -2.998  1.00 20.00     0.239 C 
HETATM    5  C5  UNL     1     -34.189  16.005  -2.423  1.00 20.00     0.012 C 
HETATM    6  N10 UNL     1     -35.818  14.723  -3.790  1.00 20.00    -0.069 N 
HETATM    7  H30 UNL     1     -35.659  13.932  -3.149  1.00 20.00     0.280 HD
ENDROOT
BRANCH   6   8
HETATM    8  C7  UNL     1     -37.238  14.598  -4.271  1.00 20.00     0.266 C 
BRANCH   8   9
HETATM    9  C8  UNL     1     -37.742  15.964  -4.680  1.00 20.00     0.249 C 
HETATM   10  F11 UNL     1     -37.642  16.090  -6.031  1.00 20.00    -0.254 F 
ENDBRANCH   8   9
ENDBRANCH   6   8
BRANCH   5  11
HETATM   11  C6  UNL     1     -33.943  17.292  -1.641  1.00 20.00     0.021 C 
BRANCH  11  12
HETATM   12  C9  UNL     1     -32.705  18.049  -2.101  1.00 20.00     0.115 C 
HETATM   13 CL12 UNL     1     -31.507  18.228  -0.800  1.00 20.00    -0.130 Cl
ENDBRANCH  11  12
ENDBRANCH   5  11
TORSDOF 4
ENDMDL
MODEL 5
REMARK VINA RESULT:      -4.0      4.278      5.944
REMARK  4 active torsions:
REMARK  status: ('A' for Active; 'I' for Inactive)
REMARK    1  A    between atoms: C5_5  and  C6_6 
REMARK    2  A    between atoms: C6_6  and  C9_9 
REMARK    3  A    between atoms: C7_7  and  C8_8 
REMARK    4  A    between atoms: C7_7  and  N10_10 
ROOT
HETATM    1  C1  UNL     1     -35.372  13.552  -4.097  1.00 20.00     0.028 C 
HETATM    2  C2  UNL     1     -34.156  14.452  -3.908  1.00 20.00     0.008 C 
HETATM    3  C3  UNL     1     -36.593  14.341  -4.544  1.00 20.00     0.235 C 
HETATM    4  C4  UNL     1     -35.696  16.389  -3.407  1.00 20.00     0.239 C 
HETATM    5  C5  UNL     1     -34.463  15.607  -2.947  1.00 20.00     0.012 C 
HETATM    6  N10 UNL     1     -36.867  15.445  -3.551  1.00 20.00    -0.069 N 
HETATM    7  H30 UNL     1     -37.017  15.002  -2.634  1.00 20.00     0.280 HD
ENDROOT
BRANCH   6   8
HETATM    8  C7  UNL     1     -38.136  16.182  -3.878  1.00 20.00     0.266 C 
BRANCH   8   9
HETATM    9  C8  UNL     1     -39.252  15.181  -4.074  1.00 20.00     0.249 C 
HETATM   10  F11 UNL     1     -40.221  15.406  -3.146  1.00 20.00    -0.254 F 
ENDBRANCH   8   9
ENDBRANCH   6   8
BRANCH   5  11
HETATM   11  C6  UNL     1     -33.259  16.537  -2.821  1.00 20.00     0.021 C 
BRANCH  11  12
HETATM   12  C9  UNL     1     -33.383  17.530  -1.674  1.00 20.00     0.115 C 
HETATM   13 CL12 UNL     1     -31.801  18.153  -1.154  1.00 20.00    -0.130 Cl
ENDBRANCH  11  12
ENDBRANCH   5  11
TORSDOF 4
ENDMDL
MODEL 6
REMARK VINA RESULT:      -4.0      3.938      5.734
REMARK  4 active torsions:
REMARK  status: ('A' for Active; 'I' for Inactive)
REMARK    1  A    between atoms: C5_5  and  C6_6 
REMARK    2  A    between atoms: C6_6  and  C9_9 
REMARK    3  A    between atoms: C7_7  and  C8_8 
REMARK    4  A    between atoms: C7_7  and  N10_10 
ROOT
HETATM    1  C1  UNL     1     -32.896  15.445  -3.744  1.00 20.00     0.028 C 
HETATM    2  C2  UNL     1     -33.476  16.462  -2.767  1.00 20.00     0.008 C 
HETATM    3  C3  UNL     1     -33.909  15.041  -4.803  1.00 20.00     0.235 C 
HETATM    4  C4  UNL     1     -35.783  15.542  -3.213  1.00 20.00     0.239 C 
HETATM    5  C5  UNL     1     -34.775  15.948  -2.136  1.00 20.00     0.012 C 
HETATM    6  N10 UNL     1     -35.155  14.518  -4.131  1.00 20.00    -0.069 N 
HETATM    7  H30 UNL     1     -34.876  13.716  -3.548  1.00 20.00     0.280 HD
ENDROOT
BRANCH   6   8
HETATM    8  C7  UNL     1     -36.145  13.989  -5.132  1.00 20.00     0.266 C 
BRANCH   8   9
HETATM    9  C8  UNL     1     -35.818  14.554  -6.495  1.00 20.00     0.249 C 
HETATM   10  F11 UNL     1     -36.610  15.634  -6.733  1.00 20.00    -0.254 F 
ENDBRANCH   8   9
ENDBRANCH   6   8
BRANCH   5  11
HETATM   11  C6  UNL     1     -35.380  17.003  -1.213  1.00 20.00     0.021 C 
BRANCH  11  12
HETATM   12  C9  UNL     1     -34.333  17.854  -0.507  1.00 20.00     0.115 C 
HETATM   13 CL12 UNL     1     -34.498  17.786   1.262  1.00 20.00    -0.130 Cl
ENDBRANCH  11  12
ENDBRANCH   5  11
TORSDOF 4
ENDMDL
MODEL 7
REMARK VINA RESULT:      -4.0      3.716      5.231
REMARK  4 active torsions:
REMARK  status: ('A' for Active; 'I' for Inactive)
REMARK    1  A    between atoms: C5_5  and  C6_6 
REMARK    2  A    between atoms: C6_6  and  C9_9 
REMARK    3  A    between atoms: C7_7  and  C8_8 
REMARK    4  A    between atoms: C7_7  and  N10_10 
ROOT
HETATM    1  C1  UNL     1     -35.450  16.590  -1.908  1.00 20.00     0.028 C 
HETATM    2  C2  UNL     1     -34.268  17.273  -1.228  1.00 20.00     0.008 C 
HETATM    3  C3  UNL     1     -35.003  15.418  -2.768  1.00 20.00     0.235 C 
HETATM    4  C4  UNL     1     -32.771  16.508  -3.111  1.00 20.00     0.239 C 
HETATM    5  C5  UNL     1     -33.207  17.697  -2.251  1.00 20.00     0.012 C 
HETATM    6  N10 UNL     1     -33.983  15.894  -3.772  1.00 20.00    -0.069 N 
HETATM    7  H30 UNL     1     -34.428  16.630  -4.338  1.00 20.00     0.280 HD
ENDROOT
BRANCH   6   8
HETATM    8  C7  UNL     1     -33.596  14.800  -4.731  1.00 20.00     0.266 C 
BRANCH   8   9
HETATM    9  C8  UNL     1     -34.194  15.098  -6.086  1.00 20.00     0.249 C 
HETATM   10  F11 UNL     1     -33.314  14.725  -7.054  1.00 20.00    -0.254 F 
ENDBRANCH   8   9
ENDBRANCH   6   8
BRANCH   5  11
HETATM   11  C6  UNL     1     -32.001  18.317  -1.549  1.00 20.00     0.021 C 
BRANCH  11  12
HETATM   12  C9  UNL     1     -32.192  18.469  -0.047  1.00 20.00     0.115 C 
HETATM   13 CL12 UNL     1     -30.704  18.108   0.857  1.00 20.00    -0.130 Cl
ENDBRANCH  11  12
ENDBRANCH   5  11
TORSDOF 4
ENDMDL
MODEL 8
REMARK VINA RESULT:      -3.9      1.903      2.606
REMARK  4 active torsions:
REMARK  status: ('A' for Active; 'I' for Inactive)
REMARK    1  A    between atoms: C5_5  and  C6_6 
REMARK    2  A    between atoms: C6_6  and  C9_9 
REMARK    3  A    between atoms: C7_7  and  C8_8 
REMARK    4  A    between atoms: C7_7  and  N10_10 
ROOT
HETATM    1  C1  UNL     1     -32.873  17.516  -2.941  1.00 20.00     0.028 C 
HETATM    2  C2  UNL     1     -33.084  16.095  -3.451  1.00 20.00     0.008 C 
HETATM    3  C3  UNL     1     -33.436  17.700  -1.540  1.00 20.00     0.235 C 
HETATM    4  C4  UNL     1     -35.115  15.886  -1.967  1.00 20.00     0.239 C 
HETATM    5  C5  UNL     1     -34.562  15.692  -3.381  1.00 20.00     0.012 C 
HETATM    6  N10 UNL     1     -34.896  17.316  -1.533  1.00 20.00    -0.069 N 
HETATM    7  H30 UNL     1     -35.375  17.920  -2.215  1.00 20.00     0.280 HD
ENDROOT
BRANCH   6   8
HETATM    8  C7  UNL     1     -35.535  17.595  -0.200  1.00 20.00     0.266 C 
BRANCH   8   9
HETATM    9  C8  UNL     1     -34.544  18.321   0.681  1.00 20.00     0.249 C 
HETATM   10  F11 UNL     1     -34.197  17.515   1.720  1.00 20.00    -0.254 F 
ENDBRANCH   8   9
ENDBRANCH   6   8
BRANCH   5  11
HETATM   11  C6  UNL     1     -34.747  14.244  -3.830  1.00 20.00     0.021 C 
BRANCH  11  12
HETATM   12  C9  UNL     1     -35.994  14.033  -4.677  1.00 20.00     0.115 C 
HETATM   13 CL12 UNL     1     -35.730  14.472  -6.380  1.00 20.00    -0.130 Cl
ENDBRANCH  11  12
ENDBRANCH   5  11
TORSDOF 4
ENDMDL
MODEL 9
REMARK VINA RESULT:      -3.8      1.931      2.764
REMARK  4 active torsions:
REMARK  status: ('A' for Active; 'I' for Inactive)
REMARK    1  A    between atoms: C5_5  and  C6_6 
REMARK    2  A    between atoms: C6_6  and  C9_9 
REMARK    3  A    between atoms: C7_7  and  C8_8 
REMARK    4  A    between atoms: C7_7  and  N10_10 
ROOT
HETATM    1  C1  UNL     1     -32.152  18.482  -1.439  1.00 20.00     0.028 C 
HETATM    2  C2  UNL     1     -32.897  17.313  -2.074  1.00 20.00     0.008 C 
HETATM    3  C3  UNL     1     -32.331  18.509   0.071  1.00 20.00     0.235 C 
HETATM    4  C4  UNL     1     -34.544  17.352  -0.162  1.00 20.00     0.239 C 
HETATM    5  C5  UNL     1     -34.380  17.320  -1.683  1.00 20.00     0.012 C 
HETATM    6  N10 UNL     1     -33.804  18.544   0.400  1.00 20.00    -0.069 N 
HETATM    7  H30 UNL     1     -34.198  19.386  -0.044  1.00 20.00     0.280 HD
ENDROOT
BRANCH   6   8
HETATM    8  C7  UNL     1     -34.038  18.696   1.878  1.00 20.00     0.266 C 
BRANCH   8   9
HETATM    9  C8  UNL     1     -32.749  18.413   2.614  1.00 20.00     0.249 C 
HETATM   10  F11 UNL     1     -32.780  17.141   3.096  1.00 20.00    -0.254 F 
ENDBRANCH   8   9
ENDBRANCH   6   8
BRANCH   5  11
HETATM   11  C6  UNL     1     -35.097  16.108  -2.271  1.00 20.00     0.021 C 
BRANCH  11  12
HETATM   12  C9  UNL     1     -34.251  15.337  -3.275  1.00 20.00     0.115 C 
HETATM   13 CL12 UNL     1     -35.121  13.940  -3.950  1.00 20.00    -0.130 Cl
ENDBRANCH  11  12
ENDBRANCH   5  11
TORSDOF 4
ENDMDL
