MODEL 1
REMARK VINA RESULT:      -4.7      0.000      0.000
REMARK  0 active torsions:
REMARK  status: ('A' for Active; 'I' for Inactive)
ROOT
HETATM    1  C1  UNL     1     -37.106  14.134  -4.465  1.00 20.00     0.064 C 
HETATM    2  C2  UNL     1     -35.248  15.147  -5.779  1.00 20.00     0.020 C 
HETATM    3  C3  UNL     1     -34.367  16.210  -5.124  1.00 20.00     0.010 C 
HETATM    4  C4  UNL     1     -34.931  14.676  -3.395  1.00 20.00     0.027 C 
HETATM    5  C5  UNL     1     -35.651  14.179  -4.657  1.00 20.00     0.093 C 
HETATM    6  C6  UNL     1     -33.749  15.515  -3.904  1.00 20.00    -0.046 C 
HETATM    7  C7  UNL     1     -32.564  14.622  -4.307  1.00 20.00     0.015 C 
HETATM    8  C8  UNL     1     -33.283  16.528  -2.858  1.00 20.00     0.015 C 
HETATM    9  N9  UNL     1     -38.255  14.099  -4.313  1.00 20.00    -0.197 NA
ENDROOT
TORSDOF 0
ENDMDL
MODEL 2
REMARK VINA RESULT:      -4.5     18.088     18.862
REMARK  0 active torsions:
REMARK  status: ('A' for Active; 'I' for Inactive)
ROOT
HETATM    1  C1  UNL     1     -21.981  17.449   8.020  1.00 20.00     0.064 C 
HETATM    2  C2  UNL     1     -23.527  18.968   9.246  1.00 20.00     0.020 C 
HETATM    3  C3  UNL     1     -24.693  18.368  10.030  1.00 20.00     0.010 C 
HETATM    4  C4  UNL     1     -22.901  16.816  10.239  1.00 20.00     0.027 C 
HETATM    5  C5  UNL     1     -22.382  17.949   9.341  1.00 20.00     0.093 C 
HETATM    6  C6  UNL     1     -24.040  17.438  11.061  1.00 20.00    -0.046 C 
HETATM    7  C7  UNL     1     -23.494  18.227  12.262  1.00 20.00     0.015 C 
HETATM    8  C8  UNL     1     -25.021  16.377  11.561  1.00 20.00     0.015 C 
HETATM    9  N9  UNL     1     -21.664  17.053   6.977  1.00 20.00    -0.197 NA
ENDROOT
TORSDOF 0
ENDMDL
MODEL 3
REMARK VINA RESULT:      -4.4      1.530      2.153
REMARK  0 active torsions:
REMARK  status: ('A' for Active; 'I' for Inactive)
ROOT
HETATM    1  C1  UNL     1     -35.214  13.723  -4.190  1.00 20.00     0.064 C 
HETATM    2  C2  UNL     1     -34.072  15.835  -4.854  1.00 20.00     0.020 C 
HETATM    3  C3  UNL     1     -34.570  17.162  -4.282  1.00 20.00     0.010 C 
HETATM    4  C4  UNL     1     -34.862  15.556  -2.550  1.00 20.00     0.027 C 
HETATM    5  C5  UNL     1     -34.300  14.787  -3.755  1.00 20.00     0.093 C 
HETATM    6  C6  UNL     1     -34.430  17.015  -2.761  1.00 20.00    -0.046 C 
HETATM    7  C7  UNL     1     -32.978  17.238  -2.308  1.00 20.00     0.015 C 
HETATM    8  C8  UNL     1     -35.345  17.989  -2.017  1.00 20.00     0.015 C 
HETATM    9  N9  UNL     1     -35.937  12.884  -4.533  1.00 20.00    -0.197 NA
ENDROOT
TORSDOF 0
ENDMDL
MODEL 4
REMARK VINA RESULT:      -4.3      9.935     12.034
REMARK  0 active torsions:
REMARK  status: ('A' for Active; 'I' for Inactive)
ROOT
HETATM    1  C1  UNL     1     -41.622   9.248  -0.044  1.00 20.00     0.064 C 
HETATM    2  C2  UNL     1     -40.930   7.013  -0.897  1.00 20.00     0.020 C 
HETATM    3  C3  UNL     1     -41.161   5.779  -0.025  1.00 20.00     0.010 C 
HETATM    4  C4  UNL     1     -43.001   7.229   0.396  1.00 20.00     0.027 C 
HETATM    5  C5  UNL     1     -42.092   7.970  -0.595  1.00 20.00     0.093 C 
HETATM    6  C6  UNL     1     -42.677   5.739   0.209  1.00 20.00    -0.046 C 
HETATM    7  C7  UNL     1     -43.417   5.156  -1.006  1.00 20.00     0.015 C 
HETATM    8  C8  UNL     1     -43.031   4.923   1.453  1.00 20.00     0.015 C 
HETATM    9  N9  UNL     1     -41.252  10.257   0.392  1.00 20.00    -0.197 NA
ENDROOT
TORSDOF 0
ENDMDL
MODEL 5
REMARK VINA RESULT:      -4.3     18.222     18.926
REMARK  0 active torsions:
REMARK  status: ('A' for Active; 'I' for Inactive)
ROOT
HETATM    1  C1  UNL     1     -26.929  18.849  11.567  1.00 20.00     0.064 C 
HETATM    2  C2  UNL     1     -25.571  16.906  12.331  1.00 20.00     0.020 C 
HETATM    3  C3  UNL     1     -24.624  16.226  11.344  1.00 20.00     0.010 C 
HETATM    4  C4  UNL     1     -24.590  18.541  10.790  1.00 20.00     0.027 C 
HETATM    5  C5  UNL     1     -25.586  18.394  11.949  1.00 20.00     0.093 C 
HETATM    6  C6  UNL     1     -23.652  17.329  10.904  1.00 20.00    -0.046 C 
HETATM    7  C7  UNL     1     -22.559  17.568  11.958  1.00 20.00     0.015 C 
HETATM    8  C8  UNL     1     -22.994  16.995   9.564  1.00 20.00     0.015 C 
HETATM    9  N9  UNL     1     -27.989  19.209  11.265  1.00 20.00    -0.197 NA
ENDROOT
TORSDOF 0
ENDMDL
MODEL 6
REMARK VINA RESULT:      -4.2     16.558     18.292
REMARK  0 active torsions:
REMARK  status: ('A' for Active; 'I' for Inactive)
ROOT
HETATM    1  C1  UNL     1     -24.528  18.794   7.909  1.00 20.00     0.064 C 
HETATM    2  C2  UNL     1     -25.260  19.247  10.246  1.00 20.00     0.020 C 
HETATM    3  C3  UNL     1     -25.580  18.070  11.167  1.00 20.00     0.010 C 
HETATM    4  C4  UNL     1     -23.783  17.346   9.784  1.00 20.00     0.027 C 
HETATM    5  C5  UNL     1     -24.130  18.769   9.322  1.00 20.00     0.093 C 
HETATM    6  C6  UNL     1     -24.280  17.257  11.235  1.00 20.00    -0.046 C 
HETATM    7  C7  UNL     1     -23.273  17.888  12.210  1.00 20.00     0.015 C 
HETATM    8  C8  UNL     1     -24.546  15.810  11.654  1.00 20.00     0.015 C 
HETATM    9  N9  UNL     1     -24.842  18.814   6.793  1.00 20.00    -0.197 NA
ENDROOT
TORSDOF 0
ENDMDL
MODEL 7
REMARK VINA RESULT:      -4.2      2.071      3.210
REMARK  0 active torsions:
REMARK  status: ('A' for Active; 'I' for Inactive)
ROOT
HETATM    1  C1  UNL     1     -34.474  14.316  -3.810  1.00 20.00     0.064 C 
HETATM    2  C2  UNL     1     -35.490  16.132  -2.441  1.00 20.00     0.020 C 
HETATM    3  C3  UNL     1     -34.616  16.890  -1.443  1.00 20.00     0.010 C 
HETATM    4  C4  UNL     1     -33.207  16.390  -3.294  1.00 20.00     0.027 C 
HETATM    5  C5  UNL     1     -34.573  15.769  -3.619  1.00 20.00     0.093 C 
HETATM    6  C6  UNL     1     -33.499  17.515  -2.289  1.00 20.00    -0.046 C 
HETATM    7  C7  UNL     1     -33.981  18.789  -3.002  1.00 20.00     0.015 C 
HETATM    8  C8  UNL     1     -32.271  17.847  -1.440  1.00 20.00     0.015 C 
HETATM    9  N9  UNL     1     -34.394  13.170  -3.961  1.00 20.00    -0.197 NA
ENDROOT
TORSDOF 0
ENDMDL
MODEL 8
REMARK VINA RESULT:      -4.1      1.169      1.843
REMARK  0 active torsions:
REMARK  status: ('A' for Active; 'I' for Inactive)
ROOT
HETATM    1  C1  UNL     1     -36.865  14.436  -4.015  1.00 20.00     0.064 C 
HETATM    2  C2  UNL     1     -34.383  14.372  -3.818  1.00 20.00     0.020 C 
HETATM    3  C3  UNL     1     -33.560  15.520  -4.401  1.00 20.00     0.010 C 
HETATM    4  C4  UNL     1     -35.564  16.506  -3.579  1.00 20.00     0.027 C 
HETATM    5  C5  UNL     1     -35.696  14.998  -3.326  1.00 20.00     0.093 C 
HETATM    6  C6  UNL     1     -34.053  16.773  -3.666  1.00 20.00    -0.046 C 
HETATM    7  C7  UNL     1     -33.425  16.887  -2.268  1.00 20.00     0.015 C 
HETATM    8  C8  UNL     1     -33.748  18.045  -4.460  1.00 20.00     0.015 C 
HETATM    9  N9  UNL     1     -37.788  13.993  -4.559  1.00 20.00    -0.197 NA
ENDROOT
TORSDOF 0
ENDMDL
MODEL 9
REMARK VINA RESULT:      -4.0      1.549      2.273
REMARK  0 active torsions:
REMARK  status: ('A' for Active; 'I' for Inactive)
ROOT
HETATM    1  C1  UNL     1     -35.844  14.671  -5.897  1.00 20.00     0.064 C 
HETATM    2  C2  UNL     1     -34.191  14.280  -4.076  1.00 20.00     0.020 C 
HETATM    3  C3  UNL     1     -33.185  15.379  -3.735  1.00 20.00     0.010 C 
HETATM    4  C4  UNL     1     -35.193  16.500  -4.349  1.00 20.00     0.027 C 
HETATM    5  C5  UNL     1     -35.474  15.000  -4.514  1.00 20.00     0.093 C 
HETATM    6  C6  UNL     1     -34.041  16.588  -3.336  1.00 20.00    -0.046 C 
HETATM    7  C7  UNL     1     -34.555  16.460  -1.893  1.00 20.00     0.015 C 
HETATM    8  C8  UNL     1     -33.262  17.897  -3.477  1.00 20.00     0.015 C 
HETATM    9  N9  UNL     1     -36.136  14.411  -6.989  1.00 20.00    -0.197 NA
ENDROOT
TORSDOF 0
ENDMDL
