MODEL 1
REMARK VINA RESULT:      -4.1      0.000      0.000
REMARK  3 active torsions:
REMARK  status: ('A' for Active; 'I' for Inactive)
REMARK    1  A    between atoms: C2_2  and  C8_8 
REMARK    2  A    between atoms: C6_6  and  C8_8 
REMARK    3  A    between atoms: C8_8  and  N9_9 
ROOT
HETATM    1  C8  UNL     1     -23.797  18.240   9.174  1.00 20.00     0.255 C 
ENDROOT
BRANCH   1   2
HETATM    2  C2  UNL     1     -24.884  18.883   8.359  1.00 20.00    -0.001 C 
HETATM    3  C1  UNL     1     -24.764  19.187   7.061  1.00 20.00     0.009 C 
ENDBRANCH   1   2
BRANCH   1   4
HETATM    4  C6  UNL     1     -24.160  18.191  10.648  1.00 20.00     0.084 C 
HETATM    5  C4  UNL     1     -25.527  18.802  10.942  1.00 20.00     0.018 C 
HETATM    6  C3  UNL     1     -25.964  18.247  12.289  1.00 20.00     0.011 C 
HETATM    7  C5  UNL     1     -25.809  16.738  12.202  1.00 20.00     0.074 C 
HETATM    8  S10 UNL     1     -24.286  16.476  11.251  1.00 20.00    -0.162 SA
ENDBRANCH   1   4
BRANCH   1   9
HETATM    9  N9  UNL     1     -22.583  18.993   8.965  1.00 20.00     0.088 N 
HETATM   10  C7  UNL     1     -21.399  18.185   9.251  1.00 20.00     0.307 C 
HETATM   11  H25 UNL     1     -22.573  19.814   9.576  1.00 20.00     0.316 HD
ENDBRANCH   1   9
TORSDOF 3
ENDMDL
MODEL 2
REMARK VINA RESULT:      -3.9      2.196      4.408
REMARK  3 active torsions:
REMARK  status: ('A' for Active; 'I' for Inactive)
REMARK    1  A    between atoms: C2_2  and  C8_8 
REMARK    2  A    between atoms: C6_6  and  C8_8 
REMARK    3  A    between atoms: C8_8  and  N9_9 
ROOT
HETATM    1  C8  UNL     1     -24.688  18.032  10.853  1.00 20.00     0.255 C 
ENDROOT
BRANCH   1   2
HETATM    2  C2  UNL     1     -24.288  16.972  11.841  1.00 20.00    -0.001 C 
HETATM    3  C1  UNL     1     -24.737  15.711  11.806  1.00 20.00     0.009 C 
ENDBRANCH   1   2
BRANCH   1   4
HETATM    4  C6  UNL     1     -23.497  18.520  10.047  1.00 20.00     0.084 C 
HETATM    5  C4  UNL     1     -22.221  17.737  10.343  1.00 20.00     0.018 C 
HETATM    6  C3  UNL     1     -21.293  17.966   9.160  1.00 20.00     0.011 C 
HETATM    7  C5  UNL     1     -22.103  17.654   7.913  1.00 20.00     0.074 C 
HETATM    8  S10 UNL     1     -23.764  18.298   8.257  1.00 20.00    -0.162 SA
ENDBRANCH   1   4
BRANCH   1   9
HETATM    9  N9  UNL     1     -25.293  19.117  11.589  1.00 20.00     0.088 N 
HETATM   10  C7  UNL     1     -26.736  18.930  11.724  1.00 20.00     0.307 C 
HETATM   11  H25 UNL     1     -25.121  20.003  11.107  1.00 20.00     0.316 HD
ENDBRANCH   1   9
TORSDOF 3
ENDMDL
MODEL 3
REMARK VINA RESULT:      -3.8      2.142      4.079
REMARK  3 active torsions:
REMARK  status: ('A' for Active; 'I' for Inactive)
REMARK    1  A    between atoms: C2_2  and  C8_8 
REMARK    2  A    between atoms: C6_6  and  C8_8 
REMARK    3  A    between atoms: C8_8  and  N9_9 
ROOT
HETATM    1  C8  UNL     1     -24.635  17.945  11.607  1.00 20.00     0.255 C 
ENDROOT
BRANCH   1   2
HETATM    2  C2  UNL     1     -25.749  18.905  11.917  1.00 20.00    -0.001 C 
HETATM    3  C1  UNL     1     -27.046  18.573  11.906  1.00 20.00     0.009 C 
ENDBRANCH   1   2
BRANCH   1   4
HETATM    4  C6  UNL     1     -23.665  18.524  10.592  1.00 20.00     0.084 C 
HETATM    5  C4  UNL     1     -22.320  17.804  10.582  1.00 20.00     0.018 C 
HETATM    6  C3  UNL     1     -21.674  18.122   9.242  1.00 20.00     0.011 C 
HETATM    7  C5  UNL     1     -22.712  17.807   8.179  1.00 20.00     0.074 C 
HETATM    8  S10 UNL     1     -24.292  18.347   8.890  1.00 20.00    -0.162 SA
ENDBRANCH   1   4
BRANCH   1   9
HETATM    9  N9  UNL     1     -25.227  16.723  11.116  1.00 20.00     0.088 N 
HETATM   10  C7  UNL     1     -24.755  15.562  11.869  1.00 20.00     0.307 C 
HETATM   11  H25 UNL     1     -24.989  16.592  10.130  1.00 20.00     0.316 HD
ENDBRANCH   1   9
TORSDOF 3
ENDMDL
MODEL 4
REMARK VINA RESULT:      -3.7     17.199     18.957
REMARK  3 active torsions:
REMARK  status: ('A' for Active; 'I' for Inactive)
REMARK    1  A    between atoms: C2_2  and  C8_8 
REMARK    2  A    between atoms: C6_6  and  C8_8 
REMARK    3  A    between atoms: C8_8  and  N9_9 
ROOT
HETATM    1  C8  UNL     1     -34.179  15.588  -5.273  1.00 20.00     0.255 C 
ENDROOT
BRANCH   1   2
HETATM    2  C2  UNL     1     -33.663  15.248  -3.903  1.00 20.00    -0.001 C 
HETATM    3  C1  UNL     1     -33.319  16.162  -2.986  1.00 20.00     0.009 C 
ENDBRANCH   1   2
BRANCH   1   4
HETATM    4  C6  UNL     1     -35.649  15.237  -5.419  1.00 20.00     0.084 C 
HETATM    5  C4  UNL     1     -36.139  14.281  -4.335  1.00 20.00     0.018 C 
HETATM    6  C3  UNL     1     -37.653  14.422  -4.292  1.00 20.00     0.011 C 
HETATM    7  C5  UNL     1     -37.943  15.909  -4.181  1.00 20.00     0.074 C 
HETATM    8  S10 UNL     1     -36.709  16.709  -5.243  1.00 20.00    -0.162 SA
ENDBRANCH   1   4
BRANCH   1   9
HETATM    9  N9  UNL     1     -33.379  14.870  -6.237  1.00 20.00     0.088 N 
HETATM   10  C7  UNL     1     -33.811  15.152  -7.605  1.00 20.00     0.307 C 
HETATM   11  H25 UNL     1     -33.454  13.863  -6.072  1.00 20.00     0.316 HD
ENDBRANCH   1   9
TORSDOF 3
ENDMDL
MODEL 5
REMARK VINA RESULT:      -3.6     16.181     17.724
REMARK  3 active torsions:
REMARK  status: ('A' for Active; 'I' for Inactive)
REMARK    1  A    between atoms: C2_2  and  C8_8 
REMARK    2  A    between atoms: C6_6  and  C8_8 
REMARK    3  A    between atoms: C8_8  and  N9_9 
ROOT
HETATM    1  C8  UNL     1     -34.475  16.923  -3.487  1.00 20.00     0.255 C 
ENDROOT
BRANCH   1   2
HETATM    2  C2  UNL     1     -34.362  16.432  -2.071  1.00 20.00    -0.001 C 
HETATM    3  C1  UNL     1     -35.111  16.890  -1.060  1.00 20.00     0.009 C 
ENDBRANCH   1   2
BRANCH   1   4
HETATM    4  C6  UNL     1     -35.124  15.885  -4.387  1.00 20.00     0.084 C 
HETATM    5  C4  UNL     1     -34.990  14.465  -3.844  1.00 20.00     0.018 C 
HETATM    6  C3  UNL     1     -36.070  13.642  -4.529  1.00 20.00     0.011 C 
HETATM    7  C5  UNL     1     -37.371  14.405  -4.349  1.00 20.00     0.074 C 
HETATM    8  S10 UNL     1     -36.921  16.152  -4.531  1.00 20.00    -0.162 SA
ENDBRANCH   1   4
BRANCH   1   9
HETATM    9  N9  UNL     1     -33.147  17.250  -3.949  1.00 20.00     0.088 N 
HETATM   10  C7  UNL     1     -32.774  18.614  -3.579  1.00 20.00     0.307 C 
HETATM   11  H25 UNL     1     -33.102  17.165  -4.968  1.00 20.00     0.316 HD
ENDBRANCH   1   9
TORSDOF 3
ENDMDL
MODEL 6
REMARK VINA RESULT:      -3.6     14.936     16.743
REMARK  3 active torsions:
REMARK  status: ('A' for Active; 'I' for Inactive)
REMARK    1  A    between atoms: C2_2  and  C8_8 
REMARK    2  A    between atoms: C6_6  and  C8_8 
REMARK    3  A    between atoms: C8_8  and  N9_9 
ROOT
HETATM    1  C8  UNL     1     -34.932  15.781  -3.434  1.00 20.00     0.255 C 
ENDROOT
BRANCH   1   2
HETATM    2  C2  UNL     1     -34.358  14.504  -3.981  1.00 20.00    -0.001 C 
HETATM    3  C1  UNL     1     -33.119  14.394  -4.475  1.00 20.00     0.009 C 
ENDBRANCH   1   2
BRANCH   1   4
HETATM    4  C6  UNL     1     -34.194  16.236  -2.188  1.00 20.00     0.084 C 
HETATM    5  C4  UNL     1     -33.137  17.297  -2.481  1.00 20.00     0.018 C 
HETATM    6  C3  UNL     1     -32.858  18.001  -1.161  1.00 20.00     0.011 C 
HETATM    7  C5  UNL     1     -34.209  18.409  -0.599  1.00 20.00     0.074 C 
HETATM    8  S10 UNL     1     -35.319  17.030  -0.994  1.00 20.00    -0.162 SA
ENDBRANCH   1   4
BRANCH   1   9
HETATM    9  N9  UNL     1     -36.329  15.553  -3.152  1.00 20.00     0.088 N 
HETATM   10  C7  UNL     1     -36.923  14.625  -4.113  1.00 20.00     0.307 C 
HETATM   11  H25 UNL     1     -36.842  16.437  -3.193  1.00 20.00     0.316 HD
ENDBRANCH   1   9
TORSDOF 3
ENDMDL
MODEL 7
REMARK VINA RESULT:      -3.5     13.731     15.484
REMARK  3 active torsions:
REMARK  status: ('A' for Active; 'I' for Inactive)
REMARK    1  A    between atoms: C2_2  and  C8_8 
REMARK    2  A    between atoms: C6_6  and  C8_8 
REMARK    3  A    between atoms: C8_8  and  N9_9 
ROOT
HETATM    1  C8  UNL     1     -33.279  16.579  -2.792  1.00 20.00     0.255 C 
ENDROOT
BRANCH   1   2
HETATM    2  C2  UNL     1     -34.459  15.648  -2.789  1.00 20.00    -0.001 C 
HETATM    3  C1  UNL     1     -34.603  14.623  -3.638  1.00 20.00     0.009 C 
ENDBRANCH   1   2
BRANCH   1   4
HETATM    4  C6  UNL     1     -33.511  17.776  -1.886  1.00 20.00     0.084 C 
HETATM    5  C4  UNL     1     -34.463  17.469  -0.733  1.00 20.00     0.018 C 
HETATM    6  C3  UNL     1     -34.208  18.530   0.327  1.00 20.00     0.011 C 
HETATM    7  C5  UNL     1     -32.708  18.548   0.565  1.00 20.00     0.074 C 
HETATM    8  S10 UNL     1     -31.969  18.310  -1.074  1.00 20.00    -0.162 SA
ENDBRANCH   1   4
BRANCH   1   9
HETATM    9  N9  UNL     1     -33.050  16.999  -4.153  1.00 20.00     0.088 N 
HETATM   10  C7  UNL     1     -33.831  18.190  -4.484  1.00 20.00     0.307 C 
HETATM   11  H25 UNL     1     -33.310  16.249  -4.798  1.00 20.00     0.316 HD
ENDBRANCH   1   9
TORSDOF 3
ENDMDL
MODEL 8
REMARK VINA RESULT:      -3.5     15.724     17.506
REMARK  3 active torsions:
REMARK  status: ('A' for Active; 'I' for Inactive)
REMARK    1  A    between atoms: C2_2  and  C8_8 
REMARK    2  A    between atoms: C6_6  and  C8_8 
REMARK    3  A    between atoms: C8_8  and  N9_9 
ROOT
HETATM    1  C8  UNL     1     -34.519  15.974  -2.237  1.00 20.00     0.255 C 
ENDROOT
BRANCH   1   2
HETATM    2  C2  UNL     1     -33.454  17.025  -2.377  1.00 20.00    -0.001 C 
HETATM    3  C1  UNL     1     -33.087  17.565  -3.545  1.00 20.00     0.009 C 
ENDBRANCH   1   2
BRANCH   1   4
HETATM    4  C6  UNL     1     -35.089  15.573  -3.586  1.00 20.00     0.084 C 
HETATM    5  C4  UNL     1     -35.108  14.061  -3.794  1.00 20.00     0.018 C 
HETATM    6  C3  UNL     1     -36.124  13.793  -4.894  1.00 20.00     0.011 C 
HETATM    7  C5  UNL     1     -37.395  14.521  -4.492  1.00 20.00     0.074 C 
HETATM    8  S10 UNL     1     -36.832  16.080  -3.755  1.00 20.00    -0.162 SA
ENDBRANCH   1   4
BRANCH   1   9
HETATM    9  N9  UNL     1     -35.551  16.502  -1.376  1.00 20.00     0.088 N 
HETATM   10  C7  UNL     1     -34.990  17.363  -0.336  1.00 20.00     0.307 C 
HETATM   11  H25 UNL     1     -36.057  15.734  -0.927  1.00 20.00     0.316 HD
ENDBRANCH   1   9
TORSDOF 3
ENDMDL
MODEL 9
REMARK VINA RESULT:      -3.4     15.961     17.699
REMARK  3 active torsions:
REMARK  status: ('A' for Active; 'I' for Inactive)
REMARK    1  A    between atoms: C2_2  and  C8_8 
REMARK    2  A    between atoms: C6_6  and  C8_8 
REMARK    3  A    between atoms: C8_8  and  N9_9 
ROOT
HETATM    1  C8  UNL     1     -34.406  15.251  -4.705  1.00 20.00     0.255 C 
ENDROOT
BRANCH   1   2
HETATM    2  C2  UNL     1     -35.671  14.665  -5.267  1.00 20.00    -0.001 C 
HETATM    3  C1  UNL     1     -36.358  13.674  -4.685  1.00 20.00     0.009 C 
ENDBRANCH   1   2
BRANCH   1   4
HETATM    4  C6  UNL     1     -34.699  16.355  -3.703  1.00 20.00     0.084 C 
HETATM    5  C4  UNL     1     -34.914  15.827  -2.288  1.00 20.00     0.018 C 
HETATM    6  C3  UNL     1     -34.688  17.005  -1.352  1.00 20.00     0.011 C 
HETATM    7  C5  UNL     1     -33.352  17.612  -1.741  1.00 20.00     0.074 C 
HETATM    8  S10 UNL     1     -33.298  17.511  -3.552  1.00 20.00    -0.162 SA
ENDBRANCH   1   4
BRANCH   1   9
HETATM    9  N9  UNL     1     -33.621  15.750  -5.809  1.00 20.00     0.088 N 
HETATM   10  C7  UNL     1     -34.049  15.162  -7.077  1.00 20.00     0.307 C 
HETATM   11  H25 UNL     1     -32.633  15.527  -5.662  1.00 20.00     0.316 HD
ENDBRANCH   1   9
TORSDOF 3
ENDMDL
