MODEL 1
REMARK VINA RESULT:      -4.1      0.000      0.000
REMARK  1 active torsions:
REMARK  status: ('A' for Active; 'I' for Inactive)
REMARK    1  A    between atoms: C7_7  and  N8_8 
ROOT
HETATM    1  C1  UNL     1     -34.223   4.274   3.464  1.00 20.00     0.048 C 
HETATM    2  C2  UNL     1     -33.025   4.852   2.722  1.00 20.00     0.274 C 
HETATM    3  C3  UNL     1     -33.924   6.647   3.890  1.00 20.00     0.288 C 
HETATM    4  C4  UNL     1     -34.791   5.450   4.251  1.00 20.00     0.087 C 
HETATM    5  N8  UNL     1     -33.383   6.264   2.583  1.00 20.00     0.093 N 
HETATM    6 BR9  UNL     1     -34.744   5.115   6.163  1.00 20.00    -0.089 Br
ENDROOT
BRANCH   5   7
HETATM    7  C7  UNL     1     -32.251   7.088   2.186  1.00 20.00     0.215 C 
HETATM    8  C5  UNL     1     -31.626   7.707   3.429  1.00 20.00     0.042 C 
HETATM    9  C6  UNL     1     -32.734   8.151   1.210  1.00 20.00     0.042 C 
ENDBRANCH   5   7
TORSDOF 1
ENDMDL
MODEL 2
REMARK VINA RESULT:      -4.0     15.897     16.656
REMARK  1 active torsions:
REMARK  status: ('A' for Active; 'I' for Inactive)
REMARK    1  A    between atoms: C7_7  and  N8_8 
ROOT
HETATM    1  C1  UNL     1     -23.166  18.077   8.572  1.00 20.00     0.048 C 
HETATM    2  C2  UNL     1     -23.378  17.190   9.793  1.00 20.00     0.274 C 
HETATM    3  C3  UNL     1     -25.007  18.836   9.964  1.00 20.00     0.288 C 
HETATM    4  C4  UNL     1     -24.256  19.138   8.675  1.00 20.00     0.087 C 
HETATM    5  N8  UNL     1     -24.009  18.102  10.747  1.00 20.00     0.093 N 
HETATM    6 BR9  UNL     1     -25.454  19.077   7.148  1.00 20.00    -0.089 Br
ENDROOT
BRANCH   5   7
HETATM    7  C7  UNL     1     -24.598  17.401  11.879  1.00 20.00     0.215 C 
HETATM    8  C5  UNL     1     -24.659  15.913  11.567  1.00 20.00     0.042 C 
HETATM    9  C6  UNL     1     -25.981  17.977  12.149  1.00 20.00     0.042 C 
ENDBRANCH   5   7
TORSDOF 1
ENDMDL
MODEL 3
REMARK VINA RESULT:      -3.7     16.509     16.853
REMARK  1 active torsions:
REMARK  status: ('A' for Active; 'I' for Inactive)
REMARK    1  A    between atoms: C7_7  and  N8_8 
ROOT
HETATM    1  C1  UNL     1     -26.208  19.262  10.668  1.00 20.00     0.048 C 
HETATM    2  C2  UNL     1     -24.964  18.535  10.173  1.00 20.00     0.274 C 
HETATM    3  C3  UNL     1     -25.294  17.745  12.331  1.00 20.00     0.288 C 
HETATM    4  C4  UNL     1     -26.436  18.717  12.074  1.00 20.00     0.087 C 
HETATM    5  N8  UNL     1     -24.256  18.227  11.415  1.00 20.00     0.093 N 
HETATM    6 BR9  UNL     1     -28.151  17.820  12.219  1.00 20.00    -0.089 Br
ENDROOT
BRANCH   5   7
HETATM    7  C7  UNL     1     -23.192  17.253  11.221  1.00 20.00     0.215 C 
HETATM    8  C5  UNL     1     -21.993  17.648  12.071  1.00 20.00     0.042 C 
HETATM    9  C6  UNL     1     -22.839  17.198   9.741  1.00 20.00     0.042 C 
ENDBRANCH   5   7
TORSDOF 1
ENDMDL
MODEL 4
REMARK VINA RESULT:      -3.7      2.532      3.782
REMARK  1 active torsions:
REMARK  status: ('A' for Active; 'I' for Inactive)
REMARK    1  A    between atoms: C7_7  and  N8_8 
ROOT
HETATM    1  C1  UNL     1     -33.012   5.478   1.981  1.00 20.00     0.048 C 
HETATM    2  C2  UNL     1     -34.053   5.247   3.069  1.00 20.00     0.274 C 
HETATM    3  C3  UNL     1     -33.052   7.268   3.623  1.00 20.00     0.288 C 
HETATM    4  C4  UNL     1     -32.378   6.820   2.335  1.00 20.00     0.087 C 
HETATM    5  N8  UNL     1     -33.510   6.000   4.199  1.00 20.00     0.093 N 
HETATM    6 BR9  UNL     1     -32.648   8.126   0.924  1.00 20.00    -0.089 Br
ENDROOT
BRANCH   5   7
HETATM    7  C7  UNL     1     -34.488   6.193   5.260  1.00 20.00     0.215 C 
HETATM    8  C5  UNL     1     -33.916   7.146   6.299  1.00 20.00     0.042 C 
HETATM    9  C6  UNL     1     -34.831   4.840   5.866  1.00 20.00     0.042 C 
ENDBRANCH   5   7
TORSDOF 1
ENDMDL
MODEL 5
REMARK VINA RESULT:      -3.6     11.704     12.147
REMARK  1 active torsions:
REMARK  status: ('A' for Active; 'I' for Inactive)
REMARK    1  A    between atoms: C7_7  and  N8_8 
ROOT
HETATM    1  C1  UNL     1     -33.048  15.554  -3.630  1.00 20.00     0.048 C 
HETATM    2  C2  UNL     1     -33.870  14.896  -4.730  1.00 20.00     0.274 C 
HETATM    3  C3  UNL     1     -35.409  15.426  -3.074  1.00 20.00     0.288 C 
HETATM    4  C4  UNL     1     -34.067  15.926  -2.559  1.00 20.00     0.087 C 
HETATM    5  N8  UNL     1     -35.016  14.357  -3.997  1.00 20.00     0.093 N 
HETATM    6 BR9  UNL     1     -34.115  17.843  -2.257  1.00 20.00    -0.089 Br
ENDROOT
BRANCH   5   7
HETATM    7  C7  UNL     1     -36.102  13.958  -4.879  1.00 20.00     0.215 C 
HETATM    8  C5  UNL     1     -35.815  14.464  -6.286  1.00 20.00     0.042 C 
HETATM    9  C6  UNL     1     -37.409  14.518  -4.336  1.00 20.00     0.042 C 
ENDBRANCH   5   7
TORSDOF 1
ENDMDL
MODEL 6
REMARK VINA RESULT:      -3.6     15.862     16.354
REMARK  1 active torsions:
REMARK  status: ('A' for Active; 'I' for Inactive)
REMARK    1  A    between atoms: C7_7  and  N8_8 
ROOT
HETATM    1  C1  UNL     1     -22.521  16.977   9.267  1.00 20.00     0.048 C 
HETATM    2  C2  UNL     1     -22.924  18.011   8.224  1.00 20.00     0.274 C 
HETATM    3  C3  UNL     1     -24.571  18.142   9.856  1.00 20.00     0.288 C 
HETATM    4  C4  UNL     1     -23.590  17.088  10.350  1.00 20.00     0.087 C 
HETATM    5  N8  UNL     1     -24.372  18.103   8.404  1.00 20.00     0.093 N 
HETATM    6 BR9  UNL     1     -22.822  17.606  12.056  1.00 20.00    -0.089 Br
ENDROOT
BRANCH   5   7
HETATM    7  C7  UNL     1     -24.943  19.263   7.734  1.00 20.00     0.215 C 
HETATM    8  C5  UNL     1     -26.460  19.211   7.854  1.00 20.00     0.042 C 
HETATM    9  C6  UNL     1     -24.493  19.263   6.280  1.00 20.00     0.042 C 
ENDBRANCH   5   7
TORSDOF 1
ENDMDL
MODEL 7
REMARK VINA RESULT:      -3.6     16.196     16.834
REMARK  1 active torsions:
REMARK  status: ('A' for Active; 'I' for Inactive)
REMARK    1  A    between atoms: C7_7  and  N8_8 
ROOT
HETATM    1  C1  UNL     1     -23.913  18.611   8.415  1.00 20.00     0.048 C 
HETATM    2  C2  UNL     1     -24.611  19.068   9.689  1.00 20.00     0.274 C 
HETATM    3  C3  UNL     1     -23.586  17.064  10.260  1.00 20.00     0.288 C 
HETATM    4  C4  UNL     1     -23.218  17.310   8.804  1.00 20.00     0.087 C 
HETATM    5  N8  UNL     1     -24.840  17.810  10.400  1.00 20.00     0.093 N 
HETATM    6 BR9  UNL     1     -21.293  17.442   8.591  1.00 20.00    -0.089 Br
ENDROOT
BRANCH   5   7
HETATM    7  C7  UNL     1     -25.209  18.018  11.793  1.00 20.00     0.215 C 
HETATM    8  C5  UNL     1     -25.858  16.751  12.332  1.00 20.00     0.042 C 
HETATM    9  C6  UNL     1     -26.149  19.213  11.880  1.00 20.00     0.042 C 
ENDBRANCH   5   7
TORSDOF 1
ENDMDL
MODEL 8
REMARK VINA RESULT:      -3.5     11.577     12.189
REMARK  1 active torsions:
REMARK  status: ('A' for Active; 'I' for Inactive)
REMARK    1  A    between atoms: C7_7  and  N8_8 
ROOT
HETATM    1  C1  UNL     1     -34.947  14.222  -3.932  1.00 20.00     0.048 C 
HETATM    2  C2  UNL     1     -35.353  15.279  -2.913  1.00 20.00     0.274 C 
HETATM    3  C3  UNL     1     -33.445  16.132  -3.926  1.00 20.00     0.288 C 
HETATM    4  C4  UNL     1     -33.711  14.801  -4.613  1.00 20.00     0.087 C 
HETATM    5  N8  UNL     1     -34.086  15.948  -2.620  1.00 20.00     0.093 N 
HETATM    6 BR9  UNL     1     -34.001  15.053  -6.516  1.00 20.00    -0.089 Br
ENDROOT
BRANCH   5   7
HETATM    7  C7  UNL     1     -34.272  17.205  -1.911  1.00 20.00     0.215 C 
HETATM    8  C5  UNL     1     -32.913  17.744  -1.485  1.00 20.00     0.042 C 
HETATM    9  C6  UNL     1     -35.182  16.966  -0.715  1.00 20.00     0.042 C 
ENDBRANCH   5   7
TORSDOF 1
ENDMDL
MODEL 9
REMARK VINA RESULT:      -3.5     11.566     12.352
REMARK  1 active torsions:
REMARK  status: ('A' for Active; 'I' for Inactive)
REMARK    1  A    between atoms: C7_7  and  N8_8 
ROOT
HETATM    1  C1  UNL     1     -34.704  17.167  -1.479  1.00 20.00     0.048 C 
HETATM    2  C2  UNL     1     -34.902  15.876  -2.263  1.00 20.00     0.274 C 
HETATM    3  C3  UNL     1     -33.307  17.062  -3.464  1.00 20.00     0.288 C 
HETATM    4  C4  UNL     1     -33.635  17.928  -2.257  1.00 20.00     0.087 C 
HETATM    5  N8  UNL     1     -34.526  16.264  -3.623  1.00 20.00     0.093 N 
HETATM    6 BR9  UNL     1     -32.052  18.233  -1.176  1.00 20.00    -0.089 Br
ENDROOT
BRANCH   5   7
HETATM    7  C7  UNL     1     -34.328  15.115  -4.494  1.00 20.00     0.215 C 
HETATM    8  C5  UNL     1     -35.322  14.026  -4.116  1.00 20.00     0.042 C 
HETATM    9  C6  UNL     1     -32.890  14.636  -4.358  1.00 20.00     0.042 C 
ENDBRANCH   5   7
TORSDOF 1
ENDMDL
