MODEL 1
REMARK VINA RESULT:      -4.2      0.000      0.000
REMARK  1 active torsions:
REMARK  status: ('A' for Active; 'I' for Inactive)
REMARK    1  A    between atoms: C4_4  and  C8_8 
ROOT
HETATM    1  C1  UNL     1     -21.990  17.797  11.580  1.00 20.00     0.006 C 
HETATM    2  C2  UNL     1     -23.318  17.827  12.331  1.00 20.00     0.009 C 
HETATM    3  C3  UNL     1     -23.651  17.310   9.952  1.00 20.00     0.014 C 
HETATM    4  C4  UNL     1     -22.381  18.138  10.147  1.00 20.00     0.000 C 
HETATM    5  C5  UNL     1     -24.397  17.409  11.302  1.00 20.00    -0.047 C 
HETATM    6  C6  UNL     1     -25.019  16.057  11.674  1.00 20.00     0.015 C 
HETATM    7  C7  UNL     1     -25.505  18.470  11.232  1.00 20.00     0.015 C 
ENDROOT
BRANCH   4   8
HETATM    8  C8  UNL     1     -21.294  17.813   9.137  1.00 20.00     0.119 C 
HETATM    9 CL9  UNL     1     -22.013  17.388   7.571  1.00 20.00    -0.130 Cl
ENDBRANCH   4   8
TORSDOF 1
ENDMDL
MODEL 2
REMARK VINA RESULT:      -4.1     16.325     17.287
REMARK  1 active torsions:
REMARK  status: ('A' for Active; 'I' for Inactive)
REMARK    1  A    between atoms: C4_4  and  C8_8 
ROOT
HETATM    1  C1  UNL     1     -34.977  16.200  -1.683  1.00 20.00     0.006 C 
HETATM    2  C2  UNL     1     -35.220  15.561  -3.047  1.00 20.00     0.009 C 
HETATM    3  C3  UNL     1     -33.132  16.855  -3.027  1.00 20.00     0.014 C 
HETATM    4  C4  UNL     1     -34.118  17.416  -2.004  1.00 20.00     0.000 C 
HETATM    5  C5  UNL     1     -33.972  15.896  -3.900  1.00 20.00    -0.047 C 
HETATM    6  C6  UNL     1     -33.174  14.628  -4.230  1.00 20.00     0.015 C 
HETATM    7  C7  UNL     1     -34.390  16.581  -5.209  1.00 20.00     0.015 C 
ENDROOT
BRANCH   4   8
HETATM    8  C8  UNL     1     -33.440  18.008  -0.781  1.00 20.00     0.119 C 
HETATM    9 CL9  UNL     1     -31.699  18.199  -1.072  1.00 20.00    -0.130 Cl
ENDBRANCH   4   8
TORSDOF 1
ENDMDL
MODEL 3
REMARK VINA RESULT:      -4.1     15.774     17.200
REMARK  1 active torsions:
REMARK  status: ('A' for Active; 'I' for Inactive)
REMARK    1  A    between atoms: C4_4  and  C8_8 
ROOT
HETATM    1  C1  UNL     1     -33.022   5.285   2.497  1.00 20.00     0.006 C 
HETATM    2  C2  UNL     1     -33.989   4.466   3.347  1.00 20.00     0.009 C 
HETATM    3  C3  UNL     1     -33.966   6.822   4.044  1.00 20.00     0.014 C 
HETATM    4  C4  UNL     1     -32.628   6.437   3.413  1.00 20.00     0.000 C 
HETATM    5  C5  UNL     1     -34.687   5.477   4.290  1.00 20.00    -0.047 C 
HETATM    6  C6  UNL     1     -36.180   5.597   3.961  1.00 20.00     0.015 C 
HETATM    7  C7  UNL     1     -34.529   5.038   5.753  1.00 20.00     0.015 C 
ENDROOT
BRANCH   4   8
HETATM    8  C8  UNL     1     -31.963   7.586   2.675  1.00 20.00     0.119 C 
HETATM    9 CL9  UNL     1     -32.836   7.944   1.172  1.00 20.00    -0.130 Cl
ENDBRANCH   4   8
TORSDOF 1
ENDMDL
MODEL 4
REMARK VINA RESULT:      -4.1     23.009     24.325
REMARK  1 active torsions:
REMARK  status: ('A' for Active; 'I' for Inactive)
REMARK    1  A    between atoms: C4_4  and  C8_8 
ROOT
HETATM    1  C1  UNL     1     -42.244   5.755   0.541  1.00 20.00     0.006 C 
HETATM    2  C2  UNL     1     -42.482   7.164   1.076  1.00 20.00     0.009 C 
HETATM    3  C3  UNL     1     -41.589   7.218  -1.213  1.00 20.00     0.014 C 
HETATM    4  C4  UNL     1     -41.142   5.945  -0.494  1.00 20.00     0.000 C 
HETATM    5  C5  UNL     1     -42.157   8.123  -0.096  1.00 20.00    -0.047 C 
HETATM    6  C6  UNL     1     -43.417   8.850  -0.579  1.00 20.00     0.015 C 
HETATM    7  C7  UNL     1     -41.114   9.162   0.341  1.00 20.00     0.015 C 
ENDROOT
BRANCH   4   8
HETATM    8  C8  UNL     1     -40.985   4.756  -1.426  1.00 20.00     0.119 C 
HETATM    9 CL9  UNL     1     -42.562   4.268  -2.076  1.00 20.00    -0.130 Cl
ENDBRANCH   4   8
TORSDOF 1
ENDMDL
MODEL 5
REMARK VINA RESULT:      -4.0     15.770     17.302
REMARK  1 active torsions:
REMARK  status: ('A' for Active; 'I' for Inactive)
REMARK    1  A    between atoms: C4_4  and  C8_8 
ROOT
HETATM    1  C1  UNL     1     -33.509   4.644   3.048  1.00 20.00     0.006 C 
HETATM    2  C2  UNL     1     -32.652   5.529   2.149  1.00 20.00     0.009 C 
HETATM    3  C3  UNL     1     -33.770   6.848   3.895  1.00 20.00     0.014 C 
HETATM    4  C4  UNL     1     -34.580   5.593   3.571  1.00 20.00     0.000 C 
HETATM    5  C5  UNL     1     -32.732   6.952   2.755  1.00 20.00    -0.047 C 
HETATM    6  C6  UNL     1     -31.370   7.395   3.304  1.00 20.00     0.015 C 
HETATM    7  C7  UNL     1     -33.195   7.959   1.692  1.00 20.00     0.015 C 
ENDROOT
BRANCH   4   8
HETATM    8  C8  UNL     1     -35.334   5.042   4.769  1.00 20.00     0.119 C 
HETATM    9 CL9  UNL     1     -34.655   5.687   6.277  1.00 20.00    -0.130 Cl
ENDBRANCH   4   8
TORSDOF 1
ENDMDL
MODEL 6
REMARK VINA RESULT:      -4.0     17.518     18.470
REMARK  1 active torsions:
REMARK  status: ('A' for Active; 'I' for Inactive)
REMARK    1  A    between atoms: C4_4  and  C8_8 
ROOT
HETATM    1  C1  UNL     1     -33.578  15.880  -3.061  1.00 20.00     0.006 C 
HETATM    2  C2  UNL     1     -33.832  14.916  -4.217  1.00 20.00     0.009 C 
HETATM    3  C3  UNL     1     -35.933  15.876  -3.378  1.00 20.00     0.014 C 
HETATM    4  C4  UNL     1     -34.880  15.842  -2.271  1.00 20.00     0.000 C 
HETATM    5  C5  UNL     1     -35.353  14.985  -4.500  1.00 20.00    -0.047 C 
HETATM    6  C6  UNL     1     -35.631  15.602  -5.876  1.00 20.00     0.015 C 
HETATM    7  C7  UNL     1     -35.969  13.579  -4.447  1.00 20.00     0.015 C 
ENDROOT
BRANCH   4   8
HETATM    8  C8  UNL     1     -35.013  16.989  -1.284  1.00 20.00     0.119 C 
HETATM    9 CL9  UNL     1     -33.449  17.797  -1.062  1.00 20.00    -0.130 Cl
ENDBRANCH   4   8
TORSDOF 1
ENDMDL
MODEL 7
REMARK VINA RESULT:      -4.0     17.003     17.971
REMARK  1 active torsions:
REMARK  status: ('A' for Active; 'I' for Inactive)
REMARK    1  A    between atoms: C4_4  and  C8_8 
ROOT
HETATM    1  C1  UNL     1     -33.255  16.655  -2.638  1.00 20.00     0.006 C 
HETATM    2  C2  UNL     1     -33.194  15.560  -3.699  1.00 20.00     0.009 C 
HETATM    3  C3  UNL     1     -35.517  16.090  -3.096  1.00 20.00     0.014 C 
HETATM    4  C4  UNL     1     -34.578  16.394  -1.929  1.00 20.00     0.000 C 
HETATM    5  C5  UNL     1     -34.664  15.257  -4.081  1.00 20.00    -0.047 C 
HETATM    6  C6  UNL     1     -34.955  15.671  -5.528  1.00 20.00     0.015 C 
HETATM    7  C7  UNL     1     -34.959  13.759  -3.918  1.00 20.00     0.015 C 
ENDROOT
BRANCH   4   8
HETATM    8  C8  UNL     1     -35.041  17.565  -1.078  1.00 20.00     0.119 C 
HETATM    9 CL9  UNL     1     -35.464  17.012   0.554  1.00 20.00    -0.130 Cl
ENDBRANCH   4   8
TORSDOF 1
ENDMDL
MODEL 8
REMARK VINA RESULT:      -4.0     16.415     17.337
REMARK  1 active torsions:
REMARK  status: ('A' for Active; 'I' for Inactive)
REMARK    1  A    between atoms: C4_4  and  C8_8 
ROOT
HETATM    1  C1  UNL     1     -34.967  15.874  -2.302  1.00 20.00     0.006 C 
HETATM    2  C2  UNL     1     -34.590  17.031  -1.381  1.00 20.00     0.009 C 
HETATM    3  C3  UNL     1     -33.246  17.054  -3.438  1.00 20.00     0.014 C 
HETATM    4  C4  UNL     1     -33.699  15.632  -3.111  1.00 20.00     0.000 C 
HETATM    5  C5  UNL     1     -33.542  17.867  -2.157  1.00 20.00    -0.047 C 
HETATM    6  C6  UNL     1     -34.096  19.252  -2.513  1.00 20.00     0.015 C 
HETATM    7  C7  UNL     1     -32.268  18.036  -1.317  1.00 20.00     0.015 C 
ENDROOT
BRANCH   4   8
HETATM    8  C8  UNL     1     -33.933  14.779  -4.347  1.00 20.00     0.119 C 
HETATM    9 CL9  UNL     1     -35.416  13.823  -4.166  1.00 20.00    -0.130 Cl
ENDBRANCH   4   8
TORSDOF 1
ENDMDL
MODEL 9
REMARK VINA RESULT:      -3.8     23.926     24.775
REMARK  1 active torsions:
REMARK  status: ('A' for Active; 'I' for Inactive)
REMARK    1  A    between atoms: C4_4  and  C8_8 
ROOT
HETATM    1  C1  UNL     1     -42.738   6.828   1.064  1.00 20.00     0.006 C 
HETATM    2  C2  UNL     1     -42.620   5.383   0.586  1.00 20.00     0.009 C 
HETATM    3  C3  UNL     1     -42.405   6.961  -1.285  1.00 20.00     0.014 C 
HETATM    4  C4  UNL     1     -43.247   7.571  -0.165  1.00 20.00     0.000 C 
HETATM    5  C5  UNL     1     -42.299   5.461  -0.927  1.00 20.00    -0.047 C 
HETATM    6  C6  UNL     1     -40.888   4.936  -1.220  1.00 20.00     0.015 C 
HETATM    7  C7  UNL     1     -43.318   4.640  -1.730  1.00 20.00     0.015 C 
ENDROOT
BRANCH   4   8
HETATM    8  C8  UNL     1     -43.097   9.079  -0.056  1.00 20.00     0.119 C 
HETATM    9 CL9  UNL     1     -41.407   9.509   0.272  1.00 20.00    -0.130 Cl
ENDBRANCH   4   8
TORSDOF 1
ENDMDL
