MODEL 1
REMARK VINA RESULT:      -4.5      0.000      0.000
REMARK  2 active torsions:
REMARK  status: ('A' for Active; 'I' for Inactive)
REMARK    1  A    between atoms: C1_1  and  C5_5 
REMARK    2  A    between atoms: C1_1  and  C11_11 
ROOT
HETATM    1  C2  UNL     1     -35.143  15.889  -2.177  1.00 20.00     0.013 C 
HETATM    2  C3  UNL     1     -34.415  17.078  -1.558  1.00 20.00     0.009 C 
HETATM    3  C4  UNL     1     -32.978  16.253  -3.279  1.00 20.00     0.021 C 
HETATM    4  C5  UNL     1     -34.153  15.272  -3.170  1.00 20.00     0.056 C 
HETATM    5  C6  UNL     1     -33.471  17.574  -2.660  1.00 20.00    -0.047 C 
HETATM    6  C7  UNL     1     -32.313  18.389  -2.080  1.00 20.00     0.015 C 
HETATM    7  C8  UNL     1     -34.219  18.430  -3.695  1.00 20.00     0.015 C 
ENDROOT
BRANCH   4   8
HETATM    8  C1  UNL     1     -34.797  15.029  -4.502  1.00 20.00     0.134 C 
HETATM    9  O12 UNL     1     -34.157  14.532  -5.429  1.00 20.00    -0.297 OA
BRANCH   8  10
HETATM   10  C11 UNL     1     -36.255  15.455  -4.652  1.00 20.00     0.047 C 
HETATM   11  C9  UNL     1     -36.457  16.156  -5.990  1.00 20.00     0.017 C 
HETATM   12  C10 UNL     1     -37.192  14.259  -4.518  1.00 20.00     0.017 C 
ENDBRANCH   8  10
ENDBRANCH   4   8
TORSDOF 2
ENDMDL
MODEL 2
REMARK VINA RESULT:      -4.4      1.948      2.955
REMARK  2 active torsions:
REMARK  status: ('A' for Active; 'I' for Inactive)
REMARK    1  A    between atoms: C1_1  and  C5_5 
REMARK    2  A    between atoms: C1_1  and  C11_11 
ROOT
HETATM    1  C2  UNL     1     -35.460  13.674  -4.294  1.00 20.00     0.013 C 
HETATM    2  C3  UNL     1     -34.148  14.240  -3.760  1.00 20.00     0.009 C 
HETATM    3  C4  UNL     1     -35.326  16.092  -4.704  1.00 20.00     0.021 C 
HETATM    4  C5  UNL     1     -36.138  14.832  -5.032  1.00 20.00     0.056 C 
HETATM    5  C6  UNL     1     -34.442  15.723  -3.499  1.00 20.00    -0.047 C 
HETATM    6  C7  UNL     1     -33.155  16.552  -3.472  1.00 20.00     0.015 C 
HETATM    7  C8  UNL     1     -35.194  15.920  -2.173  1.00 20.00     0.015 C 
ENDROOT
BRANCH   4   8
HETATM    8  C1  UNL     1     -37.573  14.975  -4.622  1.00 20.00     0.134 C 
HETATM    9  O12 UNL     1     -38.239  13.988  -4.307  1.00 20.00    -0.297 OA
BRANCH   8  10
HETATM   10  C11 UNL     1     -38.162  16.383  -4.651  1.00 20.00     0.047 C 
HETATM   11  C9  UNL     1     -38.811  16.648  -6.003  1.00 20.00     0.017 C 
HETATM   12  C10 UNL     1     -39.165  16.580  -3.518  1.00 20.00     0.017 C 
ENDBRANCH   8  10
ENDBRANCH   4   8
TORSDOF 2
ENDMDL
MODEL 3
REMARK VINA RESULT:      -4.4      1.569      2.039
REMARK  2 active torsions:
REMARK  status: ('A' for Active; 'I' for Inactive)
REMARK    1  A    between atoms: C1_1  and  C5_5 
REMARK    2  A    between atoms: C1_1  and  C11_11 
ROOT
HETATM    1  C2  UNL     1     -35.522  14.839  -3.163  1.00 20.00     0.013 C 
HETATM    2  C3  UNL     1     -34.904  15.845  -2.196  1.00 20.00     0.009 C 
HETATM    3  C4  UNL     1     -33.371  15.658  -4.019  1.00 20.00     0.021 C 
HETATM    4  C5  UNL     1     -34.466  14.608  -4.248  1.00 20.00     0.056 C 
HETATM    5  C6  UNL     1     -33.980  16.704  -3.068  1.00 20.00    -0.047 C 
HETATM    6  C7  UNL     1     -32.902  17.395  -2.228  1.00 20.00     0.015 C 
HETATM    7  C8  UNL     1     -34.771  17.770  -3.843  1.00 20.00     0.015 C 
ENDROOT
BRANCH   4   8
HETATM    8  C1  UNL     1     -35.061  14.718  -5.620  1.00 20.00     0.134 C 
HETATM    9  O12 UNL     1     -35.978  13.975  -5.970  1.00 20.00    -0.297 OA
BRANCH   8  10
HETATM   10  C11 UNL     1     -34.453  15.761  -6.554  1.00 20.00     0.047 C 
HETATM   11  C9  UNL     1     -33.678  15.071  -7.669  1.00 20.00     0.017 C 
HETATM   12  C10 UNL     1     -35.530  16.677  -7.127  1.00 20.00     0.017 C 
ENDBRANCH   8  10
ENDBRANCH   4   8
TORSDOF 2
ENDMDL
MODEL 4
REMARK VINA RESULT:      -4.4      1.443      1.812
REMARK  2 active torsions:
REMARK  status: ('A' for Active; 'I' for Inactive)
REMARK    1  A    between atoms: C1_1  and  C5_5 
REMARK    2  A    between atoms: C1_1  and  C11_11 
ROOT
HETATM    1  C2  UNL     1     -35.295  16.705  -1.223  1.00 20.00     0.013 C 
HETATM    2  C3  UNL     1     -34.274  17.747  -0.777  1.00 20.00     0.009 C 
HETATM    3  C4  UNL     1     -33.262  16.576  -2.597  1.00 20.00     0.021 C 
HETATM    4  C5  UNL     1     -34.583  15.859  -2.283  1.00 20.00     0.056 C 
HETATM    5  C6  UNL     1     -33.402  17.994  -2.014  1.00 20.00    -0.047 C 
HETATM    6  C7  UNL     1     -32.041  18.581  -1.632  1.00 20.00     0.015 C 
HETATM    7  C8  UNL     1     -34.096  18.939  -3.008  1.00 20.00     0.015 C 
ENDROOT
BRANCH   4   8
HETATM    8  C1  UNL     1     -35.429  15.695  -3.510  1.00 20.00     0.134 C 
HETATM    9  O12 UNL     1     -36.396  16.432  -3.710  1.00 20.00    -0.297 OA
BRANCH   8  10
HETATM   10  C11 UNL     1     -35.053  14.563  -4.461  1.00 20.00     0.047 C 
HETATM   11  C9  UNL     1     -36.255  13.655  -4.690  1.00 20.00     0.017 C 
HETATM   12  C10 UNL     1     -34.527  15.112  -5.784  1.00 20.00     0.017 C 
ENDBRANCH   8  10
ENDBRANCH   4   8
TORSDOF 2
ENDMDL
MODEL 5
REMARK VINA RESULT:      -4.4      1.252      2.144
REMARK  2 active torsions:
REMARK  status: ('A' for Active; 'I' for Inactive)
REMARK    1  A    between atoms: C1_1  and  C5_5 
REMARK    2  A    between atoms: C1_1  and  C11_11 
ROOT
HETATM    1  C2  UNL     1     -33.534  14.637  -4.824  1.00 20.00     0.013 C 
HETATM    2  C3  UNL     1     -32.858  15.419  -3.702  1.00 20.00     0.009 C 
HETATM    3  C4  UNL     1     -34.544  16.863  -4.585  1.00 20.00     0.021 C 
HETATM    4  C5  UNL     1     -34.504  15.620  -5.485  1.00 20.00     0.056 C 
HETATM    5  C6  UNL     1     -33.912  16.437  -3.248  1.00 20.00    -0.047 C 
HETATM    6  C7  UNL     1     -33.268  17.624  -2.527  1.00 20.00     0.015 C 
HETATM    7  C8  UNL     1     -34.952  15.790  -2.319  1.00 20.00     0.015 C 
ENDROOT
BRANCH   4   8
HETATM    8  C1  UNL     1     -35.865  15.014  -5.654  1.00 20.00     0.134 C 
HETATM    9  O12 UNL     1     -35.999  13.898  -6.156  1.00 20.00    -0.297 OA
BRANCH   8  10
HETATM   10  C11 UNL     1     -37.056  15.858  -5.207  1.00 20.00     0.047 C 
HETATM   11  C9  UNL     1     -37.757  16.452  -6.422  1.00 20.00     0.017 C 
HETATM   12  C10 UNL     1     -38.028  15.032  -4.368  1.00 20.00     0.017 C 
ENDBRANCH   8  10
ENDBRANCH   4   8
TORSDOF 2
ENDMDL
MODEL 6
REMARK VINA RESULT:      -4.3      1.901      2.868
REMARK  2 active torsions:
REMARK  status: ('A' for Active; 'I' for Inactive)
REMARK    1  A    between atoms: C1_1  and  C5_5 
REMARK    2  A    between atoms: C1_1  and  C11_11 
ROOT
HETATM    1  C2  UNL     1     -35.218  16.226  -3.205  1.00 20.00     0.013 C 
HETATM    2  C3  UNL     1     -33.735  16.033  -3.508  1.00 20.00     0.009 C 
HETATM    3  C4  UNL     1     -34.762  13.907  -3.874  1.00 20.00     0.021 C 
HETATM    4  C5  UNL     1     -35.841  14.830  -3.291  1.00 20.00     0.056 C 
HETATM    5  C6  UNL     1     -33.686  14.836  -4.466  1.00 20.00    -0.047 C 
HETATM    6  C7  UNL     1     -32.307  14.172  -4.462  1.00 20.00     0.015 C 
HETATM    7  C8  UNL     1     -34.038  15.254  -5.903  1.00 20.00     0.015 C 
ENDROOT
BRANCH   4   8
HETATM    8  C1  UNL     1     -37.080  14.836  -4.134  1.00 20.00     0.134 C 
HETATM    9  O12 UNL     1     -37.608  13.780  -4.486  1.00 20.00    -0.297 OA
BRANCH   8  10
HETATM   10  C11 UNL     1     -37.621  16.200  -4.555  1.00 20.00     0.047 C 
HETATM   11  C9  UNL     1     -37.600  16.322  -6.073  1.00 20.00     0.017 C 
HETATM   12  C10 UNL     1     -39.030  16.420  -4.012  1.00 20.00     0.017 C 
ENDBRANCH   8  10
ENDBRANCH   4   8
TORSDOF 2
ENDMDL
MODEL 7
REMARK VINA RESULT:      -4.3      1.687      4.485
REMARK  2 active torsions:
REMARK  status: ('A' for Active; 'I' for Inactive)
REMARK    1  A    between atoms: C1_1  and  C5_5 
REMARK    2  A    between atoms: C1_1  and  C11_11 
ROOT
HETATM    1  C2  UNL     1     -33.117  15.503  -3.674  1.00 20.00     0.013 C 
HETATM    2  C3  UNL     1     -33.997  14.529  -4.453  1.00 20.00     0.009 C 
HETATM    3  C4  UNL     1     -35.405  15.493  -2.781  1.00 20.00     0.021 C 
HETATM    4  C5  UNL     1     -33.981  15.999  -2.511  1.00 20.00     0.056 C 
HETATM    5  C6  UNL     1     -35.425  15.053  -4.256  1.00 20.00    -0.047 C 
HETATM    6  C7  UNL     1     -36.462  13.954  -4.500  1.00 20.00     0.015 C 
HETATM    7  C8  UNL     1     -35.721  16.238  -5.188  1.00 20.00     0.015 C 
ENDROOT
BRANCH   4   8
HETATM    8  C1  UNL     1     -33.936  17.493  -2.397  1.00 20.00     0.134 C 
HETATM    9  O12 UNL     1     -34.968  18.142  -2.223  1.00 20.00    -0.297 OA
BRANCH   8  10
HETATM   10  C11 UNL     1     -32.569  18.155  -2.540  1.00 20.00     0.047 C 
HETATM   11  C9  UNL     1     -32.625  19.242  -3.606  1.00 20.00     0.017 C 
HETATM   12  C10 UNL     1     -32.095  18.727  -1.206  1.00 20.00     0.017 C 
ENDBRANCH   8  10
ENDBRANCH   4   8
TORSDOF 2
ENDMDL
MODEL 8
REMARK VINA RESULT:      -4.3      1.573      4.529
REMARK  2 active torsions:
REMARK  status: ('A' for Active; 'I' for Inactive)
REMARK    1  A    between atoms: C1_1  and  C5_5 
REMARK    2  A    between atoms: C1_1  and  C11_11 
ROOT
HETATM    1  C2  UNL     1     -32.962  15.615  -3.649  1.00 20.00     0.013 C 
HETATM    2  C3  UNL     1     -33.793  14.537  -4.337  1.00 20.00     0.009 C 
HETATM    3  C4  UNL     1     -35.259  15.603  -2.781  1.00 20.00     0.021 C 
HETATM    4  C5  UNL     1     -33.860  16.188  -2.548  1.00 20.00     0.056 C 
HETATM    5  C6  UNL     1     -35.243  15.021  -4.205  1.00 20.00    -0.047 C 
HETATM    6  C7  UNL     1     -36.234  13.863  -4.350  1.00 20.00     0.015 C 
HETATM    7  C8  UNL     1     -35.572  16.097  -5.252  1.00 20.00     0.015 C 
ENDROOT
BRANCH   4   8
HETATM    8  C1  UNL     1     -33.873  17.687  -2.580  1.00 20.00     0.134 C 
HETATM    9  O12 UNL     1     -34.200  18.292  -3.602  1.00 20.00    -0.297 OA
BRANCH   8  10
HETATM   10  C11 UNL     1     -33.434  18.408  -1.309  1.00 20.00     0.047 C 
HETATM   11  C9  UNL     1     -34.238  17.901  -0.118  1.00 20.00     0.017 C 
HETATM   12  C10 UNL     1     -31.937  18.230  -1.068  1.00 20.00     0.017 C 
ENDBRANCH   8  10
ENDBRANCH   4   8
TORSDOF 2
ENDMDL
MODEL 9
REMARK VINA RESULT:      -4.2      1.349      4.184
REMARK  2 active torsions:
REMARK  status: ('A' for Active; 'I' for Inactive)
REMARK    1  A    between atoms: C1_1  and  C5_5 
REMARK    2  A    between atoms: C1_1  and  C11_11 
ROOT
HETATM    1  C2  UNL     1     -35.231  14.079  -4.107  1.00 20.00     0.013 C 
HETATM    2  C3  UNL     1     -36.011  14.115  -5.418  1.00 20.00     0.009 C 
HETATM    3  C4  UNL     1     -35.394  16.377  -4.958  1.00 20.00     0.021 C 
HETATM    4  C5  UNL     1     -34.974  15.543  -3.740  1.00 20.00     0.056 C 
HETATM    5  C6  UNL     1     -35.521  15.383  -6.127  1.00 20.00    -0.047 C 
HETATM    6  C7  UNL     1     -36.532  15.868  -7.170  1.00 20.00     0.015 C 
HETATM    7  C8  UNL     1     -34.164  15.153  -6.813  1.00 20.00     0.015 C 
ENDROOT
BRANCH   4   8
HETATM    8  C1  UNL     1     -33.537  15.772  -3.381  1.00 20.00     0.134 C 
HETATM    9  O12 UNL     1     -32.645  15.094  -3.894  1.00 20.00    -0.297 OA
BRANCH   8  10
HETATM   10  C11 UNL     1     -33.248  16.848  -2.339  1.00 20.00     0.047 C 
HETATM   11  C9  UNL     1     -32.815  18.136  -3.027  1.00 20.00     0.017 C 
HETATM   12  C10 UNL     1     -34.466  17.090  -1.451  1.00 20.00     0.017 C 
ENDBRANCH   8  10
ENDBRANCH   4   8
TORSDOF 2
ENDMDL
