MODEL 1
REMARK VINA RESULT:      -5.3      0.000      0.000
REMARK  4 active torsions:
REMARK  status: ('A' for Active; 'I' for Inactive)
REMARK    1  A    between atoms: C1_1  and  C4_4 
REMARK    2  A    between atoms: C1_1  and  C7_7 
REMARK    3  A    between atoms: C4_4  and  C5_5 
REMARK    4  A    between atoms: C5_5  and  C6_6 
ROOT
HETATM    1  C1  UNL     1     -33.280   6.083   3.135  1.00 20.00     0.130 C 
HETATM    2  O8  UNL     1     -33.126   5.022   2.529  1.00 20.00    -0.298 OA
ENDROOT
BRANCH   1   3
HETATM    3  C4  UNL     1     -32.499   7.337   2.767  1.00 20.00     0.081 C 
BRANCH   3   4
HETATM    4  C5  UNL     1     -32.414   7.583   1.260  1.00 20.00     0.038 C 
BRANCH   4   5
HETATM    5  C6  UNL     1     -32.938   8.954   0.860  1.00 20.00     0.222 C 
HETATM    6  F9  UNL     1     -33.653   8.840  -0.291  1.00 20.00    -0.255 F 
ENDBRANCH   4   5
ENDBRANCH   3   4
ENDBRANCH   1   3
BRANCH   1   7
HETATM    7  C7  UNL     1     -34.303   6.225   4.262  1.00 20.00     0.047 C 
HETATM    8  C2  UNL     1     -34.898   4.865   4.603  1.00 20.00     0.017 C 
HETATM    9  C3  UNL     1     -33.676   6.867   5.497  1.00 20.00     0.017 C 
ENDBRANCH   1   7
TORSDOF 4
ENDMDL
MODEL 2
REMARK VINA RESULT:      -4.9      1.500      1.572
REMARK  4 active torsions:
REMARK  status: ('A' for Active; 'I' for Inactive)
REMARK    1  A    between atoms: C1_1  and  C4_4 
REMARK    2  A    between atoms: C1_1  and  C7_7 
REMARK    3  A    between atoms: C4_4  and  C5_5 
REMARK    4  A    between atoms: C5_5  and  C6_6 
ROOT
HETATM    1  C1  UNL     1     -33.493   6.538   4.047  1.00 20.00     0.130 C 
HETATM    2  O8  UNL     1     -32.983   7.325   4.845  1.00 20.00    -0.298 OA
ENDROOT
BRANCH   1   3
HETATM    3  C4  UNL     1     -33.001   6.421   2.610  1.00 20.00     0.081 C 
BRANCH   3   4
HETATM    4  C5  UNL     1     -32.218   7.644   2.133  1.00 20.00     0.038 C 
BRANCH   4   5
HETATM    5  C6  UNL     1     -32.824   8.278   0.890  1.00 20.00     0.222 C 
HETATM    6  F9  UNL     1     -32.749   9.632   0.999  1.00 20.00    -0.255 F 
ENDBRANCH   4   5
ENDBRANCH   3   4
ENDBRANCH   1   3
BRANCH   1   7
HETATM    7  C7  UNL     1     -34.618   5.589   4.460  1.00 20.00     0.047 C 
HETATM    8  C2  UNL     1     -34.359   4.196   3.901  1.00 20.00     0.017 C 
HETATM    9  C3  UNL     1     -34.770   5.542   5.979  1.00 20.00     0.017 C 
ENDBRANCH   1   7
TORSDOF 4
ENDMDL
MODEL 3
REMARK VINA RESULT:      -4.9      2.487      4.227
REMARK  4 active torsions:
REMARK  status: ('A' for Active; 'I' for Inactive)
REMARK    1  A    between atoms: C1_1  and  C4_4 
REMARK    2  A    between atoms: C1_1  and  C7_7 
REMARK    3  A    between atoms: C4_4  and  C5_5 
REMARK    4  A    between atoms: C5_5  and  C6_6 
ROOT
HETATM    1  C1  UNL     1     -33.216   5.775   2.833  1.00 20.00     0.130 C 
HETATM    2  O8  UNL     1     -33.063   4.657   2.339  1.00 20.00    -0.298 OA
ENDROOT
BRANCH   1   3
HETATM    3  C4  UNL     1     -34.401   6.097   3.733  1.00 20.00     0.081 C 
BRANCH   3   4
HETATM    4  C5  UNL     1     -34.829   4.928   4.620  1.00 20.00     0.038 C 
BRANCH   4   5
HETATM    5  C6  UNL     1     -34.764   5.262   6.103  1.00 20.00     0.222 C 
HETATM    6  F9  UNL     1     -34.276   6.522   6.254  1.00 20.00    -0.255 F 
ENDBRANCH   4   5
ENDBRANCH   3   4
ENDBRANCH   1   3
BRANCH   1   7
HETATM    7  C7  UNL     1     -32.201   6.897   2.617  1.00 20.00     0.047 C 
HETATM    8  C2  UNL     1     -32.653   7.798   1.475  1.00 20.00     0.017 C 
HETATM    9  C3  UNL     1     -31.993   7.705   3.895  1.00 20.00     0.017 C 
ENDBRANCH   1   7
TORSDOF 4
ENDMDL
MODEL 4
REMARK VINA RESULT:      -4.7      0.390      1.230
REMARK  4 active torsions:
REMARK  status: ('A' for Active; 'I' for Inactive)
REMARK    1  A    between atoms: C1_1  and  C4_4 
REMARK    2  A    between atoms: C1_1  and  C7_7 
REMARK    3  A    between atoms: C4_4  and  C5_5 
REMARK    4  A    between atoms: C5_5  and  C6_6 
ROOT
HETATM    1  C1  UNL     1     -33.292   5.858   3.182  1.00 20.00     0.130 C 
HETATM    2  O8  UNL     1     -33.286   4.956   2.343  1.00 20.00    -0.298 OA
ENDROOT
BRANCH   1   3
HETATM    3  C4  UNL     1     -32.682   7.224   2.895  1.00 20.00     0.081 C 
BRANCH   3   4
HETATM    4  C5  UNL     1     -32.404   7.468   1.411  1.00 20.00     0.038 C 
BRANCH   4   5
HETATM    5  C6  UNL     1     -32.924   8.814   0.931  1.00 20.00     0.222 C 
HETATM    6  F9  UNL     1     -33.541   8.652  -0.269  1.00 20.00    -0.255 F 
ENDBRANCH   4   5
ENDBRANCH   3   4
ENDBRANCH   1   3
BRANCH   1   7
HETATM    7  C7  UNL     1     -33.957   5.684   4.547  1.00 20.00     0.047 C 
HETATM    8  C2  UNL     1     -33.778   6.946   5.381  1.00 20.00     0.017 C 
HETATM    9  C3  UNL     1     -35.437   5.339   4.399  1.00 20.00     0.017 C 
ENDBRANCH   1   7
TORSDOF 4
ENDMDL
MODEL 5
REMARK VINA RESULT:      -4.3      1.491      1.857
REMARK  4 active torsions:
REMARK  status: ('A' for Active; 'I' for Inactive)
REMARK    1  A    between atoms: C1_1  and  C4_4 
REMARK    2  A    between atoms: C1_1  and  C7_7 
REMARK    3  A    between atoms: C4_4  and  C5_5 
REMARK    4  A    between atoms: C5_5  and  C6_6 
ROOT
HETATM    1  C1  UNL     1     -33.551   6.386   4.160  1.00 20.00     0.130 C 
HETATM    2  O8  UNL     1     -33.142   7.245   4.942  1.00 20.00    -0.298 OA
ENDROOT
BRANCH   1   3
HETATM    3  C4  UNL     1     -33.063   6.317   2.719  1.00 20.00     0.081 C 
BRANCH   3   4
HETATM    4  C5  UNL     1     -32.243   7.535   2.294  1.00 20.00     0.038 C 
BRANCH   4   5
HETATM    5  C6  UNL     1     -32.697   8.111   0.961  1.00 20.00     0.222 C 
HETATM    6  F9  UNL     1     -32.856   9.456   1.088  1.00 20.00    -0.255 F 
ENDBRANCH   4   5
ENDBRANCH   3   4
ENDBRANCH   1   3
BRANCH   1   7
HETATM    7  C7  UNL     1     -34.534   5.301   4.598  1.00 20.00     0.047 C 
HETATM    8  C2  UNL     1     -34.691   5.318   6.113  1.00 20.00     0.017 C 
HETATM    9  C3  UNL     1     -35.888   5.474   3.913  1.00 20.00     0.017 C 
ENDBRANCH   1   7
TORSDOF 4
ENDMDL
MODEL 6
REMARK VINA RESULT:      -4.2      1.273      1.663
REMARK  4 active torsions:
REMARK  status: ('A' for Active; 'I' for Inactive)
REMARK    1  A    between atoms: C1_1  and  C4_4 
REMARK    2  A    between atoms: C1_1  and  C7_7 
REMARK    3  A    between atoms: C4_4  and  C5_5 
REMARK    4  A    between atoms: C5_5  and  C6_6 
ROOT
HETATM    1  C1  UNL     1     -34.290   5.049   3.883  1.00 20.00     0.130 C 
HETATM    2  O8  UNL     1     -34.212   3.820   3.917  1.00 20.00    -0.298 OA
ENDROOT
BRANCH   1   3
HETATM    3  C4  UNL     1     -34.017   5.834   2.607  1.00 20.00     0.081 C 
BRANCH   3   4
HETATM    4  C5  UNL     1     -32.545   6.206   2.424  1.00 20.00     0.038 C 
BRANCH   4   5
HETATM    5  C6  UNL     1     -32.356   7.656   2.004  1.00 20.00     0.222 C 
HETATM    6  F9  UNL     1     -33.036   7.878   0.848  1.00 20.00    -0.255 F 
ENDBRANCH   4   5
ENDBRANCH   3   4
ENDBRANCH   1   3
BRANCH   1   7
HETATM    7  C7  UNL     1     -34.717   5.862   5.105  1.00 20.00     0.047 C 
HETATM    8  C2  UNL     1     -34.933   4.940   6.298  1.00 20.00     0.017 C 
HETATM    9  C3  UNL     1     -33.688   6.942   5.435  1.00 20.00     0.017 C 
ENDBRANCH   1   7
TORSDOF 4
ENDMDL
MODEL 7
REMARK VINA RESULT:      -4.2      2.772      4.410
REMARK  4 active torsions:
REMARK  status: ('A' for Active; 'I' for Inactive)
REMARK    1  A    between atoms: C1_1  and  C4_4 
REMARK    2  A    between atoms: C1_1  and  C7_7 
REMARK    3  A    between atoms: C4_4  and  C5_5 
REMARK    4  A    between atoms: C5_5  and  C6_6 
ROOT
HETATM    1  C1  UNL     1     -32.732   7.171   3.889  1.00 20.00     0.130 C 
HETATM    2  O8  UNL     1     -31.957   7.909   4.497  1.00 20.00    -0.298 OA
ENDROOT
BRANCH   1   3
HETATM    3  C4  UNL     1     -34.115   6.838   4.434  1.00 20.00     0.081 C 
BRANCH   3   4
HETATM    4  C5  UNL     1     -34.106   6.415   5.903  1.00 20.00     0.038 C 
BRANCH   4   5
HETATM    5  C6  UNL     1     -34.754   5.056   6.125  1.00 20.00     0.222 C 
HETATM    6  F9  UNL     1     -35.040   4.497   4.919  1.00 20.00    -0.255 F 
ENDBRANCH   4   5
ENDBRANCH   3   4
ENDBRANCH   1   3
BRANCH   1   7
HETATM    7  C7  UNL     1     -32.379   6.580   2.524  1.00 20.00     0.047 C 
HETATM    8  C2  UNL     1     -33.209   5.329   2.264  1.00 20.00     0.017 C 
HETATM    9  C3  UNL     1     -32.583   7.606   1.411  1.00 20.00     0.017 C 
ENDBRANCH   1   7
TORSDOF 4
ENDMDL
MODEL 8
REMARK VINA RESULT:      -4.2      2.615      4.248
REMARK  4 active torsions:
REMARK  status: ('A' for Active; 'I' for Inactive)
REMARK    1  A    between atoms: C1_1  and  C4_4 
REMARK    2  A    between atoms: C1_1  and  C7_7 
REMARK    3  A    between atoms: C4_4  and  C5_5 
REMARK    4  A    between atoms: C5_5  and  C6_6 
ROOT
HETATM    1  C1  UNL     1     -34.317   4.620   3.759  1.00 20.00     0.130 C 
HETATM    2  O8  UNL     1     -34.123   3.465   4.139  1.00 20.00    -0.298 OA
ENDROOT
BRANCH   1   3
HETATM    3  C4  UNL     1     -35.133   5.609   4.581  1.00 20.00     0.081 C 
BRANCH   3   4
HETATM    4  C5  UNL     1     -34.644   5.752   6.023  1.00 20.00     0.038 C 
BRANCH   4   5
HETATM    5  C6  UNL     1     -34.021   7.113   6.297  1.00 20.00     0.222 C 
HETATM    6  F9  UNL     1     -32.880   7.237   5.568  1.00 20.00    -0.255 F 
ENDBRANCH   4   5
ENDBRANCH   3   4
ENDBRANCH   1   3
BRANCH   1   7
HETATM    7  C7  UNL     1     -33.709   5.153   2.462  1.00 20.00     0.047 C 
HETATM    8  C2  UNL     1     -32.869   6.391   2.748  1.00 20.00     0.017 C 
HETATM    9  C3  UNL     1     -32.874   4.082   1.764  1.00 20.00     0.017 C 
ENDBRANCH   1   7
TORSDOF 4
ENDMDL
MODEL 9
REMARK VINA RESULT:      -4.0     10.362     11.622
REMARK  4 active torsions:
REMARK  status: ('A' for Active; 'I' for Inactive)
REMARK    1  A    between atoms: C1_1  and  C4_4 
REMARK    2  A    between atoms: C1_1  and  C7_7 
REMARK    3  A    between atoms: C4_4  and  C5_5 
REMARK    4  A    between atoms: C5_5  and  C6_6 
ROOT
HETATM    1  C1  UNL     1     -36.013  14.081  -4.841  1.00 20.00     0.130 C 
HETATM    2  O8  UNL     1     -37.058  13.493  -4.561  1.00 20.00    -0.298 OA
ENDROOT
BRANCH   1   3
HETATM    3  C4  UNL     1     -34.862  14.188  -3.849  1.00 20.00     0.081 C 
BRANCH   3   4
HETATM    4  C5  UNL     1     -34.983  15.380  -2.900  1.00 20.00     0.038 C 
BRANCH   4   5
HETATM    5  C6  UNL     1     -33.689  16.172  -2.787  1.00 20.00     0.222 C 
HETATM    6  F9  UNL     1     -32.725  15.559  -3.525  1.00 20.00    -0.255 F 
ENDBRANCH   4   5
ENDBRANCH   3   4
ENDBRANCH   1   3
BRANCH   1   7
HETATM    7  C7  UNL     1     -35.781  14.699  -6.221  1.00 20.00     0.047 C 
HETATM    8  C2  UNL     1     -36.600  15.976  -6.365  1.00 20.00     0.017 C 
HETATM    9  C3  UNL     1     -34.299  14.977  -6.458  1.00 20.00     0.017 C 
ENDBRANCH   1   7
TORSDOF 4
ENDMDL
