MODEL 1
REMARK VINA RESULT:      -4.5      0.000      0.000
REMARK  1 active torsions:
REMARK  status: ('A' for Active; 'I' for Inactive)
REMARK    1  A    between atoms: C5_5  and  O11_11 
ROOT
HETATM    1  C1  UNL     1     -35.599  13.878  -4.408  1.00 20.00     0.098 C 
HETATM    2  C2  UNL     1     -33.788  15.557  -4.122  1.00 20.00     0.054 C 
HETATM    3  C3  UNL     1     -33.616  16.076  -2.695  1.00 20.00     0.013 C 
HETATM    4  C4  UNL     1     -35.975  15.930  -3.052  1.00 20.00     0.062 C 
HETATM    5  C5  UNL     1     -35.297  15.311  -4.291  1.00 20.00     0.148 C 
HETATM    6  C6  UNL     1     -34.913  16.839  -2.403  1.00 20.00    -0.044 C 
HETATM    7  C7  UNL     1     -35.144  16.989  -0.897  1.00 20.00     0.015 C 
HETATM    8  C8  UNL     1     -34.904  18.235  -3.049  1.00 20.00     0.015 C 
HETATM    9  N10 UNL     1     -35.838  12.746  -4.501  1.00 20.00    -0.194 NA
ENDROOT
BRANCH   5  10
HETATM   10  O11 UNL     1     -35.734  15.982  -5.470  1.00 20.00    -0.370 OA
HETATM   11  C9  UNL     1     -34.677  16.129  -6.407  1.00 20.00     0.204 C 
ENDBRANCH   5  10
TORSDOF 1
ENDMDL
MODEL 2
REMARK VINA RESULT:      -4.4      1.926      2.869
REMARK  1 active torsions:
REMARK  status: ('A' for Active; 'I' for Inactive)
REMARK    1  A    between atoms: C5_5  and  O11_11 
ROOT
HETATM    1  C1  UNL     1     -37.294  14.729  -4.165  1.00 20.00     0.098 C 
HETATM    2  C2  UNL     1     -35.714  16.400  -5.110  1.00 20.00     0.054 C 
HETATM    3  C3  UNL     1     -34.340  15.843  -5.479  1.00 20.00     0.013 C 
HETATM    4  C4  UNL     1     -34.925  14.804  -3.408  1.00 20.00     0.062 C 
HETATM    5  C5  UNL     1     -36.157  15.610  -3.866  1.00 20.00     0.148 C 
HETATM    6  C6  UNL     1     -33.720  15.426  -4.140  1.00 20.00    -0.044 C 
HETATM    7  C7  UNL     1     -32.595  14.407  -4.340  1.00 20.00     0.015 C 
HETATM    8  C8  UNL     1     -33.166  16.638  -3.373  1.00 20.00     0.015 C 
HETATM    9  N10 UNL     1     -38.192  14.033  -4.399  1.00 20.00    -0.194 NA
ENDROOT
BRANCH   5  10
HETATM   10  O11 UNL     1     -36.534  16.539  -2.854  1.00 20.00    -0.370 OA
HETATM   11  C9  UNL     1     -37.138  17.699  -3.409  1.00 20.00     0.204 C 
ENDBRANCH   5  10
TORSDOF 1
ENDMDL
MODEL 3
REMARK VINA RESULT:      -4.3      1.684      2.437
REMARK  1 active torsions:
REMARK  status: ('A' for Active; 'I' for Inactive)
REMARK    1  A    between atoms: C5_5  and  O11_11 
ROOT
HETATM    1  C1  UNL     1     -34.156  14.993  -5.829  1.00 20.00     0.098 C 
HETATM    2  C2  UNL     1     -35.596  16.551  -4.533  1.00 20.00     0.054 C 
HETATM    3  C3  UNL     1     -34.837  17.579  -3.697  1.00 20.00     0.013 C 
HETATM    4  C4  UNL     1     -33.631  15.530  -3.456  1.00 20.00     0.062 C 
HETATM    5  C5  UNL     1     -34.731  15.280  -4.507  1.00 20.00     0.148 C 
HETATM    6  C6  UNL     1     -34.100  16.749  -2.639  1.00 20.00    -0.044 C 
HETATM    7  C7  UNL     1     -32.918  17.521  -2.048  1.00 20.00     0.015 C 
HETATM    8  C8  UNL     1     -35.042  16.327  -1.499  1.00 20.00     0.015 C 
HETATM    9  N10 UNL     1     -33.702  14.766  -6.872  1.00 20.00    -0.194 NA
ENDROOT
BRANCH   5  10
HETATM   10  O11 UNL     1     -35.550  14.186  -4.103  1.00 20.00    -0.370 OA
HETATM   11  C9  UNL     1     -36.915  14.408  -4.428  1.00 20.00     0.204 C 
ENDBRANCH   5  10
TORSDOF 1
ENDMDL
MODEL 4
REMARK VINA RESULT:      -4.3      1.178      1.183
REMARK  1 active torsions:
REMARK  status: ('A' for Active; 'I' for Inactive)
REMARK    1  A    between atoms: C5_5  and  O11_11 
ROOT
HETATM    1  C1  UNL     1     -36.702  14.586  -4.422  1.00 20.00     0.098 C 
HETATM    2  C2  UNL     1     -34.341  14.972  -3.746  1.00 20.00     0.054 C 
HETATM    3  C3  UNL     1     -34.164  15.852  -2.510  1.00 20.00     0.013 C 
HETATM    4  C4  UNL     1     -35.922  16.860  -3.778  1.00 20.00     0.062 C 
HETATM    5  C5  UNL     1     -35.576  15.529  -4.474  1.00 20.00     0.148 C 
HETATM    6  C6  UNL     1     -34.683  17.230  -2.940  1.00 20.00    -0.044 C 
HETATM    7  C7  UNL     1     -35.058  18.087  -1.727  1.00 20.00     0.015 C 
HETATM    8  C8  UNL     1     -33.644  17.985  -3.784  1.00 20.00     0.015 C 
HETATM    9  N10 UNL     1     -37.592  13.843  -4.380  1.00 20.00    -0.194 NA
ENDROOT
BRANCH   5  10
HETATM   10  O11 UNL     1     -35.227  15.769  -5.835  1.00 20.00    -0.370 OA
HETATM   11  C9  UNL     1     -34.084  15.018  -6.220  1.00 20.00     0.204 C 
ENDBRANCH   5  10
TORSDOF 1
ENDMDL
MODEL 5
REMARK VINA RESULT:      -4.2      2.003      2.689
REMARK  1 active torsions:
REMARK  status: ('A' for Active; 'I' for Inactive)
REMARK    1  A    between atoms: C5_5  and  O11_11 
ROOT
HETATM    1  C1  UNL     1     -36.905  15.739  -5.817  1.00 20.00     0.098 C 
HETATM    2  C2  UNL     1     -35.726  14.175  -4.286  1.00 20.00     0.054 C 
HETATM    3  C3  UNL     1     -34.975  14.847  -3.139  1.00 20.00     0.013 C 
HETATM    4  C4  UNL     1     -34.583  16.215  -5.059  1.00 20.00     0.062 C 
HETATM    5  C5  UNL     1     -35.607  15.140  -5.477  1.00 20.00     0.148 C 
HETATM    6  C6  UNL     1     -33.859  15.646  -3.823  1.00 20.00    -0.044 C 
HETATM    7  C7  UNL     1     -33.334  16.761  -2.915  1.00 20.00     0.015 C 
HETATM    8  C8  UNL     1     -32.686  14.740  -4.232  1.00 20.00     0.015 C 
HETATM    9  N10 UNL     1     -37.930  16.213  -6.086  1.00 20.00    -0.194 NA
ENDROOT
BRANCH   5  10
HETATM   10  O11 UNL     1     -35.117  14.412  -6.600  1.00 20.00    -0.370 OA
HETATM   11  C9  UNL     1     -34.437  15.260  -7.515  1.00 20.00     0.204 C 
ENDBRANCH   5  10
TORSDOF 1
ENDMDL
MODEL 6
REMARK VINA RESULT:      -4.2      3.251      4.333
REMARK  1 active torsions:
REMARK  status: ('A' for Active; 'I' for Inactive)
REMARK    1  A    between atoms: C5_5  and  O11_11 
ROOT
HETATM    1  C1  UNL     1     -31.961  18.104  -1.438  1.00 20.00     0.098 C 
HETATM    2  C2  UNL     1     -34.412  17.687  -1.390  1.00 20.00     0.054 C 
HETATM    3  C3  UNL     1     -34.825  16.261  -1.747  1.00 20.00     0.013 C 
HETATM    4  C4  UNL     1     -33.067  16.825  -3.264  1.00 20.00     0.062 C 
HETATM    5  C5  UNL     1     -33.176  17.986  -2.256  1.00 20.00     0.148 C 
HETATM    6  C6  UNL     1     -34.425  16.100  -3.219  1.00 20.00    -0.044 C 
HETATM    7  C7  UNL     1     -34.290  14.624  -3.601  1.00 20.00     0.015 C 
HETATM    8  C8  UNL     1     -35.445  16.768  -4.156  1.00 20.00     0.015 C 
HETATM    9  N10 UNL     1     -31.001  18.197  -0.793  1.00 20.00    -0.194 NA
ENDROOT
BRANCH   5  10
HETATM   10  O11 UNL     1     -33.397  19.212  -2.948  1.00 20.00    -0.370 OA
HETATM   11  C9  UNL     1     -32.665  19.263  -4.164  1.00 20.00     0.204 C 
ENDBRANCH   5  10
TORSDOF 1
ENDMDL
MODEL 7
REMARK VINA RESULT:      -4.1      1.842      2.256
REMARK  1 active torsions:
REMARK  status: ('A' for Active; 'I' for Inactive)
REMARK    1  A    between atoms: C5_5  and  O11_11 
ROOT
HETATM    1  C1  UNL     1     -36.882  16.010  -6.007  1.00 20.00     0.098 C 
HETATM    2  C2  UNL     1     -35.194  14.489  -4.997  1.00 20.00     0.054 C 
HETATM    3  C3  UNL     1     -35.126  14.531  -3.472  1.00 20.00     0.013 C 
HETATM    4  C4  UNL     1     -35.399  16.800  -4.171  1.00 20.00     0.062 C 
HETATM    5  C5  UNL     1     -35.531  15.925  -5.434  1.00 20.00     0.148 C 
HETATM    6  C6  UNL     1     -34.630  15.946  -3.146  1.00 20.00    -0.044 C 
HETATM    7  C7  UNL     1     -34.977  16.340  -1.708  1.00 20.00     0.015 C 
HETATM    8  C8  UNL     1     -33.110  16.069  -3.346  1.00 20.00     0.015 C 
HETATM    9  N10 UNL     1     -37.947  16.078  -6.460  1.00 20.00    -0.194 NA
ENDROOT
BRANCH   5  10
HETATM   10  O11 UNL     1     -34.578  16.335  -6.411  1.00 20.00    -0.370 OA
HETATM   11  C9  UNL     1     -33.989  15.220  -7.064  1.00 20.00     0.204 C 
ENDBRANCH   5  10
TORSDOF 1
ENDMDL
MODEL 8
REMARK VINA RESULT:      -3.8      1.493      3.210
REMARK  1 active torsions:
REMARK  status: ('A' for Active; 'I' for Inactive)
REMARK    1  A    between atoms: C5_5  and  O11_11 
ROOT
HETATM    1  C1  UNL     1     -35.557  13.879  -4.339  1.00 20.00     0.098 C 
HETATM    2  C2  UNL     1     -36.272  16.247  -4.083  1.00 20.00     0.054 C 
HETATM    3  C3  UNL     1     -36.198  17.079  -5.362  1.00 20.00     0.013 C 
HETATM    4  C4  UNL     1     -34.231  15.722  -5.358  1.00 20.00     0.062 C 
HETATM    5  C5  UNL     1     -35.092  15.263  -4.165  1.00 20.00     0.148 C 
HETATM    6  C6  UNL     1     -34.701  17.151  -5.691  1.00 20.00    -0.044 C 
HETATM    7  C7  UNL     1     -34.470  17.492  -7.165  1.00 20.00     0.015 C 
HETATM    8  C8  UNL     1     -33.982  18.193  -4.818  1.00 20.00     0.015 C 
HETATM    9  N10 UNL     1     -35.923  12.787  -4.477  1.00 20.00    -0.194 NA
ENDROOT
BRANCH   5  10
HETATM   10  O11 UNL     1     -34.341  15.358  -2.957  1.00 20.00    -0.370 OA
HETATM   11  C9  UNL     1     -35.041  16.095  -1.965  1.00 20.00     0.204 C 
ENDBRANCH   5  10
TORSDOF 1
ENDMDL
MODEL 9
REMARK VINA RESULT:      -3.7      2.182      3.567
REMARK  1 active torsions:
REMARK  status: ('A' for Active; 'I' for Inactive)
REMARK    1  A    between atoms: C5_5  and  O11_11 
ROOT
HETATM    1  C1  UNL     1     -35.204  16.688  -1.677  1.00 20.00     0.098 C 
HETATM    2  C2  UNL     1     -35.899  15.118  -3.476  1.00 20.00     0.054 C 
HETATM    3  C3  UNL     1     -34.848  14.078  -3.859  1.00 20.00     0.013 C 
HETATM    4  C4  UNL     1     -33.650  16.121  -3.537  1.00 20.00     0.062 C 
HETATM    5  C5  UNL     1     -35.108  16.387  -3.112  1.00 20.00     0.148 C 
HETATM    6  C6  UNL     1     -33.700  14.894  -4.467  1.00 20.00    -0.044 C 
HETATM    7  C7  UNL     1     -32.385  14.112  -4.440  1.00 20.00     0.015 C 
HETATM    8  C8  UNL     1     -34.008  15.306  -5.916  1.00 20.00     0.015 C 
HETATM    9  N10 UNL     1     -35.278  16.926  -0.544  1.00 20.00    -0.194 NA
ENDROOT
BRANCH   5  10
HETATM   10  O11 UNL     1     -35.640  17.479  -3.858  1.00 20.00    -0.370 OA
HETATM   11  C9  UNL     1     -36.938  17.186  -4.357  1.00 20.00     0.204 C 
ENDBRANCH   5  10
TORSDOF 1
ENDMDL
