MODEL 1
REMARK VINA RESULT:      -4.8      0.000      0.000
REMARK  0 active torsions:
REMARK  status: ('A' for Active; 'I' for Inactive)
ROOT
HETATM    1  C1  UNL     1     -34.211  14.666  -4.419  1.00 20.00     0.088 C 
HETATM    2  C2  UNL     1     -34.402  16.069  -2.471  1.00 20.00    -0.069 C 
HETATM    3  C3  UNL     1     -34.884  15.091  -3.244  1.00 20.00     0.096 C 
HETATM    4  C4  UNL     1     -33.128  16.817  -2.740  1.00 20.00     0.036 C 
HETATM    5  C5  UNL     1     -35.075  16.587  -1.229  1.00 20.00     0.043 C 
HETATM    6  C6  UNL     1     -32.948  17.671  -1.485  1.00 20.00     0.013 C 
HETATM    7  C7  UNL     1     -34.377  17.936  -0.976  1.00 20.00    -0.044 C 
HETATM    8  C8  UNL     1     -34.380  18.299   0.512  1.00 20.00     0.015 C 
HETATM    9  C9  UNL     1     -35.048  19.071  -1.770  1.00 20.00     0.015 C 
HETATM   10  N10 UNL     1     -33.664  14.316  -5.381  1.00 20.00    -0.192 NA
ENDROOT
TORSDOF 0
ENDMDL
MODEL 2
REMARK VINA RESULT:      -4.6      1.686      2.407
REMARK  0 active torsions:
REMARK  status: ('A' for Active; 'I' for Inactive)
ROOT
HETATM    1  C1  UNL     1     -36.140  14.013  -4.209  1.00 20.00     0.088 C 
HETATM    2  C2  UNL     1     -34.617  15.715  -3.443  1.00 20.00    -0.069 C 
HETATM    3  C3  UNL     1     -34.869  14.436  -3.744  1.00 20.00     0.096 C 
HETATM    4  C4  UNL     1     -35.620  16.828  -3.557  1.00 20.00     0.036 C 
HETATM    5  C5  UNL     1     -33.303  16.228  -2.921  1.00 20.00     0.043 C 
HETATM    6  C6  UNL     1     -34.788  18.080  -3.282  1.00 20.00     0.013 C 
HETATM    7  C7  UNL     1     -33.659  17.611  -2.344  1.00 20.00    -0.044 C 
HETATM    8  C8  UNL     1     -32.462  18.564  -2.393  1.00 20.00     0.015 C 
HETATM    9  C9  UNL     1     -34.154  17.500  -0.891  1.00 20.00     0.015 C 
HETATM   10  N10 UNL     1     -37.179  13.663  -4.589  1.00 20.00    -0.192 NA
ENDROOT
TORSDOF 0
ENDMDL
MODEL 3
REMARK VINA RESULT:      -4.6      1.306      1.459
REMARK  0 active torsions:
REMARK  status: ('A' for Active; 'I' for Inactive)
ROOT
HETATM    1  C1  UNL     1     -35.992  14.231  -4.673  1.00 20.00     0.088 C 
HETATM    2  C2  UNL     1     -35.078  15.702  -2.998  1.00 20.00    -0.069 C 
HETATM    3  C3  UNL     1     -36.088  14.955  -3.457  1.00 20.00     0.096 C 
HETATM    4  C4  UNL     1     -33.756  15.861  -3.692  1.00 20.00     0.036 C 
HETATM    5  C5  UNL     1     -35.121  16.515  -1.733  1.00 20.00     0.043 C 
HETATM    6  C6  UNL     1     -32.918  16.641  -2.680  1.00 20.00     0.013 C 
HETATM    7  C7  UNL     1     -33.934  17.485  -1.887  1.00 20.00    -0.044 C 
HETATM    8  C8  UNL     1     -33.372  17.902  -0.526  1.00 20.00     0.015 C 
HETATM    9  C9  UNL     1     -34.341  18.746  -2.670  1.00 20.00     0.015 C 
HETATM   10  N10 UNL     1     -35.917  13.638  -5.667  1.00 20.00    -0.192 NA
ENDROOT
TORSDOF 0
ENDMDL
MODEL 4
REMARK VINA RESULT:      -4.5      2.610      4.558
REMARK  0 active torsions:
REMARK  status: ('A' for Active; 'I' for Inactive)
ROOT
HETATM    1  C1  UNL     1     -34.280  18.462  -0.168  1.00 20.00     0.088 C 
HETATM    2  C2  UNL     1     -33.793  16.935  -1.966  1.00 20.00    -0.069 C 
HETATM    3  C3  UNL     1     -33.407  17.918  -1.145  1.00 20.00     0.096 C 
HETATM    4  C4  UNL     1     -35.155  16.303  -1.955  1.00 20.00     0.036 C 
HETATM    5  C5  UNL     1     -32.930  16.331  -3.041  1.00 20.00     0.043 C 
HETATM    6  C6  UNL     1     -35.011  15.138  -2.933  1.00 20.00     0.013 C 
HETATM    7  C7  UNL     1     -33.939  15.594  -3.941  1.00 20.00    -0.044 C 
HETATM    8  C8  UNL     1     -33.292  14.399  -4.646  1.00 20.00     0.015 C 
HETATM    9  C9  UNL     1     -34.538  16.537  -5.000  1.00 20.00     0.015 C 
HETATM   10  N10 UNL     1     -34.991  18.909   0.633  1.00 20.00    -0.192 NA
ENDROOT
TORSDOF 0
ENDMDL
MODEL 5
REMARK VINA RESULT:      -4.4     15.814     17.147
REMARK  0 active torsions:
REMARK  status: ('A' for Active; 'I' for Inactive)
ROOT
HETATM    1  C1  UNL     1     -28.221  17.507  12.161  1.00 20.00     0.088 C 
HETATM    2  C2  UNL     1     -25.823  17.737  12.204  1.00 20.00    -0.069 C 
HETATM    3  C3  UNL     1     -27.041  18.279  12.318  1.00 20.00     0.096 C 
HETATM    4  C4  UNL     1     -25.562  16.288  11.906  1.00 20.00     0.036 C 
HETATM    5  C5  UNL     1     -24.532  18.499  12.332  1.00 20.00     0.043 C 
HETATM    6  C6  UNL     1     -24.048  16.162  12.070  1.00 20.00     0.013 C 
HETATM    7  C7  UNL     1     -23.491  17.552  11.708  1.00 20.00    -0.044 C 
HETATM    8  C8  UNL     1     -22.101  17.770  12.313  1.00 20.00     0.015 C 
HETATM    9  C9  UNL     1     -23.409  17.737  10.182  1.00 20.00     0.015 C 
HETATM   10  N10 UNL     1     -29.188  16.880  12.032  1.00 20.00    -0.192 NA
ENDROOT
TORSDOF 0
ENDMDL
MODEL 6
REMARK VINA RESULT:      -4.3      2.418      4.256
REMARK  0 active torsions:
REMARK  status: ('A' for Active; 'I' for Inactive)
ROOT
HETATM    1  C1  UNL     1     -32.328  18.272  -1.440  1.00 20.00     0.088 C 
HETATM    2  C2  UNL     1     -34.018  16.840  -2.387  1.00 20.00    -0.069 C 
HETATM    3  C3  UNL     1     -33.433  17.390  -1.317  1.00 20.00     0.096 C 
HETATM    4  C4  UNL     1     -33.593  17.082  -3.807  1.00 20.00     0.036 C 
HETATM    5  C5  UNL     1     -35.174  15.878  -2.329  1.00 20.00     0.043 C 
HETATM    6  C6  UNL     1     -34.682  16.387  -4.623  1.00 20.00     0.013 C 
HETATM    7  C7  UNL     1     -35.178  15.235  -3.729  1.00 20.00    -0.044 C 
HETATM    8  C8  UNL     1     -36.583  14.781  -4.132  1.00 20.00     0.015 C 
HETATM    9  C9  UNL     1     -34.223  14.030  -3.793  1.00 20.00     0.015 C 
HETATM   10  N10 UNL     1     -31.425  18.993  -1.535  1.00 20.00    -0.192 NA
ENDROOT
TORSDOF 0
ENDMDL
MODEL 7
REMARK VINA RESULT:      -4.2     12.721     14.069
REMARK  0 active torsions:
REMARK  status: ('A' for Active; 'I' for Inactive)
ROOT
HETATM    1  C1  UNL     1     -42.235   2.983  -3.347  1.00 20.00     0.088 C 
HETATM    2  C2  UNL     1     -42.584   4.645  -1.639  1.00 20.00    -0.069 C 
HETATM    3  C3  UNL     1     -43.074   3.728  -2.480  1.00 20.00     0.096 C 
HETATM    4  C4  UNL     1     -41.127   4.989  -1.511  1.00 20.00     0.036 C 
HETATM    5  C5  UNL     1     -43.417   5.489  -0.713  1.00 20.00     0.043 C 
HETATM    6  C6  UNL     1     -41.092   5.932  -0.310  1.00 20.00     0.013 C 
HETATM    7  C7  UNL     1     -42.465   6.630  -0.310  1.00 20.00    -0.044 C 
HETATM    8  C8  UNL     1     -42.809   7.185   1.075  1.00 20.00     0.015 C 
HETATM    9  C9  UNL     1     -42.504   7.778  -1.334  1.00 20.00     0.015 C 
HETATM   10  N10 UNL     1     -41.551   2.372  -4.059  1.00 20.00    -0.192 NA
ENDROOT
TORSDOF 0
ENDMDL
MODEL 8
REMARK VINA RESULT:      -4.1     15.565     16.506
REMARK  0 active torsions:
REMARK  status: ('A' for Active; 'I' for Inactive)
ROOT
HETATM    1  C1  UNL     1     -26.028  18.146  11.659  1.00 20.00     0.088 C 
HETATM    2  C2  UNL     1     -24.245  17.626  10.125  1.00 20.00    -0.069 C 
HETATM    3  C3  UNL     1     -25.002  17.294  11.176  1.00 20.00     0.096 C 
HETATM    4  C4  UNL     1     -24.383  18.905   9.349  1.00 20.00     0.036 C 
HETATM    5  C5  UNL     1     -23.125  16.784   9.578  1.00 20.00     0.043 C 
HETATM    6  C6  UNL     1     -23.433  18.704   8.169  1.00 20.00     0.013 C 
HETATM    7  C7  UNL     1     -22.330  17.768   8.700  1.00 20.00    -0.044 C 
HETATM    8  C8  UNL     1     -21.613  17.046   7.556  1.00 20.00     0.015 C 
HETATM    9  C9  UNL     1     -21.293  18.546   9.529  1.00 20.00     0.015 C 
HETATM   10  N10 UNL     1     -26.868  18.841  12.057  1.00 20.00    -0.192 NA
ENDROOT
TORSDOF 0
ENDMDL
MODEL 9
REMARK VINA RESULT:      -4.0      2.392      3.420
REMARK  0 active torsions:
REMARK  status: ('A' for Active; 'I' for Inactive)
ROOT
HETATM    1  C1  UNL     1     -37.844  14.932  -4.614  1.00 20.00     0.088 C 
HETATM    2  C2  UNL     1     -35.838  16.142  -4.056  1.00 20.00    -0.069 C 
HETATM    3  C3  UNL     1     -36.831  15.879  -4.912  1.00 20.00     0.096 C 
HETATM    4  C4  UNL     1     -35.677  15.489  -2.713  1.00 20.00     0.036 C 
HETATM    5  C5  UNL     1     -34.718  17.112  -4.318  1.00 20.00     0.043 C 
HETATM    6  C6  UNL     1     -34.523  16.264  -2.080  1.00 20.00     0.013 C 
HETATM    7  C7  UNL     1     -33.659  16.733  -3.266  1.00 20.00    -0.044 C 
HETATM    8  C8  UNL     1     -32.792  17.936  -2.884  1.00 20.00     0.015 C 
HETATM    9  C9  UNL     1     -32.749  15.600  -3.772  1.00 20.00     0.015 C 
HETATM   10  N10 UNL     1     -38.675  14.158  -4.374  1.00 20.00    -0.192 NA
ENDROOT
TORSDOF 0
ENDMDL
