MODEL 1
REMARK VINA RESULT:      -4.1      0.000      0.000
REMARK  2 active torsions:
REMARK  status: ('A' for Active; 'I' for Inactive)
REMARK    1  A    between atoms: C6_6  and  C7_7 
REMARK    2  A    between atoms: C6_6  and  N9_9 
ROOT
HETATM    1  C1  UNL     1     -22.210  17.518   8.398  1.00 20.00     0.095 C 
HETATM    2  C2  UNL     1     -23.770  17.053  11.515  1.00 20.00     0.033 C 
HETATM    3  C3  UNL     1     -22.437  17.394  10.864  1.00 20.00     0.053 C 
HETATM    4  C4  UNL     1     -24.729  18.062  10.917  1.00 20.00     0.274 C 
HETATM    5  C5  UNL     1     -22.797  18.158   9.582  1.00 20.00     0.328 C 
HETATM    6  N8  UNL     1     -21.746  17.013   7.462  1.00 20.00    -0.195 NA
HETATM    7  N9  UNL     1     -24.267  18.127   9.529  1.00 20.00     0.108 N 
ENDROOT
BRANCH   7   8
HETATM    8  C6  UNL     1     -24.840  19.263   8.816  1.00 20.00     0.305 C 
BRANCH   8   9
HETATM    9  C7  UNL     1     -25.338  18.862   7.445  1.00 20.00     0.252 C 
HETATM   10  F10 UNL     1     -24.435  19.262   6.510  1.00 20.00    -0.254 F 
ENDBRANCH   8   9
ENDBRANCH   7   8
TORSDOF 2
ENDMDL
MODEL 2
REMARK VINA RESULT:      -4.0     15.617     17.407
REMARK  2 active torsions:
REMARK  status: ('A' for Active; 'I' for Inactive)
REMARK    1  A    between atoms: C6_6  and  C7_7 
REMARK    2  A    between atoms: C6_6  and  N9_9 
ROOT
HETATM    1  C1  UNL     1     -36.662  14.526  -4.385  1.00 20.00     0.095 C 
HETATM    2  C2  UNL     1     -33.169  14.862  -4.157  1.00 20.00     0.033 C 
HETATM    3  C3  UNL     1     -34.329  14.888  -5.142  1.00 20.00     0.053 C 
HETATM    4  C4  UNL     1     -33.574  15.868  -3.100  1.00 20.00     0.274 C 
HETATM    5  C5  UNL     1     -35.519  15.448  -4.351  1.00 20.00     0.328 C 
HETATM    6  N8  UNL     1     -37.565  13.799  -4.413  1.00 20.00    -0.195 NA
HETATM    7  N9  UNL     1     -35.011  15.613  -2.980  1.00 20.00     0.108 N 
ENDROOT
BRANCH   7   8
HETATM    8  C6  UNL     1     -35.692  16.668  -2.238  1.00 20.00     0.305 C 
BRANCH   8   9
HETATM    9  C7  UNL     1     -34.890  17.104  -1.031  1.00 20.00     0.252 C 
HETATM   10  F10 UNL     1     -35.504  16.652   0.096  1.00 20.00    -0.254 F 
ENDBRANCH   8   9
ENDBRANCH   7   8
TORSDOF 2
ENDMDL
MODEL 3
REMARK VINA RESULT:      -4.0     16.952     18.973
REMARK  2 active torsions:
REMARK  status: ('A' for Active; 'I' for Inactive)
REMARK    1  A    between atoms: C6_6  and  C7_7 
REMARK    2  A    between atoms: C6_6  and  N9_9 
ROOT
HETATM    1  C1  UNL     1     -37.145  14.575  -4.654  1.00 20.00     0.095 C 
HETATM    2  C2  UNL     1     -35.136  15.461  -7.401  1.00 20.00     0.033 C 
HETATM    3  C3  UNL     1     -36.271  15.959  -6.516  1.00 20.00     0.053 C 
HETATM    4  C4  UNL     1     -34.045  15.101  -6.414  1.00 20.00     0.274 C 
HETATM    5  C5  UNL     1     -35.997  15.357  -5.131  1.00 20.00     0.328 C 
HETATM    6  N8  UNL     1     -38.052  13.959  -4.276  1.00 20.00    -0.195 NA
HETATM    7  N9  UNL     1     -34.815  14.502  -5.322  1.00 20.00     0.108 N 
ENDROOT
BRANCH   7   8
HETATM    8  C6  UNL     1     -34.016  14.348  -4.112  1.00 20.00     0.305 C 
BRANCH   8   9
HETATM    9  C7  UNL     1     -33.730  15.685  -3.462  1.00 20.00     0.252 C 
HETATM   10  F10 UNL     1     -34.259  15.692  -2.209  1.00 20.00    -0.254 F 
ENDBRANCH   8   9
ENDBRANCH   7   8
TORSDOF 2
ENDMDL
MODEL 4
REMARK VINA RESULT:      -4.0     16.991     18.386
REMARK  2 active torsions:
REMARK  status: ('A' for Active; 'I' for Inactive)
REMARK    1  A    between atoms: C6_6  and  C7_7 
REMARK    2  A    between atoms: C6_6  and  N9_9 
ROOT
HETATM    1  C1  UNL     1     -35.652  13.849  -4.310  1.00 20.00     0.095 C 
HETATM    2  C2  UNL     1     -35.024  16.343  -1.912  1.00 20.00     0.033 C 
HETATM    3  C3  UNL     1     -34.354  15.491  -2.980  1.00 20.00     0.053 C 
HETATM    4  C4  UNL     1     -36.170  17.005  -2.649  1.00 20.00     0.274 C 
HETATM    5  C5  UNL     1     -35.425  15.279  -4.059  1.00 20.00     0.328 C 
HETATM    6  N8  UNL     1     -35.831  12.721  -4.510  1.00 20.00    -0.195 NA
HETATM    7  N9  UNL     1     -36.633  15.921  -3.517  1.00 20.00     0.108 N 
ENDROOT
BRANCH   7   8
HETATM    8  C6  UNL     1     -37.542  16.401  -4.551  1.00 20.00     0.305 C 
BRANCH   8   9
HETATM    9  C7  UNL     1     -38.926  15.811  -4.390  1.00 20.00     0.252 C 
HETATM   10  F10 UNL     1     -38.813  14.511  -4.008  1.00 20.00    -0.254 F 
ENDBRANCH   8   9
ENDBRANCH   7   8
TORSDOF 2
ENDMDL
MODEL 5
REMARK VINA RESULT:      -4.0     17.346     18.822
REMARK  2 active torsions:
REMARK  status: ('A' for Active; 'I' for Inactive)
REMARK    1  A    between atoms: C6_6  and  C7_7 
REMARK    2  A    between atoms: C6_6  and  N9_9 
ROOT
HETATM    1  C1  UNL     1     -36.875  14.224  -4.523  1.00 20.00     0.095 C 
HETATM    2  C2  UNL     1     -34.178  16.175  -3.387  1.00 20.00     0.033 C 
HETATM    3  C3  UNL     1     -34.711  14.749  -3.433  1.00 20.00     0.053 C 
HETATM    4  C4  UNL     1     -34.191  16.608  -4.839  1.00 20.00     0.274 C 
HETATM    5  C5  UNL     1     -35.488  14.651  -4.752  1.00 20.00     0.328 C 
HETATM    6  N8  UNL     1     -37.970  13.887  -4.343  1.00 20.00    -0.195 NA
HETATM    7  N9  UNL     1     -35.436  16.007  -5.319  1.00 20.00     0.108 N 
ENDROOT
BRANCH   7   8
HETATM    8  C6  UNL     1     -35.524  16.025  -6.775  1.00 20.00     0.305 C 
BRANCH   8   9
HETATM    9  C7  UNL     1     -34.154  16.115  -7.412  1.00 20.00     0.252 C 
HETATM   10  F10 UNL     1     -33.650  14.860  -7.558  1.00 20.00    -0.254 F 
ENDBRANCH   8   9
ENDBRANCH   7   8
TORSDOF 2
ENDMDL
MODEL 6
REMARK VINA RESULT:      -3.9     17.086     18.413
REMARK  2 active torsions:
REMARK  status: ('A' for Active; 'I' for Inactive)
REMARK    1  A    between atoms: C6_6  and  C7_7 
REMARK    2  A    between atoms: C6_6  and  N9_9 
ROOT
HETATM    1  C1  UNL     1     -36.562  14.302  -4.175  1.00 20.00     0.095 C 
HETATM    2  C2  UNL     1     -34.432  16.792  -2.896  1.00 20.00     0.033 C 
HETATM    3  C3  UNL     1     -35.167  15.513  -2.520  1.00 20.00     0.053 C 
HETATM    4  C4  UNL     1     -33.629  16.397  -4.119  1.00 20.00     0.274 C 
HETATM    5  C5  UNL     1     -35.189  14.668  -3.801  1.00 20.00     0.328 C 
HETATM    6  N8  UNL     1     -37.645  14.013  -4.470  1.00 20.00    -0.195 NA
HETATM    7  N9  UNL     1     -34.569  15.524  -4.825  1.00 20.00     0.108 N 
ENDROOT
BRANCH   7   8
HETATM    8  C6  UNL     1     -33.919  14.769  -5.889  1.00 20.00     0.305 C 
BRANCH   8   9
HETATM    9  C7  UNL     1     -34.472  15.138  -7.248  1.00 20.00     0.252 C 
HETATM   10  F10 UNL     1     -35.726  14.626  -7.371  1.00 20.00    -0.254 F 
ENDBRANCH   8   9
ENDBRANCH   7   8
TORSDOF 2
ENDMDL
MODEL 7
REMARK VINA RESULT:      -3.9     16.604     18.566
REMARK  2 active torsions:
REMARK  status: ('A' for Active; 'I' for Inactive)
REMARK    1  A    between atoms: C6_6  and  C7_7 
REMARK    2  A    between atoms: C6_6  and  N9_9 
ROOT
HETATM    1  C1  UNL     1     -36.034  13.838  -4.833  1.00 20.00     0.095 C 
HETATM    2  C2  UNL     1     -34.771  16.523  -6.720  1.00 20.00     0.033 C 
HETATM    3  C3  UNL     1     -35.826  15.425  -6.726  1.00 20.00     0.053 C 
HETATM    4  C4  UNL     1     -35.015  17.246  -5.411  1.00 20.00     0.274 C 
HETATM    5  C5  UNL     1     -36.218  15.233  -5.255  1.00 20.00     0.328 C 
HETATM    6  N8  UNL     1     -35.891  12.736  -4.500  1.00 20.00    -0.195 NA
HETATM    7  N9  UNL     1     -35.326  16.135  -4.509  1.00 20.00     0.108 N 
ENDROOT
BRANCH   7   8
HETATM    8  C6  UNL     1     -35.899  16.598  -3.251  1.00 20.00     0.305 C 
BRANCH   8   9
HETATM    9  C7  UNL     1     -35.073  16.144  -2.066  1.00 20.00     0.252 C 
HETATM   10  F10 UNL     1     -33.968  15.493  -2.519  1.00 20.00    -0.254 F 
ENDBRANCH   8   9
ENDBRANCH   7   8
TORSDOF 2
ENDMDL
MODEL 8
REMARK VINA RESULT:      -3.8     13.273     14.849
REMARK  2 active torsions:
REMARK  status: ('A' for Active; 'I' for Inactive)
REMARK    1  A    between atoms: C6_6  and  C7_7 
REMARK    2  A    between atoms: C6_6  and  N9_9 
ROOT
HETATM    1  C1  UNL     1     -31.836  18.278  -0.955  1.00 20.00     0.095 C 
HETATM    2  C2  UNL     1     -35.100  17.129  -0.334  1.00 20.00     0.033 C 
HETATM    3  C3  UNL     1     -34.226  18.374  -0.304  1.00 20.00     0.053 C 
HETATM    4  C4  UNL     1     -34.928  16.604  -1.745  1.00 20.00     0.274 C 
HETATM    5  C5  UNL     1     -33.218  18.188  -1.445  1.00 20.00     0.328 C 
HETATM    6  N8  UNL     1     -30.744  18.351  -0.569  1.00 20.00    -0.195 NA
HETATM    7  N9  UNL     1     -33.504  16.848  -1.982  1.00 20.00     0.108 N 
ENDROOT
BRANCH   7   8
HETATM    8  C6  UNL     1     -33.154  16.707  -3.390  1.00 20.00     0.305 C 
BRANCH   8   9
HETATM    9  C7  UNL     1     -33.432  15.306  -3.893  1.00 20.00     0.252 C 
HETATM   10  F10 UNL     1     -32.251  14.694  -4.174  1.00 20.00    -0.254 F 
ENDBRANCH   8   9
ENDBRANCH   7   8
TORSDOF 2
ENDMDL
MODEL 9
REMARK VINA RESULT:      -3.8      1.696      3.413
REMARK  2 active torsions:
REMARK  status: ('A' for Active; 'I' for Inactive)
REMARK    1  A    between atoms: C6_6  and  C7_7 
REMARK    2  A    between atoms: C6_6  and  N9_9 
ROOT
HETATM    1  C1  UNL     1     -24.267  16.692  11.396  1.00 20.00     0.095 C 
HETATM    2  C2  UNL     1     -25.422  19.239   9.264  1.00 20.00     0.033 C 
HETATM    3  C3  UNL     1     -25.415  18.782  10.716  1.00 20.00     0.053 C 
HETATM    4  C4  UNL     1     -23.955  19.262   8.889  1.00 20.00     0.274 C 
HETATM    5  C5  UNL     1     -24.073  18.063  10.907  1.00 20.00     0.328 C 
HETATM    6  N8  UNL     1     -24.421  15.609  11.783  1.00 20.00    -0.195 NA
HETATM    7  N9  UNL     1     -23.453  18.068   9.573  1.00 20.00     0.108 N 
ENDROOT
BRANCH   7   8
HETATM    8  C6  UNL     1     -21.996  18.037   9.616  1.00 20.00     0.305 C 
BRANCH   8   9
HETATM    9  C7  UNL     1     -21.432  17.055   8.612  1.00 20.00     0.252 C 
HETATM   10  F10 UNL     1     -21.762  17.465   7.358  1.00 20.00    -0.254 F 
ENDBRANCH   8   9
ENDBRANCH   7   8
TORSDOF 2
ENDMDL
