MODEL 1
REMARK VINA RESULT:      -4.0      0.000      0.000
REMARK  0 active torsions:
REMARK  status: ('A' for Active; 'I' for Inactive)
ROOT
HETATM    1  C1  UNL     1     -23.648  19.168   9.057  1.00 20.00     0.016 C 
HETATM    2  C2  UNL     1     -24.663  18.137   9.534  1.00 20.00     0.010 C 
HETATM    3  C3  UNL     1     -22.543  17.807  10.732  1.00 20.00     0.024 C 
HETATM    4  C4  UNL     1     -22.308  18.555   9.421  1.00 20.00     0.058 C 
HETATM    5  C5  UNL     1     -24.074  17.588  10.849  1.00 20.00    -0.047 C 
HETATM    6  C6  UNL     1     -24.414  16.104  11.020  1.00 20.00     0.015 C 
HETATM    7  C7  UNL     1     -24.632  18.369  12.051  1.00 20.00     0.015 C 
HETATM    8 BR8  UNL     1     -21.733  17.310   8.027  1.00 20.00    -0.091 Br
ENDROOT
TORSDOF 0
ENDMDL
MODEL 2
REMARK VINA RESULT:      -3.9     23.050     24.016
REMARK  0 active torsions:
REMARK  status: ('A' for Active; 'I' for Inactive)
ROOT
HETATM    1  C1  UNL     1     -40.937   6.030  -0.440  1.00 20.00     0.016 C 
HETATM    2  C2  UNL     1     -41.475   7.212  -1.238  1.00 20.00     0.010 C 
HETATM    3  C3  UNL     1     -42.599   7.124   0.946  1.00 20.00     0.024 C 
HETATM    4  C4  UNL     1     -42.025   5.756   0.582  1.00 20.00     0.058 C 
HETATM    5  C5  UNL     1     -42.192   8.093  -0.195  1.00 20.00    -0.047 C 
HETATM    6  C6  UNL     1     -43.417   8.776  -0.810  1.00 20.00     0.015 C 
HETATM    7  C7  UNL     1     -41.236   9.172   0.340  1.00 20.00     0.015 C 
HETATM    8 BR8  UNL     1     -43.417   4.625  -0.198  1.00 20.00    -0.091 Br
ENDROOT
TORSDOF 0
ENDMDL
MODEL 3
REMARK VINA RESULT:      -3.8     17.650     18.734
REMARK  0 active torsions:
REMARK  status: ('A' for Active; 'I' for Inactive)
ROOT
HETATM    1  C1  UNL     1     -36.097  14.135  -4.534  1.00 20.00     0.016 C 
HETATM    2  C2  UNL     1     -34.757  14.173  -3.809  1.00 20.00     0.010 C 
HETATM    3  C3  UNL     1     -35.370  16.448  -4.509  1.00 20.00     0.024 C 
HETATM    4  C4  UNL     1     -36.102  15.410  -5.358  1.00 20.00     0.058 C 
HETATM    5  C5  UNL     1     -34.545  15.659  -3.458  1.00 20.00    -0.047 C 
HETATM    6  C6  UNL     1     -33.059  16.028  -3.524  1.00 20.00     0.015 C 
HETATM    7  C7  UNL     1     -35.069  15.954  -2.042  1.00 20.00     0.015 C 
HETATM    8 BR8  UNL     1     -35.155  15.128  -7.045  1.00 20.00    -0.091 Br
ENDROOT
TORSDOF 0
ENDMDL
MODEL 4
REMARK VINA RESULT:      -3.7     18.006     19.083
REMARK  0 active torsions:
REMARK  status: ('A' for Active; 'I' for Inactive)
ROOT
HETATM    1  C1  UNL     1     -35.570  14.866  -6.046  1.00 20.00     0.016 C 
HETATM    2  C2  UNL     1     -34.776  15.858  -5.205  1.00 20.00     0.010 C 
HETATM    3  C3  UNL     1     -35.192  13.824  -3.890  1.00 20.00     0.024 C 
HETATM    4  C4  UNL     1     -36.212  13.950  -5.020  1.00 20.00     0.058 C 
HETATM    5  C5  UNL     1     -34.215  15.020  -4.039  1.00 20.00    -0.047 C 
HETATM    6  C6  UNL     1     -34.151  15.851  -2.753  1.00 20.00     0.015 C 
HETATM    7  C7  UNL     1     -32.803  14.513  -4.376  1.00 20.00     0.015 C 
HETATM    8 BR8  UNL     1     -37.869  14.743  -4.349  1.00 20.00    -0.091 Br
ENDROOT
TORSDOF 0
ENDMDL
MODEL 5
REMARK VINA RESULT:      -3.6      2.409      3.566
REMARK  0 active torsions:
REMARK  status: ('A' for Active; 'I' for Inactive)
ROOT
HETATM    1  C1  UNL     1     -24.277  16.078  11.500  1.00 20.00     0.016 C 
HETATM    2  C2  UNL     1     -24.146  16.612  10.078  1.00 20.00     0.010 C 
HETATM    3  C3  UNL     1     -23.732  18.434  11.676  1.00 20.00     0.024 C 
HETATM    4  C4  UNL     1     -24.544  17.319  12.332  1.00 20.00     0.058 C 
HETATM    5  C5  UNL     1     -23.411  17.959  10.234  1.00 20.00    -0.047 C 
HETATM    6  C6  UNL     1     -23.900  18.969   9.192  1.00 20.00     0.015 C 
HETATM    7  C7  UNL     1     -21.895  17.762  10.065  1.00 20.00     0.015 C 
HETATM    8 BR8  UNL     1     -26.448  17.760  12.298  1.00 20.00    -0.091 Br
ENDROOT
TORSDOF 0
ENDMDL
MODEL 6
REMARK VINA RESULT:      -3.6     23.662     24.410
REMARK  0 active torsions:
REMARK  status: ('A' for Active; 'I' for Inactive)
ROOT
HETATM    1  C1  UNL     1     -41.167   6.927  -1.392  1.00 20.00     0.016 C 
HETATM    2  C2  UNL     1     -41.284   5.875  -0.296  1.00 20.00     0.010 C 
HETATM    3  C3  UNL     1     -43.386   7.140  -0.437  1.00 20.00     0.024 C 
HETATM    4  C4  UNL     1     -42.233   7.946  -1.033  1.00 20.00     0.058 C 
HETATM    5  C5  UNL     1     -42.796   5.768  -0.016  1.00 20.00    -0.047 C 
HETATM    6  C6  UNL     1     -43.056   5.481   1.466  1.00 20.00     0.015 C 
HETATM    7  C7  UNL     1     -43.417   4.642  -0.859  1.00 20.00     0.015 C 
HETATM    8 BR8  UNL     1     -41.541   9.212   0.288  1.00 20.00    -0.091 Br
ENDROOT
TORSDOF 0
ENDMDL
MODEL 7
REMARK VINA RESULT:      -3.6     16.721     17.820
REMARK  0 active torsions:
REMARK  status: ('A' for Active; 'I' for Inactive)
ROOT
HETATM    1  C1  UNL     1     -34.798  16.179  -2.091  1.00 20.00     0.016 C 
HETATM    2  C2  UNL     1     -35.642  15.886  -3.326  1.00 20.00     0.010 C 
HETATM    3  C3  UNL     1     -33.283  15.396  -3.815  1.00 20.00     0.024 C 
HETATM    4  C4  UNL     1     -33.398  16.370  -2.644  1.00 20.00     0.058 C 
HETATM    5  C5  UNL     1     -34.733  15.023  -4.224  1.00 20.00    -0.047 C 
HETATM    6  C6  UNL     1     -34.989  15.323  -5.705  1.00 20.00     0.015 C 
HETATM    7  C7  UNL     1     -34.990  13.529  -3.966  1.00 20.00     0.015 C 
HETATM    8 BR8  UNL     1     -33.162  18.208  -3.268  1.00 20.00    -0.091 Br
ENDROOT
TORSDOF 0
ENDMDL
MODEL 8
REMARK VINA RESULT:      -3.6     16.961     17.998
REMARK  0 active torsions:
REMARK  status: ('A' for Active; 'I' for Inactive)
ROOT
HETATM    1  C1  UNL     1     -34.759  16.347  -5.324  1.00 20.00     0.016 C 
HETATM    2  C2  UNL     1     -35.141  17.072  -4.040  1.00 20.00     0.010 C 
HETATM    3  C3  UNL     1     -33.994  14.972  -3.479  1.00 20.00     0.024 C 
HETATM    4  C4  UNL     1     -34.580  14.904  -4.888  1.00 20.00     0.058 C 
HETATM    5  C5  UNL     1     -34.293  16.397  -2.943  1.00 20.00    -0.047 C 
HETATM    6  C6  UNL     1     -35.060  16.344  -1.618  1.00 20.00     0.015 C 
HETATM    7  C7  UNL     1     -32.982  17.171  -2.730  1.00 20.00     0.015 C 
HETATM    8 BR8  UNL     1     -36.307  13.988  -4.857  1.00 20.00    -0.091 Br
ENDROOT
TORSDOF 0
ENDMDL
MODEL 9
REMARK VINA RESULT:      -3.5     17.392     18.506
REMARK  0 active torsions:
REMARK  status: ('A' for Active; 'I' for Inactive)
ROOT
HETATM    1  C1  UNL     1     -33.279  15.869  -3.591  1.00 20.00     0.016 C 
HETATM    2  C2  UNL     1     -33.931  14.534  -3.929  1.00 20.00     0.010 C 
HETATM    3  C3  UNL     1     -35.533  16.351  -4.343  1.00 20.00     0.024 C 
HETATM    4  C4  UNL     1     -34.456  16.800  -3.359  1.00 20.00     0.058 C 
HETATM    5  C5  UNL     1     -35.168  14.906  -4.772  1.00 20.00    -0.047 C 
HETATM    6  C6  UNL     1     -36.322  13.935  -4.502  1.00 20.00     0.015 C 
HETATM    7  C7  UNL     1     -34.824  14.867  -6.271  1.00 20.00     0.015 C 
HETATM    8 BR8  UNL     1     -35.103  16.625  -1.522  1.00 20.00    -0.091 Br
ENDROOT
TORSDOF 0
ENDMDL
