MODEL 1
REMARK VINA RESULT:      -4.8      0.000      0.000
REMARK  2 active torsions:
REMARK  status: ('A' for Active; 'I' for Inactive)
REMARK    1  A    between atoms: C3_3  and  C8_8 
REMARK    2  A    between atoms: C3_3  and  C9_9 
ROOT
HETATM    1  C1  UNL     1     -32.920   9.180   0.353  1.00 20.00     0.012 C 
HETATM    2  C2  UNL     1     -32.685   8.193   0.994  1.00 20.00    -0.110 C 
HETATM    3  C9  UNL     1     -32.399   6.982   1.771  1.00 20.00     0.172 C 
ENDROOT
BRANCH   3   4
HETATM    4  C3  UNL     1     -32.422   7.231   3.266  1.00 20.00     0.151 C 
HETATM    5  O10 UNL     1     -31.442   7.626   3.897  1.00 20.00    -0.296 OA
BRANCH   4   6
HETATM    6  C8  UNL     1     -33.723   6.968   3.955  1.00 20.00     0.117 C 
HETATM    7  C6  UNL     1     -33.520   6.886   5.470  1.00 20.00     0.023 C 
HETATM    8  C4  UNL     1     -34.648   6.147   6.181  1.00 20.00     0.002 C 
HETATM    9  C5  UNL     1     -34.699   4.658   5.834  1.00 20.00     0.010 C 
HETATM   10  C7  UNL     1     -34.066   4.274   4.501  1.00 20.00     0.075 C 
HETATM   11  S11 UNL     1     -34.440   5.473   3.193  1.00 20.00    -0.157 SA
ENDBRANCH   4   6
ENDBRANCH   3   4
TORSDOF 2
ENDMDL
MODEL 2
REMARK VINA RESULT:      -4.7     11.375     13.361
REMARK  2 active torsions:
REMARK  status: ('A' for Active; 'I' for Inactive)
REMARK    1  A    between atoms: C3_3  and  C8_8 
REMARK    2  A    between atoms: C3_3  and  C9_9 
ROOT
HETATM    1  C1  UNL     1     -34.782  16.116  -2.247  1.00 20.00     0.012 C 
HETATM    2  C2  UNL     1     -34.798  15.193  -3.014  1.00 20.00    -0.110 C 
HETATM    3  C9  UNL     1     -34.810  14.064  -3.951  1.00 20.00     0.172 C 
ENDROOT
BRANCH   3   4
HETATM    4  C3  UNL     1     -36.033  14.062  -4.845  1.00 20.00     0.151 C 
HETATM    5  O10 UNL     1     -37.106  13.558  -4.517  1.00 20.00    -0.296 OA
BRANCH   4   6
HETATM    6  C8  UNL     1     -35.872  14.721  -6.178  1.00 20.00     0.117 C 
HETATM    7  C6  UNL     1     -34.388  14.890  -6.516  1.00 20.00     0.023 C 
HETATM    8  C4  UNL     1     -34.137  15.963  -7.570  1.00 20.00     0.002 C 
HETATM    9  C5  UNL     1     -34.464  17.374  -7.076  1.00 20.00     0.010 C 
HETATM   10  C7  UNL     1     -35.466  17.450  -5.928  1.00 20.00     0.075 C 
HETATM   11  S11 UNL     1     -36.830  16.273  -6.128  1.00 20.00    -0.157 SA
ENDBRANCH   4   6
ENDBRANCH   3   4
TORSDOF 2
ENDMDL
MODEL 3
REMARK VINA RESULT:      -4.3     11.319     12.503
REMARK  2 active torsions:
REMARK  status: ('A' for Active; 'I' for Inactive)
REMARK    1  A    between atoms: C3_3  and  C8_8 
REMARK    2  A    between atoms: C3_3  and  C9_9 
ROOT
HETATM    1  C1  UNL     1     -38.051  16.334  -5.887  1.00 20.00     0.012 C 
HETATM    2  C2  UNL     1     -37.669  15.639  -4.986  1.00 20.00    -0.110 C 
HETATM    3  C9  UNL     1     -37.208  14.794  -3.880  1.00 20.00     0.172 C 
ENDROOT
BRANCH   3   4
HETATM    4  C3  UNL     1     -36.016  13.939  -4.259  1.00 20.00     0.151 C 
HETATM    5  O10 UNL     1     -36.121  12.840  -4.803  1.00 20.00    -0.296 OA
BRANCH   4   6
HETATM    6  C8  UNL     1     -34.671  14.508  -3.934  1.00 20.00     0.117 C 
HETATM    7  C6  UNL     1     -34.770  15.477  -2.753  1.00 20.00     0.023 C 
HETATM    8  C4  UNL     1     -33.598  16.449  -2.682  1.00 20.00     0.002 C 
HETATM    9  C5  UNL     1     -33.575  17.443  -3.845  1.00 20.00     0.010 C 
HETATM   10  C7  UNL     1     -34.299  16.988  -5.109  1.00 20.00     0.075 C 
HETATM   11  S11 UNL     1     -34.012  15.236  -5.472  1.00 20.00    -0.157 SA
ENDBRANCH   4   6
ENDBRANCH   3   4
TORSDOF 2
ENDMDL
MODEL 4
REMARK VINA RESULT:      -4.3     11.905     12.715
REMARK  2 active torsions:
REMARK  status: ('A' for Active; 'I' for Inactive)
REMARK    1  A    between atoms: C3_3  and  C8_8 
REMARK    2  A    between atoms: C3_3  and  C9_9 
ROOT
HETATM    1  C1  UNL     1     -38.863  14.907  -4.153  1.00 20.00     0.012 C 
HETATM    2  C2  UNL     1     -37.786  14.420  -4.359  1.00 20.00    -0.110 C 
HETATM    3  C9  UNL     1     -36.469  13.821  -4.604  1.00 20.00     0.172 C 
ENDROOT
BRANCH   3   4
HETATM    4  C3  UNL     1     -35.723  14.498  -5.736  1.00 20.00     0.151 C 
HETATM    5  O10 UNL     1     -36.028  14.361  -6.920  1.00 20.00    -0.296 OA
BRANCH   4   6
HETATM    6  C8  UNL     1     -34.570  15.365  -5.337  1.00 20.00     0.117 C 
HETATM    7  C6  UNL     1     -33.919  14.833  -4.057  1.00 20.00     0.023 C 
HETATM    8  C4  UNL     1     -33.099  15.889  -3.325  1.00 20.00     0.002 C 
HETATM    9  C5  UNL     1     -33.957  17.015  -2.744  1.00 20.00     0.010 C 
HETATM   10  C7  UNL     1     -35.306  17.228  -3.423  1.00 20.00     0.075 C 
HETATM   11  S11 UNL     1     -35.199  17.074  -5.226  1.00 20.00    -0.157 SA
ENDBRANCH   4   6
ENDBRANCH   3   4
TORSDOF 2
ENDMDL
MODEL 5
REMARK VINA RESULT:      -4.3     11.100     12.636
REMARK  2 active torsions:
REMARK  status: ('A' for Active; 'I' for Inactive)
REMARK    1  A    between atoms: C3_3  and  C8_8 
REMARK    2  A    between atoms: C3_3  and  C9_9 
ROOT
HETATM    1  C1  UNL     1     -34.839  16.392  -1.662  1.00 20.00     0.012 C 
HETATM    2  C2  UNL     1     -34.422  15.837  -2.640  1.00 20.00    -0.110 C 
HETATM    3  C9  UNL     1     -33.906  15.163  -3.838  1.00 20.00     0.172 C 
ENDROOT
BRANCH   3   4
HETATM    4  C3  UNL     1     -34.796  14.025  -4.294  1.00 20.00     0.151 C 
HETATM    5  O10 UNL     1     -34.684  12.874  -3.873  1.00 20.00    -0.296 OA
BRANCH   4   6
HETATM    6  C8  UNL     1     -35.843  14.375  -5.303  1.00 20.00     0.117 C 
HETATM    7  C6  UNL     1     -35.420  15.605  -6.110  1.00 20.00     0.023 C 
HETATM    8  C4  UNL     1     -36.594  16.310  -6.779  1.00 20.00     0.002 C 
HETATM    9  C5  UNL     1     -37.551  16.960  -5.777  1.00 20.00     0.010 C 
HETATM   10  C7  UNL     1     -37.534  16.362  -4.374  1.00 20.00     0.075 C 
HETATM   11  S11 UNL     1     -37.418  14.554  -4.399  1.00 20.00    -0.157 SA
ENDBRANCH   4   6
ENDBRANCH   3   4
TORSDOF 2
ENDMDL
MODEL 6
REMARK VINA RESULT:      -4.3     11.745     12.517
REMARK  2 active torsions:
REMARK  status: ('A' for Active; 'I' for Inactive)
REMARK    1  A    between atoms: C3_3  and  C8_8 
REMARK    2  A    between atoms: C3_3  and  C9_9 
ROOT
HETATM    1  C1  UNL     1     -29.613  19.256   2.163  1.00 20.00     0.012 C 
HETATM    2  C2  UNL     1     -30.667  18.940   1.682  1.00 20.00    -0.110 C 
HETATM    3  C9  UNL     1     -31.957  18.551   1.102  1.00 20.00     0.172 C 
ENDROOT
BRANCH   3   4
HETATM    4  C3  UNL     1     -31.942  18.567  -0.413  1.00 20.00     0.151 C 
HETATM    5  O10 UNL     1     -30.907  18.644  -1.075  1.00 20.00    -0.296 OA
BRANCH   4   6
HETATM    6  C8  UNL     1     -33.277  18.483  -1.084  1.00 20.00     0.117 C 
HETATM    7  C6  UNL     1     -34.213  17.560  -0.299  1.00 20.00     0.023 C 
HETATM    8  C4  UNL     1     -35.369  17.032  -1.140  1.00 20.00     0.002 C 
HETATM    9  C5  UNL     1     -34.916  16.079  -2.248  1.00 20.00     0.010 C 
HETATM   10  C7  UNL     1     -33.469  16.242  -2.701  1.00 20.00     0.075 C 
HETATM   11  S11 UNL     1     -32.977  17.983  -2.812  1.00 20.00    -0.157 SA
ENDBRANCH   4   6
ENDBRANCH   3   4
TORSDOF 2
ENDMDL
MODEL 7
REMARK VINA RESULT:      -4.3     11.478     12.243
REMARK  2 active torsions:
REMARK  status: ('A' for Active; 'I' for Inactive)
REMARK    1  A    between atoms: C3_3  and  C8_8 
REMARK    2  A    between atoms: C3_3  and  C9_9 
ROOT
HETATM    1  C1  UNL     1     -30.641  18.466   0.760  1.00 20.00     0.012 C 
HETATM    2  C2  UNL     1     -31.326  18.371  -0.221  1.00 20.00    -0.110 C 
HETATM    3  C9  UNL     1     -32.157  18.257  -1.425  1.00 20.00     0.172 C 
ENDROOT
BRANCH   3   4
HETATM    4  C3  UNL     1     -33.603  17.934  -1.105  1.00 20.00     0.151 C 
HETATM    5  O10 UNL     1     -34.091  18.072   0.016  1.00 20.00    -0.296 OA
BRANCH   4   6
HETATM    6  C8  UNL     1     -34.429  17.427  -2.245  1.00 20.00     0.117 C 
HETATM    7  C6  UNL     1     -35.081  16.090  -1.881  1.00 20.00     0.023 C 
HETATM    8  C4  UNL     1     -35.506  15.285  -3.103  1.00 20.00     0.002 C 
HETATM    9  C5  UNL     1     -34.320  14.789  -3.934  1.00 20.00     0.010 C 
HETATM   10  C7  UNL     1     -33.034  15.595  -3.784  1.00 20.00     0.075 C 
HETATM   11  S11 UNL     1     -33.346  17.379  -3.712  1.00 20.00    -0.157 SA
ENDBRANCH   4   6
ENDBRANCH   3   4
TORSDOF 2
ENDMDL
MODEL 8
REMARK VINA RESULT:      -4.2     11.487     12.493
REMARK  2 active torsions:
REMARK  status: ('A' for Active; 'I' for Inactive)
REMARK    1  A    between atoms: C3_3  and  C8_8 
REMARK    2  A    between atoms: C3_3  and  C9_9 
ROOT
HETATM    1  C1  UNL     1     -31.362  18.511  -0.296  1.00 20.00     0.012 C 
HETATM    2  C2  UNL     1     -32.066  18.179  -1.210  1.00 20.00    -0.110 C 
HETATM    3  C9  UNL     1     -32.924  17.778  -2.331  1.00 20.00     0.172 C 
ENDROOT
BRANCH   3   4
HETATM    4  C3  UNL     1     -34.064  16.879  -1.899  1.00 20.00     0.151 C 
HETATM    5  O10 UNL     1     -34.718  17.067  -0.874  1.00 20.00    -0.296 OA
BRANCH   4   6
HETATM    6  C8  UNL     1     -34.367  15.724  -2.800  1.00 20.00     0.117 C 
HETATM    7  C6  UNL     1     -33.181  15.443  -3.728  1.00 20.00     0.023 C 
HETATM    8  C4  UNL     1     -33.573  14.652  -4.971  1.00 20.00     0.002 C 
HETATM    9  C5  UNL     1     -34.478  15.441  -5.920  1.00 20.00     0.010 C 
HETATM   10  C7  UNL     1     -35.277  16.569  -5.276  1.00 20.00     0.075 C 
HETATM   11  S11 UNL     1     -35.934  16.105  -3.652  1.00 20.00    -0.157 SA
ENDBRANCH   4   6
ENDBRANCH   3   4
TORSDOF 2
ENDMDL
MODEL 9
REMARK VINA RESULT:      -4.2     10.370     10.902
REMARK  2 active torsions:
REMARK  status: ('A' for Active; 'I' for Inactive)
REMARK    1  A    between atoms: C3_3  and  C8_8 
REMARK    2  A    between atoms: C3_3  and  C9_9 
ROOT
HETATM    1  C1  UNL     1     -41.708   2.403  -3.969  1.00 20.00     0.012 C 
HETATM    2  C2  UNL     1     -42.358   3.086  -3.227  1.00 20.00    -0.110 C 
HETATM    3  C9  UNL     1     -43.158   3.918  -2.322  1.00 20.00     0.172 C 
ENDROOT
BRANCH   3   4
HETATM    4  C3  UNL     1     -42.315   4.903  -1.538  1.00 20.00     0.151 C 
HETATM    5  O10 UNL     1     -41.085   4.862  -1.509  1.00 20.00    -0.296 OA
BRANCH   4   6
HETATM    6  C8  UNL     1     -43.065   5.954  -0.782  1.00 20.00     0.117 C 
HETATM    7  C6  UNL     1     -43.065   7.274  -1.559  1.00 20.00     0.023 C 
HETATM    8  C4  UNL     1     -43.351   8.483  -0.676  1.00 20.00     0.002 C 
HETATM    9  C5  UNL     1     -42.234   8.763   0.332  1.00 20.00     0.010 C 
HETATM   10  C7  UNL     1     -41.361   7.565   0.693  1.00 20.00     0.075 C 
HETATM   11  S11 UNL     1     -42.328   6.044   0.884  1.00 20.00    -0.157 SA
ENDBRANCH   4   6
ENDBRANCH   3   4
TORSDOF 2
ENDMDL
