MODEL 1
REMARK VINA RESULT:      -3.9      0.000      0.000
REMARK  5 active torsions:
REMARK  status: ('A' for Active; 'I' for Inactive)
REMARK    1  A    between atoms: C3_3  and  C4_4 
REMARK    2  A    between atoms: C3_3  and  N8_8 
REMARK    3  A    between atoms: C5_5  and  C7_7 
REMARK    4  A    between atoms: C6_6  and  C7_7 
REMARK    5  A    between atoms: C7_7  and  N8_8 
ROOT
HETATM    1  C7  UNL     1     -24.831  18.440  11.225  1.00 20.00     0.237 C 
ENDROOT
BRANCH   1   2
HETATM    2  C5  UNL     1     -26.085  19.037  11.874  1.00 20.00     0.150 C 
HETATM    3 CL10 UNL     1     -27.256  17.764  12.316  1.00 20.00    -0.128 Cl
ENDBRANCH   1   2
BRANCH   1   4
HETATM    4  C6  UNL     1     -24.105  17.447  12.168  1.00 20.00     0.011 C 
HETATM    5  C1  UNL     1     -22.611  17.738  12.332  1.00 20.00     0.012 C 
HETATM    6  C2  UNL     1     -24.304  15.998  11.711  1.00 20.00     0.012 C 
ENDBRANCH   1   4
BRANCH   1   7
HETATM    7  N8  UNL     1     -25.153  17.822   9.957  1.00 20.00     0.091 N 
HETATM    8  H25 UNL     1     -26.167  17.797   9.833  1.00 20.00     0.316 HD
BRANCH   7   9
HETATM    9  C3  UNL     1     -24.561  18.557   8.843  1.00 20.00     0.301 C 
BRANCH   9  10
HETATM   10  C4  UNL     1     -23.134  18.124   8.587  1.00 20.00     0.252 C 
HETATM   11  F9  UNL     1     -22.289  19.009   9.183  1.00 20.00    -0.254 F 
ENDBRANCH   9  10
ENDBRANCH   7   9
ENDBRANCH   1   7
TORSDOF 5
ENDMDL
MODEL 2
REMARK VINA RESULT:      -3.6     17.344     18.568
REMARK  5 active torsions:
REMARK  status: ('A' for Active; 'I' for Inactive)
REMARK    1  A    between atoms: C3_3  and  C4_4 
REMARK    2  A    between atoms: C3_3  and  N8_8 
REMARK    3  A    between atoms: C5_5  and  C7_7 
REMARK    4  A    between atoms: C6_6  and  C7_7 
REMARK    5  A    between atoms: C7_7  and  N8_8 
ROOT
HETATM    1  C7  UNL     1     -34.556  15.530  -3.922  1.00 20.00     0.237 C 
ENDROOT
BRANCH   1   2
HETATM    2  C5  UNL     1     -34.725  14.007  -3.961  1.00 20.00     0.150 C 
HETATM    3 CL10 UNL     1     -36.312  13.548  -4.641  1.00 20.00    -0.128 Cl
ENDBRANCH   1   2
BRANCH   1   4
HETATM    4  C6  UNL     1     -34.008  16.020  -2.557  1.00 20.00     0.011 C 
HETATM    5  C1  UNL     1     -35.101  16.457  -1.578  1.00 20.00     0.012 C 
HETATM    6  C2  UNL     1     -32.991  17.152  -2.738  1.00 20.00     0.012 C 
ENDBRANCH   1   4
BRANCH   1   7
HETATM    7  N8  UNL     1     -33.724  15.983  -5.015  1.00 20.00     0.091 N 
HETATM    8  H25 UNL     1     -33.111  15.224  -5.320  1.00 20.00     0.316 HD
BRANCH   7   9
HETATM    9  C3  UNL     1     -34.531  16.421  -6.151  1.00 20.00     0.301 C 
BRANCH   9  10
HETATM   10  C4  UNL     1     -34.410  15.467  -7.318  1.00 20.00     0.252 C 
HETATM   11  F9  UNL     1     -33.295  14.705  -7.154  1.00 20.00    -0.254 F 
ENDBRANCH   9  10
ENDBRANCH   7   9
ENDBRANCH   1   7
TORSDOF 5
ENDMDL
MODEL 3
REMARK VINA RESULT:      -3.5     15.991     16.642
REMARK  5 active torsions:
REMARK  status: ('A' for Active; 'I' for Inactive)
REMARK    1  A    between atoms: C3_3  and  C4_4 
REMARK    2  A    between atoms: C3_3  and  N8_8 
REMARK    3  A    between atoms: C5_5  and  C7_7 
REMARK    4  A    between atoms: C6_6  and  C7_7 
REMARK    5  A    between atoms: C7_7  and  N8_8 
ROOT
HETATM    1  C7  UNL     1     -34.128   6.109   3.765  1.00 20.00     0.237 C 
ENDROOT
BRANCH   1   2
HETATM    2  C5  UNL     1     -34.128   4.616   3.423  1.00 20.00     0.150 C 
HETATM    3 CL10 UNL     1     -32.943   4.244   2.139  1.00 20.00    -0.128 Cl
ENDBRANCH   1   2
BRANCH   1   4
HETATM    4  C6  UNL     1     -34.503   6.367   5.247  1.00 20.00     0.011 C 
HETATM    5  C1  UNL     1     -33.440   7.149   6.022  1.00 20.00     0.012 C 
HETATM    6  C2  UNL     1     -34.818   5.058   5.978  1.00 20.00     0.012 C 
ENDBRANCH   1   4
BRANCH   1   7
HETATM    7  N8  UNL     1     -32.857   6.714   3.433  1.00 20.00     0.091 N 
HETATM    8  H25 UNL     1     -32.258   6.027   2.970  1.00 20.00     0.316 HD
BRANCH   7   9
HETATM    9  C3  UNL     1     -33.030   7.860   2.544  1.00 20.00     0.301 C 
BRANCH   9  10
HETATM   10  C4  UNL     1     -32.313   7.655   1.227  1.00 20.00     0.252 C 
HETATM   11  F9  UNL     1     -32.873   8.464   0.288  1.00 20.00    -0.254 F 
ENDBRANCH   9  10
ENDBRANCH   7   9
ENDBRANCH   1   7
TORSDOF 5
ENDMDL
MODEL 4
REMARK VINA RESULT:      -3.5     16.568     17.796
REMARK  5 active torsions:
REMARK  status: ('A' for Active; 'I' for Inactive)
REMARK    1  A    between atoms: C3_3  and  C4_4 
REMARK    2  A    between atoms: C3_3  and  N8_8 
REMARK    3  A    between atoms: C5_5  and  C7_7 
REMARK    4  A    between atoms: C6_6  and  C7_7 
REMARK    5  A    between atoms: C7_7  and  N8_8 
ROOT
HETATM    1  C7  UNL     1     -34.424  15.873  -2.627  1.00 20.00     0.237 C 
ENDROOT
BRANCH   1   2
HETATM    2  C5  UNL     1     -33.754  15.955  -4.003  1.00 20.00     0.150 C 
HETATM    3 CL10 UNL     1     -32.777  14.497  -4.337  1.00 20.00    -0.128 Cl
ENDBRANCH   1   2
BRANCH   1   4
HETATM    4  C6  UNL     1     -34.335  17.214  -1.855  1.00 20.00     0.011 C 
HETATM    5  C1  UNL     1     -32.899  17.684  -1.607  1.00 20.00     0.012 C 
HETATM    6  C2  UNL     1     -35.094  17.144  -0.526  1.00 20.00     0.012 C 
ENDBRANCH   1   4
BRANCH   1   7
HETATM    7  N8  UNL     1     -35.795  15.427  -2.749  1.00 20.00     0.091 N 
HETATM    8  H25 UNL     1     -36.411  16.061  -2.235  1.00 20.00     0.316 HD
BRANCH   7   9
HETATM    9  C3  UNL     1     -36.220  15.390  -4.146  1.00 20.00     0.301 C 
BRANCH   9  10
HETATM   10  C4  UNL     1     -36.774  14.034  -4.522  1.00 20.00     0.252 C 
HETATM   11  F9  UNL     1     -35.853  13.080  -4.219  1.00 20.00    -0.254 F 
ENDBRANCH   9  10
ENDBRANCH   7   9
ENDBRANCH   1   7
TORSDOF 5
ENDMDL
MODEL 5
REMARK VINA RESULT:      -3.4     17.592     18.794
REMARK  5 active torsions:
REMARK  status: ('A' for Active; 'I' for Inactive)
REMARK    1  A    between atoms: C3_3  and  C4_4 
REMARK    2  A    between atoms: C3_3  and  N8_8 
REMARK    3  A    between atoms: C5_5  and  C7_7 
REMARK    4  A    between atoms: C6_6  and  C7_7 
REMARK    5  A    between atoms: C7_7  and  N8_8 
ROOT
HETATM    1  C7  UNL     1     -35.368  15.878  -3.716  1.00 20.00     0.237 C 
ENDROOT
BRANCH   1   2
HETATM    2  C5  UNL     1     -35.255  17.146  -4.569  1.00 20.00     0.150 C 
HETATM    3 CL10 UNL     1     -34.504  16.799  -6.152  1.00 20.00    -0.128 Cl
ENDBRANCH   1   2
BRANCH   1   4
HETATM    4  C6  UNL     1     -34.507  15.964  -2.429  1.00 20.00     0.011 C 
HETATM    5  C1  UNL     1     -35.201  16.694  -1.275  1.00 20.00     0.012 C 
HETATM    6  C2  UNL     1     -33.148  16.613  -2.710  1.00 20.00     0.012 C 
ENDBRANCH   1   4
BRANCH   1   7
HETATM    7  N8  UNL     1     -36.750  15.589  -3.405  1.00 20.00     0.091 N 
HETATM    8  H25 UNL     1     -37.321  16.422  -3.563  1.00 20.00     0.316 HD
BRANCH   7   9
HETATM    9  C3  UNL     1     -37.265  14.503  -4.235  1.00 20.00     0.301 C 
BRANCH   9  10
HETATM   10  C4  UNL     1     -36.147  13.630  -4.763  1.00 20.00     0.252 C 
HETATM   11  F9  UNL     1     -36.025  13.830  -6.103  1.00 20.00    -0.254 F 
ENDBRANCH   9  10
ENDBRANCH   7   9
ENDBRANCH   1   7
TORSDOF 5
ENDMDL
MODEL 6
REMARK VINA RESULT:      -3.3     17.169     18.429
REMARK  5 active torsions:
REMARK  status: ('A' for Active; 'I' for Inactive)
REMARK    1  A    between atoms: C3_3  and  C4_4 
REMARK    2  A    between atoms: C3_3  and  N8_8 
REMARK    3  A    between atoms: C5_5  and  C7_7 
REMARK    4  A    between atoms: C6_6  and  C7_7 
REMARK    5  A    between atoms: C7_7  and  N8_8 
ROOT
HETATM    1  C7  UNL     1     -33.954  16.276  -4.345  1.00 20.00     0.237 C 
ENDROOT
BRANCH   1   2
HETATM    2  C5  UNL     1     -35.166  17.149  -4.688  1.00 20.00     0.150 C 
HETATM    3 CL10 UNL     1     -34.663  18.697  -5.423  1.00 20.00    -0.128 Cl
ENDBRANCH   1   2
BRANCH   1   4
HETATM    4  C6  UNL     1     -33.738  16.155  -2.815  1.00 20.00     0.011 C 
HETATM    5  C1  UNL     1     -35.041  16.079  -2.015  1.00 20.00     0.012 C 
HETATM    6  C2  UNL     1     -32.869  17.300  -2.283  1.00 20.00     0.012 C 
ENDBRANCH   1   4
BRANCH   1   7
HETATM    7  N8  UNL     1     -34.068  14.973  -4.964  1.00 20.00     0.091 N 
HETATM    8  H25 UNL     1     -33.818  14.247  -4.289  1.00 20.00     0.316 HD
BRANCH   7   9
HETATM    9  C3  UNL     1     -35.427  14.726  -5.436  1.00 20.00     0.301 C 
BRANCH   9  10
HETATM   10  C4  UNL     1     -36.110  13.647  -4.625  1.00 20.00     0.252 C 
HETATM   11  F9  UNL     1     -35.179  13.010  -3.864  1.00 20.00    -0.254 F 
ENDBRANCH   9  10
ENDBRANCH   7   9
ENDBRANCH   1   7
TORSDOF 5
ENDMDL
MODEL 7
REMARK VINA RESULT:      -3.2     18.056     19.277
REMARK  5 active torsions:
REMARK  status: ('A' for Active; 'I' for Inactive)
REMARK    1  A    between atoms: C3_3  and  C4_4 
REMARK    2  A    between atoms: C3_3  and  N8_8 
REMARK    3  A    between atoms: C5_5  and  C7_7 
REMARK    4  A    between atoms: C6_6  and  C7_7 
REMARK    5  A    between atoms: C7_7  and  N8_8 
ROOT
HETATM    1  C7  UNL     1     -35.421  15.196  -3.818  1.00 20.00     0.237 C 
ENDROOT
BRANCH   1   2
HETATM    2  C5  UNL     1     -35.163  15.968  -5.116  1.00 20.00     0.150 C 
HETATM    3 CL10 UNL     1     -34.549  14.891  -6.401  1.00 20.00    -0.128 Cl
ENDBRANCH   1   2
BRANCH   1   4
HETATM    4  C6  UNL     1     -34.449  15.619  -2.686  1.00 20.00     0.011 C 
HETATM    5  C1  UNL     1     -35.100  16.500  -1.617  1.00 20.00     0.012 C 
HETATM    6  C2  UNL     1     -33.208  16.319  -3.250  1.00 20.00     0.012 C 
ENDBRANCH   1   4
BRANCH   1   7
HETATM    7  N8  UNL     1     -36.800  15.332  -3.404  1.00 20.00     0.091 N 
HETATM    8  H25 UNL     1     -37.066  16.319  -3.406  1.00 20.00     0.316 HD
BRANCH   7   9
HETATM    9  C3  UNL     1     -37.697  14.603  -4.297  1.00 20.00     0.301 C 
BRANCH   9  10
HETATM   10  C4  UNL     1     -39.022  15.315  -4.456  1.00 20.00     0.252 C 
HETATM   11  F9  UNL     1     -39.762  15.129  -3.330  1.00 20.00    -0.254 F 
ENDBRANCH   9  10
ENDBRANCH   7   9
ENDBRANCH   1   7
TORSDOF 5
ENDMDL
MODEL 8
REMARK VINA RESULT:      -3.2     16.018     16.686
REMARK  5 active torsions:
REMARK  status: ('A' for Active; 'I' for Inactive)
REMARK    1  A    between atoms: C3_3  and  C4_4 
REMARK    2  A    between atoms: C3_3  and  N8_8 
REMARK    3  A    between atoms: C5_5  and  C7_7 
REMARK    4  A    between atoms: C6_6  and  C7_7 
REMARK    5  A    between atoms: C7_7  and  N8_8 
ROOT
HETATM    1  C7  UNL     1     -32.950   6.359   3.422  1.00 20.00     0.237 C 
ENDROOT
BRANCH   1   2
HETATM    2  C5  UNL     1     -33.749   7.377   4.244  1.00 20.00     0.150 C 
HETATM    3 CL10 UNL     1     -33.711   6.978   5.984  1.00 20.00    -0.128 Cl
ENDBRANCH   1   2
BRANCH   1   4
HETATM    4  C6  UNL     1     -33.832   5.176   2.944  1.00 20.00     0.011 C 
HETATM    5  C1  UNL     1     -34.518   4.422   4.087  1.00 20.00     0.012 C 
HETATM    6  C2  UNL     1     -33.029   4.195   2.084  1.00 20.00     0.012 C 
ENDBRANCH   1   4
BRANCH   1   7
HETATM    7  N8  UNL     1     -32.288   7.003   2.308  1.00 20.00     0.091 N 
HETATM    8  H25 UNL     1     -32.185   6.340   1.537  1.00 20.00     0.316 HD
BRANCH   7   9
HETATM    9  C3  UNL     1     -33.047   8.159   1.836  1.00 20.00     0.301 C 
BRANCH   9  10
HETATM   10  C4  UNL     1     -32.637   8.557   0.435  1.00 20.00     0.252 C 
HETATM   11  F9  UNL     1     -33.741   8.583  -0.359  1.00 20.00    -0.254 F 
ENDBRANCH   9  10
ENDBRANCH   7   9
ENDBRANCH   1   7
TORSDOF 5
ENDMDL
MODEL 9
REMARK VINA RESULT:      -3.1     17.047     18.509
REMARK  5 active torsions:
REMARK  status: ('A' for Active; 'I' for Inactive)
REMARK    1  A    between atoms: C3_3  and  C4_4 
REMARK    2  A    between atoms: C3_3  and  N8_8 
REMARK    3  A    between atoms: C5_5  and  C7_7 
REMARK    4  A    between atoms: C6_6  and  C7_7 
REMARK    5  A    between atoms: C7_7  and  N8_8 
ROOT
HETATM    1  C7  UNL     1     -33.834  14.938  -4.918  1.00 20.00     0.237 C 
ENDROOT
BRANCH   1   2
HETATM    2  C5  UNL     1     -34.708  14.252  -3.862  1.00 20.00     0.150 C 
HETATM    3 CL10 UNL     1     -36.196  13.581  -4.587  1.00 20.00    -0.128 Cl
ENDBRANCH   1   2
BRANCH   1   4
HETATM    4  C6  UNL     1     -34.638  15.298  -6.194  1.00 20.00     0.011 C 
HETATM    5  C1  UNL     1     -33.835  15.146  -7.489  1.00 20.00     0.012 C 
HETATM    6  C2  UNL     1     -35.217  16.714  -6.107  1.00 20.00     0.012 C 
ENDBRANCH   1   4
BRANCH   1   7
HETATM    7  N8  UNL     1     -33.177  16.102  -4.366  1.00 20.00     0.091 N 
HETATM    8  H25 UNL     1     -33.536  16.947  -4.815  1.00 20.00     0.316 HD
BRANCH   7   9
HETATM    9  C3  UNL     1     -33.400  16.204  -2.926  1.00 20.00     0.301 C 
BRANCH   9  10
HETATM   10  C4  UNL     1     -33.113  17.600  -2.417  1.00 20.00     0.252 C 
HETATM   11  F9  UNL     1     -32.085  17.544  -1.529  1.00 20.00    -0.254 F 
ENDBRANCH   9  10
ENDBRANCH   7   9
ENDBRANCH   1   7
TORSDOF 5
ENDMDL
