MODEL 1
REMARK VINA RESULT:      -3.9      0.000      0.000
REMARK  1 active torsions:
REMARK  status: ('A' for Active; 'I' for Inactive)
REMARK    1  A    between atoms: C4_4  and  S8_8 
ROOT
HETATM    1  C1  UNL     1     -22.180  17.855  11.013  1.00 20.00     0.015 C 
HETATM    2  C2  UNL     1     -23.100  17.628  12.210  1.00 20.00     0.010 C 
HETATM    3  C3  UNL     1     -24.331  17.439  10.090  1.00 20.00     0.023 C 
HETATM    4  C4  UNL     1     -22.860  17.082   9.893  1.00 20.00     0.045 C 
HETATM    5  C5  UNL     1     -24.522  17.441  11.625  1.00 20.00    -0.047 C 
HETATM    6  C6  UNL     1     -25.121  16.107  12.096  1.00 20.00     0.015 C 
HETATM    7  C7  UNL     1     -25.450  18.585  12.053  1.00 20.00     0.015 C 
ENDROOT
BRANCH   4   8
HETATM    8  S8  UNL     1     -22.245  17.548   8.256  1.00 20.00    -0.177 SA
HETATM    9  H22 UNL     1     -21.735  16.346   7.961  1.00 20.00     0.102 HD
ENDBRANCH   4   8
TORSDOF 1
ENDMDL
MODEL 2
REMARK VINA RESULT:      -3.6      2.380      3.540
REMARK  1 active torsions:
REMARK  status: ('A' for Active; 'I' for Inactive)
REMARK    1  A    between atoms: C4_4  and  S8_8 
ROOT
HETATM    1  C1  UNL     1     -25.577  16.294  12.026  1.00 20.00     0.015 C 
HETATM    2  C2  UNL     1     -24.100  15.984  11.800  1.00 20.00     0.010 C 
HETATM    3  C3  UNL     1     -24.657  18.260  11.057  1.00 20.00     0.023 C 
HETATM    4  C4  UNL     1     -25.602  17.809  12.167  1.00 20.00     0.045 C 
HETATM    5  C5  UNL     1     -23.507  17.226  11.089  1.00 20.00    -0.047 C 
HETATM    6  C6  UNL     1     -22.311  17.773  11.882  1.00 20.00     0.015 C 
HETATM    7  C7  UNL     1     -23.049  16.882   9.666  1.00 20.00     0.015 C 
ENDROOT
BRANCH   4   8
HETATM    8  S8  UNL     1     -27.267  18.496  11.984  1.00 20.00    -0.177 SA
HETATM    9  H22 UNL     1     -27.614  17.722  10.949  1.00 20.00     0.102 HD
ENDBRANCH   4   8
TORSDOF 1
ENDMDL
MODEL 3
REMARK VINA RESULT:      -3.5      1.575      2.070
REMARK  1 active torsions:
REMARK  status: ('A' for Active; 'I' for Inactive)
REMARK    1  A    between atoms: C4_4  and  S8_8 
ROOT
HETATM    1  C1  UNL     1     -22.885  17.977   8.829  1.00 20.00     0.015 C 
HETATM    2  C2  UNL     1     -22.534  17.152  10.064  1.00 20.00     0.010 C 
HETATM    3  C3  UNL     1     -24.735  18.219  10.301  1.00 20.00     0.023 C 
HETATM    4  C4  UNL     1     -24.406  17.983   8.830  1.00 20.00     0.045 C 
HETATM    5  C5  UNL     1     -23.692  17.370  11.067  1.00 20.00    -0.047 C 
HETATM    6  C6  UNL     1     -24.297  16.022  11.486  1.00 20.00     0.015 C 
HETATM    7  C7  UNL     1     -23.208  18.111  12.319  1.00 20.00     0.015 C 
ENDROOT
BRANCH   4   8
HETATM    8  S8  UNL     1     -25.095  19.263   7.750  1.00 20.00    -0.177 SA
HETATM    9  H22 UNL     1     -25.808  18.422   6.990  1.00 20.00     0.102 HD
ENDBRANCH   4   8
TORSDOF 1
ENDMDL
MODEL 4
REMARK VINA RESULT:      -3.5     16.577     17.740
REMARK  1 active torsions:
REMARK  status: ('A' for Active; 'I' for Inactive)
REMARK    1  A    between atoms: C4_4  and  S8_8 
ROOT
HETATM    1  C1  UNL     1     -34.912  16.353  -1.920  1.00 20.00     0.015 C 
HETATM    2  C2  UNL     1     -34.995  15.263  -2.986  1.00 20.00     0.010 C 
HETATM    3  C3  UNL     1     -33.297  16.945  -3.561  1.00 20.00     0.023 C 
HETATM    4  C4  UNL     1     -33.484  16.864  -2.049  1.00 20.00     0.045 C 
HETATM    5  C5  UNL     1     -34.009  15.682  -4.103  1.00 20.00    -0.047 C 
HETATM    6  C6  UNL     1     -32.993  14.561  -4.366  1.00 20.00     0.015 C 
HETATM    7  C7  UNL     1     -34.752  15.999  -5.406  1.00 20.00     0.015 C 
ENDROOT
BRANCH   4   8
HETATM    8  S8  UNL     1     -33.243  18.461  -1.232  1.00 20.00    -0.177 SA
HETATM    9  H22 UNL     1     -34.545  18.746  -1.116  1.00 20.00     0.102 HD
ENDBRANCH   4   8
TORSDOF 1
ENDMDL
MODEL 5
REMARK VINA RESULT:      -3.4     23.320     24.295
REMARK  1 active torsions:
REMARK  status: ('A' for Active; 'I' for Inactive)
REMARK    1  A    between atoms: C4_4  and  S8_8 
ROOT
HETATM    1  C1  UNL     1     -42.445   6.934   1.044  1.00 20.00     0.015 C 
HETATM    2  C2  UNL     1     -42.497   5.513   0.488  1.00 20.00     0.010 C 
HETATM    3  C3  UNL     1     -41.784   7.117  -1.232  1.00 20.00     0.023 C 
HETATM    4  C4  UNL     1     -41.413   7.620   0.160  1.00 20.00     0.045 C 
HETATM    5  C5  UNL     1     -42.153   5.630  -1.016  1.00 20.00    -0.047 C 
HETATM    6  C6  UNL     1     -40.962   4.723  -1.362  1.00 20.00     0.015 C 
HETATM    7  C7  UNL     1     -43.350   5.238  -1.890  1.00 20.00     0.015 C 
ENDROOT
BRANCH   4   8
HETATM    8  S8  UNL     1     -41.481   9.425   0.289  1.00 20.00    -0.177 SA
HETATM    9  H22 UNL     1     -41.391   9.464   1.623  1.00 20.00     0.102 HD
ENDBRANCH   4   8
TORSDOF 1
ENDMDL
MODEL 6
REMARK VINA RESULT:      -3.4     16.591     17.741
REMARK  1 active torsions:
REMARK  status: ('A' for Active; 'I' for Inactive)
REMARK    1  A    between atoms: C4_4  and  S8_8 
ROOT
HETATM    1  C1  UNL     1     -33.337  17.117  -1.971  1.00 20.00     0.015 C 
HETATM    2  C2  UNL     1     -33.151  16.645  -3.411  1.00 20.00     0.010 C 
HETATM    3  C3  UNL     1     -35.298  15.878  -2.492  1.00 20.00     0.023 C 
HETATM    4  C4  UNL     1     -34.850  17.167  -1.810  1.00 20.00     0.045 C 
HETATM    5  C5  UNL     1     -34.383  15.764  -3.734  1.00 20.00    -0.047 C 
HETATM    6  C6  UNL     1     -35.101  16.292  -4.985  1.00 20.00     0.015 C 
HETATM    7  C7  UNL     1     -33.972  14.306  -3.971  1.00 20.00     0.015 C 
ENDROOT
BRANCH   4   8
HETATM    8  S8  UNL     1     -35.359  17.248  -0.074  1.00 20.00    -0.177 SA
HETATM    9  H22 UNL     1     -36.637  17.553  -0.327  1.00 20.00     0.102 HD
ENDBRANCH   4   8
TORSDOF 1
ENDMDL
MODEL 7
REMARK VINA RESULT:      -3.3     17.072     18.097
REMARK  1 active torsions:
REMARK  status: ('A' for Active; 'I' for Inactive)
REMARK    1  A    between atoms: C4_4  and  S8_8 
ROOT
HETATM    1  C1  UNL     1     -33.851  15.112  -3.881  1.00 20.00     0.015 C 
HETATM    2  C2  UNL     1     -33.456  16.217  -2.904  1.00 20.00     0.010 C 
HETATM    3  C3  UNL     1     -35.892  16.141  -3.228  1.00 20.00     0.023 C 
HETATM    4  C4  UNL     1     -35.273  14.766  -3.466  1.00 20.00     0.045 C 
HETATM    5  C5  UNL     1     -34.769  16.951  -2.538  1.00 20.00    -0.047 C 
HETATM    6  C6  UNL     1     -34.967  16.960  -1.014  1.00 20.00     0.015 C 
HETATM    7  C7  UNL     1     -34.754  18.397  -3.048  1.00 20.00     0.015 C 
ENDROOT
BRANCH   4   8
HETATM    8  S8  UNL     1     -36.154  13.818  -4.732  1.00 20.00    -0.177 SA
HETATM    9  H22 UNL     1     -37.166  14.683  -4.863  1.00 20.00     0.102 HD
ENDBRANCH   4   8
TORSDOF 1
ENDMDL
MODEL 8
REMARK VINA RESULT:      -3.3     18.140     19.225
REMARK  1 active torsions:
REMARK  status: ('A' for Active; 'I' for Inactive)
REMARK    1  A    between atoms: C4_4  and  S8_8 
ROOT
HETATM    1  C1  UNL     1     -35.571  14.402  -5.124  1.00 20.00     0.015 C 
HETATM    2  C2  UNL     1     -34.815  14.316  -3.800  1.00 20.00     0.010 C 
HETATM    3  C3  UNL     1     -35.236  16.653  -4.435  1.00 20.00     0.023 C 
HETATM    4  C4  UNL     1     -36.301  15.734  -5.025  1.00 20.00     0.045 C 
HETATM    5  C5  UNL     1     -34.515  15.776  -3.383  1.00 20.00    -0.047 C 
HETATM    6  C6  UNL     1     -35.068  16.054  -1.978  1.00 20.00     0.015 C 
HETATM    7  C7  UNL     1     -33.007  16.055  -3.391  1.00 20.00     0.015 C 
ENDROOT
BRANCH   4   8
HETATM    8  S8  UNL     1     -36.906  16.312  -6.631  1.00 20.00    -0.177 SA
HETATM    9  H22 UNL     1     -35.724  16.778  -7.055  1.00 20.00     0.102 HD
ENDBRANCH   4   8
TORSDOF 1
ENDMDL
MODEL 9
REMARK VINA RESULT:      -3.3     17.733     18.785
REMARK  1 active torsions:
REMARK  status: ('A' for Active; 'I' for Inactive)
REMARK    1  A    between atoms: C4_4  and  S8_8 
ROOT
HETATM    1  C1  UNL     1     -33.850  14.955  -5.513  1.00 20.00     0.015 C 
HETATM    2  C2  UNL     1     -33.584  14.813  -4.016  1.00 20.00     0.010 C 
HETATM    3  C3  UNL     1     -34.726  16.930  -4.522  1.00 20.00     0.023 C 
HETATM    4  C4  UNL     1     -35.062  15.873  -5.570  1.00 20.00     0.045 C 
HETATM    5  C5  UNL     1     -34.073  16.132  -3.369  1.00 20.00    -0.047 C 
HETATM    6  C6  UNL     1     -35.102  15.836  -2.267  1.00 20.00     0.015 C 
HETATM    7  C7  UNL     1     -32.903  16.917  -2.763  1.00 20.00     0.015 C 
ENDROOT
BRANCH   4   8
HETATM    8  S8  UNL     1     -35.317  16.582  -7.217  1.00 20.00    -0.177 SA
HETATM    9  H22 UNL     1     -36.275  17.438  -6.843  1.00 20.00     0.102 HD
ENDBRANCH   4   8
TORSDOF 1
ENDMDL
