MODEL 1
REMARK VINA RESULT:      -4.1      0.000      0.000
REMARK  2 active torsions:
REMARK  status: ('A' for Active; 'I' for Inactive)
REMARK    1  A    between atoms: C5_5  and  C6_6 
REMARK    2  A    between atoms: C5_5  and  N7_7 
ROOT
HETATM    1  C1  UNL     1     -33.058   5.599   2.182  1.00 20.00     0.052 C 
HETATM    2  C2  UNL     1     -33.925   5.503   3.437  1.00 20.00     0.274 C 
HETATM    3  C3  UNL     1     -32.393   7.224   3.820  1.00 20.00     0.292 C 
HETATM    4  C4  UNL     1     -32.246   6.881   2.345  1.00 20.00     0.112 C 
HETATM    5  N7  UNL     1     -33.765   6.799   4.101  1.00 20.00     0.092 N 
HETATM    6 CL9  UNL     1     -32.922   8.189   1.326  1.00 20.00    -0.123 Cl
ENDROOT
BRANCH   5   7
HETATM    7  C5  UNL     1     -34.054   6.737   5.525  1.00 20.00     0.303 C 
BRANCH   7   8
HETATM    8  C6  UNL     1     -34.874   5.513   5.874  1.00 20.00     0.252 C 
HETATM    9  F8  UNL     1     -34.100   4.650   6.585  1.00 20.00    -0.254 F 
ENDBRANCH   7   8
ENDBRANCH   5   7
TORSDOF 2
ENDMDL
MODEL 2
REMARK VINA RESULT:      -3.9      3.185      4.018
REMARK  2 active torsions:
REMARK  status: ('A' for Active; 'I' for Inactive)
REMARK    1  A    between atoms: C5_5  and  C6_6 
REMARK    2  A    between atoms: C5_5  and  N7_7 
ROOT
HETATM    1  C1  UNL     1     -34.403   4.549   3.454  1.00 20.00     0.052 C 
HETATM    2  C2  UNL     1     -33.181   5.215   2.820  1.00 20.00     0.274 C 
HETATM    3  C3  UNL     1     -34.213   6.843   4.139  1.00 20.00     0.292 C 
HETATM    4  C4  UNL     1     -34.907   5.539   4.501  1.00 20.00     0.112 C 
HETATM    5  N7  UNL     1     -32.908   6.377   3.668  1.00 20.00     0.092 N 
HETATM    6 CL9  UNL     1     -34.436   5.012   6.146  1.00 20.00    -0.123 Cl
ENDROOT
BRANCH   5   7
HETATM    7  C5  UNL     1     -32.159   7.413   2.972  1.00 20.00     0.303 C 
BRANCH   7   8
HETATM    8  C6  UNL     1     -32.571   7.516   1.519  1.00 20.00     0.252 C 
HETATM    9  F8  UNL     1     -32.918   8.803   1.248  1.00 20.00    -0.254 F 
ENDBRANCH   7   8
ENDBRANCH   5   7
TORSDOF 2
ENDMDL
MODEL 3
REMARK VINA RESULT:      -3.6      9.537     10.060
REMARK  2 active torsions:
REMARK  status: ('A' for Active; 'I' for Inactive)
REMARK    1  A    between atoms: C5_5  and  C6_6 
REMARK    2  A    between atoms: C5_5  and  N7_7 
ROOT
HETATM    1  C1  UNL     1     -43.150   7.895   0.697  1.00 20.00     0.052 C 
HETATM    2  C2  UNL     1     -42.508   6.512   0.574  1.00 20.00     0.274 C 
HETATM    3  C3  UNL     1     -41.759   7.756  -1.255  1.00 20.00     0.292 C 
HETATM    4  C4  UNL     1     -42.453   8.761  -0.348  1.00 20.00     0.112 C 
HETATM    5  N7  UNL     1     -41.358   6.713  -0.310  1.00 20.00     0.092 N 
HETATM    6 CL9  UNL     1     -41.254   9.842   0.427  1.00 20.00    -0.123 Cl
ENDROOT
BRANCH   5   7
HETATM    7  C5  UNL     1     -40.940   5.486  -0.971  1.00 20.00     0.303 C 
BRANCH   7   8
HETATM    8  C6  UNL     1     -42.108   4.787  -1.635  1.00 20.00     0.252 C 
HETATM    9  F8  UNL     1     -41.630   3.824  -2.469  1.00 20.00    -0.254 F 
ENDBRANCH   7   8
ENDBRANCH   5   7
TORSDOF 2
ENDMDL
MODEL 4
REMARK VINA RESULT:      -3.4     11.562     12.219
REMARK  2 active torsions:
REMARK  status: ('A' for Active; 'I' for Inactive)
REMARK    1  A    between atoms: C5_5  and  C6_6 
REMARK    2  A    between atoms: C5_5  and  N7_7 
ROOT
HETATM    1  C1  UNL     1     -34.600  17.320  -1.537  1.00 20.00     0.052 C 
HETATM    2  C2  UNL     1     -34.702  15.955  -2.217  1.00 20.00     0.274 C 
HETATM    3  C3  UNL     1     -33.212  17.222  -3.494  1.00 20.00     0.292 C 
HETATM    4  C4  UNL     1     -33.440  18.033  -2.227  1.00 20.00     0.112 C 
HETATM    5  N7  UNL     1     -33.496  15.859  -3.043  1.00 20.00     0.092 N 
HETATM    6 CL9  UNL     1     -31.979  18.009  -1.193  1.00 20.00    -0.123 Cl
ENDROOT
BRANCH   5   7
HETATM    7  C5  UNL     1     -33.646  14.922  -4.145  1.00 20.00     0.303 C 
BRANCH   7   8
HETATM    8  C6  UNL     1     -34.980  14.209  -4.091  1.00 20.00     0.252 C 
HETATM    9  F8  UNL     1     -34.775  12.913  -3.728  1.00 20.00    -0.254 F 
ENDBRANCH   7   8
ENDBRANCH   5   7
TORSDOF 2
ENDMDL
MODEL 5
REMARK VINA RESULT:      -3.2     12.094     12.873
REMARK  2 active torsions:
REMARK  status: ('A' for Active; 'I' for Inactive)
REMARK    1  A    between atoms: C5_5  and  C6_6 
REMARK    2  A    between atoms: C5_5  and  N7_7 
ROOT
HETATM    1  C1  UNL     1     -34.841  16.894  -1.930  1.00 20.00     0.052 C 
HETATM    2  C2  UNL     1     -34.736  15.525  -2.602  1.00 20.00     0.274 C 
HETATM    3  C3  UNL     1     -33.347  16.964  -3.809  1.00 20.00     0.292 C 
HETATM    4  C4  UNL     1     -33.742  17.744  -2.564  1.00 20.00     0.112 C 
HETATM    5  N7  UNL     1     -33.485  15.577  -3.361  1.00 20.00     0.092 N 
HETATM    6 CL9  UNL     1     -32.348  17.903  -1.453  1.00 20.00    -0.123 Cl
ENDROOT
BRANCH   5   7
HETATM    7  C5  UNL     1     -33.458  14.626  -4.461  1.00 20.00     0.303 C 
BRANCH   7   8
HETATM    8  C6  UNL     1     -34.141  15.181  -5.693  1.00 20.00     0.252 C 
HETATM    9  F8  UNL     1     -33.443  14.798  -6.796  1.00 20.00    -0.254 F 
ENDBRANCH   7   8
ENDBRANCH   5   7
TORSDOF 2
ENDMDL
MODEL 6
REMARK VINA RESULT:      -3.2     12.458     13.501
REMARK  2 active torsions:
REMARK  status: ('A' for Active; 'I' for Inactive)
REMARK    1  A    between atoms: C5_5  and  C6_6 
REMARK    2  A    between atoms: C5_5  and  N7_7 
ROOT
HETATM    1  C1  UNL     1     -33.767  17.239  -3.983  1.00 20.00     0.052 C 
HETATM    2  C2  UNL     1     -34.487  16.893  -5.287  1.00 20.00     0.274 C 
HETATM    3  C3  UNL     1     -34.085  14.868  -4.195  1.00 20.00     0.292 C 
HETATM    4  C4  UNL     1     -33.746  15.944  -3.174  1.00 20.00     0.112 C 
HETATM    5  N7  UNL     1     -35.042  15.556  -5.063  1.00 20.00     0.092 N 
HETATM    6 CL9  UNL     1     -34.979  15.991  -1.877  1.00 20.00    -0.123 Cl
ENDROOT
BRANCH   5   7
HETATM    7  C5  UNL     1     -35.291  14.839  -6.304  1.00 20.00     0.303 C 
BRANCH   7   8
HETATM    8  C6  UNL     1     -34.457  15.390  -7.441  1.00 20.00     0.252 C 
HETATM    9  F8  UNL     1     -33.271  14.724  -7.483  1.00 20.00    -0.254 F 
ENDBRANCH   7   8
ENDBRANCH   5   7
TORSDOF 2
ENDMDL
MODEL 7
REMARK VINA RESULT:      -3.2     10.130     10.756
REMARK  2 active torsions:
REMARK  status: ('A' for Active; 'I' for Inactive)
REMARK    1  A    between atoms: C5_5  and  C6_6 
REMARK    2  A    between atoms: C5_5  and  N7_7 
ROOT
HETATM    1  C1  UNL     1     -41.046   6.358   0.091  1.00 20.00     0.052 C 
HETATM    2  C2  UNL     1     -41.372   5.441  -1.088  1.00 20.00     0.274 C 
HETATM    3  C3  UNL     1     -43.284   5.503   0.252  1.00 20.00     0.292 C 
HETATM    4  C4  UNL     1     -42.374   6.590   0.806  1.00 20.00     0.112 C 
HETATM    5  N7  UNL     1     -42.835   5.404  -1.138  1.00 20.00     0.092 N 
HETATM    6 CL9  UNL     1     -43.025   8.212   0.419  1.00 20.00    -0.123 Cl
ENDROOT
BRANCH   5   7
HETATM    7  C5  UNL     1     -43.342   4.216  -1.808  1.00 20.00     0.303 C 
BRANCH   7   8
HETATM    8  C6  UNL     1     -42.284   3.579  -2.684  1.00 20.00     0.252 C 
HETATM    9  F8  UNL     1     -42.527   2.242  -2.769  1.00 20.00    -0.254 F 
ENDBRANCH   7   8
ENDBRANCH   5   7
TORSDOF 2
ENDMDL
MODEL 8
REMARK VINA RESULT:      -3.2     11.910     12.363
REMARK  2 active torsions:
REMARK  status: ('A' for Active; 'I' for Inactive)
REMARK    1  A    between atoms: C5_5  and  C6_6 
REMARK    2  A    between atoms: C5_5  and  N7_7 
ROOT
HETATM    1  C1  UNL     1     -33.777  16.244  -2.478  1.00 20.00     0.052 C 
HETATM    2  C2  UNL     1     -35.291  16.092  -2.330  1.00 20.00     0.274 C 
HETATM    3  C3  UNL     1     -34.863  16.259  -4.620  1.00 20.00     0.292 C 
HETATM    4  C4  UNL     1     -33.497  16.091  -3.971  1.00 20.00     0.112 C 
HETATM    5  N7  UNL     1     -35.749  15.628  -3.641  1.00 20.00     0.092 N 
HETATM    6 CL9  UNL     1     -32.828  14.469  -4.324  1.00 20.00    -0.123 Cl
ENDROOT
BRANCH   5   7
HETATM    7  C5  UNL     1     -37.153  15.925  -3.880  1.00 20.00     0.303 C 
BRANCH   7   8
HETATM    8  C6  UNL     1     -37.913  14.694  -4.328  1.00 20.00     0.252 C 
HETATM    9  F8  UNL     1     -37.027  13.686  -4.555  1.00 20.00    -0.254 F 
ENDBRANCH   7   8
ENDBRANCH   5   7
TORSDOF 2
ENDMDL
MODEL 9
REMARK VINA RESULT:      -3.1     12.282     12.903
REMARK  2 active torsions:
REMARK  status: ('A' for Active; 'I' for Inactive)
REMARK    1  A    between atoms: C5_5  and  C6_6 
REMARK    2  A    between atoms: C5_5  and  N7_7 
ROOT
HETATM    1  C1  UNL     1     -35.522  16.446  -5.918  1.00 20.00     0.052 C 
HETATM    2  C2  UNL     1     -34.825  17.045  -4.696  1.00 20.00     0.274 C 
HETATM    3  C3  UNL     1     -34.204  14.795  -4.776  1.00 20.00     0.292 C 
HETATM    4  C4  UNL     1     -34.905  15.062  -6.099  1.00 20.00     0.112 C 
HETATM    5  N7  UNL     1     -33.720  16.128  -4.409  1.00 20.00     0.092 N 
HETATM    6 CL9  UNL     1     -33.726  15.069  -7.446  1.00 20.00    -0.123 Cl
ENDROOT
BRANCH   5   7
HETATM    7  C5  UNL     1     -33.275  16.203  -3.026  1.00 20.00     0.303 C 
BRANCH   7   8
HETATM    8  C6  UNL     1     -34.364  16.735  -2.120  1.00 20.00     0.252 C 
HETATM    9  F8  UNL     1     -35.123  15.694  -1.682  1.00 20.00    -0.254 F 
ENDBRANCH   7   8
ENDBRANCH   5   7
TORSDOF 2
ENDMDL
