MODEL 1
REMARK VINA RESULT:      -4.6      0.000      0.000
REMARK  0 active torsions:
REMARK  status: ('A' for Active; 'I' for Inactive)
ROOT
HETATM    1  C1  UNL     1     -22.299  17.334   8.358  1.00 20.00     0.064 C 
HETATM    2  C2  UNL     1     -22.144  18.015  10.749  1.00 20.00     0.020 C 
HETATM    3  C3  UNL     1     -22.770  17.123  11.820  1.00 20.00     0.010 C 
HETATM    4  C4  UNL     1     -24.194  16.960   9.919  1.00 20.00     0.027 C 
HETATM    5  C5  UNL     1     -23.035  17.878   9.506  1.00 20.00     0.093 C 
HETATM    6  C6  UNL     1     -24.258  17.050  11.451  1.00 20.00    -0.046 C 
HETATM    7  C7  UNL     1     -24.926  15.817  12.062  1.00 20.00     0.015 C 
HETATM    8  C8  UNL     1     -25.011  18.311  11.905  1.00 20.00     0.015 C 
HETATM    9  N9  UNL     1     -21.717  16.902   7.451  1.00 20.00    -0.197 NA
ENDROOT
TORSDOF 0
ENDMDL
MODEL 2
REMARK VINA RESULT:      -4.5     23.004     23.983
REMARK  0 active torsions:
REMARK  status: ('A' for Active; 'I' for Inactive)
ROOT
HETATM    1  C1  UNL     1     -41.786   9.328   0.161  1.00 20.00     0.064 C 
HETATM    2  C2  UNL     1     -42.871   7.215   0.909  1.00 20.00     0.020 C 
HETATM    3  C3  UNL     1     -42.167   5.884   0.649  1.00 20.00     0.010 C 
HETATM    4  C4  UNL     1     -41.659   7.267  -1.220  1.00 20.00     0.027 C 
HETATM    5  C5  UNL     1     -42.509   8.126  -0.273  1.00 20.00     0.093 C 
HETATM    6  C6  UNL     1     -42.010   5.812  -0.875  1.00 20.00    -0.046 C 
HETATM    7  C7  UNL     1     -40.891   4.850  -1.279  1.00 20.00     0.015 C 
HETATM    8  C8  UNL     1     -43.319   5.378  -1.555  1.00 20.00     0.015 C 
HETATM    9  N9  UNL     1     -41.214  10.278   0.503  1.00 20.00    -0.197 NA
ENDROOT
TORSDOF 0
ENDMDL
MODEL 3
REMARK VINA RESULT:      -4.5     18.075     19.126
REMARK  0 active torsions:
REMARK  status: ('A' for Active; 'I' for Inactive)
ROOT
HETATM    1  C1  UNL     1     -37.385  14.627  -4.174  1.00 20.00     0.064 C 
HETATM    2  C2  UNL     1     -35.809  16.449  -4.807  1.00 20.00     0.020 C 
HETATM    3  C3  UNL     1     -34.382  16.090  -5.220  1.00 20.00     0.010 C 
HETATM    4  C4  UNL     1     -34.988  14.525  -3.531  1.00 20.00     0.027 C 
HETATM    5  C5  UNL     1     -36.220  15.414  -3.750  1.00 20.00     0.093 C 
HETATM    6  C6  UNL     1     -33.791  15.365  -4.003  1.00 20.00    -0.046 C 
HETATM    7  C7  UNL     1     -32.604  14.484  -4.399  1.00 20.00     0.015 C 
HETATM    8  C8  UNL     1     -33.344  16.359  -2.919  1.00 20.00     0.015 C 
HETATM    9  N9  UNL     1     -38.304  14.004  -4.510  1.00 20.00    -0.197 NA
ENDROOT
TORSDOF 0
ENDMDL
MODEL 4
REMARK VINA RESULT:      -4.4     17.146     18.070
REMARK  0 active torsions:
REMARK  status: ('A' for Active; 'I' for Inactive)
ROOT
HETATM    1  C1  UNL     1     -35.545  13.827  -4.358  1.00 20.00     0.064 C 
HETATM    2  C2  UNL     1     -33.701  15.485  -4.120  1.00 20.00     0.020 C 
HETATM    3  C3  UNL     1     -33.456  16.136  -2.760  1.00 20.00     0.010 C 
HETATM    4  C4  UNL     1     -35.812  15.839  -2.926  1.00 20.00     0.027 C 
HETATM    5  C5  UNL     1     -35.216  15.251  -4.213  1.00 20.00     0.093 C 
HETATM    6  C6  UNL     1     -34.772  16.850  -2.422  1.00 20.00    -0.046 C 
HETATM    7  C7  UNL     1     -34.905  17.095  -0.917  1.00 20.00     0.015 C 
HETATM    8  C8  UNL     1     -34.890  18.191  -3.164  1.00 20.00     0.015 C 
HETATM    9  N9  UNL     1     -35.804  12.701  -4.471  1.00 20.00    -0.197 NA
ENDROOT
TORSDOF 0
ENDMDL
MODEL 5
REMARK VINA RESULT:      -4.4     15.228     16.203
REMARK  0 active torsions:
REMARK  status: ('A' for Active; 'I' for Inactive)
ROOT
HETATM    1  C1  UNL     1     -31.681  18.202  -1.018  1.00 20.00     0.064 C 
HETATM    2  C2  UNL     1     -34.159  18.016  -0.837  1.00 20.00     0.020 C 
HETATM    3  C3  UNL     1     -34.842  16.719  -1.271  1.00 20.00     0.010 C 
HETATM    4  C4  UNL     1     -33.004  17.017  -2.755  1.00 20.00     0.027 C 
HETATM    5  C5  UNL     1     -32.946  18.189  -1.764  1.00 20.00     0.093 C 
HETATM    6  C6  UNL     1     -34.469  16.553  -2.750  1.00 20.00    -0.046 C 
HETATM    7  C7  UNL     1     -34.601  15.096  -3.200  1.00 20.00     0.015 C 
HETATM    8  C8  UNL     1     -35.339  17.441  -3.652  1.00 20.00     0.015 C 
HETATM    9  N9  UNL     1     -30.682  18.211  -0.429  1.00 20.00    -0.197 NA
ENDROOT
TORSDOF 0
ENDMDL
MODEL 6
REMARK VINA RESULT:      -4.2     17.476     18.450
REMARK  0 active torsions:
REMARK  status: ('A' for Active; 'I' for Inactive)
ROOT
HETATM    1  C1  UNL     1     -36.003  14.387  -4.975  1.00 20.00     0.064 C 
HETATM    2  C2  UNL     1     -36.459  16.598  -3.923  1.00 20.00     0.020 C 
HETATM    3  C3  UNL     1     -35.283  17.481  -3.506  1.00 20.00     0.010 C 
HETATM    4  C4  UNL     1     -34.583  15.238  -3.123  1.00 20.00     0.027 C 
HETATM    5  C5  UNL     1     -35.995  15.149  -3.719  1.00 20.00     0.093 C 
HETATM    6  C6  UNL     1     -34.495  16.637  -2.495  1.00 20.00    -0.046 C 
HETATM    7  C7  UNL     1     -33.046  17.114  -2.376  1.00 20.00     0.015 C 
HETATM    8  C8  UNL     1     -35.152  16.667  -1.105  1.00 20.00     0.015 C 
HETATM    9  N9  UNL     1     -36.007  13.786  -5.968  1.00 20.00    -0.197 NA
ENDROOT
TORSDOF 0
ENDMDL
MODEL 7
REMARK VINA RESULT:      -4.1     17.234     18.287
REMARK  0 active torsions:
REMARK  status: ('A' for Active; 'I' for Inactive)
ROOT
HETATM    1  C1  UNL     1     -35.282  13.781  -4.078  1.00 20.00     0.064 C 
HETATM    2  C2  UNL     1     -35.402  15.699  -2.493  1.00 20.00     0.020 C 
HETATM    3  C3  UNL     1     -35.301  17.123  -3.038  1.00 20.00     0.010 C 
HETATM    4  C4  UNL     1     -33.870  15.798  -4.403  1.00 20.00     0.027 C 
HETATM    5  C5  UNL     1     -34.515  14.833  -3.399  1.00 20.00     0.093 C 
HETATM    6  C6  UNL     1     -33.937  17.181  -3.738  1.00 20.00    -0.046 C 
HETATM    7  C7  UNL     1     -33.885  18.308  -4.772  1.00 20.00     0.015 C 
HETATM    8  C8  UNL     1     -32.794  17.370  -2.727  1.00 20.00     0.015 C 
HETATM    9  N9  UNL     1     -35.890  12.951  -4.616  1.00 20.00    -0.197 NA
ENDROOT
TORSDOF 0
ENDMDL
MODEL 8
REMARK VINA RESULT:      -4.0     17.806     18.787
REMARK  0 active torsions:
REMARK  status: ('A' for Active; 'I' for Inactive)
ROOT
HETATM    1  C1  UNL     1     -37.237  14.683  -4.404  1.00 20.00     0.064 C 
HETATM    2  C2  UNL     1     -34.754  14.786  -4.574  1.00 20.00     0.020 C 
HETATM    3  C3  UNL     1     -33.943  15.234  -3.359  1.00 20.00     0.010 C 
HETATM    4  C4  UNL     1     -35.956  16.504  -3.304  1.00 20.00     0.027 C 
HETATM    5  C5  UNL     1     -36.073  15.571  -4.518  1.00 20.00     0.093 C 
HETATM    6  C6  UNL     1     -34.448  16.649  -3.047  1.00 20.00    -0.046 C 
HETATM    7  C7  UNL     1     -34.157  17.040  -1.597  1.00 20.00     0.015 C 
HETATM    8  C8  UNL     1     -33.819  17.689  -3.987  1.00 20.00     0.015 C 
HETATM    9  N9  UNL     1     -38.157  13.981  -4.314  1.00 20.00    -0.197 NA
ENDROOT
TORSDOF 0
ENDMDL
MODEL 9
REMARK VINA RESULT:      -3.9     17.568     18.617
REMARK  0 active torsions:
REMARK  status: ('A' for Active; 'I' for Inactive)
ROOT
HETATM    1  C1  UNL     1     -33.327  16.669  -2.539  1.00 20.00     0.064 C 
HETATM    2  C2  UNL     1     -33.280  14.834  -4.223  1.00 20.00     0.020 C 
HETATM    3  C3  UNL     1     -34.161  14.942  -5.467  1.00 20.00     0.010 C 
HETATM    4  C4  UNL     1     -35.401  15.946  -3.700  1.00 20.00     0.027 C 
HETATM    5  C5  UNL     1     -34.057  15.520  -3.090  1.00 20.00     0.093 C 
HETATM    6  C6  UNL     1     -35.594  15.043  -4.928  1.00 20.00    -0.046 C 
HETATM    7  C7  UNL     1     -36.534  15.679  -5.954  1.00 20.00     0.015 C 
HETATM    8  C8  UNL     1     -36.141  13.664  -4.527  1.00 20.00     0.015 C 
HETATM    9  N9  UNL     1     -32.750  17.577  -2.105  1.00 20.00    -0.197 NA
ENDROOT
TORSDOF 0
ENDMDL
