MODEL 1
REMARK VINA RESULT:      -5.1      0.000      0.000
REMARK  1 active torsions:
REMARK  status: ('A' for Active; 'I' for Inactive)
REMARK    1  A    between atoms: C3_3  and  C8_8 
ROOT
HETATM    1  C1  UNL     1     -24.969  18.941   7.633  1.00 20.00     0.021 C 
HETATM    2  C2  UNL     1     -24.073  18.797   8.419  1.00 20.00    -0.037 C 
HETATM    3  C3  UNL     1     -22.995  18.624   9.364  1.00 20.00     0.235 C 
HETATM    4  O10 UNL     1     -21.888  19.079   9.113  1.00 20.00    -0.280 OA
ENDROOT
BRANCH   3   5
HETATM    5  C8  UNL     1     -23.328  17.877  10.623  1.00 20.00     0.129 C 
HETATM    6  C6  UNL     1     -23.860  16.484  10.267  1.00 20.00     0.047 C 
HETATM    7  C4  UNL     1     -24.588  15.833  11.440  1.00 20.00     0.006 C 
HETATM    8  C5  UNL     1     -25.625  16.790  12.015  1.00 20.00     0.026 C 
HETATM    9  C7  UNL     1     -24.998  18.140  12.332  1.00 20.00     0.169 C 
HETATM   10  O11 UNL     1     -24.356  18.698  11.187  1.00 20.00    -0.372 OA
HETATM   11  C9  UNL     1     -22.084  17.840  11.512  1.00 20.00     0.055 C 
ENDBRANCH   3   5
TORSDOF 1
ENDMDL
MODEL 2
REMARK VINA RESULT:      -4.8     17.159     18.893
REMARK  1 active torsions:
REMARK  status: ('A' for Active; 'I' for Inactive)
REMARK    1  A    between atoms: C3_3  and  C8_8 
ROOT
HETATM    1  C1  UNL     1     -38.447  14.861  -4.293  1.00 20.00     0.021 C 
HETATM    2  C2  UNL     1     -37.327  14.430  -4.311  1.00 20.00    -0.037 C 
HETATM    3  C3  UNL     1     -35.980  13.910  -4.332  1.00 20.00     0.235 C 
HETATM    4  O10 UNL     1     -35.790  12.721  -4.552  1.00 20.00    -0.280 OA
ENDROOT
BRANCH   3   5
HETATM    5  C8  UNL     1     -34.881  14.900  -4.074  1.00 20.00     0.129 C 
HETATM    6  C6  UNL     1     -35.010  15.451  -2.649  1.00 20.00     0.047 C 
HETATM    7  C4  UNL     1     -34.203  16.731  -2.456  1.00 20.00     0.006 C 
HETATM    8  C5  UNL     1     -34.521  17.728  -3.563  1.00 20.00     0.026 C 
HETATM    9  C7  UNL     1     -34.364  17.085  -4.933  1.00 20.00     0.169 C 
HETATM   10  O11 UNL     1     -35.163  15.908  -5.050  1.00 20.00    -0.372 OA
HETATM   11  C9  UNL     1     -33.539  14.218  -4.339  1.00 20.00     0.055 C 
ENDBRANCH   3   5
TORSDOF 1
ENDMDL
MODEL 3
REMARK VINA RESULT:      -4.7     16.939     18.993
REMARK  1 active torsions:
REMARK  status: ('A' for Active; 'I' for Inactive)
REMARK    1  A    between atoms: C3_3  and  C8_8 
ROOT
HETATM    1  C1  UNL     1     -38.922  14.765  -4.242  1.00 20.00     0.021 C 
HETATM    2  C2  UNL     1     -37.771  14.443  -4.343  1.00 20.00    -0.037 C 
HETATM    3  C3  UNL     1     -36.386  14.054  -4.465  1.00 20.00     0.235 C 
HETATM    4  O10 UNL     1     -36.095  12.874  -4.612  1.00 20.00    -0.280 OA
ENDROOT
BRANCH   3   5
HETATM    5  C8  UNL     1     -35.375  15.162  -4.401  1.00 20.00     0.129 C 
HETATM    6  C6  UNL     1     -33.999  14.583  -4.055  1.00 20.00     0.047 C 
HETATM    7  C4  UNL     1     -33.028  15.659  -3.577  1.00 20.00     0.006 C 
HETATM    8  C5  UNL     1     -33.668  16.498  -2.478  1.00 20.00     0.026 C 
HETATM    9  C7  UNL     1     -35.026  17.023  -2.920  1.00 20.00     0.169 C 
HETATM   10  O11 UNL     1     -35.887  15.962  -3.330  1.00 20.00    -0.372 OA
HETATM   11  C9  UNL     1     -35.395  15.918  -5.730  1.00 20.00     0.055 C 
ENDBRANCH   3   5
TORSDOF 1
ENDMDL
MODEL 4
REMARK VINA RESULT:      -4.5     18.442     20.046
REMARK  1 active torsions:
REMARK  status: ('A' for Active; 'I' for Inactive)
REMARK    1  A    between atoms: C3_3  and  C8_8 
ROOT
HETATM    1  C1  UNL     1     -38.518  14.789  -4.169  1.00 20.00     0.021 C 
HETATM    2  C2  UNL     1     -37.425  14.333  -4.367  1.00 20.00    -0.037 C 
HETATM    3  C3  UNL     1     -36.111  13.783  -4.604  1.00 20.00     0.235 C 
HETATM    4  O10 UNL     1     -35.917  12.584  -4.456  1.00 20.00    -0.280 OA
ENDROOT
BRANCH   3   5
HETATM    5  C8  UNL     1     -35.050  14.756  -5.030  1.00 20.00     0.129 C 
HETATM    6  C6  UNL     1     -35.588  16.187  -4.909  1.00 20.00     0.047 C 
HETATM    7  C4  UNL     1     -34.740  17.185  -5.693  1.00 20.00     0.006 C 
HETATM    8  C5  UNL     1     -34.531  16.695  -7.119  1.00 20.00     0.026 C 
HETATM    9  C7  UNL     1     -33.998  15.269  -7.129  1.00 20.00     0.169 C 
HETATM   10  O11 UNL     1     -34.851  14.390  -6.398  1.00 20.00    -0.372 OA
HETATM   11  C9  UNL     1     -33.796  14.510  -4.191  1.00 20.00     0.055 C 
ENDBRANCH   3   5
TORSDOF 1
ENDMDL
MODEL 5
REMARK VINA RESULT:      -4.3     18.134     20.007
REMARK  1 active torsions:
REMARK  status: ('A' for Active; 'I' for Inactive)
REMARK    1  A    between atoms: C3_3  and  C8_8 
ROOT
HETATM    1  C1  UNL     1     -33.282  14.754  -4.139  1.00 20.00     0.021 C 
HETATM    2  C2  UNL     1     -34.401  14.336  -4.253  1.00 20.00    -0.037 C 
HETATM    3  C3  UNL     1     -35.747  13.833  -4.392  1.00 20.00     0.235 C 
HETATM    4  O10 UNL     1     -35.964  12.634  -4.278  1.00 20.00    -0.280 OA
ENDROOT
BRANCH   3   5
HETATM    5  C8  UNL     1     -36.814  14.853  -4.672  1.00 20.00     0.129 C 
HETATM    6  C6  UNL     1     -36.720  15.987  -3.645  1.00 20.00     0.047 C 
HETATM    7  C4  UNL     1     -37.992  16.830  -3.608  1.00 20.00     0.006 C 
HETATM    8  C5  UNL     1     -39.216  15.935  -3.468  1.00 20.00     0.026 C 
HETATM    9  C7  UNL     1     -39.213  14.845  -4.530  1.00 20.00     0.169 C 
HETATM   10  O11 UNL     1     -38.007  14.084  -4.492  1.00 20.00    -0.372 OA
HETATM   11  C9  UNL     1     -36.663  15.332  -6.116  1.00 20.00     0.055 C 
ENDBRANCH   3   5
TORSDOF 1
ENDMDL
MODEL 6
REMARK VINA RESULT:      -4.2     17.011     18.573
REMARK  1 active torsions:
REMARK  status: ('A' for Active; 'I' for Inactive)
REMARK    1  A    between atoms: C3_3  and  C8_8 
ROOT
HETATM    1  C1  UNL     1     -33.833  15.389  -7.918  1.00 20.00     0.021 C 
HETATM    2  C2  UNL     1     -34.305  15.092  -6.855  1.00 20.00    -0.037 C 
HETATM    3  C3  UNL     1     -34.874  14.734  -5.578  1.00 20.00     0.235 C 
HETATM    4  O10 UNL     1     -35.826  13.967  -5.528  1.00 20.00    -0.280 OA
ENDROOT
BRANCH   3   5
HETATM    5  C8  UNL     1     -34.232  15.350  -4.368  1.00 20.00     0.129 C 
HETATM    6  C6  UNL     1     -35.144  15.159  -3.150  1.00 20.00     0.047 C 
HETATM    7  C4  UNL     1     -34.767  16.090  -2.002  1.00 20.00     0.006 C 
HETATM    8  C5  UNL     1     -34.652  17.525  -2.500  1.00 20.00     0.026 C 
HETATM    9  C7  UNL     1     -33.729  17.606  -3.707  1.00 20.00     0.169 C 
HETATM   10  O11 UNL     1     -34.154  16.727  -4.748  1.00 20.00    -0.372 OA
HETATM   11  C9  UNL     1     -32.845  14.735  -4.185  1.00 20.00     0.055 C 
ENDBRANCH   3   5
TORSDOF 1
ENDMDL
MODEL 7
REMARK VINA RESULT:      -4.2     16.867     18.877
REMARK  1 active torsions:
REMARK  status: ('A' for Active; 'I' for Inactive)
REMARK    1  A    between atoms: C3_3  and  C8_8 
ROOT
HETATM    1  C1  UNL     1     -36.374  17.337  -6.592  1.00 20.00     0.021 C 
HETATM    2  C2  UNL     1     -36.084  16.251  -6.172  1.00 20.00    -0.037 C 
HETATM    3  C3  UNL     1     -35.737  14.944  -5.666  1.00 20.00     0.235 C 
HETATM    4  O10 UNL     1     -36.010  13.946  -6.319  1.00 20.00    -0.280 OA
ENDROOT
BRANCH   3   5
HETATM    5  C8  UNL     1     -35.042  14.908  -4.336  1.00 20.00     0.129 C 
HETATM    6  C6  UNL     1     -35.873  15.677  -3.302  1.00 20.00     0.047 C 
HETATM    7  C4  UNL     1     -35.058  16.031  -2.062  1.00 20.00     0.006 C 
HETATM    8  C5  UNL     1     -33.749  16.700  -2.461  1.00 20.00     0.026 C 
HETATM    9  C7  UNL     1     -33.003  15.860  -3.488  1.00 20.00     0.169 C 
HETATM   10  O11 UNL     1     -33.817  15.588  -4.628  1.00 20.00    -0.372 OA
HETATM   11  C9  UNL     1     -34.799  13.449  -3.950  1.00 20.00     0.055 C 
ENDBRANCH   3   5
TORSDOF 1
ENDMDL
MODEL 8
REMARK VINA RESULT:      -4.2      1.320      2.018
REMARK  1 active torsions:
REMARK  status: ('A' for Active; 'I' for Inactive)
REMARK    1  A    between atoms: C3_3  and  C8_8 
ROOT
HETATM    1  C1  UNL     1     -25.099  19.212   6.754  1.00 20.00     0.021 C 
HETATM    2  C2  UNL     1     -24.307  18.806   7.559  1.00 20.00    -0.037 C 
HETATM    3  C3  UNL     1     -23.353  18.317   8.527  1.00 20.00     0.235 C 
HETATM    4  O10 UNL     1     -22.191  18.128   8.195  1.00 20.00    -0.280 OA
ENDROOT
BRANCH   3   5
HETATM    5  C8  UNL     1     -23.878  18.071   9.912  1.00 20.00     0.129 C 
HETATM    6  C6  UNL     1     -22.750  18.272  10.931  1.00 20.00     0.047 C 
HETATM    7  C4  UNL     1     -23.087  17.655  12.286  1.00 20.00     0.006 C 
HETATM    8  C5  UNL     1     -23.546  16.214  12.111  1.00 20.00     0.026 C 
HETATM    9  C7  UNL     1     -24.663  16.122  11.081  1.00 20.00     0.169 C 
HETATM   10  O11 UNL     1     -24.271  16.697   9.836  1.00 20.00    -0.372 OA
HETATM   11  C9  UNL     1     -25.078  18.988  10.150  1.00 20.00     0.055 C 
ENDBRANCH   3   5
TORSDOF 1
ENDMDL
MODEL 9
REMARK VINA RESULT:      -4.1     16.387     18.138
REMARK  1 active torsions:
REMARK  status: ('A' for Active; 'I' for Inactive)
REMARK    1  A    between atoms: C3_3  and  C8_8 
ROOT
HETATM    1  C1  UNL     1     -34.031  15.196  -7.662  1.00 20.00     0.021 C 
HETATM    2  C2  UNL     1     -33.924  15.057  -6.474  1.00 20.00    -0.037 C 
HETATM    3  C3  UNL     1     -33.797  14.888  -5.046  1.00 20.00     0.235 C 
HETATM    4  O10 UNL     1     -33.393  13.826  -4.592  1.00 20.00    -0.280 OA
ENDROOT
BRANCH   3   5
HETATM    5  C8  UNL     1     -34.180  16.068  -4.200  1.00 20.00     0.129 C 
HETATM    6  C6  UNL     1     -33.158  16.242  -3.070  1.00 20.00     0.047 C 
HETATM    7  C4  UNL     1     -33.687  17.139  -1.955  1.00 20.00     0.006 C 
HETATM    8  C5  UNL     1     -35.066  16.671  -1.509  1.00 20.00     0.026 C 
HETATM    9  C7  UNL     1     -36.002  16.529  -2.701  1.00 20.00     0.169 C 
HETATM   10  O11 UNL     1     -35.454  15.661  -3.692  1.00 20.00    -0.372 OA
HETATM   11  C9  UNL     1     -34.299  17.297  -5.102  1.00 20.00     0.055 C 
ENDBRANCH   3   5
TORSDOF 1
ENDMDL
