MODEL 1
REMARK VINA RESULT:      -3.4      0.000      0.000
REMARK  4 active torsions:
REMARK  status: ('A' for Active; 'I' for Inactive)
REMARK    1  A    between atoms: C3_3  and  C5_5 
REMARK    2  A    between atoms: C3_3  and  N7_7 
REMARK    3  A    between atoms: C4_4  and  C6_6 
REMARK    4  A    between atoms: C4_4  and  N7_7 
ROOT
HETATM    1  C2  UNL     1     -33.645   4.395   2.776  1.00 20.00     0.310 C 
HETATM    2  N7  UNL     1     -33.841   5.491   3.725  1.00 20.00     0.087 N 
ENDROOT
BRANCH   2   3
HETATM    3  C3  UNL     1     -35.073   5.293   4.487  1.00 20.00     0.303 C 
BRANCH   3   4
HETATM    4  C5  UNL     1     -34.817   5.337   5.978  1.00 20.00     0.252 C 
HETATM    5  F8  UNL     1     -34.466   6.603   6.331  1.00 20.00    -0.254 F 
ENDBRANCH   3   4
ENDBRANCH   2   3
BRANCH   2   6
HETATM    6  C4  UNL     1     -33.874   6.773   3.024  1.00 20.00     0.291 C 
BRANCH   6   7
HETATM    7  C6  UNL     1     -32.519   7.123   2.405  1.00 20.00     0.106 C 
HETATM    8  C1  UNL     1     -32.618   8.152   1.284  1.00 20.00     0.028 C 
HETATM    9 CL9  UNL     1     -31.380   7.707   3.656  1.00 20.00    -0.124 Cl
ENDBRANCH   6   7
ENDBRANCH   2   6
TORSDOF 4
ENDMDL
MODEL 2
REMARK VINA RESULT:      -3.4      2.786      4.330
REMARK  4 active torsions:
REMARK  status: ('A' for Active; 'I' for Inactive)
REMARK    1  A    between atoms: C3_3  and  C5_5 
REMARK    2  A    between atoms: C3_3  and  N7_7 
REMARK    3  A    between atoms: C4_4  and  C6_6 
REMARK    4  A    between atoms: C4_4  and  N7_7 
ROOT
HETATM    1  C2  UNL     1     -32.983   5.119   2.423  1.00 20.00     0.310 C 
HETATM    2  N7  UNL     1     -33.320   6.530   2.616  1.00 20.00     0.087 N 
ENDROOT
BRANCH   2   3
HETATM    3  C3  UNL     1     -32.244   7.384   2.117  1.00 20.00     0.303 C 
BRANCH   3   4
HETATM    4  C5  UNL     1     -32.656   8.118   0.859  1.00 20.00     0.252 C 
HETATM    5  F8  UNL     1     -32.849   9.432   1.155  1.00 20.00    -0.254 F 
ENDBRANCH   3   4
ENDBRANCH   2   3
BRANCH   2   6
HETATM    6  C4  UNL     1     -33.578   6.805   4.028  1.00 20.00     0.291 C 
BRANCH   6   7
HETATM    7  C6  UNL     1     -34.341   5.664   4.705  1.00 20.00     0.106 C 
HETATM    8  C1  UNL     1     -34.477   5.844   6.213  1.00 20.00     0.028 C 
HETATM    9 CL9  UNL     1     -35.962   5.463   3.975  1.00 20.00    -0.124 Cl
ENDBRANCH   6   7
ENDBRANCH   2   6
TORSDOF 4
ENDMDL
MODEL 3
REMARK VINA RESULT:      -3.4     11.769     12.486
REMARK  4 active torsions:
REMARK  status: ('A' for Active; 'I' for Inactive)
REMARK    1  A    between atoms: C3_3  and  C5_5 
REMARK    2  A    between atoms: C3_3  and  N7_7 
REMARK    3  A    between atoms: C4_4  and  C6_6 
REMARK    4  A    between atoms: C4_4  and  N7_7 
ROOT
HETATM    1  C2  UNL     1     -34.137  15.350  -7.276  1.00 20.00     0.310 C 
HETATM    2  N7  UNL     1     -34.614  14.961  -5.949  1.00 20.00     0.087 N 
ENDROOT
BRANCH   2   3
HETATM    3  C3  UNL     1     -35.947  14.368  -6.039  1.00 20.00     0.303 C 
BRANCH   3   4
HETATM    4  C5  UNL     1     -36.462  13.950  -4.679  1.00 20.00     0.252 C 
HETATM    5  F8  UNL     1     -35.621  13.018  -4.154  1.00 20.00    -0.254 F 
ENDBRANCH   3   4
ENDBRANCH   2   3
BRANCH   2   6
HETATM    6  C4  UNL     1     -34.627  16.115  -5.052  1.00 20.00     0.291 C 
BRANCH   6   7
HETATM    7  C6  UNL     1     -33.574  15.996  -3.949  1.00 20.00     0.106 C 
HETATM    8  C1  UNL     1     -34.172  15.959  -2.547  1.00 20.00     0.028 C 
HETATM    9 CL9  UNL     1     -32.548  14.552  -4.202  1.00 20.00    -0.124 Cl
ENDBRANCH   6   7
ENDBRANCH   2   6
TORSDOF 4
ENDMDL
MODEL 4
REMARK VINA RESULT:      -3.3     16.181     16.843
REMARK  4 active torsions:
REMARK  status: ('A' for Active; 'I' for Inactive)
REMARK    1  A    between atoms: C3_3  and  C5_5 
REMARK    2  A    between atoms: C3_3  and  N7_7 
REMARK    3  A    between atoms: C4_4  and  C6_6 
REMARK    4  A    between atoms: C4_4  and  N7_7 
ROOT
HETATM    1  C2  UNL     1     -24.462  16.149  10.917  1.00 20.00     0.310 C 
HETATM    2  N7  UNL     1     -23.810  17.452  10.784  1.00 20.00     0.087 N 
ENDROOT
BRANCH   2   3
HETATM    3  C3  UNL     1     -23.424  17.967  12.096  1.00 20.00     0.303 C 
BRANCH   3   4
HETATM    4  C5  UNL     1     -21.936  17.828  12.332  1.00 20.00     0.252 C 
HETATM    5  F8  UNL     1     -21.297  17.805  11.130  1.00 20.00    -0.254 F 
ENDBRANCH   3   4
ENDBRANCH   2   3
BRANCH   2   6
HETATM    6  C4  UNL     1     -24.694  18.398  10.104  1.00 20.00     0.291 C 
BRANCH   6   7
HETATM    7  C6  UNL     1     -24.124  18.850   8.758  1.00 20.00     0.106 C 
HETATM    8  C1  UNL     1     -22.939  18.009   8.294  1.00 20.00     0.028 C 
HETATM    9 CL9  UNL     1     -25.393  18.846   7.496  1.00 20.00    -0.124 Cl
ENDBRANCH   6   7
ENDBRANCH   2   6
TORSDOF 4
ENDMDL
MODEL 5
REMARK VINA RESULT:      -3.3     11.777     12.358
REMARK  4 active torsions:
REMARK  status: ('A' for Active; 'I' for Inactive)
REMARK    1  A    between atoms: C3_3  and  C5_5 
REMARK    2  A    between atoms: C3_3  and  N7_7 
REMARK    3  A    between atoms: C4_4  and  C6_6 
REMARK    4  A    between atoms: C4_4  and  N7_7 
ROOT
HETATM    1  C2  UNL     1     -33.987  15.036  -6.462  1.00 20.00     0.310 C 
HETATM    2  N7  UNL     1     -34.645  15.132  -5.159  1.00 20.00     0.087 N 
ENDROOT
BRANCH   2   3
HETATM    3  C3  UNL     1     -36.097  15.064  -5.315  1.00 20.00     0.303 C 
BRANCH   3   4
HETATM    4  C5  UNL     1     -36.684  13.903  -4.540  1.00 20.00     0.252 C 
HETATM    5  F8  UNL     1     -35.675  13.093  -4.121  1.00 20.00    -0.254 F 
ENDBRANCH   3   4
ENDBRANCH   2   3
BRANCH   2   6
HETATM    6  C4  UNL     1     -34.261  16.370  -4.483  1.00 20.00     0.291 C 
BRANCH   6   7
HETATM    7  C6  UNL     1     -33.770  16.115  -3.056  1.00 20.00     0.106 C 
HETATM    8  C1  UNL     1     -32.832  17.200  -2.541  1.00 20.00     0.028 C 
HETATM    9 CL9  UNL     1     -35.150  15.931  -1.932  1.00 20.00    -0.124 Cl
ENDBRANCH   6   7
ENDBRANCH   2   6
TORSDOF 4
ENDMDL
MODEL 6
REMARK VINA RESULT:      -3.2     12.336     12.997
REMARK  4 active torsions:
REMARK  status: ('A' for Active; 'I' for Inactive)
REMARK    1  A    between atoms: C3_3  and  C5_5 
REMARK    2  A    between atoms: C3_3  and  N7_7 
REMARK    3  A    between atoms: C4_4  and  C6_6 
REMARK    4  A    between atoms: C4_4  and  N7_7 
ROOT
HETATM    1  C2  UNL     1     -36.920  14.305  -4.368  1.00 20.00     0.310 C 
HETATM    2  N7  UNL     1     -36.282  15.240  -5.295  1.00 20.00     0.087 N 
ENDROOT
BRANCH   2   3
HETATM    3  C3  UNL     1     -35.530  14.513  -6.316  1.00 20.00     0.303 C 
BRANCH   3   4
HETATM    4  C5  UNL     1     -34.611  15.434  -7.089  1.00 20.00     0.252 C 
HETATM    5  F8  UNL     1     -33.413  14.815  -7.272  1.00 20.00    -0.254 F 
ENDBRANCH   3   4
ENDBRANCH   2   3
BRANCH   2   6
HETATM    6  C4  UNL     1     -35.405  16.159  -4.571  1.00 20.00     0.291 C 
BRANCH   6   7
HETATM    7  C6  UNL     1     -34.623  15.451  -3.463  1.00 20.00     0.106 C 
HETATM    8  C1  UNL     1     -33.112  15.546  -3.639  1.00 20.00     0.028 C 
HETATM    9 CL9  UNL     1     -35.081  16.089  -1.855  1.00 20.00    -0.124 Cl
ENDBRANCH   6   7
ENDBRANCH   2   6
TORSDOF 4
ENDMDL
MODEL 7
REMARK VINA RESULT:      -3.2      2.859      4.294
REMARK  4 active torsions:
REMARK  status: ('A' for Active; 'I' for Inactive)
REMARK    1  A    between atoms: C3_3  and  C5_5 
REMARK    2  A    between atoms: C3_3  and  N7_7 
REMARK    3  A    between atoms: C4_4  and  C6_6 
REMARK    4  A    between atoms: C4_4  and  N7_7 
ROOT
HETATM    1  C2  UNL     1     -31.774   7.473   3.707  1.00 20.00     0.310 C 
HETATM    2  N7  UNL     1     -32.802   6.574   3.183  1.00 20.00     0.087 N 
ENDROOT
BRANCH   2   3
HETATM    3  C3  UNL     1     -32.947   6.750   1.739  1.00 20.00     0.303 C 
BRANCH   3   4
HETATM    4  C5  UNL     1     -32.602   8.162   1.315  1.00 20.00     0.252 C 
HETATM    5  F8  UNL     1     -33.220   8.433   0.133  1.00 20.00    -0.254 F 
ENDBRANCH   3   4
ENDBRANCH   2   3
BRANCH   2   6
HETATM    6  C4  UNL     1     -34.078   6.809   3.857  1.00 20.00     0.291 C 
BRANCH   6   7
HETATM    7  C6  UNL     1     -34.717   5.507   4.345  1.00 20.00     0.106 C 
HETATM    8  C1  UNL     1     -34.082   4.261   3.738  1.00 20.00     0.028 C 
HETATM    9 CL9  UNL     1     -34.660   5.401   6.130  1.00 20.00    -0.124 Cl
ENDBRANCH   6   7
ENDBRANCH   2   6
TORSDOF 4
ENDMDL
MODEL 8
REMARK VINA RESULT:      -3.1      2.005      2.355
REMARK  4 active torsions:
REMARK  status: ('A' for Active; 'I' for Inactive)
REMARK    1  A    between atoms: C3_3  and  C5_5 
REMARK    2  A    between atoms: C3_3  and  N7_7 
REMARK    3  A    between atoms: C4_4  and  C6_6 
REMARK    4  A    between atoms: C4_4  and  N7_7 
ROOT
HETATM    1  C2  UNL     1     -33.817   6.913   6.151  1.00 20.00     0.310 C 
HETATM    2  N7  UNL     1     -34.132   6.927   4.723  1.00 20.00     0.087 N 
ENDROOT
BRANCH   2   3
HETATM    3  C3  UNL     1     -35.030   5.824   4.386  1.00 20.00     0.303 C 
BRANCH   3   4
HETATM    4  C5  UNL     1     -34.798   4.626   5.282  1.00 20.00     0.252 C 
HETATM    5  F8  UNL     1     -34.095   3.687   4.592  1.00 20.00    -0.254 F 
ENDBRANCH   3   4
ENDBRANCH   2   3
BRANCH   2   6
HETATM    6  C4  UNL     1     -32.906   6.848   3.929  1.00 20.00     0.291 C 
BRANCH   6   7
HETATM    7  C6  UNL     1     -33.194   6.547   2.457  1.00 20.00     0.106 C 
HETATM    8  C1  UNL     1     -32.419   7.442   1.497  1.00 20.00     0.028 C 
HETATM    9 CL9  UNL     1     -32.857   4.830   2.081  1.00 20.00    -0.124 Cl
ENDBRANCH   6   7
ENDBRANCH   2   6
TORSDOF 4
ENDMDL
MODEL 9
REMARK VINA RESULT:      -3.1     16.109     16.725
REMARK  4 active torsions:
REMARK  status: ('A' for Active; 'I' for Inactive)
REMARK    1  A    between atoms: C3_3  and  C5_5 
REMARK    2  A    between atoms: C3_3  and  N7_7 
REMARK    3  A    between atoms: C4_4  and  C6_6 
REMARK    4  A    between atoms: C4_4  and  N7_7 
ROOT
HETATM    1  C2  UNL     1     -24.295  16.202  10.855  1.00 20.00     0.310 C 
HETATM    2  N7  UNL     1     -23.767  17.527  11.179  1.00 20.00     0.087 N 
ENDROOT
BRANCH   2   3
HETATM    3  C3  UNL     1     -24.513  18.117  12.289  1.00 20.00     0.303 C 
BRANCH   3   4
HETATM    4  C5  UNL     1     -25.733  18.867  11.800  1.00 20.00     0.252 C 
HETATM    5  F8  UNL     1     -26.835  18.091  11.985  1.00 20.00    -0.254 F 
ENDBRANCH   3   4
ENDBRANCH   2   3
BRANCH   2   6
HETATM    6  C4  UNL     1     -23.821  18.399  10.007  1.00 20.00     0.291 C 
BRANCH   6   7
HETATM    7  C6  UNL     1     -22.462  18.512   9.313  1.00 20.00     0.106 C 
HETATM    8  C1  UNL     1     -21.293  18.138  10.218  1.00 20.00     0.028 C 
HETATM    9 CL9  UNL     1     -22.418  17.511   7.831  1.00 20.00    -0.124 Cl
ENDBRANCH   6   7
ENDBRANCH   2   6
TORSDOF 4
ENDMDL
