MODEL 1
REMARK VINA RESULT:      -4.1      0.000      0.000
REMARK  0 active torsions:
REMARK  status: ('A' for Active; 'I' for Inactive)
ROOT
HETATM    1  C1  UNL     1     -22.027  17.799  10.702  1.00 20.00     0.021 C 
HETATM    2  C2  UNL     1     -22.838  17.464  11.952  1.00 20.00     0.010 C 
HETATM    3  C3  UNL     1     -24.229  17.357   9.929  1.00 20.00     0.029 C 
HETATM    4  C4  UNL     1     -22.770  17.068   9.597  1.00 20.00     0.083 C 
HETATM    5  C5  UNL     1     -24.295  17.247  11.470  1.00 20.00    -0.046 C 
HETATM    6  C6  UNL     1     -25.234  18.311  12.049  1.00 20.00     0.015 C 
HETATM    7  C7  UNL     1     -24.793  15.856  11.892  1.00 20.00     0.015 C 
HETATM    8 CL8  UNL     1     -22.318  17.646   7.988  1.00 20.00    -0.125 Cl
ENDROOT
TORSDOF 0
ENDMDL
MODEL 2
REMARK VINA RESULT:      -4.1     22.921     23.875
REMARK  0 active torsions:
REMARK  status: ('A' for Active; 'I' for Inactive)
ROOT
HETATM    1  C1  UNL     1     -42.728   8.226  -1.058  1.00 20.00     0.021 C 
HETATM    2  C2  UNL     1     -43.018   6.728  -1.115  1.00 20.00     0.010 C 
HETATM    3  C3  UNL     1     -41.139   7.218   0.392  1.00 20.00     0.029 C 
HETATM    4  C4  UNL     1     -42.089   8.407   0.308  1.00 20.00     0.083 C 
HETATM    5  C5  UNL     1     -41.939   6.050  -0.231  1.00 20.00    -0.046 C 
HETATM    6  C6  UNL     1     -41.022   5.152  -1.067  1.00 20.00     0.015 C 
HETATM    7  C7  UNL     1     -42.604   5.205   0.866  1.00 20.00     0.015 C 
HETATM    8 CL8  UNL     1     -41.246   9.954   0.456  1.00 20.00    -0.125 Cl
ENDROOT
TORSDOF 0
ENDMDL
MODEL 3
REMARK VINA RESULT:      -4.0     22.948     23.830
REMARK  0 active torsions:
REMARK  status: ('A' for Active; 'I' for Inactive)
ROOT
HETATM    1  C1  UNL     1     -41.916   5.870   0.646  1.00 20.00     0.021 C 
HETATM    2  C2  UNL     1     -42.545   7.219   0.989  1.00 20.00     0.010 C 
HETATM    3  C3  UNL     1     -41.408   7.290  -1.189  1.00 20.00     0.029 C 
HETATM    4  C4  UNL     1     -41.881   5.876  -0.872  1.00 20.00     0.083 C 
HETATM    5  C5  UNL     1     -42.157   8.177  -0.166  1.00 20.00    -0.046 C 
HETATM    6  C6  UNL     1     -41.252   9.309   0.332  1.00 20.00     0.015 C 
HETATM    7  C7  UNL     1     -43.417   8.785  -0.799  1.00 20.00     0.015 C 
HETATM    8 CL8  UNL     1     -40.795   4.641  -1.524  1.00 20.00    -0.125 Cl
ENDROOT
TORSDOF 0
ENDMDL
MODEL 4
REMARK VINA RESULT:      -4.0      1.213      2.283
REMARK  0 active torsions:
REMARK  status: ('A' for Active; 'I' for Inactive)
ROOT
HETATM    1  C1  UNL     1     -25.342  18.890  10.107  1.00 20.00     0.021 C 
HETATM    2  C2  UNL     1     -25.058  18.324  11.497  1.00 20.00     0.010 C 
HETATM    3  C3  UNL     1     -23.656  17.248   9.789  1.00 20.00     0.029 C 
HETATM    4  C4  UNL     1     -24.038  18.660   9.363  1.00 20.00     0.083 C 
HETATM    5  C5  UNL     1     -24.013  17.197  11.293  1.00 20.00    -0.046 C 
HETATM    6  C6  UNL     1     -24.593  15.829  11.666  1.00 20.00     0.015 C 
HETATM    7  C7  UNL     1     -22.768  17.465  12.153  1.00 20.00     0.015 C 
HETATM    8 CL8  UNL     1     -24.231  18.805   7.611  1.00 20.00    -0.125 Cl
ENDROOT
TORSDOF 0
ENDMDL
MODEL 5
REMARK VINA RESULT:      -4.0     23.211     24.143
REMARK  0 active torsions:
REMARK  status: ('A' for Active; 'I' for Inactive)
ROOT
HETATM    1  C1  UNL     1     -42.466   7.224   1.054  1.00 20.00     0.021 C 
HETATM    2  C2  UNL     1     -42.562   5.798   0.518  1.00 20.00     0.010 C 
HETATM    3  C3  UNL     1     -41.751   7.348  -1.208  1.00 20.00     0.029 C 
HETATM    4  C4  UNL     1     -41.391   7.853   0.184  1.00 20.00     0.083 C 
HETATM    5  C5  UNL     1     -42.170   5.877  -0.980  1.00 20.00    -0.046 C 
HETATM    6  C6  UNL     1     -43.351   5.505  -1.882  1.00 20.00     0.015 C 
HETATM    7  C7  UNL     1     -40.997   4.930  -1.274  1.00 20.00     0.015 C 
HETATM    8 CL8  UNL     1     -41.395   9.619   0.282  1.00 20.00    -0.125 Cl
ENDROOT
TORSDOF 0
ENDMDL
MODEL 6
REMARK VINA RESULT:      -4.0     16.215     17.170
REMARK  0 active torsions:
REMARK  status: ('A' for Active; 'I' for Inactive)
ROOT
HETATM    1  C1  UNL     1     -32.875   4.904   2.807  1.00 20.00     0.021 C 
HETATM    2  C2  UNL     1     -34.074   4.264   3.503  1.00 20.00     0.010 C 
HETATM    3  C3  UNL     1     -33.873   6.646   4.075  1.00 20.00     0.029 C 
HETATM    4  C4  UNL     1     -33.269   6.367   2.704  1.00 20.00     0.083 C 
HETATM    5  C5  UNL     1     -34.691   5.373   4.393  1.00 20.00    -0.046 C 
HETATM    6  C6  UNL     1     -34.580   5.016   5.880  1.00 20.00     0.015 C 
HETATM    7  C7  UNL     1     -36.171   5.578   4.037  1.00 20.00     0.015 C 
HETATM    8 CL8  UNL     1     -31.886   7.411   2.353  1.00 20.00    -0.125 Cl
ENDROOT
TORSDOF 0
ENDMDL
MODEL 7
REMARK VINA RESULT:      -3.9      2.394      3.570
REMARK  0 active torsions:
REMARK  status: ('A' for Active; 'I' for Inactive)
ROOT
HETATM    1  C1  UNL     1     -25.646  16.390  12.050  1.00 20.00     0.021 C 
HETATM    2  C2  UNL     1     -24.182  16.018  11.823  1.00 20.00     0.010 C 
HETATM    3  C3  UNL     1     -24.657  18.298  11.040  1.00 20.00     0.029 C 
HETATM    4  C4  UNL     1     -25.608  17.904  12.164  1.00 20.00     0.083 C 
HETATM    5  C5  UNL     1     -23.542  17.228  11.095  1.00 20.00    -0.046 C 
HETATM    6  C6  UNL     1     -23.088  16.847   9.681  1.00 20.00     0.015 C 
HETATM    7  C7  UNL     1     -22.333  17.746  11.887  1.00 20.00     0.015 C 
HETATM    8 CL8  UNL     1     -27.209  18.631  11.977  1.00 20.00    -0.125 Cl
ENDROOT
TORSDOF 0
ENDMDL
MODEL 8
REMARK VINA RESULT:      -3.7     23.038     23.940
REMARK  0 active torsions:
REMARK  status: ('A' for Active; 'I' for Inactive)
ROOT
HETATM    1  C1  UNL     1     -41.671   6.010  -0.704  1.00 20.00     0.021 C 
HETATM    2  C2  UNL     1     -41.438   7.430  -1.219  1.00 20.00     0.010 C 
HETATM    3  C3  UNL     1     -42.933   7.419   0.733  1.00 20.00     0.029 C 
HETATM    4  C4  UNL     1     -41.993   6.219   0.765  1.00 20.00     0.083 C 
HETATM    5  C5  UNL     1     -42.317   8.352  -0.336  1.00 20.00    -0.046 C 
HETATM    6  C6  UNL     1     -43.416   9.028  -1.162  1.00 20.00     0.015 C 
HETATM    7  C7  UNL     1     -41.452   9.435   0.327  1.00 20.00     0.015 C 
HETATM    8 CL8  UNL     1     -42.745   4.795   1.496  1.00 20.00    -0.125 Cl
ENDROOT
TORSDOF 0
ENDMDL
MODEL 9
REMARK VINA RESULT:      -3.7     16.371     17.547
REMARK  0 active torsions:
REMARK  status: ('A' for Active; 'I' for Inactive)
ROOT
HETATM    1  C1  UNL     1     -33.360  17.340  -1.845  1.00 20.00     0.021 C 
HETATM    2  C2  UNL     1     -33.075  17.035  -3.314  1.00 20.00     0.010 C 
HETATM    3  C3  UNL     1     -35.027  15.782  -2.504  1.00 20.00     0.029 C 
HETATM    4  C4  UNL     1     -34.850  17.074  -1.716  1.00 20.00     0.083 C 
HETATM    5  C5  UNL     1     -34.110  15.961  -3.736  1.00 20.00    -0.046 C 
HETATM    6  C6  UNL     1     -33.423  14.640  -4.097  1.00 20.00     0.015 C 
HETATM    7  C7  UNL     1     -34.920  16.451  -4.946  1.00 20.00     0.015 C 
HETATM    8 CL8  UNL     1     -35.359  16.910  -0.030  1.00 20.00    -0.125 Cl
ENDROOT
TORSDOF 0
ENDMDL
