MODEL 1
REMARK VINA RESULT:      -5.0      0.000      0.000
REMARK  3 active torsions:
REMARK  status: ('A' for Active; 'I' for Inactive)
REMARK    1  A    between atoms: C5_5  and  C8_8 
REMARK    2  A    between atoms: C6_6  and  C9_9 
REMARK    3  A    between atoms: C8_8  and  C10_10 
ROOT
HETATM    1  C1  UNL     1     -34.046  14.692  -4.799  1.00 20.00     0.131 C 
HETATM    2  C2  UNL     1     -32.826  15.200  -4.062  1.00 20.00     0.079 C 
HETATM    3  C3  UNL     1     -33.198  16.358  -3.147  1.00 20.00     0.012 C 
HETATM    4  C4  UNL     1     -35.579  15.544  -3.021  1.00 20.00     0.017 C 
HETATM    5  C5  UNL     1     -35.256  14.357  -3.935  1.00 20.00     0.058 C 
HETATM    6  C6  UNL     1     -34.355  15.990  -2.207  1.00 20.00    -0.014 C 
HETATM    7  O11 UNL     1     -34.013  14.483  -6.011  1.00 20.00    -0.298 OA
ENDROOT
BRANCH   5   8
HETATM    8  C8  UNL     1     -36.468  13.982  -4.781  1.00 20.00     0.043 C 
BRANCH   8   9
HETATM    9  C10 UNL     1     -37.651  14.886  -4.493  1.00 20.00     0.223 C 
HETATM   10  F12 UNL     1     -38.756  14.125  -4.273  1.00 20.00    -0.255 F 
ENDBRANCH   8   9
ENDBRANCH   5   8
BRANCH   6  11
HETATM   11  C9  UNL     1     -34.710  17.171  -1.306  1.00 20.00     0.000 C 
HETATM   12  C7  UNL     1     -33.507  17.987  -0.966  1.00 20.00     0.005 C 
ENDBRANCH   6  11
TORSDOF 3
ENDMDL
MODEL 2
REMARK VINA RESULT:      -4.8     14.593     16.798
REMARK  3 active torsions:
REMARK  status: ('A' for Active; 'I' for Inactive)
REMARK    1  A    between atoms: C5_5  and  C8_8 
REMARK    2  A    between atoms: C6_6  and  C9_9 
REMARK    3  A    between atoms: C8_8  and  C10_10 
ROOT
HETATM    1  C1  UNL     1     -23.009  17.814   8.182  1.00 20.00     0.131 C 
HETATM    2  C2  UNL     1     -22.598  16.901   9.317  1.00 20.00     0.079 C 
HETATM    3  C3  UNL     1     -23.020  17.490  10.655  1.00 20.00     0.012 C 
HETATM    4  C4  UNL     1     -24.851  18.813   9.541  1.00 20.00     0.017 C 
HETATM    5  C5  UNL     1     -24.471  18.245   8.169  1.00 20.00     0.058 C 
HETATM    6  C6  UNL     1     -24.515  17.837  10.678  1.00 20.00    -0.014 C 
HETATM    7  O11 UNL     1     -22.220  18.104   7.285  1.00 20.00    -0.298 OA
ENDROOT
BRANCH   5   8
HETATM    8  C8  UNL     1     -24.751  19.262   7.068  1.00 20.00     0.043 C 
BRANCH   8   9
HETATM    9  C10 UNL     1     -26.062  18.973   6.362  1.00 20.00     0.223 C 
HETATM   10  F12 UNL     1     -25.834  18.839   5.028  1.00 20.00    -0.255 F 
ENDBRANCH   8   9
ENDBRANCH   5   8
BRANCH   6  11
HETATM   11  C9  UNL     1     -24.908  18.430  12.030  1.00 20.00     0.000 C 
HETATM   12  C7  UNL     1     -26.169  19.223  11.939  1.00 20.00     0.005 C 
ENDBRANCH   6  11
TORSDOF 3
ENDMDL
MODEL 3
REMARK VINA RESULT:      -4.6      3.811      5.912
REMARK  3 active torsions:
REMARK  status: ('A' for Active; 'I' for Inactive)
REMARK    1  A    between atoms: C5_5  and  C8_8 
REMARK    2  A    between atoms: C6_6  and  C9_9 
REMARK    3  A    between atoms: C8_8  and  C10_10 
ROOT
HETATM    1  C1  UNL     1     -34.417  18.117  -0.751  1.00 20.00     0.131 C 
HETATM    2  C2  UNL     1     -35.420  16.987  -0.830  1.00 20.00     0.079 C 
HETATM    3  C3  UNL     1     -35.385  16.337  -2.205  1.00 20.00     0.012 C 
HETATM    4  C4  UNL     1     -33.012  17.109  -2.553  1.00 20.00     0.017 C 
HETATM    5  C5  UNL     1     -32.993  17.776  -1.174  1.00 20.00     0.058 C 
HETATM    6  C6  UNL     1     -33.964  15.904  -2.594  1.00 20.00    -0.014 C 
HETATM    7  O11 UNL     1     -34.731  19.211  -0.285  1.00 20.00    -0.298 OA
ENDROOT
BRANCH   5   8
HETATM    8  C8  UNL     1     -32.095  19.009  -1.183  1.00 20.00     0.043 C 
BRANCH   8   9
HETATM    9  C10 UNL     1     -31.146  19.016   0.000  1.00 20.00     0.223 C 
HETATM   10  F12 UNL     1     -30.500  17.821   0.065  1.00 20.00    -0.255 F 
ENDBRANCH   8   9
ENDBRANCH   5   8
BRANCH   6  11
HETATM   11  C9  UNL     1     -33.959  15.261  -3.979  1.00 20.00     0.000 C 
HETATM   12  C7  UNL     1     -34.863  14.074  -4.040  1.00 20.00     0.005 C 
ENDBRANCH   6  11
TORSDOF 3
ENDMDL
MODEL 4
REMARK VINA RESULT:      -4.6      4.297      6.393
REMARK  3 active torsions:
REMARK  status: ('A' for Active; 'I' for Inactive)
REMARK    1  A    between atoms: C5_5  and  C8_8 
REMARK    2  A    between atoms: C6_6  and  C9_9 
REMARK    3  A    between atoms: C8_8  and  C10_10 
ROOT
HETATM    1  C1  UNL     1     -31.545  18.633  -0.365  1.00 20.00     0.131 C 
HETATM    2  C2  UNL     1     -31.965  18.523  -1.815  1.00 20.00     0.079 C 
HETATM    3  C3  UNL     1     -33.088  17.507  -1.970  1.00 20.00     0.012 C 
HETATM    4  C4  UNL     1     -33.778  17.844   0.429  1.00 20.00     0.017 C 
HETATM    5  C5  UNL     1     -32.667  18.879   0.637  1.00 20.00     0.058 C 
HETATM    6  C6  UNL     1     -34.262  17.809  -1.029  1.00 20.00    -0.014 C 
HETATM    7  O11 UNL     1     -30.358  18.613  -0.046  1.00 20.00    -0.298 OA
ENDROOT
BRANCH   5   8
HETATM    8  C8  UNL     1     -32.158  18.842   2.075  1.00 20.00     0.043 C 
BRANCH   8   9
HETATM    9  C10 UNL     1     -33.095  18.062   2.977  1.00 20.00     0.223 C 
HETATM   10  F12 UNL     1     -32.497  16.898   3.346  1.00 20.00    -0.255 F 
ENDBRANCH   8   9
ENDBRANCH   5   8
BRANCH   6  11
HETATM   11  C9  UNL     1     -35.370  16.771  -1.203  1.00 20.00     0.000 C 
HETATM   12  C7  UNL     1     -35.073  15.830  -2.323  1.00 20.00     0.005 C 
ENDBRANCH   6  11
TORSDOF 3
ENDMDL
MODEL 5
REMARK VINA RESULT:      -4.4      3.006      4.666
REMARK  3 active torsions:
REMARK  status: ('A' for Active; 'I' for Inactive)
REMARK    1  A    between atoms: C5_5  and  C8_8 
REMARK    2  A    between atoms: C6_6  and  C9_9 
REMARK    3  A    between atoms: C8_8  and  C10_10 
ROOT
HETATM    1  C1  UNL     1     -33.495  17.915  -0.767  1.00 20.00     0.131 C 
HETATM    2  C2  UNL     1     -32.765  17.981  -2.091  1.00 20.00     0.079 C 
HETATM    3  C3  UNL     1     -32.901  16.665  -2.842  1.00 20.00     0.012 C 
HETATM    4  C4  UNL     1     -35.032  16.134  -1.607  1.00 20.00     0.017 C 
HETATM    5  C5  UNL     1     -34.945  17.451  -0.828  1.00 20.00     0.058 C 
HETATM    6  C6  UNL     1     -34.370  16.243  -2.989  1.00 20.00    -0.014 C 
HETATM    7  O11 UNL     1     -32.961  18.302   0.271  1.00 20.00    -0.298 OA
ENDROOT
BRANCH   5   8
HETATM    8  C8  UNL     1     -35.547  17.294   0.565  1.00 20.00     0.043 C 
BRANCH   8   9
HETATM    9  C10 UNL     1     -36.801  18.131   0.728  1.00 20.00     0.223 C 
HETATM   10  F12 UNL     1     -37.681  17.820  -0.262  1.00 20.00    -0.255 F 
ENDBRANCH   8   9
ENDBRANCH   5   8
BRANCH   6  11
HETATM   11  C9  UNL     1     -34.475  14.917  -3.741  1.00 20.00     0.000 C 
HETATM   12  C7  UNL     1     -33.192  14.563  -4.418  1.00 20.00     0.005 C 
ENDBRANCH   6  11
TORSDOF 3
ENDMDL
MODEL 6
REMARK VINA RESULT:      -4.2      2.448      3.191
REMARK  3 active torsions:
REMARK  status: ('A' for Active; 'I' for Inactive)
REMARK    1  A    between atoms: C5_5  and  C8_8 
REMARK    2  A    between atoms: C6_6  and  C9_9 
REMARK    3  A    between atoms: C8_8  and  C10_10 
ROOT
HETATM    1  C1  UNL     1     -35.343  15.625  -3.264  1.00 20.00     0.131 C 
HETATM    2  C2  UNL     1     -35.763  16.636  -2.219  1.00 20.00     0.079 C 
HETATM    3  C3  UNL     1     -34.574  17.043  -1.361  1.00 20.00     0.012 C 
HETATM    4  C4  UNL     1     -32.977  16.427  -3.210  1.00 20.00     0.017 C 
HETATM    5  C5  UNL     1     -34.140  16.009  -4.118  1.00 20.00     0.058 C 
HETATM    6  C6  UNL     1     -33.392  17.522  -2.216  1.00 20.00    -0.014 C 
HETATM    7  O11 UNL     1     -35.999  14.604  -3.457  1.00 20.00    -0.298 OA
ENDROOT
BRANCH   5   8
HETATM    8  C8  UNL     1     -33.719  14.873  -5.045  1.00 20.00     0.043 C 
BRANCH   8   9
HETATM    9  C10 UNL     1     -34.246  15.079  -6.452  1.00 20.00     0.223 C 
HETATM   10  F12 UNL     1     -33.283  14.729  -7.348  1.00 20.00    -0.255 F 
ENDBRANCH   8   9
ENDBRANCH   5   8
BRANCH   6  11
HETATM   11  C9  UNL     1     -32.213  17.918  -1.329  1.00 20.00     0.000 C 
HETATM   12  C7  UNL     1     -32.669  18.478  -0.023  1.00 20.00     0.005 C 
ENDBRANCH   6  11
TORSDOF 3
ENDMDL
MODEL 7
REMARK VINA RESULT:      -4.2      3.400      5.191
REMARK  3 active torsions:
REMARK  status: ('A' for Active; 'I' for Inactive)
REMARK    1  A    between atoms: C5_5  and  C8_8 
REMARK    2  A    between atoms: C6_6  and  C9_9 
REMARK    3  A    between atoms: C8_8  and  C10_10 
ROOT
HETATM    1  C1  UNL     1     -35.704  18.036  -2.102  1.00 20.00     0.131 C 
HETATM    2  C2  UNL     1     -36.787  17.277  -2.837  1.00 20.00     0.079 C 
HETATM    3  C3  UNL     1     -36.175  16.241  -3.768  1.00 20.00     0.012 C 
HETATM    4  C4  UNL     1     -34.088  16.149  -2.359  1.00 20.00     0.017 C 
HETATM    5  C5  UNL     1     -34.661  17.185  -1.386  1.00 20.00     0.058 C 
HETATM    6  C6  UNL     1     -35.195  15.319  -3.029  1.00 20.00    -0.014 C 
HETATM    7  O11 UNL     1     -35.733  19.263  -2.022  1.00 20.00    -0.298 OA
ENDROOT
BRANCH   5   8
HETATM    8  C8  UNL     1     -33.547  18.040  -0.791  1.00 20.00     0.043 C 
BRANCH   8   9
HETATM    9  C10 UNL     1     -32.332  18.082  -1.698  1.00 20.00     0.223 C 
HETATM   10  F12 UNL     1     -31.207  18.166  -0.939  1.00 20.00    -0.255 F 
ENDBRANCH   8   9
ENDBRANCH   5   8
BRANCH   6  11
HETATM   11  C9  UNL     1     -34.593  14.295  -3.988  1.00 20.00     0.000 C 
HETATM   12  C7  UNL     1     -33.179  14.628  -4.336  1.00 20.00     0.005 C 
ENDBRANCH   6  11
TORSDOF 3
ENDMDL
MODEL 8
REMARK VINA RESULT:      -4.2      2.336      3.121
REMARK  3 active torsions:
REMARK  status: ('A' for Active; 'I' for Inactive)
REMARK    1  A    between atoms: C5_5  and  C8_8 
REMARK    2  A    between atoms: C6_6  and  C9_9 
REMARK    3  A    between atoms: C8_8  and  C10_10 
ROOT
HETATM    1  C1  UNL     1     -34.080  17.484  -4.157  1.00 20.00     0.131 C 
HETATM    2  C2  UNL     1     -32.997  18.539  -4.096  1.00 20.00     0.079 C 
HETATM    3  C3  UNL     1     -32.824  19.046  -2.672  1.00 20.00     0.012 C 
HETATM    4  C4  UNL     1     -33.756  16.894  -1.751  1.00 20.00     0.017 C 
HETATM    5  C5  UNL     1     -33.946  16.334  -3.165  1.00 20.00     0.058 C 
HETATM    6  C6  UNL     1     -32.592  17.894  -1.683  1.00 20.00    -0.014 C 
HETATM    7  O11 UNL     1     -34.954  17.522  -5.020  1.00 20.00    -0.298 OA
ENDROOT
BRANCH   5   8
HETATM    8  C8  UNL     1     -35.150  15.399  -3.218  1.00 20.00     0.043 C 
BRANCH   8   9
HETATM    9  C10 UNL     1     -34.808  14.088  -3.900  1.00 20.00     0.223 C 
HETATM   10  F12 UNL     1     -33.481  14.070  -4.199  1.00 20.00    -0.255 F 
ENDBRANCH   8   9
ENDBRANCH   5   8
BRANCH   6  11
HETATM   11  C9  UNL     1     -32.428  18.431  -0.263  1.00 20.00     0.000 C 
HETATM   12  C7  UNL     1     -30.990  18.534   0.126  1.00 20.00     0.005 C 
ENDBRANCH   6  11
TORSDOF 3
ENDMDL
MODEL 9
REMARK VINA RESULT:      -4.2      1.725      2.368
REMARK  3 active torsions:
REMARK  status: ('A' for Active; 'I' for Inactive)
REMARK    1  A    between atoms: C5_5  and  C8_8 
REMARK    2  A    between atoms: C6_6  and  C9_9 
REMARK    3  A    between atoms: C8_8  and  C10_10 
ROOT
HETATM    1  C1  UNL     1     -34.003  17.036  -4.197  1.00 20.00     0.131 C 
HETATM    2  C2  UNL     1     -33.831  18.335  -3.440  1.00 20.00     0.079 C 
HETATM    3  C3  UNL     1     -34.749  18.372  -2.228  1.00 20.00     0.012 C 
HETATM    4  C4  UNL     1     -34.819  15.855  -2.153  1.00 20.00     0.017 C 
HETATM    5  C5  UNL     1     -33.891  15.761  -3.369  1.00 20.00     0.058 C 
HETATM    6  C6  UNL     1     -34.569  17.133  -1.339  1.00 20.00    -0.014 C 
HETATM    7  O11 UNL     1     -34.134  17.028  -5.420  1.00 20.00    -0.298 OA
ENDROOT
BRANCH   5   8
HETATM    8  C8  UNL     1     -34.209  14.520  -4.196  1.00 20.00     0.043 C 
BRANCH   8   9
HETATM    9  C10 UNL     1     -35.686  14.180  -4.144  1.00 20.00     0.223 C 
HETATM   10  F12 UNL     1     -35.839  12.830  -4.212  1.00 20.00    -0.255 F 
ENDBRANCH   8   9
ENDBRANCH   5   8
BRANCH   6  11
HETATM   11  C9  UNL     1     -35.506  17.196  -0.134  1.00 20.00     0.000 C 
HETATM   12  C7  UNL     1     -34.814  17.728   1.077  1.00 20.00     0.005 C 
ENDBRANCH   6  11
TORSDOF 3
ENDMDL
