MODEL 1
REMARK VINA RESULT:      -5.1      0.000      0.000
REMARK  3 active torsions:
REMARK  status: ('A' for Active; 'I' for Inactive)
REMARK    1  A    between atoms: C2_2  and  C9_9 
REMARK    2  A    between atoms: C3_3  and  C6_6 
REMARK    3  A    between atoms: C7_7  and  C9_9 
ROOT
HETATM    1  C4  UNL     1     -36.382  15.733  -5.930  1.00 20.00     0.016 C 
HETATM    2  C5  UNL     1     -35.261  16.679  -5.455  1.00 20.00     0.007 C 
HETATM    3  C6  UNL     1     -35.569  14.566  -5.322  1.00 20.00     0.091 C 
HETATM    4  C7  UNL     1     -34.892  15.616  -4.389  1.00 20.00     0.004 C 
ENDROOT
BRANCH   4   5
HETATM    5  C9  UNL     1     -35.481  15.863  -3.007  1.00 20.00     0.038 C 
BRANCH   5   6
HETATM    6  C2  UNL     1     -34.517  16.560  -2.078  1.00 20.00    -0.093 C 
HETATM    7  C1  UNL     1     -33.233  16.756  -2.419  1.00 20.00     0.014 C 
HETATM    8  C8  UNL     1     -35.045  16.993  -0.741  1.00 20.00     0.042 C 
ENDBRANCH   5   6
ENDBRANCH   4   5
BRANCH   3   9
HETATM    9  C3  UNL     1     -36.360  13.495  -4.661  1.00 20.00     0.177 C 
HETATM   10  O10 UNL     1     -37.583  13.758  -4.486  1.00 20.00    -0.648 OA
HETATM   11  O11 UNL     1     -35.704  12.459  -4.362  1.00 20.00    -0.648 OA
ENDBRANCH   3   9
TORSDOF 3
ENDMDL
MODEL 2
REMARK VINA RESULT:      -5.0      0.077      1.061
REMARK  3 active torsions:
REMARK  status: ('A' for Active; 'I' for Inactive)
REMARK    1  A    between atoms: C2_2  and  C9_9 
REMARK    2  A    between atoms: C3_3  and  C6_6 
REMARK    3  A    between atoms: C7_7  and  C9_9 
ROOT
HETATM    1  C4  UNL     1     -36.365  15.691  -5.997  1.00 20.00     0.016 C 
HETATM    2  C5  UNL     1     -35.286  16.675  -5.504  1.00 20.00     0.007 C 
HETATM    3  C6  UNL     1     -35.552  14.560  -5.322  1.00 20.00     0.091 C 
HETATM    4  C7  UNL     1     -34.938  15.651  -4.393  1.00 20.00     0.004 C 
ENDROOT
BRANCH   4   5
HETATM    5  C9  UNL     1     -35.589  15.922  -3.043  1.00 20.00     0.038 C 
BRANCH   5   6
HETATM    6  C2  UNL     1     -34.637  16.539  -2.050  1.00 20.00    -0.093 C 
HETATM    7  C1  UNL     1     -35.051  16.943  -0.838  1.00 20.00     0.014 C 
HETATM    8  C8  UNL     1     -33.211  16.717  -2.487  1.00 20.00     0.042 C 
ENDBRANCH   5   6
ENDBRANCH   4   5
BRANCH   3   9
HETATM    9  C3  UNL     1     -36.346  13.489  -4.664  1.00 20.00     0.177 C 
HETATM   10  O10 UNL     1     -37.573  13.746  -4.509  1.00 20.00    -0.648 OA
HETATM   11  O11 UNL     1     -35.687  12.460  -4.346  1.00 20.00    -0.648 OA
ENDBRANCH   3   9
TORSDOF 3
ENDMDL
MODEL 3
REMARK VINA RESULT:      -4.7      0.829      1.627
REMARK  3 active torsions:
REMARK  status: ('A' for Active; 'I' for Inactive)
REMARK    1  A    between atoms: C2_2  and  C9_9 
REMARK    2  A    between atoms: C3_3  and  C6_6 
REMARK    3  A    between atoms: C7_7  and  C9_9 
ROOT
HETATM    1  C4  UNL     1     -37.449  16.000  -5.664  1.00 20.00     0.016 C 
HETATM    2  C5  UNL     1     -36.322  17.043  -5.533  1.00 20.00     0.007 C 
HETATM    3  C6  UNL     1     -36.369  14.904  -5.503  1.00 20.00     0.091 C 
HETATM    4  C7  UNL     1     -35.494  15.972  -4.779  1.00 20.00     0.004 C 
ENDROOT
BRANCH   4   5
HETATM    5  C9  UNL     1     -35.554  16.067  -3.260  1.00 20.00     0.038 C 
BRANCH   5   6
HETATM    6  C2  UNL     1     -34.221  16.415  -2.645  1.00 20.00    -0.093 C 
HETATM    7  C1  UNL     1     -34.135  17.169  -1.537  1.00 20.00     0.014 C 
HETATM    8  C8  UNL     1     -32.991  15.913  -3.344  1.00 20.00     0.042 C 
ENDBRANCH   5   6
ENDBRANCH   4   5
BRANCH   3   9
HETATM    9  C3  UNL     1     -36.764  13.711  -4.709  1.00 20.00     0.177 C 
HETATM   10  O10 UNL     1     -35.863  12.838  -4.566  1.00 20.00    -0.648 OA
HETATM   11  O11 UNL     1     -37.951  13.729  -4.281  1.00 20.00    -0.648 OA
ENDBRANCH   3   9
TORSDOF 3
ENDMDL
MODEL 4
REMARK VINA RESULT:      -4.6      1.813      2.675
REMARK  3 active torsions:
REMARK  status: ('A' for Active; 'I' for Inactive)
REMARK    1  A    between atoms: C2_2  and  C9_9 
REMARK    2  A    between atoms: C3_3  and  C6_6 
REMARK    3  A    between atoms: C7_7  and  C9_9 
ROOT
HETATM    1  C4  UNL     1     -33.855  14.566  -4.483  1.00 20.00     0.016 C 
HETATM    2  C5  UNL     1     -33.740  15.554  -3.304  1.00 20.00     0.007 C 
HETATM    3  C6  UNL     1     -35.231  14.146  -3.915  1.00 20.00     0.091 C 
HETATM    4  C7  UNL     1     -35.287  15.536  -3.211  1.00 20.00     0.004 C 
ENDROOT
BRANCH   4   5
HETATM    5  C9  UNL     1     -35.985  16.692  -3.917  1.00 20.00     0.038 C 
BRANCH   5   6
HETATM    6  C2  UNL     1     -37.165  17.222  -3.140  1.00 20.00    -0.093 C 
HETATM    7  C1  UNL     1     -37.002  17.901  -1.994  1.00 20.00     0.014 C 
HETATM    8  C8  UNL     1     -38.533  16.925  -3.684  1.00 20.00     0.042 C 
ENDBRANCH   5   6
ENDBRANCH   4   5
BRANCH   3   9
HETATM    9  C3  UNL     1     -36.290  13.859  -4.917  1.00 20.00     0.177 C 
HETATM   10  O10 UNL     1     -35.915  13.892  -6.122  1.00 20.00    -0.648 OA
HETATM   11  O11 UNL     1     -37.429  13.618  -4.429  1.00 20.00    -0.648 OA
ENDBRANCH   3   9
TORSDOF 3
ENDMDL
MODEL 5
REMARK VINA RESULT:      -4.6      1.843      2.725
REMARK  3 active torsions:
REMARK  status: ('A' for Active; 'I' for Inactive)
REMARK    1  A    between atoms: C2_2  and  C9_9 
REMARK    2  A    between atoms: C3_3  and  C6_6 
REMARK    3  A    between atoms: C7_7  and  C9_9 
ROOT
HETATM    1  C4  UNL     1     -33.936  14.568  -4.330  1.00 20.00     0.016 C 
HETATM    2  C5  UNL     1     -33.881  15.578  -3.166  1.00 20.00     0.007 C 
HETATM    3  C6  UNL     1     -35.340  14.158  -3.825  1.00 20.00     0.091 C 
HETATM    4  C7  UNL     1     -35.431  15.561  -3.152  1.00 20.00     0.004 C 
ENDROOT
BRANCH   4   5
HETATM    5  C9  UNL     1     -36.092  16.703  -3.914  1.00 20.00     0.038 C 
BRANCH   5   6
HETATM    6  C2  UNL     1     -37.344  17.206  -3.239  1.00 20.00    -0.093 C 
HETATM    7  C1  UNL     1     -38.564  16.926  -3.726  1.00 20.00     0.014 C 
HETATM    8  C8  UNL     1     -37.168  18.064  -2.019  1.00 20.00     0.042 C 
ENDBRANCH   5   6
ENDBRANCH   4   5
BRANCH   3   9
HETATM    9  C3  UNL     1     -36.347  13.851  -4.874  1.00 20.00     0.177 C 
HETATM   10  O10 UNL     1     -35.913  13.871  -6.060  1.00 20.00    -0.648 OA
HETATM   11  O11 UNL     1     -37.508  13.610  -4.440  1.00 20.00    -0.648 OA
ENDBRANCH   3   9
TORSDOF 3
ENDMDL
MODEL 6
REMARK VINA RESULT:      -4.6      1.533      2.111
REMARK  3 active torsions:
REMARK  status: ('A' for Active; 'I' for Inactive)
REMARK    1  A    between atoms: C2_2  and  C9_9 
REMARK    2  A    between atoms: C3_3  and  C6_6 
REMARK    3  A    between atoms: C7_7  and  C9_9 
ROOT
HETATM    1  C4  UNL     1     -33.662  14.691  -4.875  1.00 20.00     0.016 C 
HETATM    2  C5  UNL     1     -33.298  15.465  -3.593  1.00 20.00     0.007 C 
HETATM    3  C6  UNL     1     -34.838  14.065  -4.089  1.00 20.00     0.091 C 
HETATM    4  C7  UNL     1     -34.772  15.302  -3.142  1.00 20.00     0.004 C 
ENDROOT
BRANCH   4   5
HETATM    5  C9  UNL     1     -35.667  16.500  -3.431  1.00 20.00     0.038 C 
BRANCH   5   6
HETATM    6  C2  UNL     1     -36.107  17.214  -2.178  1.00 20.00    -0.093 C 
HETATM    7  C1  UNL     1     -37.128  18.086  -2.189  1.00 20.00     0.014 C 
HETATM    8  C8  UNL     1     -35.331  16.937  -0.923  1.00 20.00     0.042 C 
ENDBRANCH   5   6
ENDBRANCH   4   5
BRANCH   3   9
HETATM    9  C3  UNL     1     -36.100  13.869  -4.849  1.00 20.00     0.177 C 
HETATM   10  O10 UNL     1     -37.123  13.641  -4.145  1.00 20.00    -0.648 OA
HETATM   11  O11 UNL     1     -35.982  13.957  -6.103  1.00 20.00    -0.648 OA
ENDBRANCH   3   9
TORSDOF 3
ENDMDL
MODEL 7
REMARK VINA RESULT:      -4.5      1.576      2.204
REMARK  3 active torsions:
REMARK  status: ('A' for Active; 'I' for Inactive)
REMARK    1  A    between atoms: C2_2  and  C9_9 
REMARK    2  A    between atoms: C3_3  and  C6_6 
REMARK    3  A    between atoms: C7_7  and  C9_9 
ROOT
HETATM    1  C4  UNL     1     -38.097  16.180  -3.977  1.00 20.00     0.016 C 
HETATM    2  C5  UNL     1     -37.160  17.343  -3.597  1.00 20.00     0.007 C 
HETATM    3  C6  UNL     1     -37.024  15.731  -4.997  1.00 20.00     0.091 C 
HETATM    4  C7  UNL     1     -35.978  16.490  -4.125  1.00 20.00     0.004 C 
ENDROOT
BRANCH   4   5
HETATM    5  C9  UNL     1     -35.214  15.721  -3.055  1.00 20.00     0.038 C 
BRANCH   5   6
HETATM    6  C2  UNL     1     -33.718  15.831  -3.215  1.00 20.00    -0.093 C 
HETATM    7  C1  UNL     1     -33.012  16.779  -2.577  1.00 20.00     0.014 C 
HETATM    8  C8  UNL     1     -33.055  14.858  -4.147  1.00 20.00     0.042 C 
ENDBRANCH   5   6
ENDBRANCH   4   5
BRANCH   3   9
HETATM    9  C3  UNL     1     -36.836  14.264  -5.143  1.00 20.00     0.177 C 
HETATM   10  O10 UNL     1     -35.973  13.913  -5.995  1.00 20.00    -0.648 OA
HETATM   11  O11 UNL     1     -37.567  13.560  -4.392  1.00 20.00    -0.648 OA
ENDBRANCH   3   9
TORSDOF 3
ENDMDL
MODEL 8
REMARK VINA RESULT:      -4.5      1.373      1.605
REMARK  3 active torsions:
REMARK  status: ('A' for Active; 'I' for Inactive)
REMARK    1  A    between atoms: C2_2  and  C9_9 
REMARK    2  A    between atoms: C3_3  and  C6_6 
REMARK    3  A    between atoms: C7_7  and  C9_9 
ROOT
HETATM    1  C4  UNL     1     -37.786  14.933  -4.370  1.00 20.00     0.016 C 
HETATM    2  C5  UNL     1     -37.632  16.365  -3.818  1.00 20.00     0.007 C 
HETATM    3  C6  UNL     1     -36.388  15.097  -5.012  1.00 20.00     0.091 C 
HETATM    4  C7  UNL     1     -36.096  16.183  -3.932  1.00 20.00     0.004 C 
ENDROOT
BRANCH   4   5
HETATM    5  C9  UNL     1     -35.402  15.771  -2.641  1.00 20.00     0.038 C 
BRANCH   5   6
HETATM    6  C2  UNL     1     -34.158  16.579  -2.364  1.00 20.00    -0.093 C 
HETATM    7  C1  UNL     1     -33.068  16.476  -3.142  1.00 20.00     0.014 C 
HETATM    8  C8  UNL     1     -34.178  17.476  -1.161  1.00 20.00     0.042 C 
ENDBRANCH   5   6
ENDBRANCH   4   5
BRANCH   3   9
HETATM    9  C3  UNL     1     -35.520  13.891  -5.001  1.00 20.00     0.177 C 
HETATM   10  O10 UNL     1     -36.069  12.835  -4.579  1.00 20.00    -0.648 OA
HETATM   11  O11 UNL     1     -34.343  14.081  -5.418  1.00 20.00    -0.648 OA
ENDBRANCH   3   9
TORSDOF 3
ENDMDL
MODEL 9
REMARK VINA RESULT:      -4.4      2.030      2.781
REMARK  3 active torsions:
REMARK  status: ('A' for Active; 'I' for Inactive)
REMARK    1  A    between atoms: C2_2  and  C9_9 
REMARK    2  A    between atoms: C3_3  and  C6_6 
REMARK    3  A    between atoms: C7_7  and  C9_9 
ROOT
HETATM    1  C4  UNL     1     -36.223  13.967  -5.525  1.00 20.00     0.016 C 
HETATM    2  C5  UNL     1     -36.915  14.255  -4.177  1.00 20.00     0.007 C 
HETATM    3  C6  UNL     1     -35.786  15.452  -5.546  1.00 20.00     0.091 C 
HETATM    4  C7  UNL     1     -35.940  15.446  -3.994  1.00 20.00     0.004 C 
ENDROOT
BRANCH   4   5
HETATM    5  C9  UNL     1     -34.719  15.150  -3.133  1.00 20.00     0.038 C 
BRANCH   5   6
HETATM    6  C2  UNL     1     -34.333  16.310  -2.251  1.00 20.00    -0.093 C 
HETATM    7  C1  UNL     1     -35.123  16.722  -1.247  1.00 20.00     0.014 C 
HETATM    8  C8  UNL     1     -33.042  17.010  -2.565  1.00 20.00     0.042 C 
ENDBRANCH   5   6
ENDBRANCH   4   5
BRANCH   3   9
HETATM    9  C3  UNL     1     -34.428  15.725  -6.083  1.00 20.00     0.177 C 
HETATM   10  O10 UNL     1     -33.748  14.702  -6.376  1.00 20.00    -0.648 OA
HETATM   11  O11 UNL     1     -34.132  16.949  -6.178  1.00 20.00    -0.648 OA
ENDBRANCH   3   9
TORSDOF 3
ENDMDL
