MODEL 1
REMARK VINA RESULT:      -5.6      0.000      0.000
REMARK  2 active torsions:
REMARK  status: ('A' for Active; 'I' for Inactive)
REMARK    1  A    between atoms: C1_1  and  C5_5 
REMARK    2  A    between atoms: C6_6  and  C10_10 
ROOT
HETATM    1  C2  UNL     1     -34.104  14.943  -4.641  1.00 20.00     0.016 C 
HETATM    2  C3  UNL     1     -33.111  15.604  -3.685  1.00 20.00     0.005 C 
HETATM    3  C4  UNL     1     -35.034  16.358  -2.220  1.00 20.00     0.009 C 
HETATM    4  C5  UNL     1     -35.378  14.532  -3.911  1.00 20.00     0.090 C 
HETATM    5  C6  UNL     1     -33.737  16.783  -2.927  1.00 20.00    -0.014 C 
HETATM    6  C7  UNL     1     -36.050  15.700  -3.172  1.00 20.00    -0.004 C 
HETATM    7  C8  UNL     1     -36.681  16.745  -4.102  1.00 20.00     0.011 C 
ENDROOT
BRANCH   4   8
HETATM    8  C1  UNL     1     -36.333  13.895  -4.905  1.00 20.00     0.177 C 
HETATM    9  O11 UNL     1     -37.437  13.516  -4.424  1.00 20.00    -0.648 OA
HETATM   10  O12 UNL     1     -35.897  13.827  -6.088  1.00 20.00    -0.648 OA
ENDBRANCH   4   8
BRANCH   5  11
HETATM   11  C10 UNL     1     -32.742  17.359  -1.920  1.00 20.00     0.000 C 
HETATM   12  C9  UNL     1     -33.436  18.062  -0.800  1.00 20.00     0.005 C 
ENDBRANCH   5  11
TORSDOF 2
ENDMDL
MODEL 2
REMARK VINA RESULT:      -5.4      0.899      1.333
REMARK  2 active torsions:
REMARK  status: ('A' for Active; 'I' for Inactive)
REMARK    1  A    between atoms: C1_1  and  C5_5 
REMARK    2  A    between atoms: C6_6  and  C10_10 
ROOT
HETATM    1  C2  UNL     1     -33.560  15.522  -4.157  1.00 20.00     0.016 C 
HETATM    2  C3  UNL     1     -32.963  16.347  -3.018  1.00 20.00     0.005 C 
HETATM    3  C4  UNL     1     -35.182  16.261  -1.801  1.00 20.00     0.009 C 
HETATM    4  C5  UNL     1     -34.698  14.638  -3.657  1.00 20.00     0.090 C 
HETATM    5  C6  UNL     1     -34.030  17.162  -2.273  1.00 20.00    -0.014 C 
HETATM    6  C7  UNL     1     -35.802  15.431  -2.940  1.00 20.00    -0.004 C 
HETATM    7  C8  UNL     1     -36.636  16.321  -3.872  1.00 20.00     0.011 C 
ENDROOT
BRANCH   4   8
HETATM    8  C1  UNL     1     -35.264  13.852  -4.827  1.00 20.00     0.177 C 
HETATM    9  O11 UNL     1     -34.961  14.295  -5.969  1.00 20.00    -0.648 OA
HETATM   10  O12 UNL     1     -35.966  12.854  -4.504  1.00 20.00    -0.648 OA
ENDBRANCH   4   8
BRANCH   5  11
HETATM   11  C10 UNL     1     -33.408  17.902  -1.090  1.00 20.00     0.000 C 
HETATM   12  C9  UNL     1     -31.966  18.207  -1.327  1.00 20.00     0.005 C 
ENDBRANCH   5  11
TORSDOF 2
ENDMDL
MODEL 3
REMARK VINA RESULT:      -5.3      1.290      1.524
REMARK  2 active torsions:
REMARK  status: ('A' for Active; 'I' for Inactive)
REMARK    1  A    between atoms: C1_1  and  C5_5 
REMARK    2  A    between atoms: C6_6  and  C10_10 
ROOT
HETATM    1  C2  UNL     1     -34.456  14.617  -3.594  1.00 20.00     0.016 C 
HETATM    2  C3  UNL     1     -33.672  15.820  -3.072  1.00 20.00     0.005 C 
HETATM    3  C4  UNL     1     -35.256  17.373  -4.295  1.00 20.00     0.009 C 
HETATM    4  C5  UNL     1     -35.911  14.986  -3.867  1.00 20.00     0.090 C 
HETATM    5  C6  UNL     1     -33.785  17.033  -4.008  1.00 20.00    -0.014 C 
HETATM    6  C7  UNL     1     -36.057  16.173  -4.831  1.00 20.00    -0.004 C 
HETATM    7  C8  UNL     1     -35.657  15.854  -6.278  1.00 20.00     0.011 C 
ENDROOT
BRANCH   4   8
HETATM    8  C1  UNL     1     -36.639  13.762  -4.394  1.00 20.00     0.177 C 
HETATM    9  O11 UNL     1     -37.892  13.882  -4.492  1.00 20.00    -0.648 OA
HETATM   10  O12 UNL     1     -35.895  12.780  -4.669  1.00 20.00    -0.648 OA
ENDBRANCH   4   8
BRANCH   5  11
HETATM   11  C10 UNL     1     -33.062  18.239  -3.409  1.00 20.00     0.000 C 
HETATM   12  C9  UNL     1     -32.586  17.963  -2.021  1.00 20.00     0.005 C 
ENDBRANCH   5  11
TORSDOF 2
ENDMDL
MODEL 4
REMARK VINA RESULT:      -5.2      1.022      2.119
REMARK  2 active torsions:
REMARK  status: ('A' for Active; 'I' for Inactive)
REMARK    1  A    between atoms: C1_1  and  C5_5 
REMARK    2  A    between atoms: C6_6  and  C10_10 
ROOT
HETATM    1  C2  UNL     1     -35.607  14.900  -2.941  1.00 20.00     0.016 C 
HETATM    2  C3  UNL     1     -35.154  16.100  -2.111  1.00 20.00     0.005 C 
HETATM    3  C4  UNL     1     -33.418  16.652  -3.870  1.00 20.00     0.009 C 
HETATM    4  C5  UNL     1     -35.332  15.122  -4.425  1.00 20.00     0.090 C 
HETATM    5  C6  UNL     1     -33.684  16.459  -2.369  1.00 20.00    -0.014 C 
HETATM    6  C7  UNL     1     -33.859  15.446  -4.719  1.00 20.00    -0.004 C 
HETATM    7  C8  UNL     1     -32.907  14.259  -4.516  1.00 20.00     0.011 C 
ENDROOT
BRANCH   4   8
HETATM    8  C1  UNL     1     -35.787  13.899  -5.200  1.00 20.00     0.177 C 
HETATM    9  O11 UNL     1     -35.984  12.863  -4.505  1.00 20.00    -0.648 OA
HETATM   10  O12 UNL     1     -35.911  14.076  -6.444  1.00 20.00    -0.648 OA
ENDBRANCH   4   8
BRANCH   5  11
HETATM   11  C10 UNL     1     -33.295  17.714  -1.589  1.00 20.00     0.000 C 
HETATM   12  C9  UNL     1     -32.464  18.640  -2.415  1.00 20.00     0.005 C 
ENDBRANCH   5  11
TORSDOF 2
ENDMDL
MODEL 5
REMARK VINA RESULT:      -5.0      1.308      1.983
REMARK  2 active torsions:
REMARK  status: ('A' for Active; 'I' for Inactive)
REMARK    1  A    between atoms: C1_1  and  C5_5 
REMARK    2  A    between atoms: C6_6  and  C10_10 
ROOT
HETATM    1  C2  UNL     1     -33.134  16.216  -3.503  1.00 20.00     0.016 C 
HETATM    2  C3  UNL     1     -32.885  17.152  -2.321  1.00 20.00     0.005 C 
HETATM    3  C4  UNL     1     -35.215  16.666  -1.455  1.00 20.00     0.009 C 
HETATM    4  C5  UNL     1     -34.155  15.141  -3.147  1.00 20.00     0.090 C 
HETATM    5  C6  UNL     1     -34.187  17.761  -1.782  1.00 20.00    -0.014 C 
HETATM    6  C7  UNL     1     -35.485  15.721  -2.640  1.00 20.00    -0.004 C 
HETATM    7  C8  UNL     1     -36.310  16.429  -3.724  1.00 20.00     0.011 C 
ENDROOT
BRANCH   4   8
HETATM    8  C1  UNL     1     -34.376  14.249  -4.356  1.00 20.00     0.177 C 
HETATM    9  O11 UNL     1     -33.811  14.633  -5.418  1.00 20.00    -0.648 OA
HETATM   10  O12 UNL     1     -35.097  13.235  -4.142  1.00 20.00    -0.648 OA
ENDBRANCH   4   8
BRANCH   5  11
HETATM   11  C10 UNL     1     -33.906  18.619  -0.549  1.00 20.00     0.000 C 
HETATM   12  C9  UNL     1     -34.392  17.962   0.701  1.00 20.00     0.005 C 
ENDBRANCH   5  11
TORSDOF 2
ENDMDL
MODEL 6
REMARK VINA RESULT:      -4.6      1.263      2.492
REMARK  2 active torsions:
REMARK  status: ('A' for Active; 'I' for Inactive)
REMARK    1  A    between atoms: C1_1  and  C5_5 
REMARK    2  A    between atoms: C6_6  and  C10_10 
ROOT
HETATM    1  C2  UNL     1     -36.241  15.387  -4.393  1.00 20.00     0.016 C 
HETATM    2  C3  UNL     1     -36.261  16.186  -3.091  1.00 20.00     0.005 C 
HETATM    3  C4  UNL     1     -33.732  16.300  -3.130  1.00 20.00     0.009 C 
HETATM    4  C5  UNL     1     -34.999  15.712  -5.217  1.00 20.00     0.090 C 
HETATM    5  C6  UNL     1     -34.974  15.997  -2.276  1.00 20.00    -0.014 C 
HETATM    6  C7  UNL     1     -33.691  15.495  -4.441  1.00 20.00    -0.004 C 
HETATM    7  C8  UNL     1     -33.367  14.020  -4.165  1.00 20.00     0.011 C 
ENDROOT
BRANCH   4   8
HETATM    8  C1  UNL     1     -35.021  14.884  -6.490  1.00 20.00     0.177 C 
HETATM    9  O11 UNL     1     -35.921  14.001  -6.543  1.00 20.00    -0.648 OA
HETATM   10  O12 UNL     1     -34.133  15.189  -7.335  1.00 20.00    -0.648 OA
ENDBRANCH   4   8
BRANCH   5  11
HETATM   11  C10 UNL     1     -34.996  16.878  -1.028  1.00 20.00     0.000 C 
HETATM   12  C9  UNL     1     -33.824  17.803  -0.986  1.00 20.00     0.005 C 
ENDBRANCH   5  11
TORSDOF 2
ENDMDL
MODEL 7
REMARK VINA RESULT:      -4.5     16.643     17.813
REMARK  2 active torsions:
REMARK  status: ('A' for Active; 'I' for Inactive)
REMARK    1  A    between atoms: C1_1  and  C5_5 
REMARK    2  A    between atoms: C6_6  and  C10_10 
ROOT
HETATM    1  C2  UNL     1     -24.670  18.666   8.851  1.00 20.00     0.016 C 
HETATM    2  C3  UNL     1     -25.743  19.263   9.761  1.00 20.00     0.005 C 
HETATM    3  C4  UNL     1     -24.652  18.158  11.761  1.00 20.00     0.009 C 
HETATM    4  C5  UNL     1     -23.372  18.427   9.616  1.00 20.00     0.090 C 
HETATM    5  C6  UNL     1     -25.973  18.412  11.018  1.00 20.00    -0.014 C 
HETATM    6  C7  UNL     1     -23.563  17.546  10.861  1.00 20.00    -0.004 C 
HETATM    7  C8  UNL     1     -23.880  16.078  10.543  1.00 20.00     0.011 C 
ENDROOT
BRANCH   4   8
HETATM    8  C1  UNL     1     -22.347  17.822   8.673  1.00 20.00     0.177 C 
HETATM    9  O11 UNL     1     -21.294  17.396   9.223  1.00 20.00    -0.648 OA
HETATM   10  O12 UNL     1     -22.683  17.823   7.456  1.00 20.00    -0.648 OA
ENDBRANCH   4   8
BRANCH   5  11
HETATM   11  C10 UNL     1     -26.987  19.087  11.942  1.00 20.00     0.000 C 
HETATM   12  C9  UNL     1     -28.318  19.235  11.284  1.00 20.00     0.005 C 
ENDBRANCH   5  11
TORSDOF 2
ENDMDL
MODEL 8
REMARK VINA RESULT:      -4.4      1.806      2.538
REMARK  2 active torsions:
REMARK  status: ('A' for Active; 'I' for Inactive)
REMARK    1  A    between atoms: C1_1  and  C5_5 
REMARK    2  A    between atoms: C6_6  and  C10_10 
ROOT
HETATM    1  C2  UNL     1     -34.485  15.588  -2.698  1.00 20.00     0.016 C 
HETATM    2  C3  UNL     1     -35.012  16.750  -1.858  1.00 20.00     0.005 C 
HETATM    3  C4  UNL     1     -37.058  16.887  -3.345  1.00 20.00     0.009 C 
HETATM    4  C5  UNL     1     -35.628  14.821  -3.355  1.00 20.00     0.090 C 
HETATM    5  C6  UNL     1     -35.928  17.679  -2.668  1.00 20.00    -0.014 C 
HETATM    6  C7  UNL     1     -36.541  15.718  -4.204  1.00 20.00    -0.004 C 
HETATM    7  C8  UNL     1     -35.884  16.236  -5.491  1.00 20.00     0.011 C 
ENDROOT
BRANCH   4   8
HETATM    8  C1  UNL     1     -35.050  13.689  -4.185  1.00 20.00     0.177 C 
HETATM    9  O11 UNL     1     -33.809  13.758  -4.401  1.00 20.00    -0.648 OA
HETATM   10  O12 UNL     1     -35.890  12.820  -4.553  1.00 20.00    -0.648 OA
ENDBRANCH   4   8
BRANCH   5  11
HETATM   11  C10 UNL     1     -36.504  18.776  -1.773  1.00 20.00     0.000 C 
HETATM   12  C9  UNL     1     -37.142  18.209  -0.549  1.00 20.00     0.005 C 
ENDBRANCH   5  11
TORSDOF 2
ENDMDL
MODEL 9
REMARK VINA RESULT:      -4.3      1.226      2.224
REMARK  2 active torsions:
REMARK  status: ('A' for Active; 'I' for Inactive)
REMARK    1  A    between atoms: C1_1  and  C5_5 
REMARK    2  A    between atoms: C6_6  and  C10_10 
ROOT
HETATM    1  C2  UNL     1     -36.197  16.628  -4.178  1.00 20.00     0.016 C 
HETATM    2  C3  UNL     1     -35.573  17.420  -3.030  1.00 20.00     0.005 C 
HETATM    3  C4  UNL     1     -33.479  16.007  -3.204  1.00 20.00     0.009 C 
HETATM    4  C5  UNL     1     -35.124  16.061  -5.102  1.00 20.00     0.090 C 
HETATM    5  C6  UNL     1     -34.536  16.593  -2.255  1.00 20.00    -0.014 C 
HETATM    6  C7  UNL     1     -34.091  15.197  -4.361  1.00 20.00    -0.004 C 
HETATM    7  C8  UNL     1     -34.647  13.858  -3.856  1.00 20.00     0.011 C 
ENDROOT
BRANCH   4   8
HETATM    8  C1  UNL     1     -35.795  15.276  -6.215  1.00 20.00     0.177 C 
HETATM    9  O11 UNL     1     -37.030  15.071  -6.060  1.00 20.00    -0.648 OA
HETATM   10  O12 UNL     1     -35.026  14.928  -7.155  1.00 20.00    -0.648 OA
ENDBRANCH   4   8
BRANCH   5  11
HETATM   11  C10 UNL     1     -33.873  17.445  -1.174  1.00 20.00     0.000 C 
HETATM   12  C9  UNL     1     -32.516  17.907  -1.591  1.00 20.00     0.005 C 
ENDBRANCH   5  11
TORSDOF 2
ENDMDL
