MODEL 1
REMARK VINA RESULT:      -4.9      0.000      0.000
REMARK  5 active torsions:
REMARK  status: ('A' for Active; 'I' for Inactive)
REMARK    1  A    between atoms: C2_2  and  C6_6 
REMARK    2  A    between atoms: C3_3  and  C7_7 
REMARK    3  A    between atoms: C3_3  and  O10_10 
REMARK    4  A    between atoms: C6_6  and  C8_8 
REMARK    5  A    between atoms: C7_7  and  C8_8 
ROOT
HETATM    1  C1  UNL     1     -32.988  17.625  -1.750  1.00 20.00    -0.111 C 
HETATM    2  C2  UNL     1     -33.799  16.797  -2.063  1.00 20.00    -0.107 C 
HETATM    3  C4  UNL     1     -32.003  18.635  -1.368  1.00 20.00     0.112 C 
ENDROOT
BRANCH   2   4
HETATM    4  C6  UNL     1     -34.790  15.780  -2.449  1.00 20.00     0.098 C 
BRANCH   4   5
HETATM    5  C8  UNL     1     -34.500  15.115  -3.809  1.00 20.00     0.002 C 
HETATM    6  C5  UNL     1     -32.995  15.052  -4.094  1.00 20.00     0.011 C 
BRANCH   5   7
HETATM    7  C7  UNL     1     -35.122  13.719  -3.957  1.00 20.00     0.115 C 
BRANCH   7   8
HETATM    8  C3  UNL     1     -36.307  13.708  -4.892  1.00 20.00     0.139 C 
HETATM    9  O9  UNL     1     -37.473  13.698  -4.519  1.00 20.00    -0.650 OA
BRANCH   8  10
HETATM   10  O10 UNL     1     -35.940  13.717  -6.197  1.00 20.00    -0.776 OA
HETATM   11  H22 UNL     1     -35.031  14.042  -6.371  1.00 20.00     0.167 HD
ENDBRANCH   8  10
ENDBRANCH   7   8
ENDBRANCH   5   7
ENDBRANCH   4   5
ENDBRANCH   2   4
TORSDOF 5
ENDMDL
MODEL 2
REMARK VINA RESULT:      -4.9      0.990      1.483
REMARK  5 active torsions:
REMARK  status: ('A' for Active; 'I' for Inactive)
REMARK    1  A    between atoms: C2_2  and  C6_6 
REMARK    2  A    between atoms: C3_3  and  C7_7 
REMARK    3  A    between atoms: C3_3  and  O10_10 
REMARK    4  A    between atoms: C6_6  and  C8_8 
REMARK    5  A    between atoms: C7_7  and  C8_8 
ROOT
HETATM    1  C1  UNL     1     -32.649  17.688  -1.801  1.00 20.00    -0.111 C 
HETATM    2  C2  UNL     1     -32.912  16.854  -2.623  1.00 20.00    -0.107 C 
HETATM    3  C4  UNL     1     -32.327  18.700  -0.796  1.00 20.00     0.112 C 
ENDROOT
BRANCH   2   4
HETATM    4  C6  UNL     1     -33.237  15.837  -3.635  1.00 20.00     0.098 C 
BRANCH   4   5
HETATM    5  C8  UNL     1     -34.570  15.107  -3.376  1.00 20.00     0.002 C 
HETATM    6  C5  UNL     1     -35.412  15.831  -2.320  1.00 20.00     0.011 C 
BRANCH   5   7
HETATM    7  C7  UNL     1     -35.403  14.878  -4.647  1.00 20.00     0.115 C 
BRANCH   7   8
HETATM    8  C3  UNL     1     -36.358  13.717  -4.512  1.00 20.00     0.139 C 
HETATM    9  O9  UNL     1     -37.577  13.833  -4.495  1.00 20.00    -0.650 OA
BRANCH   8  10
HETATM   10  O10 UNL     1     -35.719  12.525  -4.418  1.00 20.00    -0.776 OA
HETATM   11  H22 UNL     1     -35.796  12.080  -3.547  1.00 20.00     0.167 HD
ENDBRANCH   8  10
ENDBRANCH   7   8
ENDBRANCH   5   7
ENDBRANCH   4   5
ENDBRANCH   2   4
TORSDOF 5
ENDMDL
MODEL 3
REMARK VINA RESULT:      -4.8     10.911     11.875
REMARK  5 active torsions:
REMARK  status: ('A' for Active; 'I' for Inactive)
REMARK    1  A    between atoms: C2_2  and  C6_6 
REMARK    2  A    between atoms: C3_3  and  C7_7 
REMARK    3  A    between atoms: C3_3  and  O10_10 
REMARK    4  A    between atoms: C6_6  and  C8_8 
REMARK    5  A    between atoms: C7_7  and  C8_8 
ROOT
HETATM    1  C1  UNL     1     -32.768   8.195   1.178  1.00 20.00    -0.111 C 
HETATM    2  C2  UNL     1     -32.756   7.357   2.038  1.00 20.00    -0.107 C 
HETATM    3  C4  UNL     1     -32.786   9.219   0.135  1.00 20.00     0.112 C 
ENDROOT
BRANCH   2   4
HETATM    4  C6  UNL     1     -32.738   6.326   3.088  1.00 20.00     0.098 C 
BRANCH   4   5
HETATM    5  C8  UNL     1     -33.623   5.105   2.773  1.00 20.00     0.002 C 
HETATM    6  C5  UNL     1     -32.960   4.178   1.747  1.00 20.00     0.011 C 
BRANCH   5   7
HETATM    7  C7  UNL     1     -34.031   4.303   4.018  1.00 20.00     0.115 C 
BRANCH   7   8
HETATM    8  C3  UNL     1     -34.995   5.056   4.902  1.00 20.00     0.139 C 
HETATM    9  O9  UNL     1     -34.822   5.242   6.100  1.00 20.00    -0.650 OA
BRANCH   8  10
HETATM   10  O10 UNL     1     -36.076   5.513   4.224  1.00 20.00    -0.776 OA
HETATM   11  H22 UNL     1     -36.943   5.226   4.583  1.00 20.00     0.167 HD
ENDBRANCH   8  10
ENDBRANCH   7   8
ENDBRANCH   5   7
ENDBRANCH   4   5
ENDBRANCH   2   4
TORSDOF 5
ENDMDL
MODEL 4
REMARK VINA RESULT:      -4.7      1.010      1.052
REMARK  5 active torsions:
REMARK  status: ('A' for Active; 'I' for Inactive)
REMARK    1  A    between atoms: C2_2  and  C6_6 
REMARK    2  A    between atoms: C3_3  and  C7_7 
REMARK    3  A    between atoms: C3_3  and  O10_10 
REMARK    4  A    between atoms: C6_6  and  C8_8 
REMARK    5  A    between atoms: C7_7  and  C8_8 
ROOT
HETATM    1  C1  UNL     1     -33.344  17.291  -1.823  1.00 20.00    -0.111 C 
HETATM    2  C2  UNL     1     -34.012  16.467  -2.385  1.00 20.00    -0.107 C 
HETATM    3  C4  UNL     1     -32.533  18.293  -1.135  1.00 20.00     0.112 C 
ENDROOT
BRANCH   2   4
HETATM    4  C6  UNL     1     -34.830  15.460  -3.079  1.00 20.00     0.098 C 
BRANCH   4   5
HETATM    5  C8  UNL     1     -34.352  15.152  -4.512  1.00 20.00     0.002 C 
HETATM    6  C5  UNL     1     -33.090  14.282  -4.510  1.00 20.00     0.011 C 
BRANCH   5   7
HETATM    7  C7  UNL     1     -35.432  14.510  -5.397  1.00 20.00     0.115 C 
BRANCH   7   8
HETATM    8  C3  UNL     1     -36.334  13.578  -4.625  1.00 20.00     0.139 C 
HETATM    9  O9  UNL     1     -37.496  13.836  -4.334  1.00 20.00    -0.650 OA
BRANCH   8  10
HETATM   10  O10 UNL     1     -35.721  12.416  -4.292  1.00 20.00    -0.776 OA
HETATM   11  H22 UNL     1     -36.277  11.781  -3.792  1.00 20.00     0.167 HD
ENDBRANCH   8  10
ENDBRANCH   7   8
ENDBRANCH   5   7
ENDBRANCH   4   5
ENDBRANCH   2   4
TORSDOF 5
ENDMDL
MODEL 5
REMARK VINA RESULT:      -4.7      1.805      2.054
REMARK  5 active torsions:
REMARK  status: ('A' for Active; 'I' for Inactive)
REMARK    1  A    between atoms: C2_2  and  C6_6 
REMARK    2  A    between atoms: C3_3  and  C7_7 
REMARK    3  A    between atoms: C3_3  and  O10_10 
REMARK    4  A    between atoms: C6_6  and  C8_8 
REMARK    5  A    between atoms: C7_7  and  C8_8 
ROOT
HETATM    1  C1  UNL     1     -35.211  16.753  -0.948  1.00 20.00    -0.111 C 
HETATM    2  C2  UNL     1     -34.845  16.170  -1.932  1.00 20.00    -0.107 C 
HETATM    3  C4  UNL     1     -35.656  17.467   0.247  1.00 20.00     0.112 C 
ENDROOT
BRANCH   2   4
HETATM    4  C6  UNL     1     -34.396  15.450  -3.134  1.00 20.00     0.098 C 
BRANCH   4   5
HETATM    5  C8  UNL     1     -35.198  15.800  -4.403  1.00 20.00     0.002 C 
HETATM    6  C5  UNL     1     -34.513  16.905  -5.215  1.00 20.00     0.011 C 
BRANCH   5   7
HETATM    7  C7  UNL     1     -35.485  14.588  -5.304  1.00 20.00     0.115 C 
BRANCH   7   8
HETATM    8  C3  UNL     1     -36.400  13.583  -4.648  1.00 20.00     0.139 C 
HETATM    9  O9  UNL     1     -37.589  13.780  -4.432  1.00 20.00    -0.650 OA
BRANCH   8  10
HETATM   10  O10 UNL     1     -35.763  12.430  -4.328  1.00 20.00    -0.776 OA
HETATM   11  H22 UNL     1     -35.999  11.657  -4.883  1.00 20.00     0.167 HD
ENDBRANCH   8  10
ENDBRANCH   7   8
ENDBRANCH   5   7
ENDBRANCH   4   5
ENDBRANCH   2   4
TORSDOF 5
ENDMDL
MODEL 6
REMARK VINA RESULT:      -4.6      1.353      2.103
REMARK  5 active torsions:
REMARK  status: ('A' for Active; 'I' for Inactive)
REMARK    1  A    between atoms: C2_2  and  C6_6 
REMARK    2  A    between atoms: C3_3  and  C7_7 
REMARK    3  A    between atoms: C3_3  and  O10_10 
REMARK    4  A    between atoms: C6_6  and  C8_8 
REMARK    5  A    between atoms: C7_7  and  C8_8 
ROOT
HETATM    1  C1  UNL     1     -32.175  18.100  -1.405  1.00 20.00    -0.111 C 
HETATM    2  C2  UNL     1     -32.716  17.416  -2.230  1.00 20.00    -0.107 C 
HETATM    3  C4  UNL     1     -31.516  18.937  -0.405  1.00 20.00     0.112 C 
ENDROOT
BRANCH   2   4
HETATM    4  C6  UNL     1     -33.378  16.573  -3.238  1.00 20.00     0.098 C 
BRANCH   4   5
HETATM    5  C8  UNL     1     -34.465  15.647  -2.656  1.00 20.00     0.002 C 
HETATM    6  C5  UNL     1     -35.317  16.371  -1.607  1.00 20.00     0.011 C 
BRANCH   5   7
HETATM    7  C7  UNL     1     -35.371  15.015  -3.723  1.00 20.00     0.115 C 
BRANCH   7   8
HETATM    8  C3  UNL     1     -34.926  13.626  -4.112  1.00 20.00     0.139 C 
HETATM    9  O9  UNL     1     -33.761  13.251  -4.091  1.00 20.00    -0.650 OA
BRANCH   8  10
HETATM   10  O10 UNL     1     -35.960  12.832  -4.483  1.00 20.00    -0.776 OA
HETATM   11  H22 UNL     1     -36.392  13.080  -5.329  1.00 20.00     0.167 HD
ENDBRANCH   8  10
ENDBRANCH   7   8
ENDBRANCH   5   7
ENDBRANCH   4   5
ENDBRANCH   2   4
TORSDOF 5
ENDMDL
MODEL 7
REMARK VINA RESULT:      -4.6     11.082     12.082
REMARK  5 active torsions:
REMARK  status: ('A' for Active; 'I' for Inactive)
REMARK    1  A    between atoms: C2_2  and  C6_6 
REMARK    2  A    between atoms: C3_3  and  C7_7 
REMARK    3  A    between atoms: C3_3  and  O10_10 
REMARK    4  A    between atoms: C6_6  and  C8_8 
REMARK    5  A    between atoms: C7_7  and  C8_8 
ROOT
HETATM    1  C1  UNL     1     -32.773   8.121   1.296  1.00 20.00    -0.111 C 
HETATM    2  C2  UNL     1     -32.737   7.199   2.065  1.00 20.00    -0.107 C 
HETATM    3  C4  UNL     1     -32.813   9.240   0.356  1.00 20.00     0.112 C 
ENDROOT
BRANCH   2   4
HETATM    4  C6  UNL     1     -32.696   6.074   3.011  1.00 20.00     0.098 C 
BRANCH   4   5
HETATM    5  C8  UNL     1     -34.049   5.356   3.183  1.00 20.00     0.002 C 
HETATM    6  C5  UNL     1     -33.860   3.881   3.555  1.00 20.00     0.011 C 
BRANCH   5   7
HETATM    7  C7  UNL     1     -34.984   6.038   4.194  1.00 20.00     0.115 C 
BRANCH   7   8
HETATM    8  C3  UNL     1     -34.397   6.087   5.584  1.00 20.00     0.139 C 
HETATM    9  O9  UNL     1     -33.614   6.947   5.965  1.00 20.00    -0.650 OA
BRANCH   8  10
HETATM   10  O10 UNL     1     -34.837   5.075   6.371  1.00 20.00    -0.776 OA
HETATM   11  H22 UNL     1     -34.137   4.599   6.866  1.00 20.00     0.167 HD
ENDBRANCH   8  10
ENDBRANCH   7   8
ENDBRANCH   5   7
ENDBRANCH   4   5
ENDBRANCH   2   4
TORSDOF 5
ENDMDL
MODEL 8
REMARK VINA RESULT:      -4.6      9.951     11.009
REMARK  5 active torsions:
REMARK  status: ('A' for Active; 'I' for Inactive)
REMARK    1  A    between atoms: C2_2  and  C6_6 
REMARK    2  A    between atoms: C3_3  and  C7_7 
REMARK    3  A    between atoms: C3_3  and  O10_10 
REMARK    4  A    between atoms: C6_6  and  C8_8 
REMARK    5  A    between atoms: C7_7  and  C8_8 
ROOT
HETATM    1  C1  UNL     1     -34.433   5.354   4.858  1.00 20.00    -0.111 C 
HETATM    2  C2  UNL     1     -33.905   5.568   3.801  1.00 20.00    -0.107 C 
HETATM    3  C4  UNL     1     -35.077   5.088   6.143  1.00 20.00     0.112 C 
ENDROOT
BRANCH   2   4
HETATM    4  C6  UNL     1     -33.257   5.837   2.508  1.00 20.00     0.098 C 
BRANCH   4   5
HETATM    5  C8  UNL     1     -32.723   7.276   2.368  1.00 20.00     0.002 C 
HETATM    6  C5  UNL     1     -31.635   7.575   3.406  1.00 20.00     0.011 C 
BRANCH   5   7
HETATM    7  C7  UNL     1     -32.210   7.608   0.958  1.00 20.00     0.115 C 
BRANCH   7   8
HETATM    8  C3  UNL     1     -32.978   8.735   0.313  1.00 20.00     0.139 C 
HETATM    9  O9  UNL     1     -33.689   8.601  -0.675  1.00 20.00    -0.650 OA
BRANCH   8  10
HETATM   10  O10 UNL     1     -32.800   9.919   0.950  1.00 20.00    -0.776 OA
HETATM   11  H22 UNL     1     -32.847  10.712   0.374  1.00 20.00     0.167 HD
ENDBRANCH   8  10
ENDBRANCH   7   8
ENDBRANCH   5   7
ENDBRANCH   4   5
ENDBRANCH   2   4
TORSDOF 5
ENDMDL
MODEL 9
REMARK VINA RESULT:      -4.5      1.491      2.108
REMARK  5 active torsions:
REMARK  status: ('A' for Active; 'I' for Inactive)
REMARK    1  A    between atoms: C2_2  and  C6_6 
REMARK    2  A    between atoms: C3_3  and  C7_7 
REMARK    3  A    between atoms: C3_3  and  O10_10 
REMARK    4  A    between atoms: C6_6  and  C8_8 
REMARK    5  A    between atoms: C7_7  and  C8_8 
ROOT
HETATM    1  C1  UNL     1     -33.611  16.504  -2.527  1.00 20.00    -0.111 C 
HETATM    2  C2  UNL     1     -33.665  15.698  -3.415  1.00 20.00    -0.107 C 
HETATM    3  C4  UNL     1     -33.551  17.484  -1.444  1.00 20.00     0.112 C 
ENDROOT
BRANCH   2   4
HETATM    4  C6  UNL     1     -33.726  14.712  -4.506  1.00 20.00     0.098 C 
BRANCH   4   5
HETATM    5  C8  UNL     1     -34.586  15.162  -5.702  1.00 20.00     0.002 C 
HETATM    6  C5  UNL     1     -33.796  15.110  -7.015  1.00 20.00     0.011 C 
BRANCH   5   7
HETATM    7  C7  UNL     1     -35.898  14.374  -5.848  1.00 20.00     0.115 C 
BRANCH   7   8
HETATM    8  C3  UNL     1     -36.289  13.660  -4.577  1.00 20.00     0.139 C 
HETATM    9  O9  UNL     1     -35.974  12.506  -4.317  1.00 20.00    -0.650 OA
BRANCH   8  10
HETATM   10  O10 UNL     1     -37.025  14.439  -3.747  1.00 20.00    -0.776 OA
HETATM   11  H22 UNL     1     -37.973  14.198  -3.682  1.00 20.00     0.167 HD
ENDBRANCH   8  10
ENDBRANCH   7   8
ENDBRANCH   5   7
ENDBRANCH   4   5
ENDBRANCH   2   4
TORSDOF 5
ENDMDL
