MODEL 1
REMARK VINA RESULT:      -5.3      0.000      0.000
REMARK  3 active torsions:
REMARK  status: ('A' for Active; 'I' for Inactive)
REMARK    1  A    between atoms: C3_3  and  C7_7 
REMARK    2  A    between atoms: C6_6  and  C8_8 
REMARK    3  A    between atoms: C7_7  and  C8_8 
ROOT
HETATM    1  C1  UNL     1     -32.838  17.771  -1.949  1.00 20.00     0.012 C 
HETATM    2  C2  UNL     1     -33.725  16.969  -2.060  1.00 20.00    -0.117 C 
HETATM    3  C6  UNL     1     -34.816  15.991  -2.188  1.00 20.00     0.098 C 
ENDROOT
BRANCH   3   4
HETATM    4  C8  UNL     1     -34.608  14.977  -3.335  1.00 20.00     0.006 C 
HETATM    5  C5  UNL     1     -33.222  15.165  -3.973  1.00 20.00     0.011 C 
BRANCH   4   6
HETATM    6  C7  UNL     1     -35.718  15.009  -4.412  1.00 20.00     0.087 C 
HETATM    7  C4  UNL     1     -36.787  16.072  -4.152  1.00 20.00     0.021 C 
BRANCH   6   8
HETATM    8  C3  UNL     1     -36.509  13.686  -4.488  1.00 20.00     0.177 C 
HETATM    9  O9  UNL     1     -35.820  12.629  -4.567  1.00 20.00    -0.648 OA
HETATM   10  O10 UNL     1     -37.766  13.822  -4.457  1.00 20.00    -0.648 OA
ENDBRANCH   6   8
ENDBRANCH   4   6
ENDBRANCH   3   4
TORSDOF 3
ENDMDL
MODEL 2
REMARK VINA RESULT:      -5.3      0.093      1.026
REMARK  3 active torsions:
REMARK  status: ('A' for Active; 'I' for Inactive)
REMARK    1  A    between atoms: C3_3  and  C7_7 
REMARK    2  A    between atoms: C6_6  and  C8_8 
REMARK    3  A    between atoms: C7_7  and  C8_8 
ROOT
HETATM    1  C1  UNL     1     -32.811  17.773  -2.056  1.00 20.00     0.012 C 
HETATM    2  C2  UNL     1     -33.679  16.947  -2.144  1.00 20.00    -0.117 C 
HETATM    3  C6  UNL     1     -34.745  15.939  -2.246  1.00 20.00     0.098 C 
ENDROOT
BRANCH   3   4
HETATM    4  C8  UNL     1     -34.542  14.936  -3.403  1.00 20.00     0.006 C 
HETATM    5  C5  UNL     1     -33.158  15.127  -4.044  1.00 20.00     0.011 C 
BRANCH   4   6
HETATM    6  C7  UNL     1     -35.655  14.980  -4.477  1.00 20.00     0.087 C 
HETATM    7  C4  UNL     1     -36.677  16.096  -4.248  1.00 20.00     0.021 C 
BRANCH   6   8
HETATM    8  C3  UNL     1     -36.502  13.690  -4.508  1.00 20.00     0.177 C 
HETATM    9  O9  UNL     1     -37.755  13.845  -4.463  1.00 20.00    -0.648 OA
HETATM   10  O10 UNL     1     -35.828  12.621  -4.580  1.00 20.00    -0.648 OA
ENDBRANCH   6   8
ENDBRANCH   4   6
ENDBRANCH   3   4
TORSDOF 3
ENDMDL
MODEL 3
REMARK VINA RESULT:      -5.1     11.221     11.898
REMARK  3 active torsions:
REMARK  status: ('A' for Active; 'I' for Inactive)
REMARK    1  A    between atoms: C3_3  and  C7_7 
REMARK    2  A    between atoms: C6_6  and  C8_8 
REMARK    3  A    between atoms: C7_7  and  C8_8 
ROOT
HETATM    1  C1  UNL     1     -32.909   8.388   0.672  1.00 20.00     0.012 C 
HETATM    2  C2  UNL     1     -32.543   7.879   1.697  1.00 20.00    -0.117 C 
HETATM    3  C6  UNL     1     -32.088   7.262   2.952  1.00 20.00     0.098 C 
ENDROOT
BRANCH   3   4
HETATM    4  C8  UNL     1     -32.935   6.045   3.387  1.00 20.00     0.006 C 
HETATM    5  C5  UNL     1     -33.473   5.296   2.157  1.00 20.00     0.011 C 
BRANCH   4   6
HETATM    6  C7  UNL     1     -34.084   6.395   4.363  1.00 20.00     0.087 C 
HETATM    7  C4  UNL     1     -33.637   7.257   5.545  1.00 20.00     0.021 C 
BRANCH   6   8
HETATM    8  C3  UNL     1     -34.707   5.144   5.020  1.00 20.00     0.177 C 
HETATM    9  O9  UNL     1     -35.107   4.242   4.231  1.00 20.00    -0.648 OA
HETATM   10  O10 UNL     1     -34.735   5.174   6.284  1.00 20.00    -0.648 OA
ENDBRANCH   6   8
ENDBRANCH   4   6
ENDBRANCH   3   4
TORSDOF 3
ENDMDL
MODEL 4
REMARK VINA RESULT:      -4.7     11.015     11.692
REMARK  3 active torsions:
REMARK  status: ('A' for Active; 'I' for Inactive)
REMARK    1  A    between atoms: C3_3  and  C7_7 
REMARK    2  A    between atoms: C6_6  and  C8_8 
REMARK    3  A    between atoms: C7_7  and  C8_8 
ROOT
HETATM    1  C1  UNL     1     -32.917   8.738   0.557  1.00 20.00     0.012 C 
HETATM    2  C2  UNL     1     -32.585   8.016   1.458  1.00 20.00    -0.117 C 
HETATM    3  C6  UNL     1     -32.170   7.131   2.556  1.00 20.00     0.098 C 
ENDROOT
BRANCH   3   4
HETATM    4  C8  UNL     1     -33.280   6.877   3.601  1.00 20.00     0.006 C 
HETATM    5  C5  UNL     1     -32.941   7.577   4.927  1.00 20.00     0.011 C 
BRANCH   4   6
HETATM    6  C7  UNL     1     -33.593   5.379   3.835  1.00 20.00     0.087 C 
HETATM    7  C4  UNL     1     -33.804   4.593   2.540  1.00 20.00     0.021 C 
BRANCH   6   8
HETATM    8  C3  UNL     1     -34.900   5.163   4.627  1.00 20.00     0.177 C 
HETATM    9  O9  UNL     1     -34.769   4.771   5.821  1.00 20.00    -0.648 OA
HETATM   10  O10 UNL     1     -35.956   5.414   3.977  1.00 20.00    -0.648 OA
ENDBRANCH   6   8
ENDBRANCH   4   6
ENDBRANCH   3   4
TORSDOF 3
ENDMDL
MODEL 5
REMARK VINA RESULT:      -4.6      1.150      2.151
REMARK  3 active torsions:
REMARK  status: ('A' for Active; 'I' for Inactive)
REMARK    1  A    between atoms: C3_3  and  C7_7 
REMARK    2  A    between atoms: C6_6  and  C8_8 
REMARK    3  A    between atoms: C7_7  and  C8_8 
ROOT
HETATM    1  C1  UNL     1     -32.403  18.007  -1.247  1.00 20.00     0.012 C 
HETATM    2  C2  UNL     1     -32.835  17.488  -2.241  1.00 20.00    -0.117 C 
HETATM    3  C6  UNL     1     -33.358  16.856  -3.462  1.00 20.00     0.098 C 
ENDROOT
BRANCH   3   4
HETATM    4  C8  UNL     1     -34.640  16.027  -3.231  1.00 20.00     0.006 C 
HETATM    5  C5  UNL     1     -35.125  16.180  -1.780  1.00 20.00     0.011 C 
BRANCH   4   6
HETATM    6  C7  UNL     1     -34.500  14.533  -3.609  1.00 20.00     0.087 C 
HETATM    7  C4  UNL     1     -33.303  14.245  -4.516  1.00 20.00     0.021 C 
BRANCH   6   8
HETATM    8  C3  UNL     1     -35.714  14.005  -4.404  1.00 20.00     0.177 C 
HETATM    9  O9  UNL     1     -36.471  14.881  -4.910  1.00 20.00    -0.648 OA
HETATM   10  O10 UNL     1     -35.801  12.744  -4.455  1.00 20.00    -0.648 OA
ENDBRANCH   6   8
ENDBRANCH   4   6
ENDBRANCH   3   4
TORSDOF 3
ENDMDL
MODEL 6
REMARK VINA RESULT:      -4.6     11.318     12.011
REMARK  3 active torsions:
REMARK  status: ('A' for Active; 'I' for Inactive)
REMARK    1  A    between atoms: C3_3  and  C7_7 
REMARK    2  A    between atoms: C6_6  and  C8_8 
REMARK    3  A    between atoms: C7_7  and  C8_8 
ROOT
HETATM    1  C1  UNL     1     -32.651   8.321   0.980  1.00 20.00     0.012 C 
HETATM    2  C2  UNL     1     -32.603   7.614   1.950  1.00 20.00    -0.117 C 
HETATM    3  C6  UNL     1     -32.537   6.744   3.134  1.00 20.00     0.098 C 
ENDROOT
BRANCH   3   4
HETATM    4  C8  UNL     1     -33.743   6.901   4.086  1.00 20.00     0.006 C 
HETATM    5  C5  UNL     1     -33.266   7.247   5.506  1.00 20.00     0.011 C 
BRANCH   4   6
HETATM    6  C7  UNL     1     -34.691   5.678   4.108  1.00 20.00     0.087 C 
HETATM    7  C4  UNL     1     -35.105   5.254   5.518  1.00 20.00     0.021 C 
BRANCH   6   8
HETATM    8  C3  UNL     1     -34.042   4.413   3.506  1.00 20.00     0.177 C 
HETATM    9  O9  UNL     1     -33.674   4.496   2.300  1.00 20.00    -0.648 OA
HETATM   10  O10 UNL     1     -33.952   3.437   4.306  1.00 20.00    -0.648 OA
ENDBRANCH   6   8
ENDBRANCH   4   6
ENDBRANCH   3   4
TORSDOF 3
ENDMDL
MODEL 7
REMARK VINA RESULT:      -4.6      1.037      1.625
REMARK  3 active torsions:
REMARK  status: ('A' for Active; 'I' for Inactive)
REMARK    1  A    between atoms: C3_3  and  C7_7 
REMARK    2  A    between atoms: C6_6  and  C8_8 
REMARK    3  A    between atoms: C7_7  and  C8_8 
ROOT
HETATM    1  C1  UNL     1     -34.121  17.364  -1.279  1.00 20.00     0.012 C 
HETATM    2  C2  UNL     1     -34.508  16.485  -2.000  1.00 20.00    -0.117 C 
HETATM    3  C6  UNL     1     -34.982  15.404  -2.876  1.00 20.00     0.098 C 
ENDROOT
BRANCH   3   4
HETATM    4  C8  UNL     1     -35.064  15.803  -4.366  1.00 20.00     0.006 C 
HETATM    5  C5  UNL     1     -36.085  16.936  -4.564  1.00 20.00     0.011 C 
BRANCH   4   6
HETATM    6  C7  UNL     1     -35.363  14.622  -5.319  1.00 20.00     0.087 C 
HETATM    7  C4  UNL     1     -36.127  15.034  -6.579  1.00 20.00     0.021 C 
BRANCH   6   8
HETATM    8  C3  UNL     1     -36.256  13.544  -4.668  1.00 20.00     0.177 C 
HETATM    9  O9  UNL     1     -35.680  12.471  -4.332  1.00 20.00    -0.648 OA
HETATM   10  O10 UNL     1     -37.471  13.875  -4.544  1.00 20.00    -0.648 OA
ENDBRANCH   6   8
ENDBRANCH   4   6
ENDBRANCH   3   4
TORSDOF 3
ENDMDL
MODEL 8
REMARK VINA RESULT:      -4.5     15.579     17.764
REMARK  3 active torsions:
REMARK  status: ('A' for Active; 'I' for Inactive)
REMARK    1  A    between atoms: C3_3  and  C7_7 
REMARK    2  A    between atoms: C6_6  and  C8_8 
REMARK    3  A    between atoms: C7_7  and  C8_8 
ROOT
HETATM    1  C1  UNL     1     -26.016  18.904   6.620  1.00 20.00     0.012 C 
HETATM    2  C2  UNL     1     -25.336  19.033   7.602  1.00 20.00    -0.117 C 
HETATM    3  C6  UNL     1     -24.501  19.200   8.800  1.00 20.00     0.098 C 
ENDROOT
BRANCH   3   4
HETATM    4  C8  UNL     1     -24.481  17.959   9.720  1.00 20.00     0.006 C 
HETATM    5  C5  UNL     1     -25.114  18.288  11.081  1.00 20.00     0.011 C 
BRANCH   4   6
HETATM    6  C7  UNL     1     -23.077  17.334   9.902  1.00 20.00     0.087 C 
HETATM    7  C4  UNL     1     -22.362  17.805  11.169  1.00 20.00     0.021 C 
BRANCH   6   8
HETATM    8  C3  UNL     1     -22.108  17.704   8.759  1.00 20.00     0.177 C 
HETATM    9  O9  UNL     1     -22.135  16.956   7.741  1.00 20.00    -0.648 OA
HETATM   10  O10 UNL     1     -21.401  18.729   8.982  1.00 20.00    -0.648 OA
ENDBRANCH   6   8
ENDBRANCH   4   6
ENDBRANCH   3   4
TORSDOF 3
ENDMDL
MODEL 9
REMARK VINA RESULT:      -4.5      1.447      2.103
REMARK  3 active torsions:
REMARK  status: ('A' for Active; 'I' for Inactive)
REMARK    1  A    between atoms: C3_3  and  C7_7 
REMARK    2  A    between atoms: C6_6  and  C8_8 
REMARK    3  A    between atoms: C7_7  and  C8_8 
ROOT
HETATM    1  C1  UNL     1     -36.479  18.063  -0.670  1.00 20.00     0.012 C 
HETATM    2  C2  UNL     1     -36.424  17.545  -1.753  1.00 20.00    -0.117 C 
HETATM    3  C6  UNL     1     -36.363  16.919  -3.082  1.00 20.00     0.098 C 
ENDROOT
BRANCH   3   4
HETATM    4  C8  UNL     1     -35.513  15.629  -3.121  1.00 20.00     0.006 C 
HETATM    5  C5  UNL     1     -34.071  15.923  -2.676  1.00 20.00     0.011 C 
BRANCH   4   6
HETATM    6  C7  UNL     1     -35.530  14.905  -4.488  1.00 20.00     0.087 C 
HETATM    7  C4  UNL     1     -36.109  15.755  -5.619  1.00 20.00     0.021 C 
BRANCH   6   8
HETATM    8  C3  UNL     1     -36.410  13.637  -4.477  1.00 20.00     0.177 C 
HETATM    9  O9  UNL     1     -37.659  13.826  -4.464  1.00 20.00    -0.648 OA
HETATM   10  O10 UNL     1     -35.764  12.549  -4.488  1.00 20.00    -0.648 OA
ENDBRANCH   6   8
ENDBRANCH   4   6
ENDBRANCH   3   4
TORSDOF 3
ENDMDL
