MODEL 1
REMARK VINA RESULT:      -4.1      0.000      0.000
REMARK  3 active torsions:
REMARK  status: ('A' for Active; 'I' for Inactive)
REMARK    1  A    between atoms: C6_6  and  C7_7 
REMARK    2  A    between atoms: C6_6  and  C8_8 
REMARK    3  A    between atoms: C7_7  and  N9_9 
ROOT
HETATM    1  C1  UNL     1     -35.024   5.223   4.117  1.00 20.00     0.050 C 
HETATM    2  C2  UNL     1     -34.287   6.943   5.787  1.00 20.00     0.050 C 
HETATM    3  C3  UNL     1     -33.763   5.531   3.304  1.00 20.00     0.274 C 
HETATM    4  C4  UNL     1     -33.050   7.196   4.919  1.00 20.00     0.274 C 
HETATM    5  C5  UNL     1     -34.856   5.536   5.604  1.00 20.00     0.085 C 
HETATM    6  N9  UNL     1     -33.332   6.921   3.504  1.00 20.00     0.088 N 
HETATM    7 CL11 UNL     1     -33.790   4.324   6.382  1.00 20.00    -0.125 Cl
ENDROOT
BRANCH   6   8
HETATM    8  C7  UNL     1     -32.159   7.216   2.681  1.00 20.00     0.275 C 
BRANCH   8   9
HETATM    9  C6  UNL     1     -32.569   7.408   1.222  1.00 20.00     0.061 C 
BRANCH   9  10
HETATM   10  C8  UNL     1     -32.854   8.868   0.912  1.00 20.00     0.223 C 
HETATM   11  F10 UNL     1     -33.644   8.945  -0.191  1.00 20.00    -0.255 F 
ENDBRANCH   9  10
ENDBRANCH   8   9
ENDBRANCH   6   8
TORSDOF 3
ENDMDL
MODEL 2
REMARK VINA RESULT:      -4.1      1.312      1.988
REMARK  3 active torsions:
REMARK  status: ('A' for Active; 'I' for Inactive)
REMARK    1  A    between atoms: C6_6  and  C7_7 
REMARK    2  A    between atoms: C6_6  and  C8_8 
REMARK    3  A    between atoms: C7_7  and  N9_9 
ROOT
HETATM    1  C1  UNL     1     -34.170   6.078   5.374  1.00 20.00     0.050 C 
HETATM    2  C2  UNL     1     -33.905   4.450   3.484  1.00 20.00     0.050 C 
HETATM    3  C3  UNL     1     -33.555   7.157   4.477  1.00 20.00     0.274 C 
HETATM    4  C4  UNL     1     -33.299   5.582   2.648  1.00 20.00     0.274 C 
HETATM    5  C5  UNL     1     -34.845   4.963   4.575  1.00 20.00     0.085 C 
HETATM    6  N9  UNL     1     -32.625   6.569   3.504  1.00 20.00     0.088 N 
HETATM    7 CL11 UNL     1     -36.377   5.551   3.855  1.00 20.00    -0.125 Cl
ENDROOT
BRANCH   6   8
HETATM    8  C7  UNL     1     -32.007   7.615   2.690  1.00 20.00     0.275 C 
BRANCH   8   9
HETATM    9  C6  UNL     1     -32.576   7.591   1.273  1.00 20.00     0.061 C 
BRANCH   9  10
HETATM   10  C8  UNL     1     -32.938   8.987   0.795  1.00 20.00     0.223 C 
HETATM   11  F10 UNL     1     -33.720   8.893  -0.313  1.00 20.00    -0.255 F 
ENDBRANCH   9  10
ENDBRANCH   8   9
ENDBRANCH   6   8
TORSDOF 3
ENDMDL
MODEL 3
REMARK VINA RESULT:      -3.9     11.697     12.239
REMARK  3 active torsions:
REMARK  status: ('A' for Active; 'I' for Inactive)
REMARK    1  A    between atoms: C6_6  and  C7_7 
REMARK    2  A    between atoms: C6_6  and  C8_8 
REMARK    3  A    between atoms: C7_7  and  N9_9 
ROOT
HETATM    1  C1  UNL     1     -35.659  14.840  -3.622  1.00 20.00     0.050 C 
HETATM    2  C2  UNL     1     -33.220  14.829  -4.207  1.00 20.00     0.050 C 
HETATM    3  C3  UNL     1     -35.416  16.118  -2.812  1.00 20.00     0.274 C 
HETATM    4  C4  UNL     1     -33.057  16.106  -3.378  1.00 20.00     0.274 C 
HETATM    5  C5  UNL     1     -34.640  14.655  -4.746  1.00 20.00     0.085 C 
HETATM    6  N9  UNL     1     -34.044  16.161  -2.290  1.00 20.00     0.088 N 
HETATM    7 CL11 UNL     1     -34.952  15.820  -6.071  1.00 20.00    -0.125 Cl
ENDROOT
BRANCH   6   8
HETATM    8  C7  UNL     1     -33.843  17.359  -1.476  1.00 20.00     0.275 C 
BRANCH   8   9
HETATM    9  C6  UNL     1     -32.541  18.055  -1.868  1.00 20.00     0.061 C 
BRANCH   9  10
HETATM   10  C8  UNL     1     -31.797  18.570  -0.648  1.00 20.00     0.223 C 
HETATM   11  F10 UNL     1     -30.627  17.891  -0.517  1.00 20.00    -0.255 F 
ENDBRANCH   9  10
ENDBRANCH   8   9
ENDBRANCH   6   8
TORSDOF 3
ENDMDL
MODEL 4
REMARK VINA RESULT:      -3.8      9.606     10.442
REMARK  3 active torsions:
REMARK  status: ('A' for Active; 'I' for Inactive)
REMARK    1  A    between atoms: C6_6  and  C7_7 
REMARK    2  A    between atoms: C6_6  and  C8_8 
REMARK    3  A    between atoms: C7_7  and  N9_9 
ROOT
HETATM    1  C1  UNL     1     -40.700   6.139   0.314  1.00 20.00     0.050 C 
HETATM    2  C2  UNL     1     -43.023   7.037   0.615  1.00 20.00     0.050 C 
HETATM    3  C3  UNL     1     -41.170   5.471  -0.982  1.00 20.00     0.274 C 
HETATM    4  C4  UNL     1     -43.417   6.339  -0.690  1.00 20.00     0.274 C 
HETATM    5  C5  UNL     1     -41.532   7.370   0.676  1.00 20.00     0.085 C 
HETATM    6  N9  UNL     1     -42.600   5.139  -0.917  1.00 20.00     0.088 N 
HETATM    7 CL11 UNL     1     -41.149   8.730  -0.426  1.00 20.00    -0.125 Cl
ENDROOT
BRANCH   6   8
HETATM    8  C7  UNL     1     -43.022   4.455  -2.139  1.00 20.00     0.275 C 
BRANCH   8   9
HETATM    9  C6  UNL     1     -41.907   3.543  -2.648  1.00 20.00     0.061 C 
BRANCH   9  10
HETATM   10  C8  UNL     1     -42.345   2.762  -3.876  1.00 20.00     0.223 C 
HETATM   11  F10 UNL     1     -41.294   2.644  -4.729  1.00 20.00    -0.255 F 
ENDBRANCH   9  10
ENDBRANCH   8   9
ENDBRANCH   6   8
TORSDOF 3
ENDMDL
MODEL 5
REMARK VINA RESULT:      -3.8     11.185     11.994
REMARK  3 active torsions:
REMARK  status: ('A' for Active; 'I' for Inactive)
REMARK    1  A    between atoms: C6_6  and  C7_7 
REMARK    2  A    between atoms: C6_6  and  C8_8 
REMARK    3  A    between atoms: C7_7  and  N9_9 
ROOT
HETATM    1  C1  UNL     1     -37.179  14.880  -4.146  1.00 20.00     0.050 C 
HETATM    2  C2  UNL     1     -35.046  13.564  -4.059  1.00 20.00     0.050 C 
HETATM    3  C3  UNL     1     -36.422  16.070  -3.548  1.00 20.00     0.274 C 
HETATM    4  C4  UNL     1     -34.358  14.797  -3.464  1.00 20.00     0.274 C 
HETATM    5  C5  UNL     1     -36.263  13.924  -4.911  1.00 20.00     0.085 C 
HETATM    6  N9  UNL     1     -35.310  15.618  -2.702  1.00 20.00     0.088 N 
HETATM    7 CL11 UNL     1     -35.746  14.659  -6.461  1.00 20.00    -0.125 Cl
ENDROOT
BRANCH   6   8
HETATM    8  C7  UNL     1     -34.630  16.762  -2.097  1.00 20.00     0.275 C 
BRANCH   8   9
HETATM    9  C6  UNL     1     -33.195  16.859  -2.612  1.00 20.00     0.061 C 
BRANCH   9  10
HETATM   10  C8  UNL     1     -32.520  18.136  -2.140  1.00 20.00     0.223 C 
HETATM   11  F10 UNL     1     -31.715  17.853  -1.082  1.00 20.00    -0.255 F 
ENDBRANCH   9  10
ENDBRANCH   8   9
ENDBRANCH   6   8
TORSDOF 3
ENDMDL
MODEL 6
REMARK VINA RESULT:      -3.7     11.683     12.377
REMARK  3 active torsions:
REMARK  status: ('A' for Active; 'I' for Inactive)
REMARK    1  A    between atoms: C6_6  and  C7_7 
REMARK    2  A    between atoms: C6_6  and  C8_8 
REMARK    3  A    between atoms: C7_7  and  N9_9 
ROOT
HETATM    1  C1  UNL     1     -35.254  16.627  -1.160  1.00 20.00     0.050 C 
HETATM    2  C2  UNL     1     -33.868  15.763  -3.063  1.00 20.00     0.050 C 
HETATM    3  C3  UNL     1     -34.317  17.837  -1.081  1.00 20.00     0.274 C 
HETATM    4  C4  UNL     1     -32.977  17.001  -2.922  1.00 20.00     0.274 C 
HETATM    5  C5  UNL     1     -35.289  16.001  -2.554  1.00 20.00     0.085 C 
HETATM    6  N9  UNL     1     -32.965  17.490  -1.537  1.00 20.00     0.088 N 
HETATM    7 CL11 UNL     1     -36.192  17.054  -3.689  1.00 20.00    -0.125 Cl
ENDROOT
BRANCH   6   8
HETATM    8  C7  UNL     1     -32.070  18.639  -1.406  1.00 20.00     0.275 C 
BRANCH   8   9
HETATM    9  C6  UNL     1     -31.002  18.362  -0.350  1.00 20.00     0.061 C 
BRANCH   9  10
HETATM   10  C8  UNL     1     -31.439  18.844   1.023  1.00 20.00     0.223 C 
HETATM   11  F10 UNL     1     -31.661  17.769   1.825  1.00 20.00    -0.255 F 
ENDBRANCH   9  10
ENDBRANCH   8   9
ENDBRANCH   6   8
TORSDOF 3
ENDMDL
MODEL 7
REMARK VINA RESULT:      -3.7     11.648     12.244
REMARK  3 active torsions:
REMARK  status: ('A' for Active; 'I' for Inactive)
REMARK    1  A    between atoms: C6_6  and  C7_7 
REMARK    2  A    between atoms: C6_6  and  C8_8 
REMARK    3  A    between atoms: C7_7  and  N9_9 
ROOT
HETATM    1  C1  UNL     1     -32.978  17.532  -2.047  1.00 20.00     0.050 C 
HETATM    2  C2  UNL     1     -35.158  16.444  -1.450  1.00 20.00     0.050 C 
HETATM    3  C3  UNL     1     -32.986  16.735  -3.356  1.00 20.00     0.274 C 
HETATM    4  C4  UNL     1     -35.094  15.682  -2.777  1.00 20.00     0.274 C 
HETATM    5  C5  UNL     1     -34.384  17.761  -1.490  1.00 20.00     0.085 C 
HETATM    6  N9  UNL     1     -33.703  15.463  -3.196  1.00 20.00     0.088 N 
HETATM    7 CL11 UNL     1     -35.259  18.971  -2.481  1.00 20.00    -0.125 Cl
ENDROOT
BRANCH   6   8
HETATM    8  C7  UNL     1     -33.657  14.690  -4.436  1.00 20.00     0.275 C 
BRANCH   8   9
HETATM    9  C6  UNL     1     -34.934  14.908  -5.245  1.00 20.00     0.061 C 
BRANCH   9  10
HETATM   10  C8  UNL     1     -34.626  15.170  -6.710  1.00 20.00     0.223 C 
HETATM   11  F10 UNL     1     -33.379  14.710  -6.994  1.00 20.00    -0.255 F 
ENDBRANCH   9  10
ENDBRANCH   8   9
ENDBRANCH   6   8
TORSDOF 3
ENDMDL
MODEL 8
REMARK VINA RESULT:      -3.7     11.674     12.134
REMARK  3 active torsions:
REMARK  status: ('A' for Active; 'I' for Inactive)
REMARK    1  A    between atoms: C6_6  and  C7_7 
REMARK    2  A    between atoms: C6_6  and  C8_8 
REMARK    3  A    between atoms: C7_7  and  N9_9 
ROOT
HETATM    1  C1  UNL     1     -35.533  14.470  -4.374  1.00 20.00     0.050 C 
HETATM    2  C2  UNL     1     -33.114  15.060  -4.068  1.00 20.00     0.050 C 
HETATM    3  C3  UNL     1     -35.883  15.540  -3.334  1.00 20.00     0.274 C 
HETATM    4  C4  UNL     1     -33.542  16.110  -3.038  1.00 20.00     0.274 C 
HETATM    5  C5  UNL     1     -34.211  14.754  -5.088  1.00 20.00     0.085 C 
HETATM    6  N9  UNL     1     -34.790  15.717  -2.369  1.00 20.00     0.088 N 
HETATM    7 CL11 UNL     1     -34.400  16.121  -6.232  1.00 20.00    -0.125 Cl
ENDROOT
BRANCH   6   8
HETATM    8  C7  UNL     1     -35.159  16.702  -1.352  1.00 20.00     0.275 C 
BRANCH   8   9
HETATM    9  C6  UNL     1     -33.988  17.643  -1.077  1.00 20.00     0.061 C 
BRANCH   9  10
HETATM   10  C8  UNL     1     -34.133  18.331   0.270  1.00 20.00     0.223 C 
HETATM   11  F10 UNL     1     -34.516  17.417   1.201  1.00 20.00    -0.255 F 
ENDBRANCH   9  10
ENDBRANCH   8   9
ENDBRANCH   6   8
TORSDOF 3
ENDMDL
MODEL 9
REMARK VINA RESULT:      -3.6     11.259     12.083
REMARK  3 active torsions:
REMARK  status: ('A' for Active; 'I' for Inactive)
REMARK    1  A    between atoms: C6_6  and  C7_7 
REMARK    2  A    between atoms: C6_6  and  C8_8 
REMARK    3  A    between atoms: C7_7  and  N9_9 
ROOT
HETATM    1  C1  UNL     1     -37.173  14.929  -4.174  1.00 20.00     0.050 C 
HETATM    2  C2  UNL     1     -35.122  13.486  -4.125  1.00 20.00     0.050 C 
HETATM    3  C3  UNL     1     -36.342  16.059  -3.559  1.00 20.00     0.274 C 
HETATM    4  C4  UNL     1     -34.359  14.663  -3.511  1.00 20.00     0.274 C 
HETATM    5  C5  UNL     1     -36.320  13.934  -4.962  1.00 20.00     0.085 C 
HETATM    6  N9  UNL     1     -35.255  15.525  -2.729  1.00 20.00     0.088 N 
HETATM    7 CL11 UNL     1     -35.768  14.666  -6.502  1.00 20.00    -0.125 Cl
ENDROOT
BRANCH   6   8
HETATM    8  C7  UNL     1     -34.504  16.615  -2.106  1.00 20.00     0.275 C 
BRANCH   8   9
HETATM    9  C6  UNL     1     -33.137  16.765  -2.772  1.00 20.00     0.061 C 
BRANCH   9  10
HETATM   10  C8  UNL     1     -33.050  18.050  -3.576  1.00 20.00     0.223 C 
HETATM   11  F10 UNL     1     -33.696  17.882  -4.760  1.00 20.00    -0.255 F 
ENDBRANCH   9  10
ENDBRANCH   8   9
ENDBRANCH   6   8
TORSDOF 3
ENDMDL
