MODEL 1
REMARK VINA RESULT:      -4.7      0.000      0.000
REMARK  3 active torsions:
REMARK  status: ('A' for Active; 'I' for Inactive)
REMARK    1  A    between atoms: C6_6  and  C7_7 
REMARK    2  A    between atoms: C6_6  and  C8_8 
REMARK    3  A    between atoms: C7_7  and  N9_9 
ROOT
HETATM    1  C1  UNL     1     -33.954   4.282   2.706  1.00 20.00     0.029 C 
HETATM    2  C2  UNL     1     -34.343   4.299   4.181  1.00 20.00     0.023 C 
HETATM    3  C3  UNL     1     -32.829   5.262   2.407  1.00 20.00     0.235 C 
HETATM    4  C4  UNL     1     -33.549   6.692   4.343  1.00 20.00     0.254 C 
HETATM    5  C5  UNL     1     -34.681   5.715   4.640  1.00 20.00     0.108 C 
HETATM    6  N9  UNL     1     -33.229   6.644   2.865  1.00 20.00    -0.070 N 
HETATM    7 CL11 UNL     1     -35.025   5.717   6.393  1.00 20.00    -0.123 Cl
HETATM    8  H27 UNL     1     -34.089   6.896   2.359  1.00 20.00     0.279 HD
ENDROOT
BRANCH   6   9
HETATM    9  C7  UNL     1     -32.199   7.673   2.488  1.00 20.00     0.237 C 
BRANCH   9  10
HETATM   10  C6  UNL     1     -32.235   7.884   0.981  1.00 20.00     0.059 C 
BRANCH  10  11
HETATM   11  C8  UNL     1     -33.011   9.138   0.619  1.00 20.00     0.223 C 
HETATM   12  F10 UNL     1     -33.828   8.869  -0.434  1.00 20.00    -0.255 F 
ENDBRANCH  10  11
ENDBRANCH   9  10
ENDBRANCH   6   9
TORSDOF 3
ENDMDL
MODEL 2
REMARK VINA RESULT:      -4.2     14.994     15.884
REMARK  3 active torsions:
REMARK  status: ('A' for Active; 'I' for Inactive)
REMARK    1  A    between atoms: C6_6  and  C7_7 
REMARK    2  A    between atoms: C6_6  and  C8_8 
REMARK    3  A    between atoms: C7_7  and  N9_9 
ROOT
HETATM    1  C1  UNL     1     -22.599  17.030   9.273  1.00 20.00     0.029 C 
HETATM    2  C2  UNL     1     -23.016  17.477  10.671  1.00 20.00     0.023 C 
HETATM    3  C3  UNL     1     -22.977  18.056   8.216  1.00 20.00     0.235 C 
HETATM    4  C4  UNL     1     -24.875  18.852   9.655  1.00 20.00     0.254 C 
HETATM    5  C5  UNL     1     -24.503  17.820  10.713  1.00 20.00     0.108 C 
HETATM    6  N9  UNL     1     -24.458  18.339   8.294  1.00 20.00    -0.070 N 
HETATM    7 CL11 UNL     1     -24.935  18.442  12.331  1.00 20.00    -0.123 Cl
HETATM    8  H27 UNL     1     -24.948  17.447   8.142  1.00 20.00     0.279 HD
ENDROOT
BRANCH   6   9
HETATM    9  C7  UNL     1     -24.905  19.261   7.194  1.00 20.00     0.237 C 
BRANCH   9  10
HETATM   10  C6  UNL     1     -26.241  18.776   6.650  1.00 20.00     0.059 C 
BRANCH  10  11
HETATM   11  C8  UNL     1     -26.391  19.109   5.176  1.00 20.00     0.223 C 
HETATM   12  F10 UNL     1     -26.415  17.955   4.458  1.00 20.00    -0.255 F 
ENDBRANCH  10  11
ENDBRANCH   9  10
ENDBRANCH   6   9
TORSDOF 3
ENDMDL
MODEL 3
REMARK VINA RESULT:      -3.8     11.645     12.178
REMARK  3 active torsions:
REMARK  status: ('A' for Active; 'I' for Inactive)
REMARK    1  A    between atoms: C6_6  and  C7_7 
REMARK    2  A    between atoms: C6_6  and  C8_8 
REMARK    3  A    between atoms: C7_7  and  N9_9 
ROOT
HETATM    1  C1  UNL     1     -36.409  13.950  -4.659  1.00 20.00     0.029 C 
HETATM    2  C2  UNL     1     -35.859  14.405  -6.008  1.00 20.00     0.023 C 
HETATM    3  C3  UNL     1     -36.136  14.971  -3.565  1.00 20.00     0.235 C 
HETATM    4  C4  UNL     1     -34.109  15.777  -4.809  1.00 20.00     0.254 C 
HETATM    5  C5  UNL     1     -34.376  14.750  -5.904  1.00 20.00     0.108 C 
HETATM    6  N9  UNL     1     -34.655  15.257  -3.498  1.00 20.00    -0.070 N 
HETATM    7 CL11 UNL     1     -33.791  15.382  -7.470  1.00 20.00    -0.123 Cl
HETATM    8  H27 UNL     1     -34.180  14.364  -3.304  1.00 20.00     0.279 HD
ENDROOT
BRANCH   6   9
HETATM    9  C7  UNL     1     -34.318  16.173  -2.355  1.00 20.00     0.237 C 
BRANCH   9  10
HETATM   10  C6  UNL     1     -33.024  16.909  -2.672  1.00 20.00     0.059 C 
BRANCH  10  11
HETATM   11  C8  UNL     1     -32.759  18.016  -1.667  1.00 20.00     0.223 C 
HETATM   12  F10 UNL     1     -31.557  17.798  -1.069  1.00 20.00    -0.255 F 
ENDBRANCH  10  11
ENDBRANCH   9  10
ENDBRANCH   6   9
TORSDOF 3
ENDMDL
MODEL 4
REMARK VINA RESULT:      -3.8     11.418     12.195
REMARK  3 active torsions:
REMARK  status: ('A' for Active; 'I' for Inactive)
REMARK    1  A    between atoms: C6_6  and  C7_7 
REMARK    2  A    between atoms: C6_6  and  C8_8 
REMARK    3  A    between atoms: C7_7  and  N9_9 
ROOT
HETATM    1  C1  UNL     1     -35.172  16.306  -1.455  1.00 20.00     0.029 C 
HETATM    2  C2  UNL     1     -35.155  15.670  -2.842  1.00 20.00     0.023 C 
HETATM    3  C3  UNL     1     -34.416  17.626  -1.429  1.00 20.00     0.235 C 
HETATM    4  C4  UNL     1     -32.974  16.848  -3.332  1.00 20.00     0.254 C 
HETATM    5  C5  UNL     1     -33.725  15.521  -3.356  1.00 20.00     0.108 C 
HETATM    6  N9  UNL     1     -33.008  17.411  -1.928  1.00 20.00    -0.070 N 
HETATM    7 CL11 UNL     1     -33.745  14.877  -5.022  1.00 20.00    -0.123 Cl
HETATM    8  H27 UNL     1     -32.568  16.715  -1.311  1.00 20.00     0.279 HD
ENDROOT
BRANCH   6   9
HETATM    9  C7  UNL     1     -32.182  18.662  -1.813  1.00 20.00     0.237 C 
BRANCH   9  10
HETATM   10  C6  UNL     1     -32.041  19.033  -0.344  1.00 20.00     0.059 C 
BRANCH  10  11
HETATM   11  C8  UNL     1     -30.797  18.410   0.265  1.00 20.00     0.223 C 
HETATM   12  F10 UNL     1     -31.146  17.711   1.377  1.00 20.00    -0.255 F 
ENDBRANCH  10  11
ENDBRANCH   9  10
ENDBRANCH   6   9
TORSDOF 3
ENDMDL
MODEL 5
REMARK VINA RESULT:      -3.8     11.050     11.756
REMARK  3 active torsions:
REMARK  status: ('A' for Active; 'I' for Inactive)
REMARK    1  A    between atoms: C6_6  and  C7_7 
REMARK    2  A    between atoms: C6_6  and  C8_8 
REMARK    3  A    between atoms: C7_7  and  N9_9 
ROOT
HETATM    1  C1  UNL     1     -32.763  17.483  -1.949  1.00 20.00     0.029 C 
HETATM    2  C2  UNL     1     -33.964  18.112  -1.248  1.00 20.00     0.023 C 
HETATM    3  C3  UNL     1     -33.184  16.643  -3.146  1.00 20.00     0.235 C 
HETATM    4  C4  UNL     1     -35.414  16.214  -2.072  1.00 20.00     0.254 C 
HETATM    5  C5  UNL     1     -34.992  17.049  -0.868  1.00 20.00     0.108 C 
HETATM    6  N9  UNL     1     -34.184  15.601  -2.705  1.00 20.00    -0.070 N 
HETATM    7 CL11 UNL     1     -36.431  17.828  -0.150  1.00 20.00    -0.123 Cl
HETATM    8  H27 UNL     1     -33.727  15.024  -1.986  1.00 20.00     0.279 HD
ENDROOT
BRANCH   6   9
HETATM    9  C7  UNL     1     -34.545  14.669  -3.829  1.00 20.00     0.237 C 
BRANCH   9  10
HETATM   10  C6  UNL     1     -33.521  14.814  -4.945  1.00 20.00     0.059 C 
BRANCH  10  11
HETATM   11  C8  UNL     1     -34.196  15.007  -6.291  1.00 20.00     0.223 C 
HETATM   12  F10 UNL     1     -33.305  14.734  -7.280  1.00 20.00    -0.255 F 
ENDBRANCH  10  11
ENDBRANCH   9  10
ENDBRANCH   6   9
TORSDOF 3
ENDMDL
MODEL 6
REMARK VINA RESULT:      -3.7     10.908     11.763
REMARK  3 active torsions:
REMARK  status: ('A' for Active; 'I' for Inactive)
REMARK    1  A    between atoms: C6_6  and  C7_7 
REMARK    2  A    between atoms: C6_6  and  C8_8 
REMARK    3  A    between atoms: C7_7  and  N9_9 
ROOT
HETATM    1  C1  UNL     1     -35.427  17.074  -1.186  1.00 20.00     0.029 C 
HETATM    2  C2  UNL     1     -34.100  17.594  -0.642  1.00 20.00     0.023 C 
HETATM    3  C3  UNL     1     -35.226  15.924  -2.163  1.00 20.00     0.235 C 
HETATM    4  C4  UNL     1     -32.951  16.811  -2.751  1.00 20.00     0.254 C 
HETATM    5  C5  UNL     1     -33.153  17.968  -1.779  1.00 20.00     0.108 C 
HETATM    6  N9  UNL     1     -34.298  16.360  -3.271  1.00 20.00    -0.070 N 
HETATM    7 CL11 UNL     1     -31.573  18.468  -1.111  1.00 20.00    -0.123 Cl
HETATM    8  H27 UNL     1     -34.734  17.171  -3.732  1.00 20.00     0.279 HD
ENDROOT
BRANCH   6   9
HETATM    9  C7  UNL     1     -34.158  15.298  -4.326  1.00 20.00     0.237 C 
BRANCH   9  10
HETATM   10  C6  UNL     1     -34.907  14.051  -3.879  1.00 20.00     0.059 C 
BRANCH  10  11
HETATM   11  C8  UNL     1     -36.074  13.748  -4.802  1.00 20.00     0.223 C 
HETATM   12  F10 UNL     1     -37.235  14.073  -4.174  1.00 20.00    -0.255 F 
ENDBRANCH  10  11
ENDBRANCH   9  10
ENDBRANCH   6   9
TORSDOF 3
ENDMDL
MODEL 7
REMARK VINA RESULT:      -3.7     11.350     12.497
REMARK  3 active torsions:
REMARK  status: ('A' for Active; 'I' for Inactive)
REMARK    1  A    between atoms: C6_6  and  C7_7 
REMARK    2  A    between atoms: C6_6  and  C8_8 
REMARK    3  A    between atoms: C7_7  and  N9_9 
ROOT
HETATM    1  C1  UNL     1     -34.782  14.138  -3.806  1.00 20.00     0.029 C 
HETATM    2  C2  UNL     1     -35.588  14.340  -5.085  1.00 20.00     0.023 C 
HETATM    3  C3  UNL     1     -34.387  15.464  -3.171  1.00 20.00     0.235 C 
HETATM    4  C4  UNL     1     -34.452  16.572  -5.424  1.00 20.00     0.254 C 
HETATM    5  C5  UNL     1     -34.840  15.243  -6.064  1.00 20.00     0.108 C 
HETATM    6  N9  UNL     1     -33.638  16.302  -4.178  1.00 20.00    -0.070 N 
HETATM    7 CL11 UNL     1     -35.856  15.549  -7.501  1.00 20.00    -0.123 Cl
HETATM    8  H27 UNL     1     -32.809  15.764  -4.467  1.00 20.00     0.279 HD
ENDROOT
BRANCH   6   9
HETATM    9  C7  UNL     1     -33.124  17.576  -3.565  1.00 20.00     0.237 C 
BRANCH   9  10
HETATM   10  C6  UNL     1     -32.869  17.348  -2.083  1.00 20.00     0.059 C 
BRANCH  10  11
HETATM   11  C8  UNL     1     -32.082  18.495  -1.476  1.00 20.00     0.223 C 
HETATM   12  F10 UNL     1     -31.011  17.996  -0.802  1.00 20.00    -0.255 F 
ENDBRANCH  10  11
ENDBRANCH   9  10
ENDBRANCH   6   9
TORSDOF 3
ENDMDL
MODEL 8
REMARK VINA RESULT:      -3.7     11.268     11.980
REMARK  3 active torsions:
REMARK  status: ('A' for Active; 'I' for Inactive)
REMARK    1  A    between atoms: C6_6  and  C7_7 
REMARK    2  A    between atoms: C6_6  and  C8_8 
REMARK    3  A    between atoms: C7_7  and  N9_9 
ROOT
HETATM    1  C1  UNL     1     -32.892  15.395  -3.798  1.00 20.00     0.029 C 
HETATM    2  C2  UNL     1     -33.483  16.361  -2.775  1.00 20.00     0.023 C 
HETATM    3  C3  UNL     1     -33.871  15.097  -4.925  1.00 20.00     0.235 C 
HETATM    4  C4  UNL     1     -35.799  15.557  -3.383  1.00 20.00     0.254 C 
HETATM    5  C5  UNL     1     -34.822  15.848  -2.250  1.00 20.00     0.108 C 
HETATM    6  N9  UNL     1     -35.165  14.578  -4.346  1.00 20.00    -0.070 N 
HETATM    7 CL11 UNL     1     -35.537  17.052  -1.140  1.00 20.00    -0.123 Cl
HETATM    8  H27 UNL     1     -34.940  13.728  -3.811  1.00 20.00     0.279 HD
ENDROOT
BRANCH   6   9
HETATM    9  C7  UNL     1     -36.126  14.159  -5.424  1.00 20.00     0.237 C 
BRANCH   9  10
HETATM   10  C6  UNL     1     -35.716  14.811  -6.736  1.00 20.00     0.059 C 
BRANCH  10  11
HETATM   11  C8  UNL     1     -36.607  15.996  -7.064  1.00 20.00     0.223 C 
HETATM   12  F10 UNL     1     -36.120  17.105  -6.448  1.00 20.00    -0.255 F 
ENDBRANCH  10  11
ENDBRANCH   9  10
ENDBRANCH   6   9
TORSDOF 3
ENDMDL
MODEL 9
REMARK VINA RESULT:      -3.6     11.128     12.113
REMARK  3 active torsions:
REMARK  status: ('A' for Active; 'I' for Inactive)
REMARK    1  A    between atoms: C6_6  and  C7_7 
REMARK    2  A    between atoms: C6_6  and  C8_8 
REMARK    3  A    between atoms: C7_7  and  N9_9 
ROOT
HETATM    1  C1  UNL     1     -31.028  18.555   0.276  1.00 20.00     0.029 C 
HETATM    2  C2  UNL     1     -31.979  19.046   1.363  1.00 20.00     0.023 C 
HETATM    3  C3  UNL     1     -31.677  18.587  -1.100  1.00 20.00     0.235 C 
HETATM    4  C4  UNL     1     -33.940  18.306  -0.047  1.00 20.00     0.254 C 
HETATM    5  C5  UNL     1     -33.291  18.267   1.332  1.00 20.00     0.108 C 
HETATM    6  N9  UNL     1     -32.957  17.785  -1.072  1.00 20.00    -0.070 N 
HETATM    7 CL11 UNL     1     -34.422  18.937   2.542  1.00 20.00    -0.123 Cl
HETATM    8  H27 UNL     1     -32.709  16.825  -0.796  1.00 20.00     0.279 HD
ENDROOT
BRANCH   6   9
HETATM    9  C7  UNL     1     -33.579  17.687  -2.438  1.00 20.00     0.237 C 
BRANCH   9  10
HETATM   10  C6  UNL     1     -33.286  16.313  -3.021  1.00 20.00     0.059 C 
BRANCH  10  11
HETATM   11  C8  UNL     1     -34.525  15.436  -3.015  1.00 20.00     0.223 C 
HETATM   12  F10 UNL     1     -35.195  15.616  -1.846  1.00 20.00    -0.255 F 
ENDBRANCH  10  11
ENDBRANCH   9  10
ENDBRANCH   6   9
TORSDOF 3
ENDMDL
