MODEL 1
REMARK VINA RESULT:      -5.1      0.000      0.000
REMARK  5 active torsions:
REMARK  status: ('A' for Active; 'I' for Inactive)
REMARK    1  A    between atoms: C1_1  and  C4_4 
REMARK    2  A    between atoms: C1_1  and  C8_8 
REMARK    3  A    between atoms: C4_4  and  C5_5 
REMARK    4  A    between atoms: C5_5  and  C6_6 
REMARK    5  A    between atoms: C6_6  and  C7_7 
ROOT
HETATM    1  C1  UNL     1     -33.505   5.945   3.384  1.00 20.00     0.130 C 
HETATM    2  O9  UNL     1     -33.576   4.920   2.705  1.00 20.00    -0.298 OA
ENDROOT
BRANCH   1   3
HETATM    3  C4  UNL     1     -32.475   7.029   3.095  1.00 20.00     0.079 C 
BRANCH   3   4
HETATM    4  C5  UNL     1     -32.401   7.424   1.621  1.00 20.00     0.010 C 
BRANCH   4   5
HETATM    5  C6  UNL     1     -32.831   8.875   1.383  1.00 20.00     0.032 C 
BRANCH   5   6
HETATM    6  C7  UNL     1     -33.234   9.106  -0.063  1.00 20.00     0.222 C 
HETATM    7  F10 UNL     1     -33.705   7.945  -0.587  1.00 20.00    -0.255 F 
ENDBRANCH   5   6
ENDBRANCH   4   5
ENDBRANCH   3   4
ENDBRANCH   1   3
BRANCH   1   8
HETATM    8  C8  UNL     1     -34.410   6.173   4.595  1.00 20.00     0.047 C 
HETATM    9  C2  UNL     1     -33.664   6.968   5.661  1.00 20.00     0.017 C 
HETATM   10  C3  UNL     1     -34.913   4.848   5.164  1.00 20.00     0.017 C 
ENDBRANCH   1   8
TORSDOF 5
ENDMDL
MODEL 2
REMARK VINA RESULT:      -5.1      1.398      1.550
REMARK  5 active torsions:
REMARK  status: ('A' for Active; 'I' for Inactive)
REMARK    1  A    between atoms: C1_1  and  C4_4 
REMARK    2  A    between atoms: C1_1  and  C8_8 
REMARK    3  A    between atoms: C4_4  and  C5_5 
REMARK    4  A    between atoms: C5_5  and  C6_6 
REMARK    5  A    between atoms: C6_6  and  C7_7 
ROOT
HETATM    1  C1  UNL     1     -33.653   6.449   4.218  1.00 20.00     0.130 C 
HETATM    2  O9  UNL     1     -33.254   7.284   5.031  1.00 20.00    -0.298 OA
ENDROOT
BRANCH   1   3
HETATM    3  C4  UNL     1     -33.157   6.430   2.778  1.00 20.00     0.079 C 
BRANCH   3   4
HETATM    4  C5  UNL     1     -32.178   7.558   2.454  1.00 20.00     0.010 C 
BRANCH   4   5
HETATM    5  C6  UNL     1     -32.161   7.905   0.962  1.00 20.00     0.032 C 
BRANCH   5   6
HETATM    6  C7  UNL     1     -33.049   9.099   0.658  1.00 20.00     0.222 C 
HETATM    7  F10 UNL     1     -33.825   8.817  -0.420  1.00 20.00    -0.255 F 
ENDBRANCH   5   6
ENDBRANCH   4   5
ENDBRANCH   3   4
ENDBRANCH   1   3
BRANCH   1   8
HETATM    8  C8  UNL     1     -34.713   5.410   4.585  1.00 20.00     0.047 C 
HETATM    9  C2  UNL     1     -34.846   5.313   6.100  1.00 20.00     0.017 C 
HETATM   10  C3  UNL     1     -34.379   4.047   3.983  1.00 20.00     0.017 C 
ENDBRANCH   1   8
TORSDOF 5
ENDMDL
MODEL 3
REMARK VINA RESULT:      -5.0      2.495      4.568
REMARK  5 active torsions:
REMARK  status: ('A' for Active; 'I' for Inactive)
REMARK    1  A    between atoms: C1_1  and  C4_4 
REMARK    2  A    between atoms: C1_1  and  C8_8 
REMARK    3  A    between atoms: C4_4  and  C5_5 
REMARK    4  A    between atoms: C5_5  and  C6_6 
REMARK    5  A    between atoms: C6_6  and  C7_7 
ROOT
HETATM    1  C1  UNL     1     -33.121   5.721   2.682  1.00 20.00     0.130 C 
HETATM    2  O9  UNL     1     -32.913   4.596   2.227  1.00 20.00    -0.298 OA
ENDROOT
BRANCH   1   3
HETATM    3  C4  UNL     1     -34.346   6.028   3.535  1.00 20.00     0.079 C 
BRANCH   3   4
HETATM    4  C5  UNL     1     -34.819   4.842   4.375  1.00 20.00     0.010 C 
BRANCH   4   5
HETATM    5  C6  UNL     1     -34.824   5.154   5.875  1.00 20.00     0.032 C 
BRANCH   5   6
HETATM    6  C7  UNL     1     -34.403   6.588   6.146  1.00 20.00     0.222 C 
HETATM    7  F10 UNL     1     -33.088   6.611   6.487  1.00 20.00    -0.255 F 
ENDBRANCH   5   6
ENDBRANCH   4   5
ENDBRANCH   3   4
ENDBRANCH   1   3
BRANCH   1   8
HETATM    8  C8  UNL     1     -32.194   6.897   2.377  1.00 20.00     0.047 C 
HETATM    9  C2  UNL     1     -31.862   7.648   3.662  1.00 20.00     0.017 C 
HETATM   10  C3  UNL     1     -32.817   7.838   1.348  1.00 20.00     0.017 C 
ENDBRANCH   1   8
TORSDOF 5
ENDMDL
MODEL 4
REMARK VINA RESULT:      -4.7      0.442      1.169
REMARK  5 active torsions:
REMARK  status: ('A' for Active; 'I' for Inactive)
REMARK    1  A    between atoms: C1_1  and  C4_4 
REMARK    2  A    between atoms: C1_1  and  C8_8 
REMARK    3  A    between atoms: C4_4  and  C5_5 
REMARK    4  A    between atoms: C5_5  and  C6_6 
REMARK    5  A    between atoms: C6_6  and  C7_7 
ROOT
HETATM    1  C1  UNL     1     -33.343   5.758   3.292  1.00 20.00     0.130 C 
HETATM    2  O9  UNL     1     -33.362   4.877   2.432  1.00 20.00    -0.298 OA
ENDROOT
BRANCH   1   3
HETATM    3  C4  UNL     1     -32.555   7.048   3.104  1.00 20.00     0.079 C 
BRANCH   3   4
HETATM    4  C5  UNL     1     -32.395   7.459   1.640  1.00 20.00     0.010 C 
BRANCH   4   5
HETATM    5  C6  UNL     1     -32.877   8.889   1.380  1.00 20.00     0.032 C 
BRANCH   5   6
HETATM    6  C7  UNL     1     -33.185   9.113  -0.090  1.00 20.00     0.222 C 
HETATM    7  F10 UNL     1     -33.713   7.977  -0.615  1.00 20.00    -0.255 F 
ENDBRANCH   5   6
ENDBRANCH   4   5
ENDBRANCH   3   4
ENDBRANCH   1   3
BRANCH   1   8
HETATM    8  C8  UNL     1     -34.064   5.592   4.630  1.00 20.00     0.047 C 
HETATM    9  C2  UNL     1     -35.542   5.300   4.393  1.00 20.00     0.017 C 
HETATM   10  C3  UNL     1     -33.892   6.831   5.506  1.00 20.00     0.017 C 
ENDBRANCH   1   8
TORSDOF 5
ENDMDL
MODEL 5
REMARK VINA RESULT:      -4.5      2.593      4.616
REMARK  5 active torsions:
REMARK  status: ('A' for Active; 'I' for Inactive)
REMARK    1  A    between atoms: C1_1  and  C4_4 
REMARK    2  A    between atoms: C1_1  and  C8_8 
REMARK    3  A    between atoms: C4_4  and  C5_5 
REMARK    4  A    between atoms: C5_5  and  C6_6 
REMARK    5  A    between atoms: C6_6  and  C7_7 
ROOT
HETATM    1  C1  UNL     1     -32.531   7.378   3.710  1.00 20.00     0.130 C 
HETATM    2  O9  UNL     1     -31.659   7.964   4.352  1.00 20.00    -0.298 OA
ENDROOT
BRANCH   1   3
HETATM    3  C4  UNL     1     -33.904   7.084   4.303  1.00 20.00     0.079 C 
BRANCH   3   4
HETATM    4  C5  UNL     1     -33.859   6.668   5.773  1.00 20.00     0.010 C 
BRANCH   4   5
HETATM    5  C6  UNL     1     -34.664   5.394   6.044  1.00 20.00     0.032 C 
BRANCH   5   6
HETATM    6  C7  UNL     1     -35.128   4.744   4.752  1.00 20.00     0.222 C 
HETATM    7  F10 UNL     1     -34.245   3.776   4.395  1.00 20.00    -0.255 F 
ENDBRANCH   5   6
ENDBRANCH   4   5
ENDBRANCH   3   4
ENDBRANCH   1   3
BRANCH   1   8
HETATM    8  C8  UNL     1     -32.278   6.858   2.296  1.00 20.00     0.047 C 
HETATM    9  C2  UNL     1     -32.625   7.934   1.273  1.00 20.00     0.017 C 
HETATM   10  C3  UNL     1     -33.072   5.582   2.027  1.00 20.00     0.017 C 
ENDBRANCH   1   8
TORSDOF 5
ENDMDL
MODEL 6
REMARK VINA RESULT:      -4.3      2.668      5.028
REMARK  5 active torsions:
REMARK  status: ('A' for Active; 'I' for Inactive)
REMARK    1  A    between atoms: C1_1  and  C4_4 
REMARK    2  A    between atoms: C1_1  and  C8_8 
REMARK    3  A    between atoms: C4_4  and  C5_5 
REMARK    4  A    between atoms: C5_5  and  C6_6 
REMARK    5  A    between atoms: C6_6  and  C7_7 
ROOT
HETATM    1  C1  UNL     1     -32.466   7.225   2.449  1.00 20.00     0.130 C 
HETATM    2  O9  UNL     1     -31.579   7.654   3.187  1.00 20.00    -0.298 OA
ENDROOT
BRANCH   1   3
HETATM    3  C4  UNL     1     -33.236   5.951   2.776  1.00 20.00     0.079 C 
BRANCH   3   4
HETATM    4  C5  UNL     1     -34.391   6.170   3.754  1.00 20.00     0.010 C 
BRANCH   4   5
HETATM    5  C6  UNL     1     -34.743   4.899   4.534  1.00 20.00     0.032 C 
BRANCH   5   6
HETATM    6  C7  UNL     1     -34.751   5.151   6.032  1.00 20.00     0.222 C 
HETATM    7  F10 UNL     1     -34.437   6.451   6.269  1.00 20.00    -0.255 F 
ENDBRANCH   5   6
ENDBRANCH   4   5
ENDBRANCH   3   4
ENDBRANCH   1   3
BRANCH   1   8
HETATM    8  C8  UNL     1     -32.818   7.911   1.130  1.00 20.00     0.047 C 
HETATM    9  C2  UNL     1     -31.693   7.710   0.121  1.00 20.00     0.017 C 
HETATM   10  C3  UNL     1     -33.096   9.398   1.339  1.00 20.00     0.017 C 
ENDBRANCH   1   8
TORSDOF 5
ENDMDL
MODEL 7
REMARK VINA RESULT:      -4.1     10.389     11.408
REMARK  5 active torsions:
REMARK  status: ('A' for Active; 'I' for Inactive)
REMARK    1  A    between atoms: C1_1  and  C4_4 
REMARK    2  A    between atoms: C1_1  and  C8_8 
REMARK    3  A    between atoms: C4_4  and  C5_5 
REMARK    4  A    between atoms: C5_5  and  C6_6 
REMARK    5  A    between atoms: C6_6  and  C7_7 
ROOT
HETATM    1  C1  UNL     1     -35.045  14.061  -4.188  1.00 20.00     0.130 C 
HETATM    2  O9  UNL     1     -34.494  13.001  -3.888  1.00 20.00    -0.298 OA
ENDROOT
BRANCH   1   3
HETATM    3  C4  UNL     1     -36.282  14.100  -5.077  1.00 20.00     0.079 C 
BRANCH   3   4
HETATM    4  C5  UNL     1     -36.324  15.307  -6.014  1.00 20.00     0.010 C 
BRANCH   4   5
HETATM    5  C6  UNL     1     -35.705  15.004  -7.382  1.00 20.00     0.032 C 
BRANCH   5   6
HETATM    6  C7  UNL     1     -34.308  15.589  -7.502  1.00 20.00     0.222 C 
HETATM    7  F10 UNL     1     -33.403  14.683  -7.047  1.00 20.00    -0.255 F 
ENDBRANCH   5   6
ENDBRANCH   4   5
ENDBRANCH   3   4
ENDBRANCH   1   3
BRANCH   1   8
HETATM    8  C8  UNL     1     -34.493  15.412  -3.734  1.00 20.00     0.047 C 
HETATM    9  C2  UNL     1     -32.969  15.394  -3.775  1.00 20.00     0.017 C 
HETATM   10  C3  UNL     1     -34.991  15.769  -2.335  1.00 20.00     0.017 C 
ENDBRANCH   1   8
TORSDOF 5
ENDMDL
MODEL 8
REMARK VINA RESULT:      -4.1     10.530     11.827
REMARK  5 active torsions:
REMARK  status: ('A' for Active; 'I' for Inactive)
REMARK    1  A    between atoms: C1_1  and  C4_4 
REMARK    2  A    between atoms: C1_1  and  C8_8 
REMARK    3  A    between atoms: C4_4  and  C5_5 
REMARK    4  A    between atoms: C5_5  and  C6_6 
REMARK    5  A    between atoms: C6_6  and  C7_7 
ROOT
HETATM    1  C1  UNL     1     -36.008  14.063  -4.873  1.00 20.00     0.130 C 
HETATM    2  O9  UNL     1     -37.084  13.563  -4.543  1.00 20.00    -0.298 OA
ENDROOT
BRANCH   1   3
HETATM    3  C4  UNL     1     -34.839  14.165  -3.901  1.00 20.00     0.079 C 
BRANCH   3   4
HETATM    4  C5  UNL     1     -34.926  15.370  -2.965  1.00 20.00     0.010 C 
BRANCH   4   5
HETATM    5  C6  UNL     1     -33.589  16.105  -2.834  1.00 20.00     0.032 C 
BRANCH   5   6
HETATM    6  C7  UNL     1     -33.560  17.364  -3.684  1.00 20.00     0.222 C 
HETATM    7  F10 UNL     1     -34.774  17.538  -4.267  1.00 20.00    -0.255 F 
ENDBRANCH   5   6
ENDBRANCH   4   5
ENDBRANCH   3   4
ENDBRANCH   1   3
BRANCH   1   8
HETATM    8  C8  UNL     1     -35.791  14.662  -6.262  1.00 20.00     0.047 C 
HETATM    9  C2  UNL     1     -34.311  14.961  -6.477  1.00 20.00     0.017 C 
HETATM   10  C3  UNL     1     -36.630  15.924  -6.455  1.00 20.00     0.017 C 
ENDBRANCH   1   8
TORSDOF 5
ENDMDL
MODEL 9
REMARK VINA RESULT:      -3.9     10.754     11.532
REMARK  5 active torsions:
REMARK  status: ('A' for Active; 'I' for Inactive)
REMARK    1  A    between atoms: C1_1  and  C4_4 
REMARK    2  A    between atoms: C1_1  and  C8_8 
REMARK    3  A    between atoms: C4_4  and  C5_5 
REMARK    4  A    between atoms: C5_5  and  C6_6 
REMARK    5  A    between atoms: C6_6  and  C7_7 
ROOT
HETATM    1  C1  UNL     1     -34.477  14.702  -5.408  1.00 20.00     0.130 C 
HETATM    2  O9  UNL     1     -33.682  14.654  -6.346  1.00 20.00    -0.298 OA
ENDROOT
BRANCH   1   3
HETATM    3  C4  UNL     1     -34.012  14.662  -3.957  1.00 20.00     0.079 C 
BRANCH   3   4
HETATM    4  C5  UNL     1     -33.139  15.854  -3.563  1.00 20.00     0.010 C 
BRANCH   4   5
HETATM    5  C6  UNL     1     -33.695  16.609  -2.352  1.00 20.00     0.032 C 
BRANCH   5   6
HETATM    6  C7  UNL     1     -35.107  16.160  -2.017  1.00 20.00     0.222 C 
HETATM    7  F10 UNL     1     -35.350  16.394  -0.701  1.00 20.00    -0.255 F 
ENDBRANCH   5   6
ENDBRANCH   4   5
ENDBRANCH   3   4
ENDBRANCH   1   3
BRANCH   1   8
HETATM    8  C8  UNL     1     -35.988  14.750  -5.634  1.00 20.00     0.047 C 
HETATM    9  C2  UNL     1     -36.461  16.197  -5.700  1.00 20.00     0.017 C 
HETATM   10  C3  UNL     1     -36.734  13.987  -4.541  1.00 20.00     0.017 C 
ENDBRANCH   1   8
TORSDOF 5
ENDMDL
