MODEL 1
REMARK VINA RESULT:      -4.3      0.000      0.000
REMARK  1 active torsions:
REMARK  status: ('A' for Active; 'I' for Inactive)
REMARK    1  A    between atoms: C5_5  and  C10_10 
ROOT
HETATM    1  C1  UNL     1     -37.261  15.767  -5.102  1.00 20.00     0.019 C 
HETATM    2  C2  UNL     1     -33.517  15.018  -4.111  1.00 20.00     0.018 A 
HETATM    3  C3  UNL     1     -37.228  17.183  -5.667  1.00 20.00     0.075 C 
HETATM    4  C4  UNL     1     -34.556  17.153  -5.073  1.00 20.00     0.084 C 
HETATM    5  C5  UNL     1     -34.456  15.489  -3.038  1.00 20.00     0.010 A 
HETATM    6  C6  UNL     1     -34.784  15.760  -4.511  1.00 20.00    -0.020 A 
HETATM    7  C7  UNL     1     -35.934  14.964  -5.207  1.00 20.00    -0.038 C 
HETATM    8  C8  UNL     1     -35.572  14.697  -6.687  1.00 20.00     0.015 C 
HETATM    9  C9  UNL     1     -36.217  13.579  -4.574  1.00 20.00     0.015 C 
HETATM   10  S11 UNL     1     -36.000  18.205  -4.814  1.00 20.00    -0.168 SA
ENDROOT
BRANCH   5  11
HETATM   11  C10 UNL     1     -34.023  16.548  -2.082  1.00 20.00     0.120 C 
HETATM   12 CL12 UNL     1     -35.260  16.827  -0.826  1.00 20.00    -0.130 Cl
ENDBRANCH   5  11
TORSDOF 1
ENDMDL
MODEL 2
REMARK VINA RESULT:      -4.2      1.216      1.340
REMARK  1 active torsions:
REMARK  status: ('A' for Active; 'I' for Inactive)
REMARK    1  A    between atoms: C5_5  and  C10_10 
ROOT
HETATM    1  C1  UNL     1     -36.538  14.875  -5.049  1.00 20.00     0.019 C 
HETATM    2  C2  UNL     1     -33.524  16.167  -2.857  1.00 20.00     0.018 A 
HETATM    3  C3  UNL     1     -37.086  16.130  -5.718  1.00 20.00     0.075 C 
HETATM    4  C4  UNL     1     -35.168  17.486  -4.312  1.00 20.00     0.084 C 
HETATM    5  C5  UNL     1     -34.853  15.966  -2.189  1.00 20.00     0.010 A 
HETATM    6  C6  UNL     1     -34.784  16.145  -3.710  1.00 20.00    -0.020 A 
HETATM    7  C7  UNL     1     -35.037  14.921  -4.647  1.00 20.00    -0.038 C 
HETATM    8  C8  UNL     1     -34.137  15.019  -5.900  1.00 20.00     0.015 C 
HETATM    9  C9  UNL     1     -34.722  13.552  -3.994  1.00 20.00     0.015 C 
HETATM   10  S11 UNL     1     -36.942  17.572  -4.632  1.00 20.00    -0.168 SA
ENDROOT
BRANCH   5  11
HETATM   11  C10 UNL     1     -35.386  17.004  -1.260  1.00 20.00     0.120 C 
HETATM   12 CL12 UNL     1     -34.061  17.896  -0.463  1.00 20.00    -0.130 Cl
ENDBRANCH   5  11
TORSDOF 1
ENDMDL
MODEL 3
REMARK VINA RESULT:      -4.1      2.492      3.823
REMARK  1 active torsions:
REMARK  status: ('A' for Active; 'I' for Inactive)
REMARK    1  A    between atoms: C5_5  and  C10_10 
ROOT
HETATM    1  C1  UNL     1     -34.931  18.146  -3.309  1.00 20.00     0.019 C 
HETATM    2  C2  UNL     1     -34.675  14.246  -3.842  1.00 20.00     0.018 A 
HETATM    3  C3  UNL     1     -36.414  18.456  -3.478  1.00 20.00     0.075 C 
HETATM    4  C4  UNL     1     -36.717  15.784  -3.997  1.00 20.00     0.084 C 
HETATM    5  C5  UNL     1     -34.375  15.143  -5.007  1.00 20.00     0.010 A 
HETATM    6  C6  UNL     1     -35.211  15.670  -3.835  1.00 20.00    -0.020 A 
HETATM    7  C7  UNL     1     -34.588  16.703  -2.843  1.00 20.00    -0.038 C 
HETATM    8  C8  UNL     1     -35.120  16.450  -1.413  1.00 20.00     0.015 C 
HETATM    9  C9  UNL     1     -33.044  16.635  -2.748  1.00 20.00     0.015 C 
HETATM   10  S11 UNL     1     -37.176  17.375  -4.716  1.00 20.00    -0.168 SA
ENDROOT
BRANCH   5  11
HETATM   11  C10 UNL     1     -34.943  14.835  -6.352  1.00 20.00     0.120 C 
HETATM   12 CL12 UNL     1     -33.782  15.230  -7.648  1.00 20.00    -0.130 Cl
ENDBRANCH   5  11
TORSDOF 1
ENDMDL
MODEL 4
REMARK VINA RESULT:      -4.0      1.514      2.032
REMARK  1 active torsions:
REMARK  status: ('A' for Active; 'I' for Inactive)
REMARK    1  A    between atoms: C5_5  and  C10_10 
ROOT
HETATM    1  C1  UNL     1     -35.670  14.027  -4.478  1.00 20.00     0.019 C 
HETATM    2  C2  UNL     1     -33.315  17.044  -3.519  1.00 20.00     0.018 A 
HETATM    3  C3  UNL     1     -37.006  14.681  -4.815  1.00 20.00     0.075 C 
HETATM    4  C4  UNL     1     -35.795  17.048  -4.164  1.00 20.00     0.084 C 
HETATM    5  C5  UNL     1     -33.988  16.287  -2.411  1.00 20.00     0.010 A 
HETATM    6  C6  UNL     1     -34.561  16.227  -3.832  1.00 20.00    -0.020 A 
HETATM    7  C7  UNL     1     -34.411  14.919  -4.672  1.00 20.00    -0.038 C 
HETATM    8  C8  UNL     1     -34.214  15.269  -6.165  1.00 20.00     0.015 C 
HETATM    9  C9  UNL     1     -33.197  14.045  -4.269  1.00 20.00     0.015 C 
HETATM   10  S11 UNL     1     -37.306  16.138  -3.782  1.00 20.00    -0.168 SA
ENDROOT
BRANCH   5  11
HETATM   11  C10 UNL     1     -34.638  17.027  -1.291  1.00 20.00     0.120 C 
HETATM   12 CL12 UNL     1     -33.480  18.115  -0.478  1.00 20.00    -0.130 Cl
ENDBRANCH   5  11
TORSDOF 1
ENDMDL
MODEL 5
REMARK VINA RESULT:      -3.9      1.948      2.495
REMARK  1 active torsions:
REMARK  status: ('A' for Active; 'I' for Inactive)
REMARK    1  A    between atoms: C5_5  and  C10_10 
ROOT
HETATM    1  C1  UNL     1     -34.904  14.976  -5.952  1.00 20.00     0.019 C 
HETATM    2  C2  UNL     1     -34.622  16.097  -2.180  1.00 20.00     0.018 A 
HETATM    3  C3  UNL     1     -34.325  16.146  -6.739  1.00 20.00     0.075 C 
HETATM    4  C4  UNL     1     -34.004  17.373  -4.313  1.00 20.00     0.084 C 
HETATM    5  C5  UNL     1     -35.932  16.297  -2.885  1.00 20.00     0.010 A 
HETATM    6  C6  UNL     1     -34.644  16.139  -3.701  1.00 20.00    -0.020 A 
HETATM    7  C7  UNL     1     -34.387  14.818  -4.494  1.00 20.00    -0.038 C 
HETATM    8  C8  UNL     1     -32.879  14.479  -4.482  1.00 20.00     0.015 C 
HETATM    9  C9  UNL     1     -35.113  13.580  -3.911  1.00 20.00     0.015 C 
HETATM   10  S11 UNL     1     -34.698  17.728  -5.941  1.00 20.00    -0.168 SA
ENDROOT
BRANCH   5  11
HETATM   11  C10 UNL     1     -36.665  17.588  -2.743  1.00 20.00     0.120 C 
HETATM   12 CL12 UNL     1     -37.931  17.752  -3.990  1.00 20.00    -0.130 Cl
ENDBRANCH   5  11
TORSDOF 1
ENDMDL
MODEL 6
REMARK VINA RESULT:      -3.9      1.814      2.518
REMARK  1 active torsions:
REMARK  status: ('A' for Active; 'I' for Inactive)
REMARK    1  A    between atoms: C5_5  and  C10_10 
ROOT
HETATM    1  C1  UNL     1     -36.585  16.035  -6.000  1.00 20.00     0.019 C 
HETATM    2  C2  UNL     1     -35.020  15.772  -2.388  1.00 20.00     0.018 A 
HETATM    3  C3  UNL     1     -35.736  15.096  -6.850  1.00 20.00     0.075 C 
HETATM    4  C4  UNL     1     -34.283  14.655  -4.572  1.00 20.00     0.084 C 
HETATM    5  C5  UNL     1     -34.597  16.915  -3.264  1.00 20.00     0.010 A 
HETATM    6  C6  UNL     1     -35.203  15.656  -3.894  1.00 20.00    -0.020 A 
HETATM    7  C7  UNL     1     -36.649  15.703  -4.482  1.00 20.00    -0.038 C 
HETATM    8  C8  UNL     1     -37.360  14.350  -4.248  1.00 20.00     0.015 C 
HETATM    9  C9  UNL     1     -37.555  16.785  -3.843  1.00 20.00     0.015 C 
HETATM   10  S11 UNL     1     -34.010  15.089  -6.303  1.00 20.00    -0.168 SA
ENDROOT
BRANCH   5  11
HETATM   11  C10 UNL     1     -33.154  17.278  -3.372  1.00 20.00     0.120 C 
HETATM   12 CL12 UNL     1     -32.475  17.702  -1.777  1.00 20.00    -0.130 Cl
ENDBRANCH   5  11
TORSDOF 1
ENDMDL
MODEL 7
REMARK VINA RESULT:      -3.9      2.375      3.862
REMARK  1 active torsions:
REMARK  status: ('A' for Active; 'I' for Inactive)
REMARK    1  A    between atoms: C5_5  and  C10_10 
ROOT
HETATM    1  C1  UNL     1     -34.101  15.000  -3.450  1.00 20.00     0.019 C 
HETATM    2  C2  UNL     1     -36.504  18.122  -3.660  1.00 20.00     0.018 A 
HETATM    3  C3  UNL     1     -33.735  14.705  -4.901  1.00 20.00     0.075 C 
HETATM    4  C4  UNL     1     -35.395  16.786  -5.543  1.00 20.00     0.084 C 
HETATM    5  C5  UNL     1     -37.120  16.756  -3.558  1.00 20.00     0.010 A 
HETATM    6  C6  UNL     1     -35.678  16.907  -4.055  1.00 20.00    -0.020 A 
HETATM    7  C7  UNL     1     -34.492  16.472  -3.136  1.00 20.00    -0.038 C 
HETATM    8  C8  UNL     1     -33.286  17.416  -3.347  1.00 20.00     0.015 C 
HETATM    9  C9  UNL     1     -34.818  16.518  -1.622  1.00 20.00     0.015 C 
HETATM   10  S11 UNL     1     -35.116  15.066  -6.016  1.00 20.00    -0.168 SA
ENDROOT
BRANCH   5  11
HETATM   11  C10 UNL     1     -38.262  16.386  -4.443  1.00 20.00     0.120 C 
HETATM   12 CL12 UNL     1     -38.685  14.661  -4.262  1.00 20.00    -0.130 Cl
ENDBRANCH   5  11
TORSDOF 1
ENDMDL
MODEL 8
REMARK VINA RESULT:      -3.8      2.538      3.962
REMARK  1 active torsions:
REMARK  status: ('A' for Active; 'I' for Inactive)
REMARK    1  A    between atoms: C5_5  and  C10_10 
ROOT
HETATM    1  C1  UNL     1     -33.074  16.300  -3.508  1.00 20.00     0.019 C 
HETATM    2  C2  UNL     1     -36.688  15.930  -5.046  1.00 20.00     0.018 A 
HETATM    3  C3  UNL     1     -32.924  17.795  -3.248  1.00 20.00     0.075 C 
HETATM    4  C4  UNL     1     -35.424  18.041  -4.335  1.00 20.00     0.084 C 
HETATM    5  C5  UNL     1     -35.519  15.996  -5.985  1.00 20.00     0.010 A 
HETATM    6  C6  UNL     1     -35.381  16.539  -4.558  1.00 20.00    -0.020 A 
HETATM    7  C7  UNL     1     -34.530  15.755  -3.510  1.00 20.00    -0.038 C 
HETATM    8  C8  UNL     1     -35.166  15.889  -2.106  1.00 20.00     0.015 C 
HETATM    9  C9  UNL     1     -34.422  14.236  -3.793  1.00 20.00     0.015 C 
HETATM   10  S11 UNL     1     -33.783  18.773  -4.507  1.00 20.00    -0.168 SA
ENDROOT
BRANCH   5  11
HETATM   11  C10 UNL     1     -35.583  16.865  -7.196  1.00 20.00     0.120 C 
HETATM   12 CL12 UNL     1     -33.966  17.086  -7.918  1.00 20.00    -0.130 Cl
ENDBRANCH   5  11
TORSDOF 1
ENDMDL
MODEL 9
REMARK VINA RESULT:      -3.7      1.995      3.410
REMARK  1 active torsions:
REMARK  status: ('A' for Active; 'I' for Inactive)
REMARK    1  A    between atoms: C5_5  and  C10_10 
ROOT
HETATM    1  C1  UNL     1     -34.169  15.793  -2.809  1.00 20.00     0.019 C 
HETATM    2  C2  UNL     1     -35.014  15.361  -6.637  1.00 20.00     0.018 A 
HETATM    3  C3  UNL     1     -35.450  16.349  -2.197  1.00 20.00     0.075 C 
HETATM    4  C4  UNL     1     -36.458  16.303  -4.742  1.00 20.00     0.084 C 
HETATM    5  C5  UNL     1     -34.293  16.605  -6.205  1.00 20.00     0.010 A 
HETATM    6  C6  UNL     1     -35.095  15.794  -5.180  1.00 20.00    -0.020 A 
HETATM    7  C7  UNL     1     -34.345  14.949  -4.102  1.00 20.00    -0.038 C 
HETATM    8  C8  UNL     1     -35.132  13.651  -3.805  1.00 20.00     0.015 C 
HETATM    9  C9  UNL     1     -32.922  14.506  -4.525  1.00 20.00     0.015 C 
HETATM   10  S11 UNL     1     -36.311  17.446  -3.353  1.00 20.00    -0.168 SA
ENDROOT
BRANCH   5  11
HETATM   11  C10 UNL     1     -34.724  17.935  -6.723  1.00 20.00     0.120 C 
HETATM   12 CL12 UNL     1     -34.000  19.262  -5.774  1.00 20.00    -0.130 Cl
ENDBRANCH   5  11
TORSDOF 1
ENDMDL
