MODEL 1
REMARK VINA RESULT:      -5.0      0.000      0.000
REMARK  2 active torsions:
REMARK  status: ('A' for Active; 'I' for Inactive)
REMARK    1  A    between atoms: C6_6  and  C10_10 
REMARK    2  A    between atoms: C7_7  and  C9_9 
ROOT
HETATM    1  C1  UNL     1     -35.318  17.142  -5.362  1.00 20.00     0.001 C 
HETATM    2  C2  UNL     1     -34.847  15.923  -6.156  1.00 20.00     0.013 C 
HETATM    3  C3  UNL     1     -34.238  17.640  -4.404  1.00 20.00     0.010 C 
HETATM    4  C4  UNL     1     -33.291  15.291  -4.262  1.00 20.00     0.023 C 
HETATM    5  C5  UNL     1     -34.386  16.355  -2.143  1.00 20.00     0.016 A 
HETATM    6  C6  UNL     1     -34.349  14.784  -5.254  1.00 20.00     0.094 C 
HETATM    7  C7  UNL     1     -32.976  16.864  -2.240  1.00 20.00     0.009 A 
HETATM    8  C8  UNL     1     -33.748  16.525  -3.506  1.00 20.00    -0.035 A 
ENDROOT
BRANCH   6   9
HETATM    9  C10 UNL     1     -35.505  14.078  -4.541  1.00 20.00     0.391 C 
HETATM   10  F11 UNL     1     -36.227  13.371  -5.425  1.00 20.00    -0.171 F 
HETATM   11  F12 UNL     1     -35.029  13.245  -3.604  1.00 20.00    -0.171 F 
HETATM   12  F13 UNL     1     -36.304  14.982  -3.954  1.00 20.00    -0.171 F 
ENDBRANCH   6   9
BRANCH   7  13
HETATM   13  C9  UNL     1     -32.652  18.263  -1.839  1.00 20.00     0.120 C 
HETATM   14 CL14 UNL     1     -31.307  18.305  -0.666  1.00 20.00    -0.130 Cl
ENDBRANCH   7  13
TORSDOF 2
ENDMDL
MODEL 2
REMARK VINA RESULT:      -5.0      0.161      1.052
REMARK  2 active torsions:
REMARK  status: ('A' for Active; 'I' for Inactive)
REMARK    1  A    between atoms: C6_6  and  C10_10 
REMARK    2  A    between atoms: C7_7  and  C9_9 
ROOT
HETATM    1  C1  UNL     1     -35.179  17.224  -5.487  1.00 20.00     0.001 C 
HETATM    2  C2  UNL     1     -34.755  15.973  -6.258  1.00 20.00     0.013 C 
HETATM    3  C3  UNL     1     -34.090  17.683  -4.520  1.00 20.00     0.010 C 
HETATM    4  C4  UNL     1     -33.258  15.294  -4.333  1.00 20.00     0.023 C 
HETATM    5  C5  UNL     1     -34.331  16.437  -2.244  1.00 20.00     0.016 A 
HETATM    6  C6  UNL     1     -34.325  14.824  -5.334  1.00 20.00     0.094 C 
HETATM    7  C7  UNL     1     -32.896  16.878  -2.327  1.00 20.00     0.009 A 
HETATM    8  C8  UNL     1     -33.666  16.558  -3.600  1.00 20.00    -0.035 A 
ENDROOT
BRANCH   6   9
HETATM    9  C10 UNL     1     -35.524  14.184  -4.629  1.00 20.00     0.391 C 
HETATM   10  F11 UNL     1     -35.108  13.461  -3.578  1.00 20.00    -0.171 F 
HETATM   11  F12 UNL     1     -36.365  15.136  -4.195  1.00 20.00    -0.171 F 
HETATM   12  F13 UNL     1     -36.181  13.379  -5.478  1.00 20.00    -0.171 F 
ENDBRANCH   6   9
BRANCH   7  13
HETATM   13  C9  UNL     1     -32.512  18.264  -1.940  1.00 20.00     0.120 C 
HETATM   14 CL14 UNL     1     -31.307  18.258  -0.623  1.00 20.00    -0.130 Cl
ENDBRANCH   7  13
TORSDOF 2
ENDMDL
MODEL 3
REMARK VINA RESULT:      -5.0      1.637      2.325
REMARK  2 active torsions:
REMARK  status: ('A' for Active; 'I' for Inactive)
REMARK    1  A    between atoms: C6_6  and  C10_10 
REMARK    2  A    between atoms: C7_7  and  C9_9 
ROOT
HETATM    1  C1  UNL     1     -33.509  15.071  -4.517  1.00 20.00     0.001 C 
HETATM    2  C2  UNL     1     -34.692  14.226  -4.043  1.00 20.00     0.013 C 
HETATM    3  C3  UNL     1     -32.883  15.856  -3.366  1.00 20.00     0.010 C 
HETATM    4  C4  UNL     1     -35.121  15.875  -2.171  1.00 20.00     0.023 C 
HETATM    5  C5  UNL     1     -34.125  18.125  -3.050  1.00 20.00     0.016 A 
HETATM    6  C6  UNL     1     -35.754  15.053  -3.304  1.00 20.00     0.094 C 
HETATM    7  C7  UNL     1     -33.478  17.817  -1.728  1.00 20.00     0.009 A 
HETATM    8  C8  UNL     1     -33.923  16.681  -2.638  1.00 20.00    -0.035 A 
ENDROOT
BRANCH   6   9
HETATM    9  C10 UNL     1     -36.557  15.934  -4.266  1.00 20.00     0.391 C 
HETATM   10  F11 UNL     1     -37.553  15.224  -4.818  1.00 20.00    -0.171 F 
HETATM   11  F12 UNL     1     -37.082  16.978  -3.606  1.00 20.00    -0.171 F 
HETATM   12  F13 UNL     1     -35.760  16.395  -5.242  1.00 20.00    -0.171 F 
ENDBRANCH   6   9
BRANCH   7  13
HETATM   13  C9  UNL     1     -32.046  18.155  -1.496  1.00 20.00     0.120 C 
HETATM   14 CL14 UNL     1     -31.704  18.363   0.244  1.00 20.00    -0.130 Cl
ENDBRANCH   7  13
TORSDOF 2
ENDMDL
MODEL 4
REMARK VINA RESULT:      -4.8      2.049      2.790
REMARK  2 active torsions:
REMARK  status: ('A' for Active; 'I' for Inactive)
REMARK    1  A    between atoms: C6_6  and  C10_10 
REMARK    2  A    between atoms: C7_7  and  C9_9 
ROOT
HETATM    1  C1  UNL     1     -32.978  15.716  -3.764  1.00 20.00     0.001 C 
HETATM    2  C2  UNL     1     -33.600  14.392  -4.207  1.00 20.00     0.013 C 
HETATM    3  C3  UNL     1     -33.702  16.299  -2.552  1.00 20.00     0.010 C 
HETATM    4  C4  UNL     1     -35.834  15.129  -3.273  1.00 20.00     0.023 C 
HETATM    5  C5  UNL     1     -35.731  17.738  -3.330  1.00 20.00     0.016 A 
HETATM    6  C6  UNL     1     -35.108  14.505  -4.475  1.00 20.00     0.094 C 
HETATM    7  C7  UNL     1     -36.036  17.317  -1.919  1.00 20.00     0.009 A 
HETATM    8  C8  UNL     1     -35.189  16.422  -2.811  1.00 20.00    -0.035 A 
ENDROOT
BRANCH   6   9
HETATM    9  C10 UNL     1     -35.398  15.266  -5.772  1.00 20.00     0.391 C 
HETATM   10  F11 UNL     1     -35.368  14.422  -6.816  1.00 20.00    -0.171 F 
HETATM   11  F12 UNL     1     -36.611  15.836  -5.710  1.00 20.00    -0.171 F 
HETATM   12  F13 UNL     1     -34.477  16.223  -5.960  1.00 20.00    -0.171 F 
ENDBRANCH   6   9
BRANCH   7  13
HETATM   13  C9  UNL     1     -35.473  18.079  -0.769  1.00 20.00     0.120 C 
HETATM   14 CL14 UNL     1     -35.527  17.118   0.734  1.00 20.00    -0.130 Cl
ENDBRANCH   7  13
TORSDOF 2
ENDMDL
MODEL 5
REMARK VINA RESULT:      -4.7      3.003      4.194
REMARK  2 active torsions:
REMARK  status: ('A' for Active; 'I' for Inactive)
REMARK    1  A    between atoms: C6_6  and  C10_10 
REMARK    2  A    between atoms: C7_7  and  C9_9 
ROOT
HETATM    1  C1  UNL     1     -34.634  17.180  -5.266  1.00 20.00     0.001 C 
HETATM    2  C2  UNL     1     -33.655  17.016  -4.103  1.00 20.00     0.013 C 
HETATM    3  C3  UNL     1     -36.065  16.857  -4.844  1.00 20.00     0.010 C 
HETATM    4  C4  UNL     1     -35.179  15.282  -3.064  1.00 20.00     0.023 C 
HETATM    5  C5  UNL     1     -36.514  14.301  -5.083  1.00 20.00     0.016 A 
HETATM    6  C6  UNL     1     -33.733  15.627  -3.453  1.00 20.00     0.094 C 
HETATM    7  C7  UNL     1     -37.506  14.805  -4.073  1.00 20.00     0.009 A 
HETATM    8  C8  UNL     1     -36.153  15.485  -4.210  1.00 20.00    -0.035 A 
ENDROOT
BRANCH   6   9
HETATM    9  C10 UNL     1     -33.111  14.548  -4.344  1.00 20.00     0.391 C 
HETATM   10  F11 UNL     1     -33.613  13.344  -4.028  1.00 20.00    -0.171 F 
HETATM   11  F12 UNL     1     -33.378  14.805  -5.633  1.00 20.00    -0.171 F 
HETATM   12  F13 UNL     1     -31.780  14.522  -4.174  1.00 20.00    -0.171 F 
ENDBRANCH   6   9
BRANCH   7  13
HETATM   13  C9  UNL     1     -38.779  15.437  -4.520  1.00 20.00     0.120 C 
HETATM   14 CL14 UNL     1     -39.379  16.609  -3.315  1.00 20.00    -0.130 Cl
ENDBRANCH   7  13
TORSDOF 2
ENDMDL
MODEL 6
REMARK VINA RESULT:      -4.7      3.207      4.299
REMARK  2 active torsions:
REMARK  status: ('A' for Active; 'I' for Inactive)
REMARK    1  A    between atoms: C6_6  and  C10_10 
REMARK    2  A    between atoms: C7_7  and  C9_9 
ROOT
HETATM    1  C1  UNL     1     -34.496  17.289  -5.144  1.00 20.00     0.001 C 
HETATM    2  C2  UNL     1     -33.564  17.018  -3.963  1.00 20.00     0.013 C 
HETATM    3  C3  UNL     1     -35.952  17.003  -4.787  1.00 20.00     0.010 C 
HETATM    4  C4  UNL     1     -35.190  15.293  -3.076  1.00 20.00     0.023 C 
HETATM    5  C5  UNL     1     -36.495  14.487  -5.190  1.00 20.00     0.016 A 
HETATM    6  C6  UNL     1     -33.719  15.598  -3.398  1.00 20.00     0.094 C 
HETATM    7  C7  UNL     1     -37.500  14.973  -4.183  1.00 20.00     0.009 A 
HETATM    8  C8  UNL     1     -36.116  15.602  -4.237  1.00 20.00    -0.035 A 
ENDROOT
BRANCH   6   9
HETATM    9  C10 UNL     1     -33.112  14.547  -4.332  1.00 20.00     0.391 C 
HETATM   10  F11 UNL     1     -31.782  14.493  -4.159  1.00 20.00    -0.171 F 
HETATM   11  F12 UNL     1     -33.634  13.339  -4.067  1.00 20.00    -0.171 F 
HETATM   12  F13 UNL     1     -33.371  14.861  -5.610  1.00 20.00    -0.171 F 
ENDBRANCH   6   9
BRANCH   7  13
HETATM   13  C9  UNL     1     -38.731  15.684  -4.632  1.00 20.00     0.120 C 
HETATM   14 CL14 UNL     1     -40.043  15.526  -3.432  1.00 20.00    -0.130 Cl
ENDBRANCH   7  13
TORSDOF 2
ENDMDL
MODEL 7
REMARK VINA RESULT:      -4.5      1.884      2.679
REMARK  2 active torsions:
REMARK  status: ('A' for Active; 'I' for Inactive)
REMARK    1  A    between atoms: C6_6  and  C10_10 
REMARK    2  A    between atoms: C7_7  and  C9_9 
ROOT
HETATM    1  C1  UNL     1     -34.807  14.045  -3.835  1.00 20.00     0.001 C 
HETATM    2  C2  UNL     1     -35.868  14.239  -4.917  1.00 20.00     0.013 C 
HETATM    3  C3  UNL     1     -34.754  15.237  -2.882  1.00 20.00     0.010 C 
HETATM    4  C4  UNL     1     -35.599  16.749  -4.735  1.00 20.00     0.023 C 
HETATM    5  C5  UNL     1     -33.170  17.075  -3.832  1.00 20.00     0.016 A 
HETATM    6  C6  UNL     1     -35.693  15.552  -5.694  1.00 20.00     0.094 C 
HETATM    7  C7  UNL     1     -34.110  17.780  -2.896  1.00 20.00     0.009 A 
HETATM    8  C8  UNL     1     -34.572  16.535  -3.638  1.00 20.00    -0.035 A 
ENDROOT
BRANCH   6   9
HETATM    9  C10 UNL     1     -34.496  15.491  -6.647  1.00 20.00     0.391 C 
HETATM   10  F11 UNL     1     -34.025  16.728  -6.874  1.00 20.00    -0.171 F 
HETATM   11  F12 UNL     1     -33.517  14.746  -6.111  1.00 20.00    -0.171 F 
HETATM   12  F13 UNL     1     -34.865  14.946  -7.816  1.00 20.00    -0.171 F 
ENDBRANCH   6   9
BRANCH   7  13
HETATM   13  C9  UNL     1     -33.841  17.796  -1.430  1.00 20.00     0.120 C 
HETATM   14 CL14 UNL     1     -32.106  18.046  -1.094  1.00 20.00    -0.130 Cl
ENDBRANCH   7  13
TORSDOF 2
ENDMDL
MODEL 8
REMARK VINA RESULT:      -4.5      1.965      2.459
REMARK  2 active torsions:
REMARK  status: ('A' for Active; 'I' for Inactive)
REMARK    1  A    between atoms: C6_6  and  C10_10 
REMARK    2  A    between atoms: C7_7  and  C9_9 
ROOT
HETATM    1  C1  UNL     1     -36.949  16.352  -5.396  1.00 20.00     0.001 C 
HETATM    2  C2  UNL     1     -36.051  16.931  -6.489  1.00 20.00     0.013 C 
HETATM    3  C3  UNL     1     -36.471  16.758  -4.004  1.00 20.00     0.010 C 
HETATM    4  C4  UNL     1     -34.098  16.943  -4.879  1.00 20.00     0.023 C 
HETATM    5  C5  UNL     1     -34.675  15.075  -3.147  1.00 20.00     0.016 A 
HETATM    6  C6  UNL     1     -34.570  16.572  -6.293  1.00 20.00     0.094 C 
HETATM    7  C7  UNL     1     -34.443  16.353  -2.390  1.00 20.00     0.009 A 
HETATM    8  C8  UNL     1     -35.014  16.400  -3.799  1.00 20.00    -0.035 A 
ENDROOT
BRANCH   6   9
HETATM    9  C10 UNL     1     -34.296  15.101  -6.617  1.00 20.00     0.391 C 
HETATM   10  F11 UNL     1     -33.957  14.970  -7.910  1.00 20.00    -0.171 F 
HETATM   11  F12 UNL     1     -33.291  14.641  -5.856  1.00 20.00    -0.171 F 
HETATM   12  F13 UNL     1     -35.392  14.365  -6.380  1.00 20.00    -0.171 F 
ENDBRANCH   6   9
BRANCH   7  13
HETATM   13  C9  UNL     1     -35.250  16.666  -1.178  1.00 20.00     0.120 C 
HETATM   14 CL14 UNL     1     -34.466  17.926  -0.185  1.00 20.00    -0.130 Cl
ENDBRANCH   7  13
TORSDOF 2
ENDMDL
MODEL 9
REMARK VINA RESULT:      -4.5     12.212     14.158
REMARK  2 active torsions:
REMARK  status: ('A' for Active; 'I' for Inactive)
REMARK    1  A    between atoms: C6_6  and  C10_10 
REMARK    2  A    between atoms: C7_7  and  C9_9 
ROOT
HETATM    1  C1  UNL     1     -43.400   5.822   1.074  1.00 20.00     0.001 C 
HETATM    2  C2  UNL     1     -42.044   6.477   1.332  1.00 20.00     0.013 C 
HETATM    3  C3  UNL     1     -43.272   4.605   0.161  1.00 20.00     0.010 C 
HETATM    4  C4  UNL     1     -41.208   5.628  -0.901  1.00 20.00     0.023 C 
HETATM    5  C5  UNL     1     -43.373   5.344  -2.335  1.00 20.00     0.016 A 
HETATM    6  C6  UNL     1     -41.304   6.841   0.037  1.00 20.00     0.094 C 
HETATM    7  C7  UNL     1     -42.650   4.025  -2.320  1.00 20.00     0.009 A 
HETATM    8  C8  UNL     1     -42.551   4.957  -1.122  1.00 20.00    -0.035 A 
ENDROOT
BRANCH   6   9
HETATM    9  C10 UNL     1     -41.939   8.049  -0.658  1.00 20.00     0.391 C 
HETATM   10  F11 UNL     1     -41.718   7.988  -1.980  1.00 20.00    -0.171 F 
HETATM   11  F12 UNL     1     -43.263   8.062  -0.440  1.00 20.00    -0.171 F 
HETATM   12  F13 UNL     1     -41.410   9.186  -0.181  1.00 20.00    -0.171 F 
ENDBRANCH   6   9
BRANCH   7  13
HETATM   13  C9  UNL     1     -43.417   2.748  -2.292  1.00 20.00     0.120 C 
HETATM   14 CL14 UNL     1     -42.706   1.541  -3.398  1.00 20.00    -0.130 Cl
ENDBRANCH   7  13
TORSDOF 2
ENDMDL
