MODEL 1
REMARK VINA RESULT:      -5.7      0.000      0.000
REMARK  2 active torsions:
REMARK  status: ('A' for Active; 'I' for Inactive)
REMARK    1  A    between atoms: C5_5  and  C6_6 
REMARK    2  A    between atoms: C7_7  and  C8_8 
ROOT
HETATM    1  C4  UNL     1     -33.030   5.493   2.583  1.00 20.00     0.011 A 
HETATM    2  C6  UNL     1     -33.233   6.560   3.619  1.00 20.00    -0.005 A 
HETATM    3  C7  UNL     1     -33.303   6.914   2.162  1.00 20.00     0.004 A 
ENDROOT
BRANCH   2   4
HETATM    4  C5  UNL     1     -34.450   6.598   4.532  1.00 20.00    -0.010 C 
HETATM    5  C2  UNL     1     -34.163   6.504   6.052  1.00 20.00     0.005 C 
HETATM    6  C1  UNL     1     -34.423   4.988   5.953  1.00 20.00     0.001 C 
HETATM    7  C3  UNL     1     -35.235   5.270   4.674  1.00 20.00     0.005 C 
ENDBRANCH   2   4
BRANCH   3   8
HETATM    8  C8  UNL     1     -32.223   7.733   1.544  1.00 20.00     0.119 C 
HETATM    9 CL9  UNL     1     -32.895   9.147   0.684  1.00 20.00    -0.130 Cl
ENDBRANCH   3   8
TORSDOF 2
ENDMDL
MODEL 2
REMARK VINA RESULT:      -4.5      0.979      1.483
REMARK  2 active torsions:
REMARK  status: ('A' for Active; 'I' for Inactive)
REMARK    1  A    between atoms: C5_5  and  C6_6 
REMARK    2  A    between atoms: C7_7  and  C8_8 
ROOT
HETATM    1  C4  UNL     1     -33.154   4.724   1.932  1.00 20.00     0.011 A 
HETATM    2  C6  UNL     1     -33.257   4.996   3.404  1.00 20.00    -0.005 A 
HETATM    3  C7  UNL     1     -33.380   6.129   2.427  1.00 20.00     0.004 A 
ENDROOT
BRANCH   2   4
HETATM    4  C5  UNL     1     -34.425   4.512   4.251  1.00 20.00    -0.010 C 
HETATM    5  C2  UNL     1     -35.554   5.543   4.503  1.00 20.00     0.005 C 
HETATM    6  C1  UNL     1     -34.870   5.884   5.841  1.00 20.00     0.001 C 
HETATM    7  C3  UNL     1     -34.195   4.500   5.783  1.00 20.00     0.005 C 
ENDBRANCH   2   4
BRANCH   3   8
HETATM    8  C8  UNL     1     -32.294   7.143   2.325  1.00 20.00     0.119 C 
HETATM    9 CL9  UNL     1     -32.558   8.235   0.937  1.00 20.00    -0.130 Cl
ENDBRANCH   3   8
TORSDOF 2
ENDMDL
MODEL 3
REMARK VINA RESULT:      -4.4      2.460      4.653
REMARK  2 active torsions:
REMARK  status: ('A' for Active; 'I' for Inactive)
REMARK    1  A    between atoms: C5_5  and  C6_6 
REMARK    2  A    between atoms: C7_7  and  C8_8 
ROOT
HETATM    1  C4  UNL     1     -32.980   5.252   2.562  1.00 20.00     0.011 A 
HETATM    2  C6  UNL     1     -33.426   6.651   2.253  1.00 20.00    -0.005 A 
HETATM    3  C7  UNL     1     -33.484   6.146   3.665  1.00 20.00     0.004 A 
ENDROOT
BRANCH   2   4
HETATM    4  C5  UNL     1     -32.463   7.743   1.811  1.00 20.00    -0.010 C 
HETATM    5  C2  UNL     1     -33.098   9.120   1.491  1.00 20.00     0.005 C 
HETATM    6  C1  UNL     1     -33.128   8.701   0.008  1.00 20.00     0.001 C 
HETATM    7  C3  UNL     1     -32.009   7.691   0.330  1.00 20.00     0.005 C 
ENDBRANCH   2   4
BRANCH   3   8
HETATM    8  C8  UNL     1     -34.802   5.877   4.305  1.00 20.00     0.119 C 
HETATM    9 CL9  UNL     1     -34.615   5.503   6.040  1.00 20.00    -0.130 Cl
ENDBRANCH   3   8
TORSDOF 2
ENDMDL
MODEL 4
REMARK VINA RESULT:      -4.0     11.024     11.820
REMARK  2 active torsions:
REMARK  status: ('A' for Active; 'I' for Inactive)
REMARK    1  A    between atoms: C5_5  and  C6_6 
REMARK    2  A    between atoms: C7_7  and  C8_8 
ROOT
HETATM    1  C4  UNL     1     -33.767  14.661  -4.600  1.00 20.00     0.011 A 
HETATM    2  C6  UNL     1     -34.637  15.469  -3.682  1.00 20.00    -0.005 A 
HETATM    3  C7  UNL     1     -34.964  14.026  -3.940  1.00 20.00     0.004 A 
ENDROOT
BRANCH   2   4
HETATM    4  C5  UNL     1     -34.159  15.971  -2.327  1.00 20.00    -0.010 C 
HETATM    5  C2  UNL     1     -35.201  16.751  -1.486  1.00 20.00     0.005 C 
HETATM    6  C1  UNL     1     -34.606  18.054  -2.055  1.00 20.00     0.001 C 
HETATM    7  C3  UNL     1     -33.312  17.268  -2.344  1.00 20.00     0.005 C 
ENDBRANCH   2   4
BRANCH   3   8
HETATM    8  C8  UNL     1     -36.164  13.670  -4.748  1.00 20.00     0.119 C 
HETATM    9 CL9  UNL     1     -37.595  14.600  -4.226  1.00 20.00    -0.130 Cl
ENDBRANCH   3   8
TORSDOF 2
ENDMDL
MODEL 5
REMARK VINA RESULT:      -3.9     11.266     12.177
REMARK  2 active torsions:
REMARK  status: ('A' for Active; 'I' for Inactive)
REMARK    1  A    between atoms: C5_5  and  C6_6 
REMARK    2  A    between atoms: C7_7  and  C8_8 
ROOT
HETATM    1  C4  UNL     1     -34.813  16.233  -1.969  1.00 20.00     0.011 A 
HETATM    2  C6  UNL     1     -34.374  16.118  -3.399  1.00 20.00    -0.005 A 
HETATM    3  C7  UNL     1     -33.401  16.587  -2.357  1.00 20.00     0.004 A 
ENDROOT
BRANCH   2   4
HETATM    4  C5  UNL     1     -34.232  14.781  -4.111  1.00 20.00    -0.010 C 
HETATM    5  C2  UNL     1     -34.208  14.834  -5.660  1.00 20.00     0.005 C 
HETATM    6  C1  UNL     1     -35.720  14.538  -5.641  1.00 20.00     0.001 C 
HETATM    7  C3  UNL     1     -35.525  13.936  -4.235  1.00 20.00     0.005 C 
ENDBRANCH   2   4
BRANCH   3   8
HETATM    8  C8  UNL     1     -32.954  18.008  -2.343  1.00 20.00     0.119 C 
HETATM    9 CL9  UNL     1     -31.710  18.283  -1.093  1.00 20.00    -0.130 Cl
ENDBRANCH   3   8
TORSDOF 2
ENDMDL
MODEL 6
REMARK VINA RESULT:      -3.9     15.590     16.385
REMARK  2 active torsions:
REMARK  status: ('A' for Active; 'I' for Inactive)
REMARK    1  A    between atoms: C5_5  and  C6_6 
REMARK    2  A    between atoms: C7_7  and  C8_8 
ROOT
HETATM    1  C4  UNL     1     -22.311  17.806   8.514  1.00 20.00     0.011 A 
HETATM    2  C6  UNL     1     -22.920  18.272   9.805  1.00 20.00    -0.005 A 
HETATM    3  C7  UNL     1     -23.790  18.079   8.596  1.00 20.00     0.004 A 
ENDROOT
BRANCH   2   4
HETATM    4  C5  UNL     1     -23.018  17.383  11.036  1.00 20.00    -0.010 C 
HETATM    5  C2  UNL     1     -24.273  16.478  11.122  1.00 20.00     0.005 C 
HETATM    6  C1  UNL     1     -24.933  17.566  11.992  1.00 20.00     0.001 C 
HETATM    7  C3  UNL     1     -23.517  18.070  12.332  1.00 20.00     0.005 C 
ENDBRANCH   2   4
BRANCH   3   8
HETATM    8  C8  UNL     1     -24.373  19.262   7.904  1.00 20.00     0.119 C 
HETATM    9 CL9  UNL     1     -25.930  18.857   7.130  1.00 20.00    -0.130 Cl
ENDBRANCH   3   8
TORSDOF 2
ENDMDL
MODEL 7
REMARK VINA RESULT:      -3.8      9.577     10.355
REMARK  2 active torsions:
REMARK  status: ('A' for Active; 'I' for Inactive)
REMARK    1  A    between atoms: C5_5  and  C6_6 
REMARK    2  A    between atoms: C7_7  and  C8_8 
ROOT
HETATM    1  C4  UNL     1     -41.248   5.329  -1.204  1.00 20.00     0.011 A 
HETATM    2  C6  UNL     1     -42.324   6.363  -1.041  1.00 20.00    -0.005 A 
HETATM    3  C7  UNL     1     -42.694   4.910  -1.125  1.00 20.00     0.004 A 
ENDROOT
BRANCH   2   4
HETATM    4  C5  UNL     1     -42.494   7.179   0.232  1.00 20.00    -0.010 C 
HETATM    5  C2  UNL     1     -43.033   8.621   0.047  1.00 20.00     0.005 C 
HETATM    6  C1  UNL     1     -41.572   9.112   0.059  1.00 20.00     0.001 C 
HETATM    7  C3  UNL     1     -41.205   7.816   0.808  1.00 20.00     0.005 C 
ENDBRANCH   2   4
BRANCH   3   8
HETATM    8  C8  UNL     1     -43.389   4.389  -2.335  1.00 20.00     0.119 C 
HETATM    9 CL9  UNL     1     -43.388   2.604  -2.364  1.00 20.00    -0.130 Cl
ENDBRANCH   3   8
TORSDOF 2
ENDMDL
MODEL 8
REMARK VINA RESULT:      -3.8     11.084     11.989
REMARK  2 active torsions:
REMARK  status: ('A' for Active; 'I' for Inactive)
REMARK    1  A    between atoms: C5_5  and  C6_6 
REMARK    2  A    between atoms: C7_7  and  C8_8 
ROOT
HETATM    1  C4  UNL     1     -33.261  14.412  -4.294  1.00 20.00     0.011 A 
HETATM    2  C6  UNL     1     -34.697  14.349  -3.862  1.00 20.00    -0.005 A 
HETATM    3  C7  UNL     1     -33.992  15.673  -3.912  1.00 20.00     0.004 A 
ENDROOT
BRANCH   2   4
HETATM    4  C5  UNL     1     -35.827  13.985  -4.815  1.00 20.00    -0.010 C 
HETATM    5  C2  UNL     1     -36.030  14.936  -6.021  1.00 20.00     0.005 C 
HETATM    6  C1  UNL     1     -37.110  15.665  -5.196  1.00 20.00     0.001 C 
HETATM    7  C3  UNL     1     -37.254  14.379  -4.358  1.00 20.00     0.005 C 
ENDBRANCH   2   4
BRANCH   3   8
HETATM    8  C8  UNL     1     -33.652  16.382  -2.646  1.00 20.00     0.119 C 
HETATM    9 CL9  UNL     1     -35.023  16.356  -1.503  1.00 20.00    -0.130 Cl
ENDBRANCH   3   8
TORSDOF 2
ENDMDL
MODEL 9
REMARK VINA RESULT:      -3.8     11.239     12.822
REMARK  2 active torsions:
REMARK  status: ('A' for Active; 'I' for Inactive)
REMARK    1  A    between atoms: C5_5  and  C6_6 
REMARK    2  A    between atoms: C7_7  and  C8_8 
ROOT
HETATM    1  C4  UNL     1     -33.959  15.153  -7.343  1.00 20.00     0.011 A 
HETATM    2  C6  UNL     1     -34.230  15.591  -5.933  1.00 20.00    -0.005 A 
HETATM    3  C7  UNL     1     -35.345  15.029  -6.766  1.00 20.00     0.004 A 
ENDROOT
BRANCH   2   4
HETATM    4  C5  UNL     1     -33.664  14.862  -4.723  1.00 20.00    -0.010 C 
HETATM    5  C2  UNL     1     -34.702  14.191  -3.787  1.00 20.00     0.005 C 
HETATM    6  C1  UNL     1     -34.650  15.458  -2.910  1.00 20.00     0.001 C 
HETATM    7  C3  UNL     1     -33.265  15.752  -3.518  1.00 20.00     0.005 C 
ENDBRANCH   2   4
BRANCH   3   8
HETATM    8  C8  UNL     1     -36.438  15.923  -7.244  1.00 20.00     0.119 C 
HETATM    9 CL9  UNL     1     -37.074  16.933  -5.917  1.00 20.00    -0.130 Cl
ENDBRANCH   3   8
TORSDOF 2
ENDMDL
