MODEL 1
REMARK VINA RESULT:      -4.5      0.000      0.000
REMARK  3 active torsions:
REMARK  status: ('A' for Active; 'I' for Inactive)
REMARK    1  A    between atoms: C2_2  and  C10_10 
REMARK    2  A    between atoms: C3_3  and  C9_9 
REMARK    3  A    between atoms: C4_4  and  O11_11 
ROOT
HETATM    1  C1  UNL     1     -25.432  19.261   9.673  1.00 20.00     0.038 C 
HETATM    2  C2  UNL     1     -24.874  17.897  10.144  1.00 20.00     0.002 C 
HETATM    3  C3  UNL     1     -23.530  18.294   9.468  1.00 20.00     0.019 C 
HETATM    4  C4  UNL     1     -24.349  19.262   8.568  1.00 20.00     0.123 C 
ENDROOT
BRANCH   2   5
HETATM    5  C10 UNL     1     -24.838  17.665  11.642  1.00 20.00    -0.047 C 
HETATM    6  C6  UNL     1     -23.483  18.124  12.218  1.00 20.00     0.015 C 
HETATM    7  C7  UNL     1     -25.028  16.167  11.953  1.00 20.00     0.015 C 
HETATM    8  C8  UNL     1     -25.965  18.462  12.329  1.00 20.00     0.015 C 
ENDBRANCH   2   5
BRANCH   3   9
HETATM    9  C9  UNL     1     -22.760  17.175   8.794  1.00 20.00     0.003 C 
HETATM   10  C5  UNL     1     -21.293  17.465   8.724  1.00 20.00     0.005 C 
ENDBRANCH   3   9
BRANCH   4  11
HETATM   11  O11 UNL     1     -24.770  18.755   7.286  1.00 20.00    -0.395 OA
HETATM   12  H31 UNL     1     -25.187  19.500   6.835  1.00 20.00     0.210 HD
ENDBRANCH   4  11
TORSDOF 3
ENDMDL
MODEL 2
REMARK VINA RESULT:      -4.3     16.204     17.521
REMARK  3 active torsions:
REMARK  status: ('A' for Active; 'I' for Inactive)
REMARK    1  A    between atoms: C2_2  and  C10_10 
REMARK    2  A    between atoms: C3_3  and  C9_9 
REMARK    3  A    between atoms: C4_4  and  O11_11 
ROOT
HETATM    1  C1  UNL     1     -32.675  15.541  -3.690  1.00 20.00     0.038 C 
HETATM    2  C2  UNL     1     -33.985  16.362  -3.759  1.00 20.00     0.002 C 
HETATM    3  C3  UNL     1     -34.733  15.016  -3.978  1.00 20.00     0.019 C 
HETATM    4  C4  UNL     1     -33.389  14.434  -4.501  1.00 20.00     0.123 C 
ENDROOT
BRANCH   2   5
HETATM    5  C10 UNL     1     -34.353  17.148  -2.516  1.00 20.00    -0.047 C 
HETATM    6  C6  UNL     1     -35.175  16.267  -1.554  1.00 20.00     0.015 C 
HETATM    7  C7  UNL     1     -35.191  18.385  -2.896  1.00 20.00     0.015 C 
HETATM    8  C8  UNL     1     -33.076  17.618  -1.788  1.00 20.00     0.015 C 
ENDBRANCH   2   5
BRANCH   3   9
HETATM    9  C9  UNL     1     -35.914  15.049  -4.929  1.00 20.00     0.003 C 
HETATM   10  C5  UNL     1     -37.139  14.436  -4.326  1.00 20.00     0.005 C 
ENDBRANCH   3   9
BRANCH   4  11
HETATM   11  O11 UNL     1     -33.178  14.474  -5.926  1.00 20.00    -0.395 OA
HETATM   12  H31 UNL     1     -33.684  15.232  -6.244  1.00 20.00     0.210 HD
ENDBRANCH   4  11
TORSDOF 3
ENDMDL
MODEL 3
REMARK VINA RESULT:      -4.3     16.196     17.467
REMARK  3 active torsions:
REMARK  status: ('A' for Active; 'I' for Inactive)
REMARK    1  A    between atoms: C2_2  and  C10_10 
REMARK    2  A    between atoms: C3_3  and  C9_9 
REMARK    3  A    between atoms: C4_4  and  O11_11 
ROOT
HETATM    1  C1  UNL     1     -32.676  15.543  -3.684  1.00 20.00     0.038 C 
HETATM    2  C2  UNL     1     -33.981  16.372  -3.752  1.00 20.00     0.002 C 
HETATM    3  C3  UNL     1     -34.737  15.031  -3.973  1.00 20.00     0.019 C 
HETATM    4  C4  UNL     1     -33.396  14.442  -4.496  1.00 20.00     0.123 C 
ENDROOT
BRANCH   2   5
HETATM    5  C10 UNL     1     -34.344  17.159  -2.508  1.00 20.00    -0.047 C 
HETATM    6  C6  UNL     1     -33.066  17.625  -1.782  1.00 20.00     0.015 C 
HETATM    7  C7  UNL     1     -35.169  16.281  -1.545  1.00 20.00     0.015 C 
HETATM    8  C8  UNL     1     -35.178  18.399  -2.889  1.00 20.00     0.015 C 
ENDBRANCH   2   5
BRANCH   3   9
HETATM    9  C9  UNL     1     -35.917  15.072  -4.924  1.00 20.00     0.003 C 
HETATM   10  C5  UNL     1     -37.139  14.442  -4.332  1.00 20.00     0.005 C 
ENDBRANCH   3   9
BRANCH   4  11
HETATM   11  O11 UNL     1     -33.184  14.482  -5.922  1.00 20.00    -0.395 OA
HETATM   12  H31 UNL     1     -32.230  14.567  -6.041  1.00 20.00     0.210 HD
ENDBRANCH   4  11
TORSDOF 3
ENDMDL
MODEL 4
REMARK VINA RESULT:      -4.3     16.970     18.127
REMARK  3 active torsions:
REMARK  status: ('A' for Active; 'I' for Inactive)
REMARK    1  A    between atoms: C2_2  and  C10_10 
REMARK    2  A    between atoms: C3_3  and  C9_9 
REMARK    3  A    between atoms: C4_4  and  O11_11 
ROOT
HETATM    1  C1  UNL     1     -36.385  14.797  -3.413  1.00 20.00     0.038 C 
HETATM    2  C2  UNL     1     -34.896  15.215  -3.477  1.00 20.00     0.002 C 
HETATM    3  C3  UNL     1     -35.029  15.186  -5.026  1.00 20.00     0.019 C 
HETATM    4  C4  UNL     1     -36.227  14.213  -4.836  1.00 20.00     0.123 C 
ENDROOT
BRANCH   2   5
HETATM    5  C10 UNL     1     -34.544  16.550  -2.851  1.00 20.00    -0.047 C 
HETATM    6  C6  UNL     1     -33.013  16.723  -2.793  1.00 20.00     0.015 C 
HETATM    7  C7  UNL     1     -35.108  16.630  -1.417  1.00 20.00     0.015 C 
HETATM    8  C8  UNL     1     -35.142  17.701  -3.685  1.00 20.00     0.015 C 
ENDBRANCH   2   5
BRANCH   3   9
HETATM    9  C9  UNL     1     -33.821  14.688  -5.796  1.00 20.00     0.003 C 
HETATM   10  C5  UNL     1     -33.827  15.157  -7.218  1.00 20.00     0.005 C 
ENDBRANCH   3   9
BRANCH   4  11
HETATM   11  O11 UNL     1     -35.932  12.803  -4.900  1.00 20.00    -0.395 OA
HETATM   12  H31 UNL     1     -35.248  12.649  -4.236  1.00 20.00     0.210 HD
ENDBRANCH   4  11
TORSDOF 3
ENDMDL
MODEL 5
REMARK VINA RESULT:      -4.3     16.973     18.150
REMARK  3 active torsions:
REMARK  status: ('A' for Active; 'I' for Inactive)
REMARK    1  A    between atoms: C2_2  and  C10_10 
REMARK    2  A    between atoms: C3_3  and  C9_9 
REMARK    3  A    between atoms: C4_4  and  O11_11 
ROOT
HETATM    1  C1  UNL     1     -36.349  14.791  -3.390  1.00 20.00     0.038 C 
HETATM    2  C2  UNL     1     -34.866  15.218  -3.497  1.00 20.00     0.002 C 
HETATM    3  C3  UNL     1     -35.042  15.184  -5.042  1.00 20.00     0.019 C 
HETATM    4  C4  UNL     1     -36.227  14.204  -4.816  1.00 20.00     0.123 C 
ENDROOT
BRANCH   2   5
HETATM    5  C10 UNL     1     -34.506  16.557  -2.884  1.00 20.00    -0.047 C 
HETATM    6  C6  UNL     1     -35.077  17.705  -3.741  1.00 20.00     0.015 C 
HETATM    7  C7  UNL     1     -32.973  16.712  -2.806  1.00 20.00     0.015 C 
HETATM    8  C8  UNL     1     -35.089  16.664  -1.461  1.00 20.00     0.015 C 
ENDBRANCH   2   5
BRANCH   3   9
HETATM    9  C9  UNL     1     -33.853  14.691  -5.844  1.00 20.00     0.003 C 
HETATM   10  C5  UNL     1     -33.856  15.227  -7.242  1.00 20.00     0.005 C 
ENDBRANCH   3   9
BRANCH   4  11
HETATM   11  O11 UNL     1     -35.925  12.796  -4.884  1.00 20.00    -0.395 OA
HETATM   12  H31 UNL     1     -36.726  12.343  -4.593  1.00 20.00     0.210 HD
ENDBRANCH   4  11
TORSDOF 3
ENDMDL
MODEL 6
REMARK VINA RESULT:      -4.1     17.150     18.456
REMARK  3 active torsions:
REMARK  status: ('A' for Active; 'I' for Inactive)
REMARK    1  A    between atoms: C2_2  and  C10_10 
REMARK    2  A    between atoms: C3_3  and  C9_9 
REMARK    3  A    between atoms: C4_4  and  O11_11 
ROOT
HETATM    1  C1  UNL     1     -34.486  14.210  -4.019  1.00 20.00     0.038 C 
HETATM    2  C2  UNL     1     -35.008  15.663  -4.122  1.00 20.00     0.002 C 
HETATM    3  C3  UNL     1     -36.443  15.082  -3.974  1.00 20.00     0.019 C 
HETATM    4  C4  UNL     1     -35.876  13.733  -4.500  1.00 20.00     0.123 C 
ENDROOT
BRANCH   2   5
HETATM    5  C10 UNL     1     -34.549  16.621  -3.041  1.00 20.00    -0.047 C 
HETATM    6  C6  UNL     1     -34.965  18.063  -3.396  1.00 20.00     0.015 C 
HETATM    7  C7  UNL     1     -33.014  16.568  -2.898  1.00 20.00     0.015 C 
HETATM    8  C8  UNL     1     -35.186  16.240  -1.689  1.00 20.00     0.015 C 
ENDBRANCH   2   5
BRANCH   3   9
HETATM    9  C9  UNL     1     -37.531  15.761  -4.783  1.00 20.00     0.003 C 
HETATM   10  C5  UNL     1     -38.553  16.420  -3.910  1.00 20.00     0.005 C 
ENDBRANCH   3   9
BRANCH   4  11
HETATM   11  O11 UNL     1     -35.993  13.489  -5.916  1.00 20.00    -0.395 OA
HETATM   12  H31 UNL     1     -36.795  12.963  -6.025  1.00 20.00     0.210 HD
ENDBRANCH   4  11
TORSDOF 3
ENDMDL
MODEL 7
REMARK VINA RESULT:      -4.0     17.453     18.652
REMARK  3 active torsions:
REMARK  status: ('A' for Active; 'I' for Inactive)
REMARK    1  A    between atoms: C2_2  and  C10_10 
REMARK    2  A    between atoms: C3_3  and  C9_9 
REMARK    3  A    between atoms: C4_4  and  O11_11 
ROOT
HETATM    1  C1  UNL     1     -36.824  15.688  -3.155  1.00 20.00     0.038 C 
HETATM    2  C2  UNL     1     -35.448  15.304  -3.750  1.00 20.00     0.002 C 
HETATM    3  C3  UNL     1     -36.093  15.460  -5.157  1.00 20.00     0.019 C 
HETATM    4  C4  UNL     1     -37.469  15.211  -4.477  1.00 20.00     0.123 C 
ENDROOT
BRANCH   2   5
HETATM    5  C10 UNL     1     -34.292  16.231  -3.428  1.00 20.00    -0.047 C 
HETATM    6  C6  UNL     1     -32.951  15.531  -3.725  1.00 20.00     0.015 C 
HETATM    7  C7  UNL     1     -34.327  16.626  -1.937  1.00 20.00     0.015 C 
HETATM    8  C8  UNL     1     -34.384  17.511  -4.283  1.00 20.00     0.015 C 
ENDBRANCH   2   5
BRANCH   3   9
HETATM    9  C9  UNL     1     -35.636  14.480  -6.220  1.00 20.00     0.003 C 
HETATM   10  C5  UNL     1     -34.690  15.109  -7.196  1.00 20.00     0.005 C 
ENDBRANCH   3   9
BRANCH   4  11
HETATM   11  O11 UNL     1     -37.954  13.853  -4.476  1.00 20.00    -0.395 OA
HETATM   12  H31 UNL     1     -37.246  13.323  -4.862  1.00 20.00     0.210 HD
ENDBRANCH   4  11
TORSDOF 3
ENDMDL
MODEL 8
REMARK VINA RESULT:      -3.9     17.501     18.684
REMARK  3 active torsions:
REMARK  status: ('A' for Active; 'I' for Inactive)
REMARK    1  A    between atoms: C2_2  and  C10_10 
REMARK    2  A    between atoms: C3_3  and  C9_9 
REMARK    3  A    between atoms: C4_4  and  O11_11 
ROOT
HETATM    1  C1  UNL     1     -37.427  14.552  -4.562  1.00 20.00     0.038 C 
HETATM    2  C2  UNL     1     -36.567  15.362  -3.562  1.00 20.00     0.002 C 
HETATM    3  C3  UNL     1     -35.330  14.975  -4.423  1.00 20.00     0.019 C 
HETATM    4  C4  UNL     1     -36.152  13.757  -4.932  1.00 20.00     0.123 C 
ENDROOT
BRANCH   2   5
HETATM    5  C10 UNL     1     -36.879  16.842  -3.450  1.00 20.00    -0.047 C 
HETATM    6  C6  UNL     1     -38.405  17.060  -3.399  1.00 20.00     0.015 C 
HETATM    7  C7  UNL     1     -36.309  17.599  -4.666  1.00 20.00     0.015 C 
HETATM    8  C8  UNL     1     -36.252  17.420  -2.166  1.00 20.00     0.015 C 
ENDBRANCH   2   5
BRANCH   3   9
HETATM    9  C9  UNL     1     -34.044  14.701  -3.668  1.00 20.00     0.003 C 
HETATM   10  C5  UNL     1     -33.132  15.888  -3.659  1.00 20.00     0.005 C 
ENDBRANCH   3   9
BRANCH   4  11
HETATM   11  O11 UNL     1     -35.970  12.513  -4.227  1.00 20.00    -0.395 OA
HETATM   12  H31 UNL     1     -36.695  11.943  -4.513  1.00 20.00     0.210 HD
ENDBRANCH   4  11
TORSDOF 3
ENDMDL
MODEL 9
REMARK VINA RESULT:      -3.9     17.739     19.124
REMARK  3 active torsions:
REMARK  status: ('A' for Active; 'I' for Inactive)
REMARK    1  A    between atoms: C2_2  and  C10_10 
REMARK    2  A    between atoms: C3_3  and  C9_9 
REMARK    3  A    between atoms: C4_4  and  O11_11 
ROOT
HETATM    1  C1  UNL     1     -34.028  14.979  -6.312  1.00 20.00     0.038 C 
HETATM    2  C2  UNL     1     -35.329  15.164  -5.493  1.00 20.00     0.002 C 
HETATM    3  C3  UNL     1     -34.432  15.632  -4.311  1.00 20.00     0.019 C 
HETATM    4  C4  UNL     1     -33.268  14.842  -4.972  1.00 20.00     0.123 C 
ENDROOT
BRANCH   2   5
HETATM    5  C10 UNL     1     -36.324  16.174  -6.031  1.00 20.00    -0.047 C 
HETATM    6  C6  UNL     1     -35.821  17.607  -5.768  1.00 20.00     0.015 C 
HETATM    7  C7  UNL     1     -37.691  15.992  -5.341  1.00 20.00     0.015 C 
HETATM    8  C8  UNL     1     -36.505  15.982  -7.550  1.00 20.00     0.015 C 
ENDBRANCH   2   5
BRANCH   3   9
HETATM    9  C9  UNL     1     -34.878  15.216  -2.923  1.00 20.00     0.003 C 
HETATM   10  C5  UNL     1     -34.806  16.347  -1.945  1.00 20.00     0.005 C 
ENDBRANCH   3   9
BRANCH   4  11
HETATM   11  O11 UNL     1     -33.058  13.492  -4.512  1.00 20.00    -0.395 OA
HETATM   12  H31 UNL     1     -32.159  13.473  -4.160  1.00 20.00     0.210 HD
ENDBRANCH   4  11
TORSDOF 3
ENDMDL
