MODEL 1
REMARK VINA RESULT:      -4.3      0.000      0.000
REMARK  1 active torsions:
REMARK  status: ('A' for Active; 'I' for Inactive)
REMARK    1  A    between atoms: C6_6  and  C8_8 
ROOT
HETATM    1  C1  UNL     1     -33.639   6.171   6.035  1.00 20.00     0.027 C 
HETATM    2  C2  UNL     1     -33.425   6.974   4.753  1.00 20.00     0.014 C 
HETATM    3  C3  UNL     1     -32.604   5.395   2.860  1.00 20.00     0.018 A 
HETATM    4  C4  UNL     1     -35.009   5.502   6.028  1.00 20.00     0.167 C 
HETATM    5  C5  UNL     1     -35.076   5.417   3.659  1.00 20.00     0.177 C 
HETATM    6  C6  UNL     1     -33.290   6.539   2.164  1.00 20.00     0.011 A 
HETATM    7  C7  UNL     1     -33.742   6.116   3.551  1.00 20.00    -0.014 A 
HETATM    8  O9  UNL     1     -35.148   4.669   4.876  1.00 20.00    -0.390 OA
ENDROOT
BRANCH   6   9
HETATM    9  C8  UNL     1     -32.559   7.813   1.911  1.00 20.00     0.120 C 
HETATM   10 CL10 UNL     1     -32.968   8.485   0.308  1.00 20.00    -0.130 Cl
ENDBRANCH   6   9
TORSDOF 1
ENDMDL
MODEL 2
REMARK VINA RESULT:      -4.3     15.925     16.835
REMARK  1 active torsions:
REMARK  status: ('A' for Active; 'I' for Inactive)
REMARK    1  A    between atoms: C6_6  and  C8_8 
ROOT
HETATM    1  C1  UNL     1     -25.336  18.887   7.933  1.00 20.00     0.027 C 
HETATM    2  C2  UNL     1     -24.968  18.900   9.415  1.00 20.00     0.014 C 
HETATM    3  C3  UNL     1     -24.047  16.571  10.108  1.00 20.00     0.018 A 
HETATM    4  C4  UNL     1     -24.106  19.142   7.071  1.00 20.00     0.167 C 
HETATM    5  C5  UNL     1     -22.640  18.248   8.707  1.00 20.00     0.177 C 
HETATM    6  C6  UNL     1     -23.431  17.551  11.068  1.00 20.00     0.011 A 
HETATM    7  C7  UNL     1     -23.785  17.993   9.658  1.00 20.00    -0.014 A 
HETATM    8  O9  UNL     1     -23.094  18.174   7.353  1.00 20.00    -0.390 OA
ENDROOT
BRANCH   6   9
HETATM    9  C8  UNL     1     -24.190  18.008  12.267  1.00 20.00     0.120 C 
HETATM   10 CL10 UNL     1     -25.813  17.265  12.328  1.00 20.00    -0.130 Cl
ENDBRANCH   6   9
TORSDOF 1
ENDMDL
MODEL 3
REMARK VINA RESULT:      -4.2     11.362     12.436
REMARK  1 active torsions:
REMARK  status: ('A' for Active; 'I' for Inactive)
REMARK    1  A    between atoms: C6_6  and  C8_8 
ROOT
HETATM    1  C1  UNL     1     -36.267  15.705  -5.419  1.00 20.00     0.027 C 
HETATM    2  C2  UNL     1     -35.058  16.407  -4.806  1.00 20.00     0.014 C 
HETATM    3  C3  UNL     1     -34.978  15.938  -2.251  1.00 20.00     0.018 A 
HETATM    4  C4  UNL     1     -35.947  14.245  -5.720  1.00 20.00     0.167 C 
HETATM    5  C5  UNL     1     -34.314  14.137  -4.003  1.00 20.00     0.177 C 
HETATM    6  C6  UNL     1     -33.555  16.210  -2.657  1.00 20.00     0.011 A 
HETATM    7  C7  UNL     1     -34.522  15.591  -3.652  1.00 20.00    -0.014 A 
HETATM    8  O9  UNL     1     -35.520  13.577  -4.531  1.00 20.00    -0.390 OA
ENDROOT
BRANCH   6   9
HETATM    9  C8  UNL     1     -33.062  17.611  -2.780  1.00 20.00     0.120 C 
HETATM   10 CL10 UNL     1     -32.063  18.072  -1.374  1.00 20.00    -0.130 Cl
ENDBRANCH   6   9
TORSDOF 1
ENDMDL
MODEL 4
REMARK VINA RESULT:      -4.2     16.045     17.076
REMARK  1 active torsions:
REMARK  status: ('A' for Active; 'I' for Inactive)
REMARK    1  A    between atoms: C6_6  and  C8_8 
ROOT
HETATM    1  C1  UNL     1     -23.539  18.172   8.566  1.00 20.00     0.027 C 
HETATM    2  C2  UNL     1     -24.474  18.596   9.697  1.00 20.00     0.014 C 
HETATM    3  C3  UNL     1     -24.857  16.596  11.311  1.00 20.00     0.018 A 
HETATM    4  C4  UNL     1     -22.083  18.276   9.005  1.00 20.00     0.167 C 
HETATM    5  C5  UNL     1     -22.633  17.940  11.288  1.00 20.00     0.177 C 
HETATM    6  C6  UNL     1     -25.071  17.832  12.141  1.00 20.00     0.011 A 
HETATM    7  C7  UNL     1     -24.107  17.866  10.967  1.00 20.00    -0.014 A 
HETATM    8  O9  UNL     1     -21.860  17.485  10.173  1.00 20.00    -0.390 OA
ENDROOT
BRANCH   6   9
HETATM    9  C8  UNL     1     -26.386  18.534  12.121  1.00 20.00     0.120 C 
HETATM   10 CL10 UNL     1     -27.736  17.384  12.329  1.00 20.00    -0.130 Cl
ENDBRANCH   6   9
TORSDOF 1
ENDMDL
MODEL 5
REMARK VINA RESULT:      -3.9     11.430     12.421
REMARK  1 active torsions:
REMARK  status: ('A' for Active; 'I' for Inactive)
REMARK    1  A    between atoms: C6_6  and  C8_8 
ROOT
HETATM    1  C1  UNL     1     -33.680  15.073  -4.395  1.00 20.00     0.027 C 
HETATM    2  C2  UNL     1     -32.951  15.902  -3.340  1.00 20.00     0.014 C 
HETATM    3  C3  UNL     1     -34.167  18.177  -3.023  1.00 20.00     0.018 A 
HETATM    4  C4  UNL     1     -34.860  14.331  -3.777  1.00 20.00     0.167 C 
HETATM    5  C5  UNL     1     -35.128  15.958  -2.071  1.00 20.00     0.177 C 
HETATM    6  C6  UNL     1     -33.466  17.908  -1.719  1.00 20.00     0.011 A 
HETATM    7  C7  UNL     1     -33.943  16.748  -2.576  1.00 20.00    -0.014 A 
HETATM    8  O9  UNL     1     -35.751  15.255  -3.150  1.00 20.00    -0.390 OA
ENDROOT
BRANCH   6   9
HETATM    9  C8  UNL     1     -32.024  18.245  -1.555  1.00 20.00     0.120 C 
HETATM   10 CL10 UNL     1     -31.558  18.277   0.168  1.00 20.00    -0.130 Cl
ENDBRANCH   6   9
TORSDOF 1
ENDMDL
MODEL 6
REMARK VINA RESULT:      -3.8     11.345     12.255
REMARK  1 active torsions:
REMARK  status: ('A' for Active; 'I' for Inactive)
REMARK    1  A    between atoms: C6_6  and  C8_8 
ROOT
HETATM    1  C1  UNL     1     -35.077  17.408  -1.205  1.00 20.00     0.027 C 
HETATM    2  C2  UNL     1     -35.029  16.028  -1.858  1.00 20.00     0.014 C 
HETATM    3  C3  UNL     1     -34.848  16.287  -4.437  1.00 20.00     0.018 A 
HETATM    4  C4  UNL     1     -33.671  17.969  -1.028  1.00 20.00     0.167 C 
HETATM    5  C5  UNL     1     -32.827  16.727  -2.864  1.00 20.00     0.177 C 
HETATM    6  C6  UNL     1     -34.228  14.954  -4.120  1.00 20.00     0.011 A 
HETATM    7  C7  UNL     1     -34.170  16.078  -3.100  1.00 20.00    -0.014 A 
HETATM    8  O9  UNL     1     -32.997  18.024  -2.286  1.00 20.00    -0.390 OA
ENDROOT
BRANCH   6   9
HETATM    9  C8  UNL     1     -35.086  13.749  -3.940  1.00 20.00     0.120 C 
HETATM   10 CL10 UNL     1     -36.759  14.059  -4.483  1.00 20.00    -0.130 Cl
ENDBRANCH   6   9
TORSDOF 1
ENDMDL
MODEL 7
REMARK VINA RESULT:      -3.8     11.372     12.427
REMARK  1 active torsions:
REMARK  status: ('A' for Active; 'I' for Inactive)
REMARK    1  A    between atoms: C6_6  and  C8_8 
ROOT
HETATM    1  C1  UNL     1     -38.218  16.269  -3.868  1.00 20.00     0.027 C 
HETATM    2  C2  UNL     1     -36.763  16.569  -4.223  1.00 20.00     0.014 C 
HETATM    3  C3  UNL     1     -35.186  15.181  -2.695  1.00 20.00     0.018 A 
HETATM    4  C4  UNL     1     -38.692  15.001  -4.569  1.00 20.00     0.167 C 
HETATM    5  C5  UNL     1     -36.499  14.102  -4.660  1.00 20.00     0.177 C 
HETATM    6  C6  UNL     1     -34.404  15.442  -3.953  1.00 20.00     0.011 A 
HETATM    7  C7  UNL     1     -35.918  15.336  -4.011  1.00 20.00    -0.014 A 
HETATM    8  O9  UNL     1     -37.847  13.901  -4.226  1.00 20.00    -0.390 OA
ENDROOT
BRANCH   6   9
HETATM    9  C8  UNL     1     -33.681  16.732  -4.137  1.00 20.00     0.120 C 
HETATM   10 CL10 UNL     1     -32.921  17.271  -2.613  1.00 20.00    -0.130 Cl
ENDBRANCH   6   9
TORSDOF 1
ENDMDL
MODEL 8
REMARK VINA RESULT:      -3.7     11.796     13.263
REMARK  1 active torsions:
REMARK  status: ('A' for Active; 'I' for Inactive)
REMARK    1  A    between atoms: C6_6  and  C8_8 
ROOT
HETATM    1  C1  UNL     1     -36.214  16.769  -5.990  1.00 20.00     0.027 C 
HETATM    2  C2  UNL     1     -35.094  17.040  -4.987  1.00 20.00     0.014 C 
HETATM    3  C3  UNL     1     -34.795  14.980  -3.432  1.00 20.00     0.018 A 
HETATM    4  C4  UNL     1     -35.690  15.974  -7.180  1.00 20.00     0.167 C 
HETATM    5  C5  UNL     1     -33.964  14.979  -5.894  1.00 20.00     0.177 C 
HETATM    6  C6  UNL     1     -33.457  15.668  -3.454  1.00 20.00     0.011 A 
HETATM    7  C7  UNL     1     -34.373  15.753  -4.663  1.00 20.00    -0.014 A 
HETATM    8  O9  UNL     1     -35.097  14.752  -6.737  1.00 20.00    -0.390 OA
ENDROOT
BRANCH   6   9
HETATM    9  C8  UNL     1     -33.195  16.832  -2.561  1.00 20.00     0.120 C 
HETATM   10 CL10 UNL     1     -34.484  17.015  -1.340  1.00 20.00    -0.130 Cl
ENDBRANCH   6   9
TORSDOF 1
ENDMDL
MODEL 9
REMARK VINA RESULT:      -3.7     11.720     12.748
REMARK  1 active torsions:
REMARK  status: ('A' for Active; 'I' for Inactive)
REMARK    1  A    between atoms: C6_6  and  C8_8 
ROOT
HETATM    1  C1  UNL     1     -34.654  14.428  -3.791  1.00 20.00     0.027 C 
HETATM    2  C2  UNL     1     -34.970  15.445  -2.696  1.00 20.00     0.014 C 
HETATM    3  C3  UNL     1     -32.966  17.075  -2.412  1.00 20.00     0.018 A 
HETATM    4  C4  UNL     1     -34.959  15.007  -5.167  1.00 20.00     0.167 C 
HETATM    5  C5  UNL     1     -34.594  17.232  -4.431  1.00 20.00     0.177 C 
HETATM    6  C6  UNL     1     -34.178  17.839  -1.953  1.00 20.00     0.011 A 
HETATM    7  C7  UNL     1     -34.318  16.768  -3.021  1.00 20.00    -0.014 A 
HETATM    8  O9  UNL     1     -34.226  16.217  -5.369  1.00 20.00    -0.390 OA
ENDROOT
BRANCH   6   9
HETATM    9  C8  UNL     1     -34.697  17.664  -0.567  1.00 20.00     0.120 C 
HETATM   10 CL10 UNL     1     -33.504  18.211   0.645  1.00 20.00    -0.130 Cl
ENDBRANCH   6   9
TORSDOF 1
ENDMDL
