MODEL 1
REMARK VINA RESULT:      -4.6      0.000      0.000
REMARK  2 active torsions:
REMARK  status: ('A' for Active; 'I' for Inactive)
REMARK    1  A    between atoms: C4_4  and  C6_6 
REMARK    2  A    between atoms: C5_5  and  C8_8 
ROOT
HETATM    1  C3  UNL     1     -32.647   5.766   2.576  1.00 20.00     0.016 A 
HETATM    2  C5  UNL     1     -33.288   7.014   2.040  1.00 20.00     0.009 A 
HETATM    3  C6  UNL     1     -33.162   6.815   3.549  1.00 20.00    -0.035 A 
HETATM    4  C7  UNL     1     -32.120   7.607   4.302  1.00 20.00     0.016 C 
ENDROOT
BRANCH   3   5
HETATM    5  C4  UNL     1     -34.430   6.546   4.375  1.00 20.00    -0.006 A 
HETATM    6  C1  UNL     1     -34.930   5.158   4.663  1.00 20.00     0.006 A 
HETATM    7  C2  UNL     1     -34.385   6.007   5.777  1.00 20.00     0.006 A 
ENDBRANCH   3   5
BRANCH   2   8
HETATM    8  C8  UNL     1     -32.480   8.013   1.284  1.00 20.00     0.120 C 
HETATM    9 CL9  UNL     1     -33.387   8.654  -0.113  1.00 20.00    -0.130 Cl
ENDBRANCH   2   8
TORSDOF 2
ENDMDL
MODEL 2
REMARK VINA RESULT:      -4.1     15.411     16.289
REMARK  2 active torsions:
REMARK  status: ('A' for Active; 'I' for Inactive)
REMARK    1  A    between atoms: C4_4  and  C6_6 
REMARK    2  A    between atoms: C5_5  and  C8_8 
ROOT
HETATM    1  C3  UNL     1     -24.528  18.261   9.334  1.00 20.00     0.016 A 
HETATM    2  C5  UNL     1     -23.259  18.491  10.103  1.00 20.00     0.009 A 
HETATM    3  C6  UNL     1     -24.413  17.733  10.755  1.00 20.00    -0.035 A 
HETATM    4  C7  UNL     1     -24.303  16.235  10.912  1.00 20.00     0.016 C 
ENDROOT
BRANCH   3   5
HETATM    5  C4  UNL     1     -25.198  18.402  11.894  1.00 20.00    -0.006 A 
HETATM    6  C1  UNL     1     -26.406  19.263  11.650  1.00 20.00     0.006 A 
HETATM    7  C2  UNL     1     -26.557  17.931  12.329  1.00 20.00     0.006 A 
ENDBRANCH   3   5
BRANCH   2   8
HETATM    8  C8  UNL     1     -21.990  17.830   9.682  1.00 20.00     0.120 C 
HETATM    9 CL9  UNL     1     -22.038  17.382   7.955  1.00 20.00    -0.130 Cl
ENDBRANCH   2   8
TORSDOF 2
ENDMDL
MODEL 3
REMARK VINA RESULT:      -4.1     10.694     11.435
REMARK  2 active torsions:
REMARK  status: ('A' for Active; 'I' for Inactive)
REMARK    1  A    between atoms: C4_4  and  C6_6 
REMARK    2  A    between atoms: C5_5  and  C8_8 
ROOT
HETATM    1  C3  UNL     1     -33.501  14.443  -4.323  1.00 20.00     0.016 A 
HETATM    2  C5  UNL     1     -34.930  14.254  -3.902  1.00 20.00     0.009 A 
HETATM    3  C6  UNL     1     -34.283  15.632  -3.789  1.00 20.00    -0.035 A 
HETATM    4  C7  UNL     1     -34.661  16.697  -4.791  1.00 20.00     0.016 C 
ENDROOT
BRANCH   3   5
HETATM    5  C4  UNL     1     -33.972  16.199  -2.395  1.00 20.00    -0.006 A 
HETATM    6  C1  UNL     1     -34.195  17.642  -2.038  1.00 20.00     0.006 A 
HETATM    7  C2  UNL     1     -35.047  16.573  -1.413  1.00 20.00     0.006 A 
ENDBRANCH   3   5
BRANCH   2   8
HETATM    8  C8  UNL     1     -35.978  13.931  -4.912  1.00 20.00     0.120 C 
HETATM    9 CL9  UNL     1     -37.603  14.378  -4.323  1.00 20.00    -0.130 Cl
ENDBRANCH   2   8
TORSDOF 2
ENDMDL
MODEL 4
REMARK VINA RESULT:      -4.0     10.837     11.629
REMARK  2 active torsions:
REMARK  status: ('A' for Active; 'I' for Inactive)
REMARK    1  A    between atoms: C4_4  and  C6_6 
REMARK    2  A    between atoms: C5_5  and  C8_8 
ROOT
HETATM    1  C3  UNL     1     -35.547  13.655  -4.220  1.00 20.00     0.016 A 
HETATM    2  C5  UNL     1     -35.603  14.905  -5.051  1.00 20.00     0.009 A 
HETATM    3  C6  UNL     1     -34.540  14.764  -3.963  1.00 20.00    -0.035 A 
HETATM    4  C7  UNL     1     -33.113  14.489  -4.372  1.00 20.00     0.016 C 
ENDROOT
BRANCH   3   5
HETATM    5  C4  UNL     1     -34.648  15.629  -2.697  1.00 20.00    -0.006 A 
HETATM    6  C1  UNL     1     -33.615  16.656  -2.325  1.00 20.00     0.006 A 
HETATM    7  C2  UNL     1     -34.993  17.091  -2.740  1.00 20.00     0.006 A 
ENDBRANCH   3   5
BRANCH   2   8
HETATM    8  C8  UNL     1     -35.284  14.859  -6.506  1.00 20.00     0.120 C 
HETATM    9 CL9  UNL     1     -34.672  16.434  -7.084  1.00 20.00    -0.130 Cl
ENDBRANCH   2   8
TORSDOF 2
ENDMDL
MODEL 5
REMARK VINA RESULT:      -4.0     10.791     11.852
REMARK  2 active torsions:
REMARK  status: ('A' for Active; 'I' for Inactive)
REMARK    1  A    between atoms: C4_4  and  C6_6 
REMARK    2  A    between atoms: C5_5  and  C8_8 
ROOT
HETATM    1  C3  UNL     1     -33.482  14.965  -3.976  1.00 20.00     0.016 A 
HETATM    2  C5  UNL     1     -34.694  15.234  -3.130  1.00 20.00     0.009 A 
HETATM    3  C6  UNL     1     -33.759  16.383  -3.502  1.00 20.00    -0.035 A 
HETATM    4  C7  UNL     1     -34.204  17.372  -4.552  1.00 20.00     0.016 C 
ENDROOT
BRANCH   3   5
HETATM    5  C4  UNL     1     -32.884  17.017  -2.409  1.00 20.00    -0.006 A 
HETATM    6  C1  UNL     1     -32.632  18.497  -2.329  1.00 20.00     0.006 A 
HETATM    7  C2  UNL     1     -33.458  17.816  -1.273  1.00 20.00     0.006 A 
ENDBRANCH   3   5
BRANCH   2   8
HETATM    8  C8  UNL     1     -36.063  15.085  -3.702  1.00 20.00     0.120 C 
HETATM    9 CL9  UNL     1     -36.224  13.552  -4.601  1.00 20.00    -0.130 Cl
ENDBRANCH   2   8
TORSDOF 2
ENDMDL
MODEL 6
REMARK VINA RESULT:      -3.9     15.498     16.697
REMARK  2 active torsions:
REMARK  status: ('A' for Active; 'I' for Inactive)
REMARK    1  A    between atoms: C4_4  and  C6_6 
REMARK    2  A    between atoms: C5_5  and  C8_8 
ROOT
HETATM    1  C3  UNL     1     -24.615  18.239  10.455  1.00 20.00     0.016 A 
HETATM    2  C5  UNL     1     -24.603  16.792  10.856  1.00 20.00     0.009 A 
HETATM    3  C6  UNL     1     -23.288  17.562  10.759  1.00 20.00    -0.035 A 
HETATM    4  C7  UNL     1     -22.594  17.978  12.034  1.00 20.00     0.016 C 
ENDROOT
BRANCH   3   5
HETATM    5  C4  UNL     1     -22.311  17.230   9.620  1.00 20.00    -0.006 A 
HETATM    6  C1  UNL     1     -22.459  17.794   8.235  1.00 20.00     0.006 A 
HETATM    7  C2  UNL     1     -21.306  18.220   9.099  1.00 20.00     0.006 A 
ENDBRANCH   3   5
BRANCH   2   8
HETATM    8  C8  UNL     1     -25.198  16.363  12.154  1.00 20.00     0.120 C 
HETATM    9 CL9  UNL     1     -26.867  16.970  12.332  1.00 20.00    -0.130 Cl
ENDBRANCH   2   8
TORSDOF 2
ENDMDL
MODEL 7
REMARK VINA RESULT:      -3.8     11.071     11.966
REMARK  2 active torsions:
REMARK  status: ('A' for Active; 'I' for Inactive)
REMARK    1  A    between atoms: C4_4  and  C6_6 
REMARK    2  A    between atoms: C5_5  and  C8_8 
ROOT
HETATM    1  C3  UNL     1     -34.870  16.395  -1.751  1.00 20.00     0.016 A 
HETATM    2  C5  UNL     1     -33.479  16.760  -2.183  1.00 20.00     0.009 A 
HETATM    3  C6  UNL     1     -34.513  16.345  -3.228  1.00 20.00    -0.035 A 
HETATM    4  C7  UNL     1     -35.125  17.409  -4.107  1.00 20.00     0.016 C 
ENDROOT
BRANCH   3   5
HETATM    5  C4  UNL     1     -34.354  14.992  -3.939  1.00 20.00    -0.006 A 
HETATM    6  C1  UNL     1     -34.071  14.879  -5.411  1.00 20.00     0.006 A 
HETATM    7  C2  UNL     1     -33.024  14.475  -4.412  1.00 20.00     0.006 A 
ENDBRANCH   3   5
BRANCH   2   8
HETATM    8  C8  UNL     1     -32.987  18.160  -2.042  1.00 20.00     0.120 C 
HETATM    9 CL9  UNL     1     -31.590  18.245  -0.933  1.00 20.00    -0.130 Cl
ENDBRANCH   2   8
TORSDOF 2
ENDMDL
MODEL 8
REMARK VINA RESULT:      -3.8     10.909     11.731
REMARK  2 active torsions:
REMARK  status: ('A' for Active; 'I' for Inactive)
REMARK    1  A    between atoms: C4_4  and  C6_6 
REMARK    2  A    between atoms: C5_5  and  C8_8 
ROOT
HETATM    1  C3  UNL     1     -35.986  13.635  -4.507  1.00 20.00     0.016 A 
HETATM    2  C5  UNL     1     -36.769  14.810  -3.994  1.00 20.00     0.009 A 
HETATM    3  C6  UNL     1     -35.286  14.972  -4.323  1.00 20.00    -0.035 A 
HETATM    4  C7  UNL     1     -34.897  15.710  -5.581  1.00 20.00     0.016 C 
ENDROOT
BRANCH   3   5
HETATM    5  C4  UNL     1     -34.285  15.168  -3.173  1.00 20.00    -0.006 A 
HETATM    6  C1  UNL     1     -33.273  16.279  -3.161  1.00 20.00     0.006 A 
HETATM    7  C2  UNL     1     -34.406  16.284  -2.174  1.00 20.00     0.006 A 
ENDBRANCH   3   5
BRANCH   2   8
HETATM    8  C8  UNL     1     -37.853  15.413  -4.821  1.00 20.00     0.120 C 
HETATM    9 CL9  UNL     1     -39.465  14.911  -4.241  1.00 20.00    -0.130 Cl
ENDBRANCH   2   8
TORSDOF 2
ENDMDL
MODEL 9
REMARK VINA RESULT:      -3.7     10.806     12.193
REMARK  2 active torsions:
REMARK  status: ('A' for Active; 'I' for Inactive)
REMARK    1  A    between atoms: C4_4  and  C6_6 
REMARK    2  A    between atoms: C5_5  and  C8_8 
ROOT
HETATM    1  C3  UNL     1     -32.815  14.602  -4.255  1.00 20.00     0.016 A 
HETATM    2  C5  UNL     1     -33.542  15.869  -3.907  1.00 20.00     0.009 A 
HETATM    3  C6  UNL     1     -34.224  14.820  -4.782  1.00 20.00    -0.035 A 
HETATM    4  C7  UNL     1     -35.312  13.965  -4.179  1.00 20.00     0.016 C 
ENDROOT
BRANCH   3   5
HETATM    5  C4  UNL     1     -34.453  15.126  -6.271  1.00 20.00    -0.006 A 
HETATM    6  C1  UNL     1     -35.752  14.831  -6.969  1.00 20.00     0.006 A 
HETATM    7  C2  UNL     1     -35.327  16.255  -6.742  1.00 20.00     0.006 A 
ENDBRANCH   3   5
BRANCH   2   8
HETATM    8  C8  UNL     1     -33.953  16.141  -2.500  1.00 20.00     0.120 C 
HETATM    9 CL9  UNL     1     -32.984  17.460  -1.787  1.00 20.00    -0.130 Cl
ENDBRANCH   2   8
TORSDOF 2
ENDMDL
