MODEL 1
REMARK VINA RESULT:      -4.6      0.000      0.000
REMARK  1 active torsions:
REMARK  status: ('A' for Active; 'I' for Inactive)
REMARK    1  A    between atoms: C4_4  and  C9_9 
ROOT
HETATM    1  C1  UNL     1     -35.652  13.809  -4.196  1.00 20.00     0.131 C 
HETATM    2  C2  UNL     1     -36.337  15.090  -3.685  1.00 20.00     0.084 C 
HETATM    3  C3  UNL     1     -34.261  14.293  -3.721  1.00 20.00     0.056 C 
HETATM    4  C4  UNL     1     -35.030  15.388  -2.900  1.00 20.00     0.011 C 
HETATM    5  C5  UNL     1     -33.324  14.706  -4.841  1.00 20.00     0.018 C 
HETATM    6  O10 UNL     1     -36.050  12.811  -4.759  1.00 20.00    -0.298 OA
ENDROOT
BRANCH   4   7
HETATM    7  C9  UNL     1     -34.544  16.825  -2.954  1.00 20.00    -0.047 C 
HETATM    8  C6  UNL     1     -33.044  16.892  -2.605  1.00 20.00     0.015 C 
HETATM    9  C7  UNL     1     -35.329  17.686  -1.944  1.00 20.00     0.015 C 
HETATM   10  C8  UNL     1     -34.754  17.402  -4.368  1.00 20.00     0.015 C 
ENDBRANCH   4   7
TORSDOF 1
ENDMDL
MODEL 2
REMARK VINA RESULT:      -4.6      0.006      1.375
REMARK  1 active torsions:
REMARK  status: ('A' for Active; 'I' for Inactive)
REMARK    1  A    between atoms: C4_4  and  C9_9 
ROOT
HETATM    1  C1  UNL     1     -35.653  13.810  -4.200  1.00 20.00     0.131 C 
HETATM    2  C2  UNL     1     -36.339  15.091  -3.692  1.00 20.00     0.084 C 
HETATM    3  C3  UNL     1     -34.263  14.292  -3.719  1.00 20.00     0.056 C 
HETATM    4  C4  UNL     1     -35.034  15.388  -2.901  1.00 20.00     0.011 C 
HETATM    5  C5  UNL     1     -33.322  14.705  -4.835  1.00 20.00     0.018 C 
HETATM    6  O10 UNL     1     -36.050  12.813  -4.765  1.00 20.00    -0.298 OA
ENDROOT
BRANCH   4   7
HETATM    7  C9  UNL     1     -34.547  16.824  -2.951  1.00 20.00    -0.047 C 
HETATM    8  C6  UNL     1     -34.757  17.407  -4.362  1.00 20.00     0.015 C 
HETATM    9  C7  UNL     1     -33.046  16.885  -2.604  1.00 20.00     0.015 C 
HETATM   10  C8  UNL     1     -35.327  17.683  -1.936  1.00 20.00     0.015 C 
ENDBRANCH   4   7
TORSDOF 1
ENDMDL
MODEL 3
REMARK VINA RESULT:      -4.5      1.384      2.192
REMARK  1 active torsions:
REMARK  status: ('A' for Active; 'I' for Inactive)
REMARK    1  A    between atoms: C4_4  and  C9_9 
ROOT
HETATM    1  C1  UNL     1     -37.282  14.396  -4.242  1.00 20.00     0.131 C 
HETATM    2  C2  UNL     1     -36.605  15.428  -3.321  1.00 20.00     0.084 C 
HETATM    3  C3  UNL     1     -35.922  13.913  -4.799  1.00 20.00     0.056 C 
HETATM    4  C4  UNL     1     -35.266  14.693  -3.606  1.00 20.00     0.011 C 
HETATM    5  C5  UNL     1     -35.642  14.340  -6.228  1.00 20.00     0.018 C 
HETATM    6  O10 UNL     1     -38.437  14.089  -4.451  1.00 20.00    -0.298 OA
ENDROOT
BRANCH   4   7
HETATM    7  C9  UNL     1     -34.070  15.588  -3.880  1.00 20.00    -0.047 C 
HETATM    8  C6  UNL     1     -33.642  16.312  -2.589  1.00 20.00     0.015 C 
HETATM    9  C7  UNL     1     -34.432  16.641  -4.946  1.00 20.00     0.015 C 
HETATM   10  C8  UNL     1     -32.887  14.745  -4.395  1.00 20.00     0.015 C 
ENDBRANCH   4   7
TORSDOF 1
ENDMDL
MODEL 4
REMARK VINA RESULT:      -4.5      1.387      2.446
REMARK  1 active torsions:
REMARK  status: ('A' for Active; 'I' for Inactive)
REMARK    1  A    between atoms: C4_4  and  C9_9 
ROOT
HETATM    1  C1  UNL     1     -37.285  14.391  -4.245  1.00 20.00     0.131 C 
HETATM    2  C2  UNL     1     -36.605  15.420  -3.324  1.00 20.00     0.084 C 
HETATM    3  C3  UNL     1     -35.926  13.907  -4.806  1.00 20.00     0.056 C 
HETATM    4  C4  UNL     1     -35.267  14.685  -3.613  1.00 20.00     0.011 C 
HETATM    5  C5  UNL     1     -35.648  14.337  -6.234  1.00 20.00     0.018 C 
HETATM    6  O10 UNL     1     -38.440  14.085  -4.454  1.00 20.00    -0.298 OA
ENDROOT
BRANCH   4   7
HETATM    7  C9  UNL     1     -34.071  15.579  -3.887  1.00 20.00    -0.047 C 
HETATM    8  C6  UNL     1     -34.430  16.632  -4.954  1.00 20.00     0.015 C 
HETATM    9  C7  UNL     1     -32.887  14.735  -4.398  1.00 20.00     0.015 C 
HETATM   10  C8  UNL     1     -33.645  16.303  -2.594  1.00 20.00     0.015 C 
ENDBRANCH   4   7
TORSDOF 1
ENDMDL
MODEL 5
REMARK VINA RESULT:      -4.2      1.485      2.759
REMARK  1 active torsions:
REMARK  status: ('A' for Active; 'I' for Inactive)
REMARK    1  A    between atoms: C4_4  and  C9_9 
ROOT
HETATM    1  C1  UNL     1     -37.319  14.428  -4.413  1.00 20.00     0.131 C 
HETATM    2  C2  UNL     1     -35.905  13.874  -4.163  1.00 20.00     0.084 C 
HETATM    3  C3  UNL     1     -36.785  15.868  -4.605  1.00 20.00     0.056 C 
HETATM    4  C4  UNL     1     -35.359  15.220  -4.714  1.00 20.00     0.011 C 
HETATM    5  C5  UNL     1     -37.101  16.812  -3.460  1.00 20.00     0.018 C 
HETATM    6  O10 UNL     1     -38.424  13.928  -4.440  1.00 20.00    -0.298 OA
ENDROOT
BRANCH   4   7
HETATM    7  C9  UNL     1     -34.210  15.833  -3.934  1.00 20.00    -0.047 C 
HETATM    8  C6  UNL     1     -33.970  17.283  -4.396  1.00 20.00     0.015 C 
HETATM    9  C7  UNL     1     -32.923  15.017  -4.162  1.00 20.00     0.015 C 
HETATM   10  C8  UNL     1     -34.537  15.836  -2.428  1.00 20.00     0.015 C 
ENDBRANCH   4   7
TORSDOF 1
ENDMDL
MODEL 6
REMARK VINA RESULT:      -4.2      1.483      2.610
REMARK  1 active torsions:
REMARK  status: ('A' for Active; 'I' for Inactive)
REMARK    1  A    between atoms: C4_4  and  C9_9 
ROOT
HETATM    1  C1  UNL     1     -37.310  14.425  -4.413  1.00 20.00     0.131 C 
HETATM    2  C2  UNL     1     -35.896  13.871  -4.164  1.00 20.00     0.084 C 
HETATM    3  C3  UNL     1     -36.777  15.864  -4.606  1.00 20.00     0.056 C 
HETATM    4  C4  UNL     1     -35.351  15.217  -4.716  1.00 20.00     0.011 C 
HETATM    5  C5  UNL     1     -37.092  16.808  -3.461  1.00 20.00     0.018 C 
HETATM    6  O10 UNL     1     -38.415  13.924  -4.441  1.00 20.00    -0.298 OA
ENDROOT
BRANCH   4   7
HETATM    7  C9  UNL     1     -34.202  15.830  -3.937  1.00 20.00    -0.047 C 
HETATM    8  C6  UNL     1     -34.525  15.835  -2.430  1.00 20.00     0.015 C 
HETATM    9  C7  UNL     1     -33.964  17.281  -4.400  1.00 20.00     0.015 C 
HETATM   10  C8  UNL     1     -32.913  15.016  -4.168  1.00 20.00     0.015 C 
ENDBRANCH   4   7
TORSDOF 1
ENDMDL
MODEL 7
REMARK VINA RESULT:      -4.1     10.299     12.258
REMARK  1 active torsions:
REMARK  status: ('A' for Active; 'I' for Inactive)
REMARK    1  A    between atoms: C4_4  and  C9_9 
ROOT
HETATM    1  C1  UNL     1     -41.488   8.868   0.074  1.00 20.00     0.131 C 
HETATM    2  C2  UNL     1     -41.258   8.015  -1.187  1.00 20.00     0.084 C 
HETATM    3  C3  UNL     1     -41.932   7.636   0.898  1.00 20.00     0.056 C 
HETATM    4  C4  UNL     1     -41.344   6.765  -0.268  1.00 20.00     0.011 C 
HETATM    5  C5  UNL     1     -43.417   7.587   1.203  1.00 20.00     0.018 C 
HETATM    6  O10 UNL     1     -41.372  10.050   0.321  1.00 20.00    -0.298 OA
ENDROOT
BRANCH   4   7
HETATM    7  C9  UNL     1     -42.163   5.607  -0.808  1.00 20.00    -0.047 C 
HETATM    8  C6  UNL     1     -41.256   4.634  -1.587  1.00 20.00     0.015 C 
HETATM    9  C7  UNL     1     -43.261   6.131  -1.754  1.00 20.00     0.015 C 
HETATM   10  C8  UNL     1     -42.830   4.844   0.355  1.00 20.00     0.015 C 
ENDBRANCH   4   7
TORSDOF 1
ENDMDL
MODEL 8
REMARK VINA RESULT:      -4.1      1.826      2.601
REMARK  1 active torsions:
REMARK  status: ('A' for Active; 'I' for Inactive)
REMARK    1  A    between atoms: C4_4  and  C9_9 
ROOT
HETATM    1  C1  UNL     1     -35.755  14.990  -6.717  1.00 20.00     0.131 C 
HETATM    2  C2  UNL     1     -34.441  15.737  -6.430  1.00 20.00     0.084 C 
HETATM    3  C3  UNL     1     -36.166  15.016  -5.226  1.00 20.00     0.056 C 
HETATM    4  C4  UNL     1     -35.025  16.077  -5.031  1.00 20.00     0.011 C 
HETATM    5  C5  UNL     1     -36.075  13.672  -4.527  1.00 20.00     0.018 C 
HETATM    6  O10 UNL     1     -36.266  14.547  -7.725  1.00 20.00    -0.298 OA
ENDROOT
BRANCH   4   7
HETATM    7  C9  UNL     1     -34.068  15.924  -3.863  1.00 20.00    -0.047 C 
HETATM    8  C6  UNL     1     -33.093  14.760  -4.125  1.00 20.00     0.015 C 
HETATM    9  C7  UNL     1     -34.855  15.634  -2.570  1.00 20.00     0.015 C 
HETATM   10  C8  UNL     1     -33.257  17.222  -3.671  1.00 20.00     0.015 C 
ENDBRANCH   4   7
TORSDOF 1
ENDMDL
MODEL 9
REMARK VINA RESULT:      -4.1      1.829      2.747
REMARK  1 active torsions:
REMARK  status: ('A' for Active; 'I' for Inactive)
REMARK    1  A    between atoms: C4_4  and  C9_9 
ROOT
HETATM    1  C1  UNL     1     -35.752  15.001  -6.720  1.00 20.00     0.131 C 
HETATM    2  C2  UNL     1     -34.439  15.747  -6.427  1.00 20.00     0.084 C 
HETATM    3  C3  UNL     1     -36.167  15.023  -5.229  1.00 20.00     0.056 C 
HETATM    4  C4  UNL     1     -35.027  16.083  -5.028  1.00 20.00     0.011 C 
HETATM    5  C5  UNL     1     -36.078  13.677  -4.534  1.00 20.00     0.018 C 
HETATM    6  O10 UNL     1     -36.260  14.561  -7.730  1.00 20.00    -0.298 OA
ENDROOT
BRANCH   4   7
HETATM    7  C9  UNL     1     -34.073  15.927  -3.858  1.00 20.00    -0.047 C 
HETATM    8  C6  UNL     1     -34.861  15.635  -2.566  1.00 20.00     0.015 C 
HETATM    9  C7  UNL     1     -33.259  17.221  -3.664  1.00 20.00     0.015 C 
HETATM   10  C8  UNL     1     -33.099  14.761  -4.123  1.00 20.00     0.015 C 
ENDBRANCH   4   7
TORSDOF 1
ENDMDL
