MODEL 1
REMARK VINA RESULT:      -3.8      0.000      0.000
REMARK  3 active torsions:
REMARK  status: ('A' for Active; 'I' for Inactive)
REMARK    1  A    between atoms: C4_4  and  C6_6 
REMARK    2  A    between atoms: C5_5  and  C8_8 
REMARK    3  A    between atoms: C6_6  and  C9_9 
ROOT
HETATM    1  C3  UNL     1     -35.381  16.469  -3.763  1.00 20.00     0.017 A 
HETATM    2  C5  UNL     1     -34.882  15.127  -3.308  1.00 20.00     0.009 A 
HETATM    3  C6  UNL     1     -34.471  16.382  -2.548  1.00 20.00    -0.032 A 
ENDROOT
BRANCH   3   4
HETATM    4  C4  UNL     1     -33.043  16.941  -2.613  1.00 20.00    -0.006 A 
HETATM    5  C1  UNL     1     -32.746  18.369  -2.979  1.00 20.00     0.006 A 
HETATM    6  C2  UNL     1     -32.493  17.884  -1.578  1.00 20.00     0.006 A 
ENDBRANCH   3   4
BRANCH   3   7
HETATM    7  C9  UNL     1     -35.127  16.580  -1.202  1.00 20.00     0.006 C 
HETATM    8  C7  UNL     1     -36.128  17.697  -1.216  1.00 20.00     0.006 C 
ENDBRANCH   3   7
BRANCH   2   9
HETATM    9  C8  UNL     1     -33.921  14.360  -4.148  1.00 20.00     0.120 C 
HETATM   10 CL10 UNL     1     -33.933  14.939  -5.836  1.00 20.00    -0.130 Cl
ENDBRANCH   2   9
TORSDOF 3
ENDMDL
MODEL 2
REMARK VINA RESULT:      -3.7     10.836     11.948
REMARK  3 active torsions:
REMARK  status: ('A' for Active; 'I' for Inactive)
REMARK    1  A    between atoms: C4_4  and  C6_6 
REMARK    2  A    between atoms: C5_5  and  C8_8 
REMARK    3  A    between atoms: C6_6  and  C9_9 
ROOT
HETATM    1  C3  UNL     1     -31.850   7.053   3.493  1.00 20.00     0.017 A 
HETATM    2  C5  UNL     1     -32.705   7.856   2.555  1.00 20.00     0.009 A 
HETATM    3  C6  UNL     1     -33.329   6.726   3.364  1.00 20.00    -0.032 A 
ENDROOT
BRANCH   3   4
HETATM    4  C4  UNL     1     -33.775   5.409   2.713  1.00 20.00    -0.006 A 
HETATM    5  C1  UNL     1     -32.881   4.202   2.630  1.00 20.00     0.006 A 
HETATM    6  C2  UNL     1     -34.098   4.177   3.513  1.00 20.00     0.006 A 
ENDBRANCH   3   4
BRANCH   3   7
HETATM    7  C9  UNL     1     -34.214   7.150   4.512  1.00 20.00     0.006 C 
HETATM    8  C7  UNL     1     -33.640   6.767   5.844  1.00 20.00     0.006 C 
ENDBRANCH   3   7
BRANCH   2   9
HETATM    9  C8  UNL     1     -32.500   7.756   1.083  1.00 20.00     0.120 C 
HETATM   10 CL10 UNL     1     -33.213   9.154   0.234  1.00 20.00    -0.130 Cl
ENDBRANCH   2   9
TORSDOF 3
ENDMDL
MODEL 3
REMARK VINA RESULT:      -3.5      2.454      4.119
REMARK  3 active torsions:
REMARK  status: ('A' for Active; 'I' for Inactive)
REMARK    1  A    between atoms: C4_4  and  C6_6 
REMARK    2  A    between atoms: C5_5  and  C8_8 
REMARK    3  A    between atoms: C6_6  and  C9_9 
ROOT
HETATM    1  C3  UNL     1     -33.328  16.682  -2.660  1.00 20.00     0.017 A 
HETATM    2  C5  UNL     1     -34.556  16.293  -1.889  1.00 20.00     0.009 A 
HETATM    3  C6  UNL     1     -34.509  16.068  -3.394  1.00 20.00    -0.032 A 
ENDROOT
BRANCH   3   4
HETATM    4  C4  UNL     1     -35.337  16.916  -4.370  1.00 20.00    -0.006 A 
HETATM    5  C1  UNL     1     -34.764  17.486  -5.638  1.00 20.00     0.006 A 
HETATM    6  C2  UNL     1     -35.801  16.399  -5.703  1.00 20.00     0.006 A 
ENDBRANCH   3   4
BRANCH   3   7
HETATM    7  C9  UNL     1     -34.351  14.634  -3.841  1.00 20.00     0.006 C 
HETATM    8  C7  UNL     1     -33.010  14.377  -4.461  1.00 20.00     0.006 C 
ENDBRANCH   3   7
BRANCH   2   9
HETATM    9  C8  UNL     1     -35.416  17.340  -1.271  1.00 20.00     0.120 C 
HETATM   10 CL10 UNL     1     -35.533  17.121   0.497  1.00 20.00    -0.130 Cl
ENDBRANCH   2   9
TORSDOF 3
ENDMDL
MODEL 4
REMARK VINA RESULT:      -3.5      1.893      2.854
REMARK  3 active torsions:
REMARK  status: ('A' for Active; 'I' for Inactive)
REMARK    1  A    between atoms: C4_4  and  C6_6 
REMARK    2  A    between atoms: C5_5  and  C8_8 
REMARK    3  A    between atoms: C6_6  and  C9_9 
ROOT
HETATM    1  C3  UNL     1     -35.462  15.796  -2.704  1.00 20.00     0.017 A 
HETATM    2  C5  UNL     1     -34.912  14.631  -3.475  1.00 20.00     0.009 A 
HETATM    3  C6  UNL     1     -34.400  16.035  -3.765  1.00 20.00    -0.032 A 
ENDROOT
BRANCH   3   4
HETATM    4  C4  UNL     1     -34.756  16.781  -5.059  1.00 20.00    -0.006 A 
HETATM    5  C1  UNL     1     -35.651  17.989  -5.080  1.00 20.00     0.006 A 
HETATM    6  C2  UNL     1     -34.188  18.131  -5.401  1.00 20.00     0.006 A 
ENDBRANCH   3   4
BRANCH   3   7
HETATM    7  C9  UNL     1     -33.008  16.345  -3.265  1.00 20.00     0.006 C 
HETATM    8  C7  UNL     1     -33.020  17.288  -2.100  1.00 20.00     0.006 C 
ENDBRANCH   3   7
BRANCH   2   9
HETATM    9  C8  UNL     1     -35.778  13.890  -4.435  1.00 20.00     0.120 C 
HETATM   10 CL10 UNL     1     -37.485  14.390  -4.283  1.00 20.00    -0.130 Cl
ENDBRANCH   2   9
TORSDOF 3
ENDMDL
MODEL 5
REMARK VINA RESULT:      -3.4      1.539      2.693
REMARK  3 active torsions:
REMARK  status: ('A' for Active; 'I' for Inactive)
REMARK    1  A    between atoms: C4_4  and  C6_6 
REMARK    2  A    between atoms: C5_5  and  C8_8 
REMARK    3  A    between atoms: C6_6  and  C9_9 
ROOT
HETATM    1  C3  UNL     1     -33.035  15.780  -3.453  1.00 20.00     0.017 A 
HETATM    2  C5  UNL     1     -34.204  15.255  -4.236  1.00 20.00     0.009 A 
HETATM    3  C6  UNL     1     -34.387  16.463  -3.328  1.00 20.00    -0.032 A 
ENDROOT
BRANCH   3   4
HETATM    4  C4  UNL     1     -35.174  16.381  -2.012  1.00 20.00    -0.006 A 
HETATM    5  C1  UNL     1     -34.791  17.166  -0.788  1.00 20.00     0.006 A 
HETATM    6  C2  UNL     1     -36.059  17.495  -1.526  1.00 20.00     0.006 A 
ENDBRANCH   3   4
BRANCH   3   7
HETATM    7  C9  UNL     1     -34.534  17.795  -4.026  1.00 20.00     0.006 C 
HETATM    8  C7  UNL     1     -33.307  18.647  -3.890  1.00 20.00     0.006 C 
ENDBRANCH   3   7
BRANCH   2   9
HETATM    9  C8  UNL     1     -34.787  13.923  -3.909  1.00 20.00     0.120 C 
HETATM   10 CL10 UNL     1     -36.427  13.750  -4.593  1.00 20.00    -0.130 Cl
ENDBRANCH   2   9
TORSDOF 3
ENDMDL
MODEL 6
REMARK VINA RESULT:      -3.4      2.948      4.406
REMARK  3 active torsions:
REMARK  status: ('A' for Active; 'I' for Inactive)
REMARK    1  A    between atoms: C4_4  and  C6_6 
REMARK    2  A    between atoms: C5_5  and  C8_8 
REMARK    3  A    between atoms: C6_6  and  C9_9 
ROOT
HETATM    1  C3  UNL     1     -35.095  18.450  -1.646  1.00 20.00     0.017 A 
HETATM    2  C5  UNL     1     -34.538  17.798  -0.414  1.00 20.00     0.009 A 
HETATM    3  C6  UNL     1     -34.300  17.162  -1.777  1.00 20.00    -0.032 A 
ENDROOT
BRANCH   3   4
HETATM    4  C4  UNL     1     -34.999  15.863  -2.203  1.00 20.00    -0.006 A 
HETATM    5  C1  UNL     1     -35.855  15.769  -3.436  1.00 20.00     0.006 A 
HETATM    6  C2  UNL     1     -34.541  15.042  -3.376  1.00 20.00     0.006 A 
ENDBRANCH   3   4
BRANCH   3   7
HETATM    7  C9  UNL     1     -32.899  17.290  -2.327  1.00 20.00     0.006 C 
HETATM    8  C7  UNL     1     -32.807  18.321  -3.413  1.00 20.00     0.006 C 
ENDBRANCH   3   7
BRANCH   2   9
HETATM    9  C8  UNL     1     -35.453  17.192   0.593  1.00 20.00     0.120 C 
HETATM   10 CL10 UNL     1     -35.533  18.184   2.074  1.00 20.00    -0.130 Cl
ENDBRANCH   2   9
TORSDOF 3
ENDMDL
MODEL 7
REMARK VINA RESULT:      -3.4      2.371      3.876
REMARK  3 active torsions:
REMARK  status: ('A' for Active; 'I' for Inactive)
REMARK    1  A    between atoms: C4_4  and  C6_6 
REMARK    2  A    between atoms: C5_5  and  C8_8 
REMARK    3  A    between atoms: C6_6  and  C9_9 
ROOT
HETATM    1  C3  UNL     1     -33.570  15.024  -3.903  1.00 20.00     0.017 A 
HETATM    2  C5  UNL     1     -33.935  15.897  -2.737  1.00 20.00     0.009 A 
HETATM    3  C6  UNL     1     -34.860  15.826  -3.945  1.00 20.00    -0.032 A 
ENDROOT
BRANCH   3   4
HETATM    4  C4  UNL     1     -35.009  16.998  -4.925  1.00 20.00    -0.006 A 
HETATM    5  C1  UNL     1     -34.903  16.827  -6.416  1.00 20.00     0.006 A 
HETATM    6  C2  UNL     1     -36.224  17.182  -5.791  1.00 20.00     0.006 A 
ENDBRANCH   3   4
BRANCH   3   7
HETATM    7  C9  UNL     1     -36.141  15.050  -3.749  1.00 20.00     0.006 C 
HETATM    8  C7  UNL     1     -36.148  13.761  -4.516  1.00 20.00     0.006 C 
ENDBRANCH   3   7
BRANCH   2   9
HETATM    9  C8  UNL     1     -33.129  17.110  -2.427  1.00 20.00     0.120 C 
HETATM   10 CL10 UNL     1     -33.654  17.862  -0.896  1.00 20.00    -0.130 Cl
ENDBRANCH   2   9
TORSDOF 3
ENDMDL
MODEL 8
REMARK VINA RESULT:      -3.4      2.371      4.471
REMARK  3 active torsions:
REMARK  status: ('A' for Active; 'I' for Inactive)
REMARK    1  A    between atoms: C4_4  and  C6_6 
REMARK    2  A    between atoms: C5_5  and  C8_8 
REMARK    3  A    between atoms: C6_6  and  C9_9 
ROOT
HETATM    1  C3  UNL     1     -34.535  17.000  -4.589  1.00 20.00     0.017 A 
HETATM    2  C5  UNL     1     -33.539  16.502  -3.582  1.00 20.00     0.009 A 
HETATM    3  C6  UNL     1     -34.358  15.503  -4.389  1.00 20.00    -0.032 A 
ENDROOT
BRANCH   3   4
HETATM    4  C4  UNL     1     -35.481  14.671  -3.754  1.00 20.00    -0.006 A 
HETATM    5  C1  UNL     1     -36.918  14.786  -4.184  1.00 20.00     0.006 A 
HETATM    6  C2  UNL     1     -36.146  13.527  -4.468  1.00 20.00     0.006 A 
ENDBRANCH   3   4
BRANCH   3   7
HETATM    7  C9  UNL     1     -33.611  14.764  -5.473  1.00 20.00     0.006 C 
HETATM    8  C7  UNL     1     -34.066  15.157  -6.847  1.00 20.00     0.006 C 
ENDBRANCH   3   7
BRANCH   2   9
HETATM    9  C8  UNL     1     -33.770  16.724  -2.127  1.00 20.00     0.120 C 
HETATM   10 CL10 UNL     1     -32.531  17.804  -1.433  1.00 20.00    -0.130 Cl
ENDBRANCH   2   9
TORSDOF 3
ENDMDL
MODEL 9
REMARK VINA RESULT:      -3.4     12.486     13.828
REMARK  3 active torsions:
REMARK  status: ('A' for Active; 'I' for Inactive)
REMARK    1  A    between atoms: C4_4  and  C6_6 
REMARK    2  A    between atoms: C5_5  and  C8_8 
REMARK    3  A    between atoms: C6_6  and  C9_9 
ROOT
HETATM    1  C3  UNL     1     -40.971   5.388  -0.822  1.00 20.00     0.017 A 
HETATM    2  C5  UNL     1     -41.942   5.157  -1.944  1.00 20.00     0.009 A 
HETATM    3  C6  UNL     1     -42.247   6.210  -0.886  1.00 20.00    -0.032 A 
ENDROOT
BRANCH   3   4
HETATM    4  C4  UNL     1     -43.347   6.013   0.166  1.00 20.00    -0.006 A 
HETATM    5  C1  UNL     1     -43.089   5.360   1.496  1.00 20.00     0.006 A 
HETATM    6  C2  UNL     1     -43.417   6.826   1.429  1.00 20.00     0.006 A 
ENDBRANCH   3   4
BRANCH   3   7
HETATM    7  C9  UNL     1     -42.099   7.648  -1.327  1.00 20.00     0.006 C 
HETATM    8  C7  UNL     1     -41.173   8.422  -0.438  1.00 20.00     0.006 C 
ENDBRANCH   3   7
BRANCH   2   9
HETATM    9  C8  UNL     1     -42.701   3.878  -2.028  1.00 20.00     0.120 C 
HETATM   10 CL10 UNL     1     -41.992   2.785  -3.248  1.00 20.00    -0.130 Cl
ENDBRANCH   2   9
TORSDOF 3
ENDMDL
