MODEL 1
REMARK VINA RESULT:      -4.8      0.000      0.000
REMARK  3 active torsions:
REMARK  status: ('A' for Active; 'I' for Inactive)
REMARK    1  A    between atoms: C2_2  and  C7_7 
REMARK    2  A    between atoms: C3_3  and  C9_9 
REMARK    3  A    between atoms: C8_8  and  C9_9 
ROOT
HETATM    1  C1  UNL     1     -31.718   7.031   3.057  1.00 20.00     0.016 A 
HETATM    2  C2  UNL     1     -32.561   7.254   1.834  1.00 20.00     0.009 A 
HETATM    3  C3  UNL     1     -33.024   6.269   2.906  1.00 20.00    -0.036 A 
HETATM    4  C4  UNL     1     -32.949   4.802   2.571  1.00 20.00     0.016 C 
ENDROOT
BRANCH   3   5
HETATM    5  C9  UNL     1     -34.165   6.630   3.820  1.00 20.00    -0.010 C 
HETATM    6  C6  UNL     1     -35.154   5.458   3.941  1.00 20.00     0.011 C 
BRANCH   5   7
HETATM    7  C8  UNL     1     -33.704   7.047   5.237  1.00 20.00     0.000 C 
HETATM    8  C5  UNL     1     -34.312   6.193   6.341  1.00 20.00     0.005 C 
ENDBRANCH   5   7
ENDBRANCH   3   5
BRANCH   2   9
HETATM    9  C7  UNL     1     -33.224   8.570   1.610  1.00 20.00     0.120 C 
HETATM   10 CL10 UNL     1     -33.348   8.943  -0.131  1.00 20.00    -0.130 Cl
ENDBRANCH   2   9
TORSDOF 3
ENDMDL
MODEL 2
REMARK VINA RESULT:      -3.9     15.677     16.866
REMARK  3 active torsions:
REMARK  status: ('A' for Active; 'I' for Inactive)
REMARK    1  A    between atoms: C2_2  and  C7_7 
REMARK    2  A    between atoms: C3_3  and  C9_9 
REMARK    3  A    between atoms: C8_8  and  C9_9 
ROOT
HETATM    1  C1  UNL     1     -24.721  16.802  11.627  1.00 20.00     0.016 A 
HETATM    2  C2  UNL     1     -24.821  18.125  12.332  1.00 20.00     0.009 A 
HETATM    3  C3  UNL     1     -23.613  17.826  11.444  1.00 20.00    -0.036 A 
HETATM    4  C4  UNL     1     -22.298  17.574  12.134  1.00 20.00     0.016 C 
ENDROOT
BRANCH   3   5
HETATM    5  C9  UNL     1     -23.482  18.495  10.102  1.00 20.00    -0.010 C 
HETATM    6  C6  UNL     1     -22.031  18.414   9.596  1.00 20.00     0.011 C 
BRANCH   5   7
HETATM    7  C8  UNL     1     -24.422  17.898   9.027  1.00 20.00     0.000 C 
HETATM    8  C5  UNL     1     -25.139  18.957   8.202  1.00 20.00     0.005 C 
ENDBRANCH   5   7
ENDBRANCH   3   5
BRANCH   2   9
HETATM    9  C7  UNL     1     -25.880  19.100  11.949  1.00 20.00     0.120 C 
HETATM   10 CL10 UNL     1     -27.494  18.338  11.956  1.00 20.00    -0.130 Cl
ENDBRANCH   2   9
TORSDOF 3
ENDMDL
MODEL 3
REMARK VINA RESULT:      -3.8     10.874     11.855
REMARK  3 active torsions:
REMARK  status: ('A' for Active; 'I' for Inactive)
REMARK    1  A    between atoms: C2_2  and  C7_7 
REMARK    2  A    between atoms: C3_3  and  C9_9 
REMARK    3  A    between atoms: C8_8  and  C9_9 
ROOT
HETATM    1  C1  UNL     1     -35.878  16.176  -5.427  1.00 20.00     0.016 A 
HETATM    2  C2  UNL     1     -36.225  14.720  -5.550  1.00 20.00     0.009 A 
HETATM    3  C3  UNL     1     -34.764  15.143  -5.403  1.00 20.00    -0.036 A 
HETATM    4  C4  UNL     1     -33.887  15.023  -6.621  1.00 20.00     0.016 C 
ENDROOT
BRANCH   3   5
HETATM    5  C9  UNL     1     -34.041  14.912  -4.103  1.00 20.00    -0.010 C 
HETATM    6  C6  UNL     1     -32.607  14.418  -4.361  1.00 20.00     0.011 C 
BRANCH   5   7
HETATM    7  C8  UNL     1     -33.983  16.171  -3.204  1.00 20.00     0.000 C 
HETATM    8  C5  UNL     1     -34.895  16.083  -1.989  1.00 20.00     0.005 C 
ENDBRANCH   5   7
ENDBRANCH   3   5
BRANCH   2   9
HETATM    9  C7  UNL     1     -36.978  14.034  -4.462  1.00 20.00     0.120 C 
HETATM   10 CL10 UNL     1     -38.580  14.782  -4.215  1.00 20.00    -0.130 Cl
ENDBRANCH   2   9
TORSDOF 3
ENDMDL
MODEL 4
REMARK VINA RESULT:      -3.7     10.999     12.377
REMARK  3 active torsions:
REMARK  status: ('A' for Active; 'I' for Inactive)
REMARK    1  A    between atoms: C2_2  and  C7_7 
REMARK    2  A    between atoms: C3_3  and  C9_9 
REMARK    3  A    between atoms: C8_8  and  C9_9 
ROOT
HETATM    1  C1  UNL     1     -32.498  18.844  -2.653  1.00 20.00     0.016 A 
HETATM    2  C2  UNL     1     -33.250  19.005  -1.363  1.00 20.00     0.009 A 
HETATM    3  C3  UNL     1     -33.805  18.093  -2.456  1.00 20.00    -0.036 A 
HETATM    4  C4  UNL     1     -35.016  18.578  -3.208  1.00 20.00     0.016 C 
ENDROOT
BRANCH   3   5
HETATM    5  C9  UNL     1     -33.744  16.598  -2.292  1.00 20.00    -0.010 C 
HETATM    6  C6  UNL     1     -35.151  16.022  -2.055  1.00 20.00     0.011 C 
BRANCH   5   7
HETATM    7  C8  UNL     1     -33.104  15.876  -3.502  1.00 20.00     0.000 C 
HETATM    8  C5  UNL     1     -33.961  14.742  -4.047  1.00 20.00     0.005 C 
ENDBRANCH   5   7
ENDBRANCH   3   5
BRANCH   2   9
HETATM    9  C7  UNL     1     -32.678  18.481  -0.091  1.00 20.00     0.120 C 
HETATM   10 CL10 UNL     1     -30.917  18.223  -0.231  1.00 20.00    -0.130 Cl
ENDBRANCH   2   9
TORSDOF 3
ENDMDL
MODEL 5
REMARK VINA RESULT:      -3.7     10.504     11.749
REMARK  3 active torsions:
REMARK  status: ('A' for Active; 'I' for Inactive)
REMARK    1  A    between atoms: C2_2  and  C7_7 
REMARK    2  A    between atoms: C3_3  and  C9_9 
REMARK    3  A    between atoms: C8_8  and  C9_9 
ROOT
HETATM    1  C1  UNL     1     -34.148  16.422  -4.541  1.00 20.00     0.016 A 
HETATM    2  C2  UNL     1     -33.837  15.126  -3.849  1.00 20.00     0.009 A 
HETATM    3  C3  UNL     1     -34.141  16.374  -3.022  1.00 20.00    -0.036 A 
HETATM    4  C4  UNL     1     -32.987  17.020  -2.301  1.00 20.00     0.016 C 
ENDROOT
BRANCH   3   5
HETATM    5  C9  UNL     1     -35.459  16.499  -2.304  1.00 20.00    -0.010 C 
HETATM    6  C6  UNL     1     -35.238  16.891  -0.833  1.00 20.00     0.011 C 
BRANCH   5   7
HETATM    7  C8  UNL     1     -36.416  17.524  -2.958  1.00 20.00     0.000 C 
HETATM    8  C5  UNL     1     -37.675  16.888  -3.532  1.00 20.00     0.005 C 
ENDBRANCH   5   7
ENDBRANCH   3   5
BRANCH   2   9
HETATM    9  C7  UNL     1     -34.780  13.977  -3.950  1.00 20.00     0.120 C 
HETATM   10 CL10 UNL     1     -35.913  14.188  -5.314  1.00 20.00    -0.130 Cl
ENDBRANCH   2   9
TORSDOF 3
ENDMDL
MODEL 6
REMARK VINA RESULT:      -3.6     10.548     11.769
REMARK  3 active torsions:
REMARK  status: ('A' for Active; 'I' for Inactive)
REMARK    1  A    between atoms: C2_2  and  C7_7 
REMARK    2  A    between atoms: C3_3  and  C9_9 
REMARK    3  A    between atoms: C8_8  and  C9_9 
ROOT
HETATM    1  C1  UNL     1     -35.351  16.164  -1.990  1.00 20.00     0.016 A 
HETATM    2  C2  UNL     1     -35.407  17.254  -3.022  1.00 20.00     0.009 A 
HETATM    3  C3  UNL     1     -34.271  16.232  -3.057  1.00 20.00    -0.036 A 
HETATM    4  C4  UNL     1     -32.903  16.710  -2.646  1.00 20.00     0.016 C 
ENDROOT
BRANCH   3   5
HETATM    5  C9  UNL     1     -34.253  15.162  -4.116  1.00 20.00    -0.010 C 
HETATM    6  C6  UNL     1     -32.809  14.736  -4.430  1.00 20.00     0.011 C 
BRANCH   5   7
HETATM    7  C8  UNL     1     -35.074  13.908  -3.731  1.00 20.00     0.000 C 
HETATM    8  C5  UNL     1     -36.275  13.675  -4.637  1.00 20.00     0.005 C 
ENDBRANCH   5   7
ENDBRANCH   3   5
BRANCH   2   9
HETATM    9  C7  UNL     1     -36.503  17.274  -4.032  1.00 20.00     0.120 C 
HETATM   10 CL10 UNL     1     -38.105  17.185  -3.250  1.00 20.00    -0.130 Cl
ENDBRANCH   2   9
TORSDOF 3
ENDMDL
MODEL 7
REMARK VINA RESULT:      -3.6     10.911     12.313
REMARK  3 active torsions:
REMARK  status: ('A' for Active; 'I' for Inactive)
REMARK    1  A    between atoms: C2_2  and  C7_7 
REMARK    2  A    between atoms: C3_3  and  C9_9 
REMARK    3  A    between atoms: C8_8  and  C9_9 
ROOT
HETATM    1  C1  UNL     1     -34.726  15.939  -2.367  1.00 20.00     0.016 A 
HETATM    2  C2  UNL     1     -33.322  16.365  -2.690  1.00 20.00     0.009 A 
HETATM    3  C3  UNL     1     -34.196  15.742  -3.778  1.00 20.00    -0.036 A 
HETATM    4  C4  UNL     1     -33.857  14.341  -4.213  1.00 20.00     0.016 C 
ENDROOT
BRANCH   3   5
HETATM    5  C9  UNL     1     -34.763  16.604  -4.874  1.00 20.00    -0.010 C 
HETATM    6  C6  UNL     1     -34.491  15.975  -6.252  1.00 20.00     0.011 C 
BRANCH   5   7
HETATM    7  C8  UNL     1     -36.283  16.855  -4.728  1.00 20.00     0.000 C 
HETATM    8  C5  UNL     1     -37.135  15.739  -5.318  1.00 20.00     0.005 C 
ENDBRANCH   5   7
ENDBRANCH   3   5
BRANCH   2   9
HETATM    9  C7  UNL     1     -32.956  17.809  -2.682  1.00 20.00     0.120 C 
HETATM   10 CL10 UNL     1     -31.943  18.211  -1.268  1.00 20.00    -0.130 Cl
ENDBRANCH   2   9
TORSDOF 3
ENDMDL
MODEL 8
REMARK VINA RESULT:      -3.6     10.680     11.724
REMARK  3 active torsions:
REMARK  status: ('A' for Active; 'I' for Inactive)
REMARK    1  A    between atoms: C2_2  and  C7_7 
REMARK    2  A    between atoms: C3_3  and  C9_9 
REMARK    3  A    between atoms: C8_8  and  C9_9 
ROOT
HETATM    1  C1  UNL     1     -35.840  13.657  -4.305  1.00 20.00     0.016 A 
HETATM    2  C2  UNL     1     -35.971  14.406  -5.601  1.00 20.00     0.009 A 
HETATM    3  C3  UNL     1     -36.634  14.953  -4.337  1.00 20.00    -0.036 A 
HETATM    4  C4  UNL     1     -38.135  14.861  -4.254  1.00 20.00     0.016 C 
ENDROOT
BRANCH   3   5
HETATM    5  C9  UNL     1     -36.055  16.156  -3.642  1.00 20.00    -0.010 C 
HETATM    6  C6  UNL     1     -37.172  17.122  -3.212  1.00 20.00     0.011 C 
BRANCH   5   7
HETATM    7  C8  UNL     1     -35.201  15.793  -2.404  1.00 20.00     0.000 C 
HETATM    8  C5  UNL     1     -33.857  16.508  -2.371  1.00 20.00     0.005 C 
ENDBRANCH   5   7
ENDBRANCH   3   5
BRANCH   2   9
HETATM    9  C7  UNL     1     -34.776  15.044  -6.222  1.00 20.00     0.120 C 
HETATM   10 CL10 UNL     1     -33.283  14.615  -5.342  1.00 20.00    -0.130 Cl
ENDBRANCH   2   9
TORSDOF 3
ENDMDL
MODEL 9
REMARK VINA RESULT:      -3.6     10.777     11.843
REMARK  3 active torsions:
REMARK  status: ('A' for Active; 'I' for Inactive)
REMARK    1  A    between atoms: C2_2  and  C7_7 
REMARK    2  A    between atoms: C3_3  and  C9_9 
REMARK    3  A    between atoms: C8_8  and  C9_9 
ROOT
HETATM    1  C1  UNL     1     -35.307  16.579  -4.357  1.00 20.00     0.016 A 
HETATM    2  C2  UNL     1     -34.023  15.894  -4.734  1.00 20.00     0.009 A 
HETATM    3  C3  UNL     1     -34.013  17.003  -3.682  1.00 20.00    -0.036 A 
HETATM    4  C4  UNL     1     -33.409  18.324  -4.082  1.00 20.00     0.016 C 
ENDROOT
BRANCH   3   5
HETATM    5  C9  UNL     1     -33.827  16.660  -2.228  1.00 20.00    -0.010 C 
HETATM    6  C6  UNL     1     -32.981  17.733  -1.523  1.00 20.00     0.011 C 
BRANCH   5   7
HETATM    7  C8  UNL     1     -35.163  16.492  -1.465  1.00 20.00     0.000 C 
HETATM    8  C5  UNL     1     -35.202  17.256  -0.149  1.00 20.00     0.005 C 
ENDBRANCH   5   7
ENDBRANCH   3   5
BRANCH   2   9
HETATM    9  C7  UNL     1     -33.811  14.459  -4.393  1.00 20.00     0.120 C 
HETATM   10 CL10 UNL     1     -35.361  13.636  -4.065  1.00 20.00    -0.130 Cl
ENDBRANCH   2   9
TORSDOF 3
ENDMDL
