MODEL 1
REMARK VINA RESULT:      -5.4      0.000      0.000
REMARK  3 active torsions:
REMARK  status: ('A' for Active; 'I' for Inactive)
REMARK    1  A    between atoms: C1_1  and  C6_6 
REMARK    2  A    between atoms: C6_6  and  C7_7 
REMARK    3  A    between atoms: C7_7  and  C8_8 
ROOT
HETATM    1  C2  UNL     1     -32.995  14.669  -4.292  1.00 20.00     0.014 C 
HETATM    2  C7  UNL     1     -34.349  14.997  -3.633  1.00 20.00     0.034 C 
ENDROOT
BRANCH   2   3
HETATM    3  C6  UNL     1     -35.472  14.818  -4.673  1.00 20.00     0.275 C 
HETATM    4  F11 UNL     1     -34.923  14.731  -5.916  1.00 20.00    -0.237 F 
BRANCH   3   5
HETATM    5  C1  UNL     1     -36.370  13.582  -4.514  1.00 20.00     0.208 C 
HETATM    6  O9  UNL     1     -35.766  12.476  -4.437  1.00 20.00    -0.646 OA
HETATM    7  O10 UNL     1     -37.611  13.819  -4.507  1.00 20.00    -0.646 OA
ENDBRANCH   3   5
ENDBRANCH   2   3
BRANCH   2   8
HETATM    8  C8  UNL     1     -34.369  16.404  -2.919  1.00 20.00    -0.045 C 
HETATM    9  C3  UNL     1     -35.110  17.441  -3.794  1.00 20.00     0.015 C 
HETATM   10  C4  UNL     1     -35.138  16.311  -1.582  1.00 20.00     0.015 C 
HETATM   11  C5  UNL     1     -32.959  16.948  -2.625  1.00 20.00     0.015 C 
ENDBRANCH   2   8
TORSDOF 3
ENDMDL
MODEL 2
REMARK VINA RESULT:      -5.4      0.029      1.299
REMARK  3 active torsions:
REMARK  status: ('A' for Active; 'I' for Inactive)
REMARK    1  A    between atoms: C1_1  and  C6_6 
REMARK    2  A    between atoms: C6_6  and  C7_7 
REMARK    3  A    between atoms: C7_7  and  C8_8 
ROOT
HETATM    1  C2  UNL     1     -32.987  14.698  -4.268  1.00 20.00     0.014 C 
HETATM    2  C7  UNL     1     -34.352  14.998  -3.621  1.00 20.00     0.034 C 
ENDROOT
BRANCH   2   3
HETATM    3  C6  UNL     1     -35.462  14.810  -4.674  1.00 20.00     0.275 C 
HETATM    4  F11 UNL     1     -34.895  14.709  -5.909  1.00 20.00    -0.237 F 
BRANCH   3   5
HETATM    5  C1  UNL     1     -36.364  13.579  -4.515  1.00 20.00     0.208 C 
HETATM    6  O9  UNL     1     -35.765  12.470  -4.433  1.00 20.00    -0.646 OA
HETATM    7  O10 UNL     1     -37.604  13.820  -4.510  1.00 20.00    -0.646 OA
ENDBRANCH   3   5
ENDBRANCH   2   3
BRANCH   2   8
HETATM    8  C8  UNL     1     -34.402  16.399  -2.896  1.00 20.00    -0.045 C 
HETATM    9  C3  UNL     1     -32.972  16.929  -2.648  1.00 20.00     0.015 C 
HETATM   10  C4  UNL     1     -35.116  17.435  -3.793  1.00 20.00     0.015 C 
HETATM   11  C5  UNL     1     -35.135  16.349  -1.543  1.00 20.00     0.015 C 
ENDBRANCH   2   8
TORSDOF 3
ENDMDL
MODEL 3
REMARK VINA RESULT:      -5.4      0.040      1.310
REMARK  3 active torsions:
REMARK  status: ('A' for Active; 'I' for Inactive)
REMARK    1  A    between atoms: C1_1  and  C6_6 
REMARK    2  A    between atoms: C6_6  and  C7_7 
REMARK    3  A    between atoms: C7_7  and  C8_8 
ROOT
HETATM    1  C2  UNL     1     -32.984  14.707  -4.264  1.00 20.00     0.014 C 
HETATM    2  C7  UNL     1     -34.354  15.014  -3.631  1.00 20.00     0.034 C 
ENDROOT
BRANCH   2   3
HETATM    3  C6  UNL     1     -35.456  14.808  -4.689  1.00 20.00     0.275 C 
HETATM    4  F11 UNL     1     -34.881  14.692  -5.919  1.00 20.00    -0.237 F 
BRANCH   3   5
HETATM    5  C1  UNL     1     -36.355  13.575  -4.519  1.00 20.00     0.208 C 
HETATM    6  O9  UNL     1     -35.752  12.470  -4.420  1.00 20.00    -0.646 OA
HETATM    7  O10 UNL     1     -37.596  13.812  -4.525  1.00 20.00    -0.646 OA
ENDBRANCH   3   5
ENDBRANCH   2   3
BRANCH   2   8
HETATM    8  C8  UNL     1     -34.412  16.426  -2.929  1.00 20.00    -0.045 C 
HETATM    9  C3  UNL     1     -35.119  16.318  -1.558  1.00 20.00     0.015 C 
HETATM   10  C4  UNL     1     -32.981  16.943  -2.657  1.00 20.00     0.015 C 
HETATM   11  C5  UNL     1     -35.153  17.484  -3.766  1.00 20.00     0.015 C 
ENDBRANCH   2   8
TORSDOF 3
ENDMDL
MODEL 4
REMARK VINA RESULT:      -4.5      1.371      2.377
REMARK  3 active torsions:
REMARK  status: ('A' for Active; 'I' for Inactive)
REMARK    1  A    between atoms: C1_1  and  C6_6 
REMARK    2  A    between atoms: C6_6  and  C7_7 
REMARK    3  A    between atoms: C7_7  and  C8_8 
ROOT
HETATM    1  C2  UNL     1     -34.436  16.015  -2.301  1.00 20.00     0.014 C 
HETATM    2  C7  UNL     1     -35.677  15.810  -3.192  1.00 20.00     0.034 C 
ENDROOT
BRANCH   2   3
HETATM    3  C6  UNL     1     -35.345  14.778  -4.288  1.00 20.00     0.275 C 
HETATM    4  F11 UNL     1     -34.113  14.250  -4.048  1.00 20.00    -0.237 F 
BRANCH   3   5
HETATM    5  C1  UNL     1     -36.303  13.586  -4.425  1.00 20.00     0.208 C 
HETATM    6  O9  UNL     1     -37.529  13.877  -4.508  1.00 20.00    -0.646 OA
HETATM    7  O10 UNL     1     -35.749  12.450  -4.411  1.00 20.00    -0.646 OA
ENDBRANCH   3   5
ENDBRANCH   2   3
BRANCH   2   8
HETATM    8  C8  UNL     1     -36.266  17.161  -3.756  1.00 20.00    -0.045 C 
HETATM    9  C3  UNL     1     -37.737  17.333  -3.316  1.00 20.00     0.015 C 
HETATM   10  C4  UNL     1     -35.481  18.363  -3.183  1.00 20.00     0.015 C 
HETATM   11  C5  UNL     1     -36.214  17.243  -5.293  1.00 20.00     0.015 C 
ENDBRANCH   2   8
TORSDOF 3
ENDMDL
MODEL 5
REMARK VINA RESULT:      -4.4      1.544      2.381
REMARK  3 active torsions:
REMARK  status: ('A' for Active; 'I' for Inactive)
REMARK    1  A    between atoms: C1_1  and  C6_6 
REMARK    2  A    between atoms: C6_6  and  C7_7 
REMARK    3  A    between atoms: C7_7  and  C8_8 
ROOT
HETATM    1  C2  UNL     1     -36.662  17.200  -4.505  1.00 20.00     0.014 C 
HETATM    2  C7  UNL     1     -35.581  16.124  -4.289  1.00 20.00     0.034 C 
ENDROOT
BRANCH   2   3
HETATM    3  C6  UNL     1     -36.264  14.780  -3.967  1.00 20.00     0.275 C 
HETATM    4  F11 UNL     1     -37.615  14.957  -3.950  1.00 20.00    -0.237 F 
BRANCH   3   5
HETATM    5  C1  UNL     1     -35.996  13.620  -4.936  1.00 20.00     0.208 C 
HETATM    6  O9  UNL     1     -36.037  13.913  -6.163  1.00 20.00    -0.646 OA
HETATM    7  O10 UNL     1     -35.791  12.501  -4.387  1.00 20.00    -0.646 OA
ENDBRANCH   3   5
ENDBRANCH   2   3
BRANCH   2   8
HETATM    8  C8  UNL     1     -34.488  16.545  -3.232  1.00 20.00    -0.045 C 
HETATM    9  C3  UNL     1     -34.963  16.203  -1.801  1.00 20.00     0.015 C 
HETATM   10  C4  UNL     1     -33.182  15.753  -3.474  1.00 20.00     0.015 C 
HETATM   11  C5  UNL     1     -34.154  18.047  -3.278  1.00 20.00     0.015 C 
ENDBRANCH   2   8
TORSDOF 3
ENDMDL
MODEL 6
REMARK VINA RESULT:      -4.4      1.528      2.335
REMARK  3 active torsions:
REMARK  status: ('A' for Active; 'I' for Inactive)
REMARK    1  A    between atoms: C1_1  and  C6_6 
REMARK    2  A    between atoms: C6_6  and  C7_7 
REMARK    3  A    between atoms: C7_7  and  C8_8 
ROOT
HETATM    1  C2  UNL     1     -36.588  17.287  -4.530  1.00 20.00     0.014 C 
HETATM    2  C7  UNL     1     -35.571  16.148  -4.329  1.00 20.00     0.034 C 
ENDROOT
BRANCH   2   3
HETATM    3  C6  UNL     1     -36.331  14.838  -4.039  1.00 20.00     0.275 C 
HETATM    4  F11 UNL     1     -37.671  15.069  -4.126  1.00 20.00    -0.237 F 
BRANCH   3   5
HETATM    5  C1  UNL     1     -36.040  13.651  -4.967  1.00 20.00     0.208 C 
HETATM    6  O9  UNL     1     -35.816  12.550  -4.391  1.00 20.00    -0.646 OA
HETATM    7  O10 UNL     1     -36.032  13.924  -6.200  1.00 20.00    -0.646 OA
ENDBRANCH   3   5
ENDBRANCH   2   3
BRANCH   2   8
HETATM    8  C8  UNL     1     -34.464  16.485  -3.256  1.00 20.00    -0.045 C 
HETATM    9  C3  UNL     1     -33.179  15.672  -3.533  1.00 20.00     0.015 C 
HETATM   10  C4  UNL     1     -34.078  17.979  -3.343  1.00 20.00     0.015 C 
HETATM   11  C5  UNL     1     -34.915  16.189  -1.814  1.00 20.00     0.015 C 
ENDBRANCH   2   8
TORSDOF 3
ENDMDL
MODEL 7
REMARK VINA RESULT:      -4.4      1.314      2.502
REMARK  3 active torsions:
REMARK  status: ('A' for Active; 'I' for Inactive)
REMARK    1  A    between atoms: C1_1  and  C6_6 
REMARK    2  A    between atoms: C6_6  and  C7_7 
REMARK    3  A    between atoms: C7_7  and  C8_8 
ROOT
HETATM    1  C2  UNL     1     -34.869  15.965  -2.231  1.00 20.00     0.014 C 
HETATM    2  C7  UNL     1     -35.787  15.950  -3.469  1.00 20.00     0.034 C 
ENDROOT
BRANCH   2   3
HETATM    3  C6  UNL     1     -35.372  14.785  -4.390  1.00 20.00     0.275 C 
HETATM    4  F11 UNL     1     -34.171  14.292  -3.976  1.00 20.00    -0.237 F 
BRANCH   3   5
HETATM    5  C1  UNL     1     -36.327  13.585  -4.458  1.00 20.00     0.208 C 
HETATM    6  O9  UNL     1     -37.557  13.868  -4.502  1.00 20.00    -0.646 OA
HETATM    7  O10 UNL     1     -35.767  12.453  -4.434  1.00 20.00    -0.646 OA
ENDBRANCH   3   5
ENDBRANCH   2   3
BRANCH   2   8
HETATM    8  C8  UNL     1     -35.857  17.343  -4.207  1.00 20.00    -0.045 C 
HETATM    9  C3  UNL     1     -34.438  17.928  -4.391  1.00 20.00     0.015 C 
HETATM   10  C4  UNL     1     -36.457  17.164  -5.621  1.00 20.00     0.015 C 
HETATM   11  C5  UNL     1     -36.707  18.381  -3.453  1.00 20.00     0.015 C 
ENDBRANCH   2   8
TORSDOF 3
ENDMDL
MODEL 8
REMARK VINA RESULT:      -4.4      1.535      2.161
REMARK  3 active torsions:
REMARK  status: ('A' for Active; 'I' for Inactive)
REMARK    1  A    between atoms: C1_1  and  C6_6 
REMARK    2  A    between atoms: C6_6  and  C7_7 
REMARK    3  A    between atoms: C7_7  and  C8_8 
ROOT
HETATM    1  C2  UNL     1     -36.583  17.361  -4.419  1.00 20.00     0.014 C 
HETATM    2  C7  UNL     1     -35.587  16.187  -4.379  1.00 20.00     0.034 C 
ENDROOT
BRANCH   2   3
HETATM    3  C6  UNL     1     -36.348  14.892  -4.028  1.00 20.00     0.275 C 
HETATM    4  F11 UNL     1     -37.688  15.132  -4.079  1.00 20.00    -0.237 F 
BRANCH   3   5
HETATM    5  C1  UNL     1     -36.095  13.677  -4.930  1.00 20.00     0.208 C 
HETATM    6  O9  UNL     1     -36.030  13.919  -6.168  1.00 20.00    -0.646 OA
HETATM    7  O10 UNL     1     -36.009  12.570  -4.326  1.00 20.00    -0.646 OA
ENDBRANCH   3   5
ENDBRANCH   2   3
BRANCH   2   8
HETATM    8  C8  UNL     1     -34.343  16.459  -3.448  1.00 20.00    -0.045 C 
HETATM    9  C3  UNL     1     -33.827  17.903  -3.646  1.00 20.00     0.015 C 
HETATM   10  C4  UNL     1     -34.751  16.326  -1.964  1.00 20.00     0.015 C 
HETATM   11  C5  UNL     1     -33.172  15.494  -3.713  1.00 20.00     0.015 C 
ENDBRANCH   2   8
TORSDOF 3
ENDMDL
MODEL 9
REMARK VINA RESULT:      -4.3      1.278      1.910
REMARK  3 active torsions:
REMARK  status: ('A' for Active; 'I' for Inactive)
REMARK    1  A    between atoms: C1_1  and  C6_6 
REMARK    2  A    between atoms: C6_6  and  C7_7 
REMARK    3  A    between atoms: C7_7  and  C8_8 
ROOT
HETATM    1  C2  UNL     1     -34.673  16.519  -5.943  1.00 20.00     0.014 C 
HETATM    2  C7  UNL     1     -34.985  15.769  -4.634  1.00 20.00     0.034 C 
ENDROOT
BRANCH   2   3
HETATM    3  C6  UNL     1     -36.499  15.490  -4.561  1.00 20.00     0.275 C 
HETATM    4  F11 UNL     1     -37.110  16.050  -5.642  1.00 20.00    -0.237 F 
BRANCH   3   5
HETATM    5  C1  UNL     1     -36.930  14.017  -4.540  1.00 20.00     0.208 C 
HETATM    6  O9  UNL     1     -36.011  13.176  -4.748  1.00 20.00    -0.646 OA
HETATM    7  O10 UNL     1     -38.163  13.823  -4.342  1.00 20.00    -0.646 OA
ENDBRANCH   3   5
ENDBRANCH   2   3
BRANCH   2   8
HETATM    8  C8  UNL     1     -34.414  16.491  -3.353  1.00 20.00    -0.045 C 
HETATM    9  C3  UNL     1     -32.900  16.217  -3.209  1.00 20.00     0.015 C 
HETATM   10  C4  UNL     1     -34.583  18.022  -3.487  1.00 20.00     0.015 C 
HETATM   11  C5  UNL     1     -35.106  16.044  -2.053  1.00 20.00     0.015 C 
ENDBRANCH   2   8
TORSDOF 3
ENDMDL
