MODEL 1
REMARK VINA RESULT:      -4.2      0.000      0.000
REMARK  4 active torsions:
REMARK  status: ('A' for Active; 'I' for Inactive)
REMARK    1  A    between atoms: C2_2  and  C6_6 
REMARK    2  A    between atoms: C3_3  and  C7_7 
REMARK    3  A    between atoms: C7_7  and  C8_8 
REMARK    4  A    between atoms: C8_8  and  O9_9 
ROOT
HETATM    1  C1  UNL     1     -34.588  16.324  -4.360  1.00 20.00     0.016 A 
HETATM    2  C2  UNL     1     -34.134  16.083  -2.949  1.00 20.00     0.008 A 
HETATM    3  C3  UNL     1     -34.147  14.930  -3.945  1.00 20.00    -0.037 A 
HETATM    4  C4  UNL     1     -32.814  14.437  -4.440  1.00 20.00     0.015 C 
ENDROOT
BRANCH   3   5
HETATM    5  C7  UNL     1     -35.198  13.857  -3.843  1.00 20.00     0.035 C 
BRANCH   5   6
HETATM    6  C8  UNL     1     -36.196  13.912  -4.995  1.00 20.00     0.167 C 
BRANCH   6   7
HETATM    7  O9  UNL     1     -37.505  13.674  -4.495  1.00 20.00    -0.396 OA
HETATM    8  C5  UNL     1     -38.191  14.890  -4.228  1.00 20.00     0.201 C 
ENDBRANCH   6   7
ENDBRANCH   5   6
ENDBRANCH   3   5
BRANCH   2   9
HETATM    9  C6  UNL     1     -35.102  16.181  -1.820  1.00 20.00     0.120 C 
HETATM   10 CL10 UNL     1     -34.589  17.413  -0.634  1.00 20.00    -0.130 Cl
ENDBRANCH   2   9
TORSDOF 4
ENDMDL
MODEL 2
REMARK VINA RESULT:      -3.9     16.577     17.950
REMARK  4 active torsions:
REMARK  status: ('A' for Active; 'I' for Inactive)
REMARK    1  A    between atoms: C2_2  and  C6_6 
REMARK    2  A    between atoms: C3_3  and  C7_7 
REMARK    3  A    between atoms: C7_7  and  C8_8 
REMARK    4  A    between atoms: C8_8  and  O9_9 
ROOT
HETATM    1  C1  UNL     1     -23.613  18.056  12.170  1.00 20.00     0.016 A 
HETATM    2  C2  UNL     1     -25.105  17.948  12.036  1.00 20.00     0.008 A 
HETATM    3  C3  UNL     1     -24.216  17.631  10.841  1.00 20.00    -0.037 A 
HETATM    4  C4  UNL     1     -24.093  16.184  10.443  1.00 20.00     0.015 C 
ENDROOT
BRANCH   3   5
HETATM    5  C7  UNL     1     -24.132  18.593   9.686  1.00 20.00     0.035 C 
BRANCH   5   6
HETATM    6  C8  UNL     1     -22.988  18.258   8.735  1.00 20.00     0.167 C 
BRANCH   6   7
HETATM    7  O9  UNL     1     -23.428  18.424   7.394  1.00 20.00    -0.396 OA
HETATM    8  C5  UNL     1     -24.711  19.031   7.337  1.00 20.00     0.201 C 
ENDBRANCH   6   7
ENDBRANCH   5   6
ENDBRANCH   3   5
BRANCH   2   9
HETATM    9  C6  UNL     1     -25.956  19.170  12.103  1.00 20.00     0.120 C 
HETATM   10 CL10 UNL     1     -27.628  18.822  11.582  1.00 20.00    -0.130 Cl
ENDBRANCH   2   9
TORSDOF 4
ENDMDL
MODEL 3
REMARK VINA RESULT:      -3.9      2.277      2.919
REMARK  4 active torsions:
REMARK  status: ('A' for Active; 'I' for Inactive)
REMARK    1  A    between atoms: C2_2  and  C6_6 
REMARK    2  A    between atoms: C3_3  and  C7_7 
REMARK    3  A    between atoms: C7_7  and  C8_8 
REMARK    4  A    between atoms: C8_8  and  O9_9 
ROOT
HETATM    1  C1  UNL     1     -33.922  14.775  -3.856  1.00 20.00     0.016 A 
HETATM    2  C2  UNL     1     -33.971  16.210  -4.294  1.00 20.00     0.008 A 
HETATM    3  C3  UNL     1     -35.027  15.679  -3.335  1.00 20.00    -0.037 A 
HETATM    4  C4  UNL     1     -34.946  16.138  -1.903  1.00 20.00     0.015 C 
ENDROOT
BRANCH   3   5
HETATM    5  C7  UNL     1     -36.431  15.432  -3.820  1.00 20.00     0.035 C 
BRANCH   5   6
HETATM    6  C8  UNL     1     -36.632  14.001  -4.306  1.00 20.00     0.167 C 
BRANCH   6   7
HETATM    7  O9  UNL     1     -38.023  13.744  -4.448  1.00 20.00    -0.396 OA
HETATM    8  C5  UNL     1     -38.798  14.908  -4.194  1.00 20.00     0.201 C 
ENDBRANCH   6   7
ENDBRANCH   5   6
ENDBRANCH   3   5
BRANCH   2   9
HETATM    9  C6  UNL     1     -34.272  16.554  -5.713  1.00 20.00     0.120 C 
HETATM   10 CL10 UNL     1     -33.987  15.159  -6.791  1.00 20.00    -0.130 Cl
ENDBRANCH   2   9
TORSDOF 4
ENDMDL
MODEL 4
REMARK VINA RESULT:      -3.9      1.143      1.494
REMARK  4 active torsions:
REMARK  status: ('A' for Active; 'I' for Inactive)
REMARK    1  A    between atoms: C2_2  and  C6_6 
REMARK    2  A    between atoms: C3_3  and  C7_7 
REMARK    3  A    between atoms: C7_7  and  C8_8 
REMARK    4  A    between atoms: C8_8  and  O9_9 
ROOT
HETATM    1  C1  UNL     1     -34.406  16.581  -4.172  1.00 20.00     0.016 A 
HETATM    2  C2  UNL     1     -34.049  16.132  -2.784  1.00 20.00     0.008 A 
HETATM    3  C3  UNL     1     -34.187  15.102  -3.897  1.00 20.00    -0.037 A 
HETATM    4  C4  UNL     1     -32.919  14.471  -4.409  1.00 20.00     0.015 C 
ENDROOT
BRANCH   3   5
HETATM    5  C7  UNL     1     -35.384  14.190  -3.937  1.00 20.00     0.035 C 
BRANCH   5   6
HETATM    6  C8  UNL     1     -36.351  14.553  -5.060  1.00 20.00     0.167 C 
BRANCH   6   7
HETATM    7  O9  UNL     1     -35.920  13.938  -6.267  1.00 20.00    -0.396 OA
HETATM    8  C5  UNL     1     -35.654  14.902  -7.277  1.00 20.00     0.201 C 
ENDBRANCH   6   7
ENDBRANCH   5   6
ENDBRANCH   3   5
BRANCH   2   9
HETATM    9  C6  UNL     1     -35.038  16.256  -1.676  1.00 20.00     0.120 C 
HETATM   10 CL10 UNL     1     -34.552  17.522  -0.514  1.00 20.00    -0.130 Cl
ENDBRANCH   2   9
TORSDOF 4
ENDMDL
MODEL 5
REMARK VINA RESULT:      -3.8      4.203      5.853
REMARK  4 active torsions:
REMARK  status: ('A' for Active; 'I' for Inactive)
REMARK    1  A    between atoms: C2_2  and  C6_6 
REMARK    2  A    between atoms: C3_3  and  C7_7 
REMARK    3  A    between atoms: C7_7  and  C8_8 
REMARK    4  A    between atoms: C8_8  and  O9_9 
ROOT
HETATM    1  C1  UNL     1     -34.935  17.721  -2.685  1.00 20.00     0.016 A 
HETATM    2  C2  UNL     1     -34.497  16.327  -2.340  1.00 20.00     0.008 A 
HETATM    3  C3  UNL     1     -33.854  17.515  -1.637  1.00 20.00    -0.037 A 
HETATM    4  C4  UNL     1     -34.220  17.738  -0.193  1.00 20.00     0.015 C 
ENDROOT
BRANCH   3   5
HETATM    5  C7  UNL     1     -32.447  17.925  -1.982  1.00 20.00     0.035 C 
BRANCH   5   6
HETATM    6  C8  UNL     1     -31.869  18.914  -0.975  1.00 20.00     0.167 C 
BRANCH   6   7
HETATM    7  O9  UNL     1     -30.637  18.410  -0.477  1.00 20.00    -0.396 OA
HETATM    8  C5  UNL     1     -30.657  18.288   0.939  1.00 20.00     0.201 C 
ENDBRANCH   6   7
ENDBRANCH   5   6
ENDBRANCH   3   5
BRANCH   2   9
HETATM    9  C6  UNL     1     -33.772  15.497  -3.343  1.00 20.00     0.120 C 
HETATM   10 CL10 UNL     1     -34.733  14.069  -3.818  1.00 20.00    -0.130 Cl
ENDBRANCH   2   9
TORSDOF 4
ENDMDL
MODEL 6
REMARK VINA RESULT:      -3.7      1.642      1.957
REMARK  4 active torsions:
REMARK  status: ('A' for Active; 'I' for Inactive)
REMARK    1  A    between atoms: C2_2  and  C6_6 
REMARK    2  A    between atoms: C3_3  and  C7_7 
REMARK    3  A    between atoms: C7_7  and  C8_8 
REMARK    4  A    between atoms: C8_8  and  O9_9 
ROOT
HETATM    1  C1  UNL     1     -33.684  17.444  -3.903  1.00 20.00     0.016 A 
HETATM    2  C2  UNL     1     -32.868  17.085  -2.695  1.00 20.00     0.008 A 
HETATM    3  C3  UNL     1     -33.735  16.025  -3.362  1.00 20.00    -0.037 A 
HETATM    4  C4  UNL     1     -33.025  14.949  -4.141  1.00 20.00     0.015 C 
ENDROOT
BRANCH   3   5
HETATM    5  C7  UNL     1     -35.007  15.564  -2.701  1.00 20.00     0.035 C 
BRANCH   5   6
HETATM    6  C8  UNL     1     -36.219  15.708  -3.615  1.00 20.00     0.167 C 
BRANCH   6   7
HETATM    7  O9  UNL     1     -36.879  14.453  -3.720  1.00 20.00    -0.396 OA
HETATM    8  C5  UNL     1     -36.332  13.662  -4.767  1.00 20.00     0.201 C 
ENDBRANCH   6   7
ENDBRANCH   5   6
ENDBRANCH   3   5
BRANCH   2   9
HETATM    9  C6  UNL     1     -33.196  17.670  -1.364  1.00 20.00     0.120 C 
HETATM   10 CL10 UNL     1     -31.729  18.279  -0.547  1.00 20.00    -0.130 Cl
ENDBRANCH   2   9
TORSDOF 4
ENDMDL
MODEL 7
REMARK VINA RESULT:      -3.6      2.666      3.476
REMARK  4 active torsions:
REMARK  status: ('A' for Active; 'I' for Inactive)
REMARK    1  A    between atoms: C2_2  and  C6_6 
REMARK    2  A    between atoms: C3_3  and  C7_7 
REMARK    3  A    between atoms: C7_7  and  C8_8 
REMARK    4  A    between atoms: C8_8  and  O9_9 
ROOT
HETATM    1  C1  UNL     1     -32.984  17.476  -1.854  1.00 20.00     0.016 A 
HETATM    2  C2  UNL     1     -33.790  18.042  -2.988  1.00 20.00     0.008 A 
HETATM    3  C3  UNL     1     -33.788  16.540  -2.740  1.00 20.00    -0.037 A 
HETATM    4  C4  UNL     1     -35.046  15.937  -2.171  1.00 20.00     0.015 C 
ENDROOT
BRANCH   3   5
HETATM    5  C7  UNL     1     -33.036  15.622  -3.668  1.00 20.00     0.035 C 
BRANCH   5   6
HETATM    6  C8  UNL     1     -33.916  14.504  -4.215  1.00 20.00     0.167 C 
BRANCH   6   7
HETATM    7  O9  UNL     1     -33.740  14.414  -5.623  1.00 20.00    -0.396 OA
HETATM    8  C5  UNL     1     -34.469  15.426  -6.305  1.00 20.00     0.201 C 
ENDBRANCH   6   7
ENDBRANCH   5   6
ENDBRANCH   3   5
BRANCH   2   9
HETATM    9  C6  UNL     1     -33.108  18.665  -4.158  1.00 20.00     0.120 C 
HETATM   10 CL10 UNL     1     -34.265  19.006  -5.475  1.00 20.00    -0.130 Cl
ENDBRANCH   2   9
TORSDOF 4
ENDMDL
MODEL 8
REMARK VINA RESULT:      -3.6     16.088     17.288
REMARK  4 active torsions:
REMARK  status: ('A' for Active; 'I' for Inactive)
REMARK    1  A    between atoms: C2_2  and  C6_6 
REMARK    2  A    between atoms: C3_3  and  C7_7 
REMARK    3  A    between atoms: C7_7  and  C8_8 
REMARK    4  A    between atoms: C8_8  and  O9_9 
ROOT
HETATM    1  C1  UNL     1     -21.978  18.189  10.239  1.00 20.00     0.016 A 
HETATM    2  C2  UNL     1     -23.026  17.114  10.204  1.00 20.00     0.008 A 
HETATM    3  C3  UNL     1     -22.856  18.040   9.007  1.00 20.00    -0.037 A 
HETATM    4  C4  UNL     1     -22.236  17.452   7.767  1.00 20.00     0.015 C 
ENDROOT
BRANCH   3   5
HETATM    5  C7  UNL     1     -23.876  19.113   8.732  1.00 20.00     0.035 C 
BRANCH   5   6
HETATM    6  C8  UNL     1     -24.425  19.038   7.311  1.00 20.00     0.167 C 
BRANCH   6   7
HETATM    7  O9  UNL     1     -25.828  19.262   7.337  1.00 20.00    -0.396 OA
HETATM    8  C5  UNL     1     -26.430  18.953   6.087  1.00 20.00     0.201 C 
ENDBRANCH   6   7
ENDBRANCH   5   6
ENDBRANCH   3   5
BRANCH   2   9
HETATM    9  C6  UNL     1     -24.205  17.183  11.113  1.00 20.00     0.120 C 
HETATM   10 CL10 UNL     1     -24.650  15.563  11.718  1.00 20.00    -0.130 Cl
ENDBRANCH   2   9
TORSDOF 4
ENDMDL
MODEL 9
REMARK VINA RESULT:      -3.6      1.791      2.422
REMARK  4 active torsions:
REMARK  status: ('A' for Active; 'I' for Inactive)
REMARK    1  A    between atoms: C2_2  and  C6_6 
REMARK    2  A    between atoms: C3_3  and  C7_7 
REMARK    3  A    between atoms: C7_7  and  C8_8 
REMARK    4  A    between atoms: C8_8  and  O9_9 
ROOT
HETATM    1  C1  UNL     1     -35.151  16.237  -5.384  1.00 20.00     0.016 A 
HETATM    2  C2  UNL     1     -33.991  15.296  -5.538  1.00 20.00     0.008 A 
HETATM    3  C3  UNL     1     -35.389  14.843  -5.939  1.00 20.00    -0.037 A 
HETATM    4  C4  UNL     1     -35.670  14.709  -7.412  1.00 20.00     0.015 C 
ENDROOT
BRANCH   3   5
HETATM    5  C7  UNL     1     -36.138  13.858  -5.080  1.00 20.00     0.035 C 
BRANCH   5   6
HETATM    6  C8  UNL     1     -37.135  14.541  -4.151  1.00 20.00     0.167 C 
BRANCH   6   7
HETATM    7  O9  UNL     1     -38.435  14.018  -4.390  1.00 20.00    -0.396 OA
HETATM    8  C5  UNL     1     -39.432  15.025  -4.276  1.00 20.00     0.201 C 
ENDBRANCH   6   7
ENDBRANCH   5   6
ENDBRANCH   3   5
BRANCH   2   9
HETATM    9  C6  UNL     1     -33.288  14.766  -4.335  1.00 20.00     0.120 C 
HETATM   10 CL10 UNL     1     -33.601  15.784  -2.902  1.00 20.00    -0.130 Cl
ENDBRANCH   2   9
TORSDOF 4
ENDMDL
