MODEL 1
REMARK VINA RESULT:      -4.1      0.000      0.000
REMARK  1 active torsions:
REMARK  status: ('A' for Active; 'I' for Inactive)
REMARK    1  A    between atoms: C5_5  and  C10_10 
ROOT
HETATM    1  C1  UNL     1     -33.171  17.183  -2.804  1.00 20.00     0.002 C 
HETATM    2  C2  UNL     1     -33.814  17.810  -4.036  1.00 20.00     0.011 C 
HETATM    3  C3  UNL     1     -34.026  15.950  -2.552  1.00 20.00     0.010 C 
HETATM    4  C4  UNL     1     -35.661  16.955  -5.637  1.00 20.00     0.017 A 
HETATM    5  C5  UNL     1     -34.363  16.708  -6.344  1.00 20.00     0.009 A 
HETATM    6  C6  UNL     1     -34.414  16.649  -4.818  1.00 20.00    -0.028 A 
HETATM    7  C7  UNL     1     -34.289  15.370  -3.969  1.00 20.00    -0.040 C 
HETATM    8  C8  UNL     1     -33.080  14.515  -4.394  1.00 20.00     0.015 C 
HETATM    9  C9  UNL     1     -35.543  14.493  -3.916  1.00 20.00     0.015 C 
ENDROOT
BRANCH   5  10
HETATM   10  C10 UNL     1     -34.253  15.535  -7.252  1.00 20.00     0.120 C 
HETATM   11 CL11 UNL     1     -35.858  14.840  -7.614  1.00 20.00    -0.130 Cl
ENDBRANCH   5  10
TORSDOF 1
ENDMDL
MODEL 2
REMARK VINA RESULT:      -4.1      2.592      4.153
REMARK  1 active torsions:
REMARK  status: ('A' for Active; 'I' for Inactive)
REMARK    1  A    between atoms: C5_5  and  C10_10 
ROOT
HETATM    1  C1  UNL     1     -35.949  14.202  -5.376  1.00 20.00     0.002 C 
HETATM    2  C2  UNL     1     -35.246  14.157  -4.024  1.00 20.00     0.011 C 
HETATM    3  C3  UNL     1     -36.702  15.523  -5.338  1.00 20.00     0.010 C 
HETATM    4  C4  UNL     1     -34.987  15.938  -2.161  1.00 20.00     0.017 A 
HETATM    5  C5  UNL     1     -33.695  15.952  -2.919  1.00 20.00     0.009 A 
HETATM    6  C6  UNL     1     -34.995  15.612  -3.648  1.00 20.00    -0.028 A 
HETATM    7  C7  UNL     1     -35.703  16.513  -4.678  1.00 20.00    -0.040 C 
HETATM    8  C8  UNL     1     -34.728  17.034  -5.751  1.00 20.00     0.015 C 
HETATM    9  C9  UNL     1     -36.491  17.686  -4.089  1.00 20.00     0.015 C 
ENDROOT
BRANCH   5  10
HETATM   10  C10 UNL     1     -32.946  17.232  -3.036  1.00 20.00     0.120 C 
HETATM   11 CL11 UNL     1     -32.513  17.881  -1.430  1.00 20.00    -0.130 Cl
ENDBRANCH   5  10
TORSDOF 1
ENDMDL
MODEL 3
REMARK VINA RESULT:      -4.0      2.129      3.363
REMARK  1 active torsions:
REMARK  status: ('A' for Active; 'I' for Inactive)
REMARK    1  A    between atoms: C5_5  and  C10_10 
ROOT
HETATM    1  C1  UNL     1     -36.367  13.960  -4.401  1.00 20.00     0.002 C 
HETATM    2  C2  UNL     1     -36.362  15.137  -5.371  1.00 20.00     0.011 C 
HETATM    3  C3  UNL     1     -34.928  13.903  -3.911  1.00 20.00     0.010 C 
HETATM    4  C4  UNL     1     -34.560  16.920  -5.901  1.00 20.00     0.017 A 
HETATM    5  C5  UNL     1     -35.532  17.587  -4.977  1.00 20.00     0.009 A 
HETATM    6  C6  UNL     1     -35.285  16.083  -4.856  1.00 20.00    -0.028 A 
HETATM    7  C7  UNL     1     -34.536  15.391  -3.701  1.00 20.00    -0.040 C 
HETATM    8  C8  UNL     1     -35.046  15.856  -2.325  1.00 20.00     0.015 C 
HETATM    9  C9  UNL     1     -33.010  15.508  -3.748  1.00 20.00     0.015 C 
ENDROOT
BRANCH   5  10
HETATM   10  C10 UNL     1     -35.031  18.624  -4.035  1.00 20.00     0.120 C 
HETATM   11 CL11 UNL     1     -33.348  19.088  -4.416  1.00 20.00    -0.130 Cl
ENDBRANCH   5  10
TORSDOF 1
ENDMDL
MODEL 4
REMARK VINA RESULT:      -4.0      1.786      2.798
REMARK  1 active torsions:
REMARK  status: ('A' for Active; 'I' for Inactive)
REMARK    1  A    between atoms: C5_5  and  C10_10 
ROOT
HETATM    1  C1  UNL     1     -33.790  16.555  -2.266  1.00 20.00     0.002 C 
HETATM    2  C2  UNL     1     -35.158  15.883  -2.252  1.00 20.00     0.011 C 
HETATM    3  C3  UNL     1     -33.130  15.982  -3.512  1.00 20.00     0.010 C 
HETATM    4  C4  UNL     1     -36.365  14.401  -4.000  1.00 20.00     0.017 A 
HETATM    5  C5  UNL     1     -36.954  15.771  -4.152  1.00 20.00     0.009 A 
HETATM    6  C6  UNL     1     -35.497  15.619  -3.713  1.00 20.00    -0.028 A 
HETATM    7  C7  UNL     1     -34.265  15.964  -4.572  1.00 20.00    -0.040 C 
HETATM    8  C8  UNL     1     -34.382  17.363  -5.207  1.00 20.00     0.015 C 
HETATM    9  C9  UNL     1     -33.913  14.939  -5.652  1.00 20.00     0.015 C 
ENDROOT
BRANCH   5  10
HETATM   10  C10 UNL     1     -37.410  16.210  -5.498  1.00 20.00     0.120 C 
HETATM   11 CL11 UNL     1     -37.986  17.900  -5.469  1.00 20.00    -0.130 Cl
ENDBRANCH   5  10
TORSDOF 1
ENDMDL
MODEL 5
REMARK VINA RESULT:      -4.0      2.757      4.238
REMARK  1 active torsions:
REMARK  status: ('A' for Active; 'I' for Inactive)
REMARK    1  A    between atoms: C5_5  and  C10_10 
ROOT
HETATM    1  C1  UNL     1     -34.045  14.953  -5.918  1.00 20.00     0.002 C 
HETATM    2  C2  UNL     1     -33.667  14.768  -4.453  1.00 20.00     0.011 C 
HETATM    3  C3  UNL     1     -35.271  15.851  -5.854  1.00 20.00     0.010 C 
HETATM    4  C4  UNL     1     -34.544  15.899  -2.295  1.00 20.00     0.017 A 
HETATM    5  C5  UNL     1     -33.254  16.588  -2.620  1.00 20.00     0.009 A 
HETATM    6  C6  UNL     1     -34.123  16.040  -3.751  1.00 20.00    -0.028 A 
HETATM    7  C7  UNL     1     -34.926  16.892  -4.754  1.00 20.00    -0.040 C 
HETATM    8  C8  UNL     1     -34.068  18.011  -5.373  1.00 20.00     0.015 C 
HETATM    9  C9  UNL     1     -36.229  17.485  -4.213  1.00 20.00     0.015 C 
ENDROOT
BRANCH   5  10
HETATM   10  C10 UNL     1     -33.100  18.025  -2.267  1.00 20.00     0.120 C 
HETATM   11 CL11 UNL     1     -31.716  18.279  -1.166  1.00 20.00    -0.130 Cl
ENDBRANCH   5  10
TORSDOF 1
ENDMDL
MODEL 6
REMARK VINA RESULT:      -3.9      2.164      3.931
REMARK  1 active torsions:
REMARK  status: ('A' for Active; 'I' for Inactive)
REMARK    1  A    between atoms: C5_5  and  C10_10 
ROOT
HETATM    1  C1  UNL     1     -34.190  15.645  -7.329  1.00 20.00     0.002 C 
HETATM    2  C2  UNL     1     -33.788  14.788  -6.134  1.00 20.00     0.011 C 
HETATM    3  C3  UNL     1     -35.506  16.268  -6.887  1.00 20.00     0.010 C 
HETATM    4  C4  UNL     1     -34.770  14.596  -3.746  1.00 20.00     0.017 A 
HETATM    5  C5  UNL     1     -33.564  15.476  -3.619  1.00 20.00     0.009 A 
HETATM    6  C6  UNL     1     -34.375  15.488  -4.915  1.00 20.00    -0.028 A 
HETATM    7  C7  UNL     1     -35.270  16.645  -5.398  1.00 20.00    -0.040 C 
HETATM    8  C8  UNL     1     -34.540  18.001  -5.333  1.00 20.00     0.015 C 
HETATM    9  C9  UNL     1     -36.626  16.760  -4.699  1.00 20.00     0.015 C 
ENDROOT
BRANCH   5  10
HETATM   10  C10 UNL     1     -33.564  16.549  -2.590  1.00 20.00     0.120 C 
HETATM   11 CL11 UNL     1     -34.970  16.405  -1.499  1.00 20.00    -0.130 Cl
ENDBRANCH   5  10
TORSDOF 1
ENDMDL
MODEL 7
REMARK VINA RESULT:      -3.9      1.253      3.013
REMARK  1 active torsions:
REMARK  status: ('A' for Active; 'I' for Inactive)
REMARK    1  A    between atoms: C5_5  and  C10_10 
ROOT
HETATM    1  C1  UNL     1     -32.947  18.332  -2.751  1.00 20.00     0.002 C 
HETATM    2  C2  UNL     1     -32.944  16.817  -2.583  1.00 20.00     0.011 C 
HETATM    3  C3  UNL     1     -33.275  18.522  -4.225  1.00 20.00     0.010 C 
HETATM    4  C4  UNL     1     -33.647  14.908  -4.185  1.00 20.00     0.017 A 
HETATM    5  C5  UNL     1     -34.795  15.088  -3.238  1.00 20.00     0.009 A 
HETATM    6  C6  UNL     1     -33.932  16.291  -3.616  1.00 20.00    -0.028 A 
HETATM    7  C7  UNL     1     -34.378  17.465  -4.509  1.00 20.00    -0.040 C 
HETATM    8  C8  UNL     1     -35.742  18.032  -4.073  1.00 20.00     0.015 C 
HETATM    9  C9  UNL     1     -34.401  17.172  -6.012  1.00 20.00     0.015 C 
ENDROOT
BRANCH   5  10
HETATM   10  C10 UNL     1     -36.175  14.826  -3.726  1.00 20.00     0.120 C 
HETATM   11 CL11 UNL     1     -36.159  13.958  -5.287  1.00 20.00    -0.130 Cl
ENDBRANCH   5  10
TORSDOF 1
ENDMDL
MODEL 8
REMARK VINA RESULT:      -3.9      2.574      4.076
REMARK  1 active torsions:
REMARK  status: ('A' for Active; 'I' for Inactive)
REMARK    1  A    between atoms: C5_5  and  C10_10 
ROOT
HETATM    1  C1  UNL     1     -32.665  18.561   0.292  1.00 20.00     0.002 C 
HETATM    2  C2  UNL     1     -32.202  17.947  -1.024  1.00 20.00     0.011 C 
HETATM    3  C3  UNL     1     -33.990  19.213  -0.072  1.00 20.00     0.010 C 
HETATM    4  C4  UNL     1     -33.395  17.669  -3.306  1.00 20.00     0.017 A 
HETATM    5  C5  UNL     1     -33.495  16.335  -2.630  1.00 20.00     0.009 A 
HETATM    6  C6  UNL     1     -33.477  17.610  -1.787  1.00 20.00    -0.028 A 
HETATM    7  C7  UNL     1     -34.678  18.185  -1.012  1.00 20.00    -0.040 C 
HETATM    8  C8  UNL     1     -35.376  17.111  -0.156  1.00 20.00     0.015 C 
HETATM    9  C9  UNL     1     -35.717  18.917  -1.864  1.00 20.00     0.015 C 
ENDROOT
BRANCH   5  10
HETATM   10  C10 UNL     1     -34.689  15.487  -2.890  1.00 20.00     0.120 C 
HETATM   11 CL11 UNL     1     -34.303  14.144  -4.002  1.00 20.00    -0.130 Cl
ENDBRANCH   5  10
TORSDOF 1
ENDMDL
MODEL 9
REMARK VINA RESULT:      -3.9      2.037      3.413
REMARK  1 active torsions:
REMARK  status: ('A' for Active; 'I' for Inactive)
REMARK    1  A    between atoms: C5_5  and  C10_10 
ROOT
HETATM    1  C1  UNL     1     -36.177  17.750  -1.074  1.00 20.00     0.002 C 
HETATM    2  C2  UNL     1     -35.083  16.693  -1.168  1.00 20.00     0.011 C 
HETATM    3  C3  UNL     1     -35.920  18.631  -2.287  1.00 20.00     0.010 C 
HETATM    4  C4  UNL     1     -33.366  16.157  -3.031  1.00 20.00     0.017 A 
HETATM    5  C5  UNL     1     -34.462  15.147  -3.187  1.00 20.00     0.009 A 
HETATM    6  C6  UNL     1     -34.790  16.542  -2.656  1.00 20.00    -0.028 A 
HETATM    7  C7  UNL     1     -35.571  17.629  -3.421  1.00 20.00    -0.040 C 
HETATM    8  C8  UNL     1     -36.876  17.079  -4.026  1.00 20.00     0.015 C 
HETATM    9  C9  UNL     1     -34.776  18.367  -4.501  1.00 20.00     0.015 C 
ENDROOT
BRANCH   5  10
HETATM   10  C10 UNL     1     -34.785  14.642  -4.548  1.00 20.00     0.120 C 
HETATM   11 CL11 UNL     1     -36.175  13.522  -4.513  1.00 20.00    -0.130 Cl
ENDBRANCH   5  10
TORSDOF 1
ENDMDL
