MODEL 1
REMARK VINA RESULT:      -4.5      0.000      0.000
REMARK  1 active torsions:
REMARK  status: ('A' for Active; 'I' for Inactive)
REMARK    1  A    between atoms: C5_5  and  C10_10 
ROOT
HETATM    1  C1  UNL     1     -33.194  18.432  -3.029  1.00 20.00     0.017 A 
HETATM    2  C2  UNL     1     -33.207  15.868  -3.529  1.00 20.00     0.020 C 
HETATM    3  C3  UNL     1     -34.895  16.844  -1.885  1.00 20.00     0.083 C 
HETATM    4  C4  UNL     1     -35.509  16.327  -4.564  1.00 20.00     0.082 C 
HETATM    5  C5  UNL     1     -32.434  17.736  -1.938  1.00 20.00     0.009 A 
HETATM    6  C6  UNL     1     -33.598  17.026  -2.622  1.00 20.00    -0.026 A 
HETATM    7  C7  UNL     1     -34.365  15.306  -4.397  1.00 20.00    -0.038 C 
HETATM    8  C8  UNL     1     -33.813  14.982  -5.803  1.00 20.00     0.015 C 
HETATM    9  C9  UNL     1     -34.886  13.981  -3.800  1.00 20.00     0.015 C 
HETATM   10  S11 UNL     1     -36.312  16.862  -3.015  1.00 20.00    -0.168 SA
ENDROOT
BRANCH   5  11
HETATM   11  C10 UNL     1     -32.494  18.244  -0.538  1.00 20.00     0.120 C 
HETATM   12 CL12 UNL     1     -30.875  18.255   0.217  1.00 20.00    -0.130 Cl
ENDBRANCH   5  11
TORSDOF 1
ENDMDL
MODEL 2
REMARK VINA RESULT:      -4.2      1.632      2.210
REMARK  1 active torsions:
REMARK  status: ('A' for Active; 'I' for Inactive)
REMARK    1  A    between atoms: C5_5  and  C10_10 
ROOT
HETATM    1  C1  UNL     1     -32.991  16.275  -3.144  1.00 20.00     0.017 A 
HETATM    2  C2  UNL     1     -35.486  15.502  -3.157  1.00 20.00     0.020 C 
HETATM    3  C3  UNL     1     -34.864  17.779  -4.122  1.00 20.00     0.083 C 
HETATM    4  C4  UNL     1     -35.222  15.504  -5.708  1.00 20.00     0.082 C 
HETATM    5  C5  UNL     1     -33.680  16.891  -1.961  1.00 20.00     0.009 A 
HETATM    6  C6  UNL     1     -34.465  16.628  -3.243  1.00 20.00    -0.026 A 
HETATM    7  C7  UNL     1     -36.108  15.087  -4.517  1.00 20.00    -0.038 C 
HETATM    8  C8  UNL     1     -36.243  13.548  -4.545  1.00 20.00     0.015 C 
HETATM    9  C9  UNL     1     -37.532  15.667  -4.654  1.00 20.00     0.015 C 
HETATM   10  S11 UNL     1     -34.920  17.296  -5.869  1.00 20.00    -0.168 SA
ENDROOT
BRANCH   5  11
HETATM   11  C10 UNL     1     -33.304  18.258  -1.499  1.00 20.00     0.120 C 
HETATM   12 CL12 UNL     1     -31.610  18.306  -0.936  1.00 20.00    -0.130 Cl
ENDBRANCH   5  11
TORSDOF 1
ENDMDL
MODEL 3
REMARK VINA RESULT:      -4.2      2.019      2.110
REMARK  1 active torsions:
REMARK  status: ('A' for Active; 'I' for Inactive)
REMARK    1  A    between atoms: C5_5  and  C10_10 
ROOT
HETATM    1  C1  UNL     1     -33.684  18.300  -2.157  1.00 20.00     0.017 A 
HETATM    2  C2  UNL     1     -34.142  15.758  -2.548  1.00 20.00     0.020 C 
HETATM    3  C3  UNL     1     -36.050  17.435  -2.771  1.00 20.00     0.083 C 
HETATM    4  C4  UNL     1     -34.619  16.463  -4.968  1.00 20.00     0.082 C 
HETATM    5  C5  UNL     1     -34.249  17.724  -0.892  1.00 20.00     0.009 A 
HETATM    6  C6  UNL     1     -34.673  17.151  -2.241  1.00 20.00    -0.026 A 
HETATM    7  C7  UNL     1     -34.379  15.282  -4.006  1.00 20.00    -0.038 C 
HETATM    8  C8  UNL     1     -33.120  14.528  -4.489  1.00 20.00     0.015 C 
HETATM    9  C9  UNL     1     -35.552  14.278  -4.056  1.00 20.00     0.015 C 
HETATM   10  S11 UNL     1     -36.066  17.505  -4.582  1.00 20.00    -0.168 SA
ENDROOT
BRANCH   5  11
HETATM   11  C10 UNL     1     -35.151  18.541  -0.031  1.00 20.00     0.120 C 
HETATM   12 CL12 UNL     1     -36.025  17.520   1.144  1.00 20.00    -0.130 Cl
ENDBRANCH   5  11
TORSDOF 1
ENDMDL
MODEL 4
REMARK VINA RESULT:      -4.2      2.814      4.653
REMARK  1 active torsions:
REMARK  status: ('A' for Active; 'I' for Inactive)
REMARK    1  A    between atoms: C5_5  and  C10_10 
ROOT
HETATM    1  C1  UNL     1     -35.262  16.382  -3.917  1.00 20.00     0.017 A 
HETATM    2  C2  UNL     1     -35.035  16.497  -1.317  1.00 20.00     0.020 C 
HETATM    3  C3  UNL     1     -33.095  17.252  -2.789  1.00 20.00     0.083 C 
HETATM    4  C4  UNL     1     -34.941  19.035  -1.678  1.00 20.00     0.082 C 
HETATM    5  C5  UNL     1     -34.523  15.160  -3.455  1.00 20.00     0.009 A 
HETATM    6  C6  UNL     1     -34.374  16.471  -2.688  1.00 20.00    -0.026 A 
HETATM    7  C7  UNL     1     -35.083  17.897  -0.648  1.00 20.00    -0.038 C 
HETATM    8  C8  UNL     1     -36.451  18.061   0.052  1.00 20.00     0.015 C 
HETATM    9  C9  UNL     1     -34.000  18.002   0.448  1.00 20.00     0.015 C 
HETATM   10  S11 UNL     1     -33.388  19.034  -2.636  1.00 20.00    -0.168 SA
ENDROOT
BRANCH   5  11
HETATM   11  C10 UNL     1     -33.438  14.576  -4.293  1.00 20.00     0.120 C 
HETATM   12 CL12 UNL     1     -33.732  14.871  -6.029  1.00 20.00    -0.130 Cl
ENDBRANCH   5  11
TORSDOF 1
ENDMDL
MODEL 5
REMARK VINA RESULT:      -4.0      2.858      4.754
REMARK  1 active torsions:
REMARK  status: ('A' for Active; 'I' for Inactive)
REMARK    1  A    between atoms: C5_5  and  C10_10 
ROOT
HETATM    1  C1  UNL     1     -35.527  15.806  -2.661  1.00 20.00     0.017 A 
HETATM    2  C2  UNL     1     -33.253  16.978  -2.128  1.00 20.00     0.020 C 
HETATM    3  C3  UNL     1     -34.511  17.573  -4.265  1.00 20.00     0.083 C 
HETATM    4  C4  UNL     1     -34.672  19.106  -1.931  1.00 20.00     0.082 C 
HETATM    5  C5  UNL     1     -34.442  15.096  -3.419  1.00 20.00     0.009 A 
HETATM    6  C6  UNL     1     -34.320  16.592  -3.144  1.00 20.00    -0.026 A 
HETATM    7  C7  UNL     1     -33.293  18.463  -1.681  1.00 20.00    -0.038 C 
HETATM    8  C8  UNL     1     -33.010  18.528  -0.163  1.00 20.00     0.015 C 
HETATM    9  C9  UNL     1     -32.173  19.263  -2.383  1.00 20.00     0.015 C 
HETATM   10  S11 UNL     1     -35.218  19.134  -3.671  1.00 20.00    -0.168 SA
ENDROOT
BRANCH   5  11
HETATM   11  C10 UNL     1     -34.715  14.533  -4.772  1.00 20.00     0.120 C 
HETATM   12 CL12 UNL     1     -36.270  13.656  -4.806  1.00 20.00    -0.130 Cl
ENDBRANCH   5  11
TORSDOF 1
ENDMDL
MODEL 6
REMARK VINA RESULT:      -4.0      2.941      4.768
REMARK  1 active torsions:
REMARK  status: ('A' for Active; 'I' for Inactive)
REMARK    1  A    between atoms: C5_5  and  C10_10 
ROOT
HETATM    1  C1  UNL     1     -35.950  15.145  -3.589  1.00 20.00     0.017 A 
HETATM    2  C2  UNL     1     -34.508  16.378  -1.793  1.00 20.00     0.020 C 
HETATM    3  C3  UNL     1     -34.987  17.513  -4.025  1.00 20.00     0.083 C 
HETATM    4  C4  UNL     1     -36.464  18.035  -1.708  1.00 20.00     0.082 C 
HETATM    5  C5  UNL     1     -34.502  14.942  -3.928  1.00 20.00     0.009 A 
HETATM    6  C6  UNL     1     -34.946  16.231  -3.243  1.00 20.00    -0.026 A 
HETATM    7  C7  UNL     1     -35.155  17.569  -1.038  1.00 20.00    -0.038 C 
HETATM    8  C8  UNL     1     -35.497  17.115   0.399  1.00 20.00     0.015 C 
HETATM    9  C9  UNL     1     -34.150  18.735  -0.915  1.00 20.00     0.015 C 
HETATM   10  S11 UNL     1     -36.298  18.616  -3.430  1.00 20.00    -0.168 SA
ENDROOT
BRANCH   5  11
HETATM   11  C10 UNL     1     -34.065  14.881  -5.351  1.00 20.00     0.120 C 
HETATM   12 CL12 UNL     1     -35.448  14.586  -6.441  1.00 20.00    -0.130 Cl
ENDBRANCH   5  11
TORSDOF 1
ENDMDL
MODEL 7
REMARK VINA RESULT:      -3.8      1.729      2.626
REMARK  1 active torsions:
REMARK  status: ('A' for Active; 'I' for Inactive)
REMARK    1  A    between atoms: C5_5  and  C10_10 
ROOT
HETATM    1  C1  UNL     1     -34.997  16.213  -1.788  1.00 20.00     0.017 A 
HETATM    2  C2  UNL     1     -35.288  17.217  -4.182  1.00 20.00     0.020 C 
HETATM    3  C3  UNL     1     -33.077  16.128  -3.529  1.00 20.00     0.083 C 
HETATM    4  C4  UNL     1     -35.064  14.785  -4.968  1.00 20.00     0.082 C 
HETATM    5  C5  UNL     1     -34.393  17.587  -1.799  1.00 20.00     0.009 A 
HETATM    6  C6  UNL     1     -34.369  16.739  -3.067  1.00 20.00    -0.026 A 
HETATM    7  C7  UNL     1     -35.434  16.228  -5.369  1.00 20.00    -0.038 C 
HETATM    8  C8  UNL     1     -36.910  16.226  -5.828  1.00 20.00     0.015 C 
HETATM    9  C9  UNL     1     -34.588  16.704  -6.570  1.00 20.00     0.015 C 
HETATM   10  S11 UNL     1     -33.352  14.551  -4.382  1.00 20.00    -0.168 SA
ENDROOT
BRANCH   5  11
HETATM   11  C10 UNL     1     -33.177  17.880  -0.988  1.00 20.00     0.120 C 
HETATM   12 CL12 UNL     1     -32.240  19.227  -1.691  1.00 20.00    -0.130 Cl
ENDBRANCH   5  11
TORSDOF 1
ENDMDL
MODEL 8
REMARK VINA RESULT:      -3.8      2.093      3.167
REMARK  1 active torsions:
REMARK  status: ('A' for Active; 'I' for Inactive)
REMARK    1  A    between atoms: C5_5  and  C10_10 
ROOT
HETATM    1  C1  UNL     1     -34.047  15.476  -2.995  1.00 20.00     0.017 A 
HETATM    2  C2  UNL     1     -36.384  16.301  -3.823  1.00 20.00     0.020 C 
HETATM    3  C3  UNL     1     -34.342  16.575  -5.326  1.00 20.00     0.083 C 
HETATM    4  C4  UNL     1     -36.143  14.452  -5.585  1.00 20.00     0.082 C 
HETATM    5  C5  UNL     1     -34.142  16.953  -2.742  1.00 20.00     0.009 A 
HETATM    6  C6  UNL     1     -34.867  16.341  -3.937  1.00 20.00    -0.026 A 
HETATM    7  C7  UNL     1     -37.094  15.471  -4.926  1.00 20.00    -0.038 C 
HETATM    8  C8  UNL     1     -38.255  14.684  -4.279  1.00 20.00     0.015 C 
HETATM    9  C9  UNL     1     -37.719  16.410  -5.982  1.00 20.00     0.015 C 
HETATM   10  S11 UNL     1     -34.683  15.166  -6.414  1.00 20.00    -0.168 SA
ENDROOT
BRANCH   5  11
HETATM   11  C10 UNL     1     -32.935  17.817  -2.873  1.00 20.00     0.120 C 
HETATM   12 CL12 UNL     1     -32.133  18.051  -1.295  1.00 20.00    -0.130 Cl
ENDBRANCH   5  11
TORSDOF 1
ENDMDL
MODEL 9
REMARK VINA RESULT:      -3.7      2.595      3.017
REMARK  1 active torsions:
REMARK  status: ('A' for Active; 'I' for Inactive)
REMARK    1  A    between atoms: C5_5  and  C10_10 
ROOT
HETATM    1  C1  UNL     1     -35.336  18.454  -2.036  1.00 20.00     0.017 A 
HETATM    2  C2  UNL     1     -34.848  15.912  -2.392  1.00 20.00     0.020 C 
HETATM    3  C3  UNL     1     -37.061  16.897  -3.189  1.00 20.00     0.083 C 
HETATM    4  C4  UNL     1     -34.876  16.503  -4.888  1.00 20.00     0.082 C 
HETATM    5  C5  UNL     1     -36.000  17.687  -0.929  1.00 20.00     0.009 A 
HETATM    6  C6  UNL     1     -35.854  17.052  -2.308  1.00 20.00    -0.026 A 
HETATM    7  C7  UNL     1     -34.534  15.431  -3.834  1.00 20.00    -0.038 C 
HETATM    8  C8  UNL     1     -33.021  15.135  -3.935  1.00 20.00     0.015 C 
HETATM    9  C9  UNL     1     -35.274  14.107  -4.129  1.00 20.00     0.015 C 
HETATM   10  S11 UNL     1     -36.626  17.015  -4.945  1.00 20.00    -0.168 SA
ENDROOT
BRANCH   5  11
HETATM   11  C10 UNL     1     -37.305  18.146  -0.374  1.00 20.00     0.120 C 
HETATM   12 CL12 UNL     1     -37.248  18.257   1.407  1.00 20.00    -0.130 Cl
ENDBRANCH   5  11
TORSDOF 1
ENDMDL
