MODEL 1
REMARK VINA RESULT:      -4.2      0.000      0.000
REMARK  2 active torsions:
REMARK  status: ('A' for Active; 'I' for Inactive)
REMARK    1  A    between atoms: C3_3  and  C6_6 
REMARK    2  A    between atoms: C7_7  and  C9_9 
ROOT
HETATM    1  C1  UNL     1     -31.830  18.152  -1.154  1.00 20.00     0.016 A 
HETATM    2  C2  UNL     1     -31.501  18.675   0.130  1.00 20.00     0.015 A 
HETATM    3  C3  UNL     1     -33.173  17.865  -1.267  1.00 20.00    -0.013 A 
HETATM    4  C4  UNL     1     -32.606  18.769   0.948  1.00 20.00    -0.021 A 
HETATM    5  C8  UNL     1     -32.680  19.263   2.340  1.00 20.00     0.056 C 
HETATM    6  S10 UNL     1     -34.031  18.227   0.170  1.00 20.00    -0.099 SA
ENDROOT
BRANCH   3   7
HETATM    7  C6  UNL     1     -33.818  17.301  -2.511  1.00 20.00     0.031 A 
HETATM    8  C5  UNL     1     -33.108  16.244  -3.328  1.00 20.00     0.016 A 
HETATM    9  C7  UNL     1     -34.316  15.871  -2.523  1.00 20.00     0.009 A 
BRANCH   9  10
HETATM   10  C9  UNL     1     -35.595  15.531  -3.206  1.00 20.00     0.120 C 
HETATM   11 CL11 UNL     1     -35.495  13.942  -4.015  1.00 20.00    -0.130 Cl
ENDBRANCH   9  10
ENDBRANCH   3   7
TORSDOF 2
ENDMDL
MODEL 2
REMARK VINA RESULT:      -4.1      2.216      3.431
REMARK  2 active torsions:
REMARK  status: ('A' for Active; 'I' for Inactive)
REMARK    1  A    between atoms: C3_3  and  C6_6 
REMARK    2  A    between atoms: C7_7  and  C9_9 
ROOT
HETATM    1  C1  UNL     1     -35.175  16.311  -1.733  1.00 20.00     0.016 A 
HETATM    2  C2  UNL     1     -34.410  17.284  -1.027  1.00 20.00     0.015 A 
HETATM    3  C3  UNL     1     -34.533  15.872  -2.870  1.00 20.00    -0.013 A 
HETATM    4  C4  UNL     1     -33.211  17.550  -1.651  1.00 20.00    -0.021 A 
HETATM    5  C8  UNL     1     -32.145  18.487  -1.234  1.00 20.00     0.056 C 
HETATM    6  S10 UNL     1     -33.012  16.631  -3.082  1.00 20.00    -0.099 SA
ENDROOT
BRANCH   3   7
HETATM    7  C6  UNL     1     -35.096  14.841  -3.819  1.00 20.00     0.031 A 
HETATM    8  C5  UNL     1     -36.592  14.685  -3.977  1.00 20.00     0.016 A 
HETATM    9  C7  UNL     1     -35.787  15.282  -5.092  1.00 20.00     0.009 A 
BRANCH   9  10
HETATM   10  C9  UNL     1     -35.580  14.523  -6.356  1.00 20.00     0.120 C 
HETATM   11 CL11 UNL     1     -34.137  15.104  -7.232  1.00 20.00    -0.130 Cl
ENDBRANCH   9  10
ENDBRANCH   3   7
TORSDOF 2
ENDMDL
MODEL 3
REMARK VINA RESULT:      -4.1      1.244      1.580
REMARK  2 active torsions:
REMARK  status: ('A' for Active; 'I' for Inactive)
REMARK    1  A    between atoms: C3_3  and  C6_6 
REMARK    2  A    between atoms: C7_7  and  C9_9 
ROOT
HETATM    1  C1  UNL     1     -33.760  18.192   0.536  1.00 20.00     0.016 A 
HETATM    2  C2  UNL     1     -32.817  18.589   1.526  1.00 20.00     0.015 A 
HETATM    3  C3  UNL     1     -33.181  18.055  -0.706  1.00 20.00    -0.013 A 
HETATM    4  C4  UNL     1     -31.551  18.739   1.003  1.00 20.00    -0.021 A 
HETATM    5  C8  UNL     1     -30.307  19.132   1.701  1.00 20.00     0.056 C 
HETATM    6  S10 UNL     1     -31.505  18.404  -0.675  1.00 20.00    -0.099 SA
ENDROOT
BRANCH   3   7
HETATM    7  C6  UNL     1     -33.930  17.643  -1.952  1.00 20.00     0.031 A 
HETATM    8  C5  UNL     1     -33.174  17.224  -3.193  1.00 20.00     0.016 A 
HETATM    9  C7  UNL     1     -33.919  16.196  -2.397  1.00 20.00     0.009 A 
BRANCH   9  10
HETATM   10  C9  UNL     1     -35.155  15.573  -2.947  1.00 20.00     0.120 C 
HETATM   11 CL11 UNL     1     -34.782  14.075  -3.844  1.00 20.00    -0.130 Cl
ENDBRANCH   9  10
ENDBRANCH   3   7
TORSDOF 2
ENDMDL
MODEL 4
REMARK VINA RESULT:      -4.1      1.694      2.271
REMARK  2 active torsions:
REMARK  status: ('A' for Active; 'I' for Inactive)
REMARK    1  A    between atoms: C3_3  and  C6_6 
REMARK    2  A    between atoms: C7_7  and  C9_9 
ROOT
HETATM    1  C1  UNL     1     -32.886  17.128  -2.558  1.00 20.00     0.016 A 
HETATM    2  C2  UNL     1     -32.860  17.851  -1.331  1.00 20.00     0.015 A 
HETATM    3  C3  UNL     1     -34.091  16.493  -2.759  1.00 20.00    -0.013 A 
HETATM    4  C4  UNL     1     -34.048  17.743  -0.642  1.00 20.00    -0.021 A 
HETATM    5  C8  UNL     1     -34.416  18.346   0.657  1.00 20.00     0.056 C 
HETATM    6  S10 UNL     1     -35.187  16.771  -1.473  1.00 20.00    -0.099 SA
ENDROOT
BRANCH   3   7
HETATM    7  C6  UNL     1     -34.416  15.652  -3.972  1.00 20.00     0.031 A 
HETATM    8  C5  UNL     1     -33.540  14.475  -4.342  1.00 20.00     0.016 A 
HETATM    9  C7  UNL     1     -34.915  14.233  -3.796  1.00 20.00     0.009 A 
BRANCH   9  10
HETATM   10  C9  UNL     1     -35.990  13.704  -4.681  1.00 20.00     0.120 C 
HETATM   11 CL11 UNL     1     -37.581  14.389  -4.249  1.00 20.00    -0.130 Cl
ENDBRANCH   9  10
ENDBRANCH   3   7
TORSDOF 2
ENDMDL
MODEL 5
REMARK VINA RESULT:      -4.1      1.958      2.970
REMARK  2 active torsions:
REMARK  status: ('A' for Active; 'I' for Inactive)
REMARK    1  A    between atoms: C3_3  and  C6_6 
REMARK    2  A    between atoms: C7_7  and  C9_9 
ROOT
HETATM    1  C1  UNL     1     -33.047  16.523  -2.959  1.00 20.00     0.016 A 
HETATM    2  C2  UNL     1     -32.791  17.491  -1.945  1.00 20.00     0.015 A 
HETATM    3  C3  UNL     1     -34.307  15.979  -2.850  1.00 20.00    -0.013 A 
HETATM    4  C4  UNL     1     -33.868  17.652  -1.101  1.00 20.00    -0.021 A 
HETATM    5  C8  UNL     1     -34.000  18.556   0.061  1.00 20.00     0.056 C 
HETATM    6  S10 UNL     1     -35.179  16.637  -1.531  1.00 20.00    -0.099 SA
ENDROOT
BRANCH   3   7
HETATM    7  C6  UNL     1     -34.863  14.930  -3.784  1.00 20.00     0.031 A 
HETATM    8  C5  UNL     1     -36.357  14.714  -3.886  1.00 20.00     0.016 A 
HETATM    9  C7  UNL     1     -35.621  15.349  -5.027  1.00 20.00     0.009 A 
BRANCH   9  10
HETATM   10  C9  UNL     1     -35.431  14.605  -6.303  1.00 20.00     0.120 C 
HETATM   11 CL11 UNL     1     -33.919  15.091  -7.119  1.00 20.00    -0.130 Cl
ENDBRANCH   9  10
ENDBRANCH   3   7
TORSDOF 2
ENDMDL
MODEL 6
REMARK VINA RESULT:      -4.1      2.135      3.051
REMARK  2 active torsions:
REMARK  status: ('A' for Active; 'I' for Inactive)
REMARK    1  A    between atoms: C3_3  and  C6_6 
REMARK    2  A    between atoms: C7_7  and  C9_9 
ROOT
HETATM    1  C1  UNL     1     -35.081  16.124  -1.727  1.00 20.00     0.016 A 
HETATM    2  C2  UNL     1     -35.012  17.158  -0.750  1.00 20.00     0.015 A 
HETATM    3  C3  UNL     1     -34.020  16.168  -2.604  1.00 20.00    -0.013 A 
HETATM    4  C4  UNL     1     -33.898  17.953  -0.916  1.00 20.00    -0.021 A 
HETATM    5  C8  UNL     1     -33.470  19.117  -0.110  1.00 20.00     0.056 C 
HETATM    6  S10 UNL     1     -32.944  17.452  -2.246  1.00 20.00    -0.099 SA
ENDROOT
BRANCH   3   7
HETATM    7  C6  UNL     1     -33.820  15.199  -3.746  1.00 20.00     0.031 A 
HETATM    8  C5  UNL     1     -34.856  14.134  -4.032  1.00 20.00     0.016 A 
HETATM    9  C7  UNL     1     -34.698  15.289  -4.976  1.00 20.00     0.009 A 
BRANCH   9  10
HETATM   10  C9  UNL     1     -34.113  15.076  -6.329  1.00 20.00     0.120 C 
HETATM   11 CL11 UNL     1     -35.383  15.027  -7.583  1.00 20.00    -0.130 Cl
ENDBRANCH   9  10
ENDBRANCH   3   7
TORSDOF 2
ENDMDL
MODEL 7
REMARK VINA RESULT:      -4.1      1.015      1.131
REMARK  2 active torsions:
REMARK  status: ('A' for Active; 'I' for Inactive)
REMARK    1  A    between atoms: C3_3  and  C6_6 
REMARK    2  A    between atoms: C7_7  and  C9_9 
ROOT
HETATM    1  C1  UNL     1     -32.888  18.108  -0.746  1.00 20.00     0.016 A 
HETATM    2  C2  UNL     1     -32.857  18.496   0.624  1.00 20.00     0.015 A 
HETATM    3  C3  UNL     1     -34.094  17.542  -1.097  1.00 20.00    -0.013 A 
HETATM    4  C4  UNL     1     -34.041  18.213   1.269  1.00 20.00    -0.021 A 
HETATM    5  C8  UNL     1     -34.404  18.464   2.680  1.00 20.00     0.056 C 
HETATM    6  S10 UNL     1     -35.183  17.481   0.224  1.00 20.00    -0.099 SA
ENDROOT
BRANCH   3   7
HETATM    7  C6  UNL     1     -34.424  17.037  -2.482  1.00 20.00     0.031 A 
HETATM    8  C5  UNL     1     -33.492  16.076  -3.186  1.00 20.00     0.016 A 
HETATM    9  C7  UNL     1     -34.818  15.588  -2.684  1.00 20.00     0.009 A 
BRANCH   9  10
HETATM   10  C9  UNL     1     -35.899  15.235  -3.645  1.00 20.00     0.120 C 
HETATM   11 CL11 UNL     1     -35.714  13.563  -4.242  1.00 20.00    -0.130 Cl
ENDBRANCH   9  10
ENDBRANCH   3   7
TORSDOF 2
ENDMDL
MODEL 8
REMARK VINA RESULT:      -4.0      3.032      5.473
REMARK  2 active torsions:
REMARK  status: ('A' for Active; 'I' for Inactive)
REMARK    1  A    between atoms: C3_3  and  C6_6 
REMARK    2  A    between atoms: C7_7  and  C9_9 
ROOT
HETATM    1  C1  UNL     1     -32.959  15.523  -3.772  1.00 20.00     0.016 A 
HETATM    2  C2  UNL     1     -33.735  14.434  -4.263  1.00 20.00     0.015 A 
HETATM    3  C3  UNL     1     -33.743  16.503  -3.206  1.00 20.00    -0.013 A 
HETATM    4  C4  UNL     1     -35.083  14.623  -4.052  1.00 20.00    -0.021 A 
HETATM    5  C8  UNL     1     -36.205  13.728  -4.409  1.00 20.00     0.056 C 
HETATM    6  S10 UNL     1     -35.409  16.109  -3.266  1.00 20.00    -0.099 SA
ENDROOT
BRANCH   3   7
HETATM    7  C6  UNL     1     -33.203  17.777  -2.597  1.00 20.00     0.031 A 
HETATM    8  C5  UNL     1     -33.991  18.507  -1.532  1.00 20.00     0.016 A 
HETATM    9  C7  UNL     1     -32.730  17.786  -1.159  1.00 20.00     0.009 A 
BRANCH   9  10
HETATM   10  C9  UNL     1     -31.512  18.555  -0.778  1.00 20.00     0.120 C 
HETATM   11 CL11 UNL     1     -30.932  18.086   0.844  1.00 20.00    -0.130 Cl
ENDBRANCH   9  10
ENDBRANCH   3   7
TORSDOF 2
ENDMDL
MODEL 9
REMARK VINA RESULT:      -4.0      3.007      5.379
REMARK  2 active torsions:
REMARK  status: ('A' for Active; 'I' for Inactive)
REMARK    1  A    between atoms: C3_3  and  C6_6 
REMARK    2  A    between atoms: C7_7  and  C9_9 
ROOT
HETATM    1  C1  UNL     1     -35.163  16.498  -1.629  1.00 20.00     0.016 A 
HETATM    2  C2  UNL     1     -35.076  15.493  -2.634  1.00 20.00     0.015 A 
HETATM    3  C3  UNL     1     -34.059  17.321  -1.622  1.00 20.00    -0.013 A 
HETATM    4  C4  UNL     1     -33.908  15.588  -3.359  1.00 20.00    -0.021 A 
HETATM    5  C8  UNL     1     -33.451  14.740  -4.482  1.00 20.00     0.056 C 
HETATM    6  S10 UNL     1     -32.922  16.882  -2.826  1.00 20.00    -0.099 SA
ENDROOT
BRANCH   3   7
HETATM    7  C6  UNL     1     -33.867  18.479  -0.670  1.00 20.00     0.031 A 
HETATM    8  C5  UNL     1     -34.671  18.555   0.610  1.00 20.00     0.016 A 
HETATM    9  C7  UNL     1     -33.204  18.253   0.672  1.00 20.00     0.009 A 
BRANCH   9  10
HETATM   10  C9  UNL     1     -32.253  19.262   1.216  1.00 20.00     0.120 C 
HETATM   11 CL11 UNL     1     -30.561  18.722   1.033  1.00 20.00    -0.130 Cl
ENDBRANCH   9  10
ENDBRANCH   3   7
TORSDOF 2
ENDMDL
