MODEL 1
REMARK VINA RESULT:      -4.3      0.000      0.000
REMARK  0 active torsions:
REMARK  status: ('A' for Active; 'I' for Inactive)
ROOT
HETATM    1  C1  UNL     1     -26.424  17.832  12.274  1.00 20.00     0.006 C 
HETATM    2  C2  UNL     1     -25.093  18.599  12.329  1.00 20.00     0.038 C 
HETATM    3  C3  UNL     1     -25.614  16.527  12.234  1.00 20.00     0.038 C 
HETATM    4  C4  UNL     1     -21.795  17.815  10.498  1.00 20.00     0.042 C 
HETATM    5  C5  UNL     1     -24.248  17.330  10.187  1.00 20.00     0.053 C 
HETATM    6  C6  UNL     1     -22.019  17.804  12.006  1.00 20.00     0.170 C 
HETATM    7  C7  UNL     1     -23.077  18.220   9.779  1.00 20.00     0.062 C 
HETATM    8  C8  UNL     1     -24.395  17.347  11.714  1.00 20.00     0.062 C 
HETATM    9  O9  UNL     1     -23.135  16.974  12.327  1.00 20.00    -0.380 OA
HETATM   10 BR10 UNL     1     -22.808  18.094   7.849  1.00 20.00    -0.091 Br
ENDROOT
TORSDOF 0
ENDMDL
MODEL 2
REMARK VINA RESULT:      -4.1     23.617     24.682
REMARK  0 active torsions:
REMARK  status: ('A' for Active; 'I' for Inactive)
ROOT
HETATM    1  C1  UNL     1     -41.358   8.974  -0.045  1.00 20.00     0.006 C 
HETATM    2  C2  UNL     1     -41.172   7.620   0.659  1.00 20.00     0.038 C 
HETATM    3  C3  UNL     1     -42.869   8.839   0.203  1.00 20.00     0.038 C 
HETATM    4  C4  UNL     1     -43.417   4.495   0.484  1.00 20.00     0.042 C 
HETATM    5  C5  UNL     1     -42.944   6.519  -0.941  1.00 20.00     0.053 C 
HETATM    6  C6  UNL     1     -43.138   5.342   1.719  1.00 20.00     0.170 C 
HETATM    7  C7  UNL     1     -42.644   5.040  -0.713  1.00 20.00     0.062 C 
HETATM    8  C8  UNL     1     -42.667   7.301   0.349  1.00 20.00     0.062 C 
HETATM    9  O9  UNL     1     -43.416   6.715   1.444  1.00 20.00    -0.380 OA
HETATM   10 BR10 UNL     1     -43.123   4.027  -2.313  1.00 20.00    -0.091 Br
ENDROOT
TORSDOF 0
ENDMDL
MODEL 3
REMARK VINA RESULT:      -4.1     17.628     18.552
REMARK  0 active torsions:
REMARK  status: ('A' for Active; 'I' for Inactive)
ROOT
HETATM    1  C1  UNL     1     -36.308  13.702  -4.681  1.00 20.00     0.006 C 
HETATM    2  C2  UNL     1     -34.983  13.850  -3.915  1.00 20.00     0.038 C 
HETATM    3  C3  UNL     1     -36.069  15.103  -5.265  1.00 20.00     0.038 C 
HETATM    4  C4  UNL     1     -33.522  16.993  -2.233  1.00 20.00     0.042 C 
HETATM    5  C5  UNL     1     -35.795  16.140  -2.910  1.00 20.00     0.053 C 
HETATM    6  C6  UNL     1     -32.925  16.236  -3.412  1.00 20.00     0.170 C 
HETATM    7  C7  UNL     1     -34.802  16.309  -1.763  1.00 20.00     0.062 C 
HETATM    8  C8  UNL     1     -35.117  15.397  -4.068  1.00 20.00     0.062 C 
HETATM    9  O9  UNL     1     -33.900  16.091  -4.444  1.00 20.00    -0.380 OA
HETATM   10 BR10 UNL     1     -35.624  17.371  -0.345  1.00 20.00    -0.091 Br
ENDROOT
TORSDOF 0
ENDMDL
MODEL 4
REMARK VINA RESULT:      -3.9     16.706     17.706
REMARK  0 active torsions:
REMARK  status: ('A' for Active; 'I' for Inactive)
ROOT
HETATM    1  C1  UNL     1     -34.043  15.302  -5.487  1.00 20.00     0.006 C 
HETATM    2  C2  UNL     1     -34.883  16.320  -4.699  1.00 20.00     0.038 C 
HETATM    3  C3  UNL     1     -33.951  14.459  -4.204  1.00 20.00     0.038 C 
HETATM    4  C4  UNL     1     -34.465  17.457  -1.041  1.00 20.00     0.042 C 
HETATM    5  C5  UNL     1     -33.020  16.457  -2.847  1.00 20.00     0.053 C 
HETATM    6  C6  UNL     1     -35.656  16.707  -1.627  1.00 20.00     0.170 C 
HETATM    7  C7  UNL     1     -33.434  17.739  -2.130  1.00 20.00     0.062 C 
HETATM    8  C8  UNL     1     -34.269  15.746  -3.384  1.00 20.00     0.062 C 
HETATM    9  O9  UNL     1     -35.209  15.531  -2.301  1.00 20.00    -0.380 OA
HETATM   10 BR10 UNL     1     -31.859  18.574  -1.333  1.00 20.00    -0.091 Br
ENDROOT
TORSDOF 0
ENDMDL
MODEL 5
REMARK VINA RESULT:      -3.8     19.745     20.724
REMARK  0 active torsions:
REMARK  status: ('A' for Active; 'I' for Inactive)
ROOT
HETATM    1  C1  UNL     1     -36.498  16.739  -7.780  1.00 20.00     0.006 C 
HETATM    2  C2  UNL     1     -37.025  16.143  -6.464  1.00 20.00     0.038 C 
HETATM    3  C3  UNL     1     -35.590  15.506  -7.917  1.00 20.00     0.038 C 
HETATM    4  C4  UNL     1     -35.082  14.213  -3.754  1.00 20.00     0.042 C 
HETATM    5  C5  UNL     1     -34.566  15.883  -5.570  1.00 20.00     0.053 C 
HETATM    6  C6  UNL     1     -36.208  13.667  -4.624  1.00 20.00     0.170 C 
HETATM    7  C7  UNL     1     -34.831  15.682  -4.080  1.00 20.00     0.062 C 
HETATM    8  C8  UNL     1     -35.724  15.286  -6.380  1.00 20.00     0.062 C 
HETATM    9  O9  UNL     1     -35.917  13.899  -6.003  1.00 20.00    -0.380 OA
HETATM   10 BR10 UNL     1     -33.297  16.322  -3.056  1.00 20.00    -0.091 Br
ENDROOT
TORSDOF 0
ENDMDL
MODEL 6
REMARK VINA RESULT:      -3.8      1.798      2.691
REMARK  0 active torsions:
REMARK  status: ('A' for Active; 'I' for Inactive)
ROOT
HETATM    1  C1  UNL     1     -23.652  16.168  12.330  1.00 20.00     0.006 C 
HETATM    2  C2  UNL     1     -24.484  16.402  11.059  1.00 20.00     0.038 C 
HETATM    3  C3  UNL     1     -23.253  17.652  12.282  1.00 20.00     0.038 C 
HETATM    4  C4  UNL     1     -23.653  18.623   8.022  1.00 20.00     0.042 C 
HETATM    5  C5  UNL     1     -22.390  17.438   9.852  1.00 20.00     0.053 C 
HETATM    6  C6  UNL     1     -24.813  18.812   8.992  1.00 20.00     0.170 C 
HETATM    7  C7  UNL     1     -22.850  17.382   8.398  1.00 20.00     0.062 C 
HETATM    8  C8  UNL     1     -23.604  17.656  10.764  1.00 20.00     0.062 C 
HETATM    9  O9  UNL     1     -24.328  18.837  10.335  1.00 20.00    -0.380 OA
HETATM   10 BR10 UNL     1     -21.293  17.238   7.229  1.00 20.00    -0.091 Br
ENDROOT
TORSDOF 0
ENDMDL
MODEL 7
REMARK VINA RESULT:      -3.8     18.775     19.668
REMARK  0 active torsions:
REMARK  status: ('A' for Active; 'I' for Inactive)
ROOT
HETATM    1  C1  UNL     1     -34.055  16.087  -2.400  1.00 20.00     0.006 C 
HETATM    2  C2  UNL     1     -33.233  15.987  -3.695  1.00 20.00     0.038 C 
HETATM    3  C3  UNL     1     -35.148  15.255  -3.089  1.00 20.00     0.038 C 
HETATM    4  C4  UNL     1     -34.474  16.104  -7.341  1.00 20.00     0.042 C 
HETATM    5  C5  UNL     1     -35.271  16.897  -5.085  1.00 20.00     0.053 C 
HETATM    6  C6  UNL     1     -33.802  14.924  -6.650  1.00 20.00     0.170 C 
HETATM    7  C7  UNL     1     -34.570  17.289  -6.384  1.00 20.00     0.062 C 
HETATM    8  C8  UNL     1     -34.558  15.690  -4.463  1.00 20.00     0.062 C 
HETATM    9  O9  UNL     1     -34.485  14.616  -5.435  1.00 20.00    -0.380 OA
HETATM   10 BR10 UNL     1     -35.557  18.739  -7.242  1.00 20.00    -0.091 Br
ENDROOT
TORSDOF 0
ENDMDL
MODEL 8
REMARK VINA RESULT:      -3.8     17.700     18.567
REMARK  0 active torsions:
REMARK  status: ('A' for Active; 'I' for Inactive)
ROOT
HETATM    1  C1  UNL     1     -34.124  17.412  -1.457  1.00 20.00     0.006 C 
HETATM    2  C2  UNL     1     -33.198  16.850  -2.549  1.00 20.00     0.038 C 
HETATM    3  C3  UNL     1     -35.060  16.219  -1.706  1.00 20.00     0.038 C 
HETATM    4  C4  UNL     1     -34.162  15.139  -5.864  1.00 20.00     0.042 C 
HETATM    5  C5  UNL     1     -35.214  16.748  -4.235  1.00 20.00     0.053 C 
HETATM    6  C6  UNL     1     -33.415  14.501  -4.698  1.00 20.00     0.170 C 
HETATM    7  C7  UNL     1     -34.464  16.602  -5.557  1.00 20.00     0.062 C 
HETATM    8  C8  UNL     1     -34.419  16.061  -3.118  1.00 20.00     0.062 C 
HETATM    9  O9  UNL     1     -34.150  14.685  -3.488  1.00 20.00    -0.380 OA
HETATM   10 BR10 UNL     1     -35.540  17.360  -7.000  1.00 20.00    -0.091 Br
ENDROOT
TORSDOF 0
ENDMDL
MODEL 9
REMARK VINA RESULT:      -3.8     17.005     17.947
REMARK  0 active torsions:
REMARK  status: ('A' for Active; 'I' for Inactive)
ROOT
HETATM    1  C1  UNL     1     -34.502  14.055  -3.838  1.00 20.00     0.006 C 
HETATM    2  C2  UNL     1     -33.681  15.161  -4.521  1.00 20.00     0.038 C 
HETATM    3  C3  UNL     1     -35.565  15.116  -3.510  1.00 20.00     0.038 C 
HETATM    4  C4  UNL     1     -33.232  18.832  -3.441  1.00 20.00     0.042 C 
HETATM    5  C5  UNL     1     -33.822  16.639  -2.351  1.00 20.00     0.053 C 
HETATM    6  C6  UNL     1     -33.902  18.339  -4.718  1.00 20.00     0.170 C 
HETATM    7  C7  UNL     1     -32.713  17.650  -2.629  1.00 20.00     0.062 C 
HETATM    8  C8  UNL     1     -34.467  16.210  -3.675  1.00 20.00     0.062 C 
HETATM    9  O9  UNL     1     -34.914  17.383  -4.400  1.00 20.00    -0.380 OA
HETATM   10 BR10 UNL     1     -31.983  18.295  -0.936  1.00 20.00    -0.091 Br
ENDROOT
TORSDOF 0
ENDMDL
