MODEL 1
REMARK VINA RESULT:      -4.5      0.000      0.000
REMARK  1 active torsions:
REMARK  status: ('A' for Active; 'I' for Inactive)
REMARK    1  A    between atoms: C5_5  and  C10_10 
ROOT
HETATM    1  C1  UNL     1     -35.611  17.587  -0.201  1.00 20.00     0.017 A 
HETATM    2  C2  UNL     1     -35.145  15.915  -2.108  1.00 20.00     0.020 C 
HETATM    3  C3  UNL     1     -35.192  18.454  -2.603  1.00 20.00     0.083 C 
HETATM    4  C4  UNL     1     -35.131  16.572  -4.604  1.00 20.00     0.082 C 
HETATM    5  C5  UNL     1     -34.124  17.576  -0.394  1.00 20.00     0.005 A 
HETATM    6  C6  UNL     1     -35.043  17.344  -1.590  1.00 20.00    -0.026 A 
HETATM    7  C7  UNL     1     -34.490  15.700  -3.493  1.00 20.00    -0.038 C 
HETATM    8  C8  UNL     1     -32.973  15.971  -3.414  1.00 20.00     0.015 C 
HETATM    9  C9  UNL     1     -34.667  14.212  -3.876  1.00 20.00     0.015 C 
HETATM   10  S11 UNL     1     -36.173  17.953  -4.028  1.00 20.00    -0.168 SA
ENDROOT
BRANCH   5  11
HETATM   11  C10 UNL     1     -33.342  18.832  -0.212  1.00 20.00     0.090 C 
HETATM   12 BR12 UNL     1     -31.433  18.484  -0.424  1.00 20.00    -0.096 Br
ENDBRANCH   5  11
TORSDOF 1
ENDMDL
MODEL 2
REMARK VINA RESULT:      -4.4      1.085      1.128
REMARK  1 active torsions:
REMARK  status: ('A' for Active; 'I' for Inactive)
REMARK    1  A    between atoms: C5_5  and  C10_10 
ROOT
HETATM    1  C1  UNL     1     -34.691  17.787  -1.109  1.00 20.00     0.017 A 
HETATM    2  C2  UNL     1     -34.933  15.718  -2.630  1.00 20.00     0.020 C 
HETATM    3  C3  UNL     1     -34.491  18.041  -3.677  1.00 20.00     0.083 C 
HETATM    4  C4  UNL     1     -35.185  15.859  -5.194  1.00 20.00     0.082 C 
HETATM    5  C5  UNL     1     -33.297  17.362  -1.462  1.00 20.00     0.005 A 
HETATM    6  C6  UNL     1     -34.429  17.146  -2.462  1.00 20.00    -0.026 A 
HETATM    7  C7  UNL     1     -34.581  15.082  -3.995  1.00 20.00    -0.038 C 
HETATM    8  C8  UNL     1     -33.050  14.968  -4.152  1.00 20.00     0.015 C 
HETATM    9  C9  UNL     1     -35.148  13.643  -4.009  1.00 20.00     0.015 C 
HETATM   10  S11 UNL     1     -35.781  17.543  -4.831  1.00 20.00    -0.168 SA
ENDROOT
BRANCH   5  11
HETATM   11  C10 UNL     1     -32.234  18.388  -1.660  1.00 20.00     0.090 C 
HETATM   12 BR12 UNL     1     -31.085  18.493  -0.086  1.00 20.00    -0.096 Br
ENDBRANCH   5  11
TORSDOF 1
ENDMDL
MODEL 3
REMARK VINA RESULT:      -4.3      2.668      4.564
REMARK  1 active torsions:
REMARK  status: ('A' for Active; 'I' for Inactive)
REMARK    1  A    between atoms: C5_5  and  C10_10 
ROOT
HETATM    1  C1  UNL     1     -33.344  14.580  -4.349  1.00 20.00     0.017 A 
HETATM    2  C2  UNL     1     -33.672  16.317  -2.471  1.00 20.00     0.020 C 
HETATM    3  C3  UNL     1     -34.396  16.883  -4.889  1.00 20.00     0.083 C 
HETATM    4  C4  UNL     1     -34.300  18.782  -2.906  1.00 20.00     0.082 C 
HETATM    5  C5  UNL     1     -34.784  14.487  -3.940  1.00 20.00     0.005 A 
HETATM    6  C6  UNL     1     -34.061  15.829  -3.861  1.00 20.00    -0.026 A 
HETATM    7  C7  UNL     1     -34.477  17.546  -1.987  1.00 20.00    -0.038 C 
HETATM    8  C8  UNL     1     -35.973  17.187  -1.862  1.00 20.00     0.015 C 
HETATM    9  C9  UNL     1     -33.978  17.913  -0.571  1.00 20.00     0.015 C 
HETATM   10  S11 UNL     1     -33.583  18.454  -4.550  1.00 20.00    -0.168 SA
ENDROOT
BRANCH   5  11
HETATM   11  C10 UNL     1     -35.830  14.196  -4.961  1.00 20.00     0.090 C 
HETATM   12 BR12 UNL     1     -37.594  14.694  -4.292  1.00 20.00    -0.096 Br
ENDBRANCH   5  11
TORSDOF 1
ENDMDL
MODEL 4
REMARK VINA RESULT:      -4.1      2.707      4.504
REMARK  1 active torsions:
REMARK  status: ('A' for Active; 'I' for Inactive)
REMARK    1  A    between atoms: C5_5  and  C10_10 
ROOT
HETATM    1  C1  UNL     1     -33.909  14.960  -3.816  1.00 20.00     0.017 A 
HETATM    2  C2  UNL     1     -34.834  16.192  -1.748  1.00 20.00     0.020 C 
HETATM    3  C3  UNL     1     -33.243  17.421  -3.375  1.00 20.00     0.083 C 
HETATM    4  C4  UNL     1     -33.946  18.476  -0.938  1.00 20.00     0.082 C 
HETATM    5  C5  UNL     1     -35.055  15.795  -4.304  1.00 20.00     0.005 A 
HETATM    6  C6  UNL     1     -34.208  16.285  -3.133  1.00 20.00    -0.026 A 
HETATM    7  C7  UNL     1     -35.186  17.562  -1.123  1.00 20.00    -0.038 C 
HETATM    8  C8  UNL     1     -36.252  18.280  -1.977  1.00 20.00     0.015 C 
HETATM    9  C9  UNL     1     -35.815  17.304   0.266  1.00 20.00     0.015 C 
HETATM   10  S11 UNL     1     -32.452  17.983  -1.858  1.00 20.00    -0.168 SA
ENDROOT
BRANCH   5  11
HETATM   11  C10 UNL     1     -34.997  16.419  -5.656  1.00 20.00     0.090 C 
HETATM   12 BR12 UNL     1     -34.139  15.215  -6.929  1.00 20.00    -0.096 Br
ENDBRANCH   5  11
TORSDOF 1
ENDMDL
MODEL 5
REMARK VINA RESULT:      -3.8      2.439      3.428
REMARK  1 active torsions:
REMARK  status: ('A' for Active; 'I' for Inactive)
REMARK    1  A    between atoms: C5_5  and  C10_10 
ROOT
HETATM    1  C1  UNL     1     -33.754  16.034  -2.519  1.00 20.00     0.017 A 
HETATM    2  C2  UNL     1     -33.888  15.631  -5.063  1.00 20.00     0.020 C 
HETATM    3  C3  UNL     1     -35.977  15.246  -3.586  1.00 20.00     0.083 C 
HETATM    4  C4  UNL     1     -35.874  14.452  -6.214  1.00 20.00     0.082 C 
HETATM    5  C5  UNL     1     -34.392  17.258  -3.104  1.00 20.00     0.005 A 
HETATM    6  C6  UNL     1     -34.625  15.899  -3.757  1.00 20.00    -0.026 A 
HETATM    7  C7  UNL     1     -34.807  15.574  -6.306  1.00 20.00    -0.038 C 
HETATM    8  C8  UNL     1     -35.491  16.940  -6.526  1.00 20.00     0.015 C 
HETATM    9  C9  UNL     1     -33.919  15.306  -7.542  1.00 20.00     0.015 C 
HETATM   10  S11 UNL     1     -36.136  13.738  -4.558  1.00 20.00    -0.168 SA
ENDROOT
BRANCH   5  11
HETATM   11  C10 UNL     1     -35.453  17.979  -2.344  1.00 20.00     0.090 C 
HETATM   12 BR12 UNL     1     -35.466  17.406  -0.479  1.00 20.00    -0.096 Br
ENDBRANCH   5  11
TORSDOF 1
ENDMDL
MODEL 6
REMARK VINA RESULT:      -3.7      1.282      1.303
REMARK  1 active torsions:
REMARK  status: ('A' for Active; 'I' for Inactive)
REMARK    1  A    between atoms: C5_5  and  C10_10 
ROOT
HETATM    1  C1  UNL     1     -35.127  17.272  -0.343  1.00 20.00     0.017 A 
HETATM    2  C2  UNL     1     -35.191  15.614  -2.318  1.00 20.00     0.020 C 
HETATM    3  C3  UNL     1     -36.119  18.010  -2.617  1.00 20.00     0.083 C 
HETATM    4  C4  UNL     1     -36.515  16.041  -4.492  1.00 20.00     0.082 C 
HETATM    5  C5  UNL     1     -33.957  17.615  -1.216  1.00 20.00     0.005 A 
HETATM    6  C6  UNL     1     -35.232  17.062  -1.845  1.00 20.00    -0.026 A 
HETATM    7  C7  UNL     1     -35.228  15.453  -3.856  1.00 20.00    -0.038 C 
HETATM    8  C8  UNL     1     -33.979  16.098  -4.490  1.00 20.00     0.015 C 
HETATM    9  C9  UNL     1     -35.172  13.941  -4.176  1.00 20.00     0.015 C 
HETATM   10  S11 UNL     1     -37.484  17.163  -3.431  1.00 20.00    -0.168 SA
ENDROOT
BRANCH   5  11
HETATM   11  C10 UNL     1     -33.535  19.036  -1.369  1.00 20.00     0.090 C 
HETATM   12 BR12 UNL     1     -32.473  19.263  -2.991  1.00 20.00    -0.096 Br
ENDBRANCH   5  11
TORSDOF 1
ENDMDL
MODEL 7
REMARK VINA RESULT:      -3.7      1.980      3.486
REMARK  1 active torsions:
REMARK  status: ('A' for Active; 'I' for Inactive)
REMARK    1  A    between atoms: C5_5  and  C10_10 
ROOT
HETATM    1  C1  UNL     1     -32.981  15.284  -3.805  1.00 20.00     0.017 A 
HETATM    2  C2  UNL     1     -34.610  16.096  -5.631  1.00 20.00     0.020 C 
HETATM    3  C3  UNL     1     -35.533  15.222  -3.378  1.00 20.00     0.083 C 
HETATM    4  C4  UNL     1     -37.160  15.709  -5.537  1.00 20.00     0.082 C 
HETATM    5  C5  UNL     1     -33.373  16.680  -3.424  1.00 20.00     0.005 A 
HETATM    6  C6  UNL     1     -34.370  15.789  -4.158  1.00 20.00    -0.026 A 
HETATM    7  C7  UNL     1     -36.012  16.675  -5.933  1.00 20.00    -0.038 C 
HETATM    8  C8  UNL     1     -36.193  18.033  -5.224  1.00 20.00     0.015 C 
HETATM    9  C9  UNL     1     -36.100  16.940  -7.453  1.00 20.00     0.015 C 
HETATM   10  S11 UNL     1     -36.698  14.338  -4.428  1.00 20.00    -0.168 SA
ENDROOT
BRANCH   5  11
HETATM   11  C10 UNL     1     -33.525  17.045  -1.987  1.00 20.00     0.090 C 
HETATM   12 BR12 UNL     1     -32.197  18.380  -1.476  1.00 20.00    -0.096 Br
ENDBRANCH   5  11
TORSDOF 1
ENDMDL
MODEL 8
REMARK VINA RESULT:      -3.6      3.141      4.735
REMARK  1 active torsions:
REMARK  status: ('A' for Active; 'I' for Inactive)
REMARK    1  A    between atoms: C5_5  and  C10_10 
ROOT
HETATM    1  C1  UNL     1     -37.170  14.494  -4.242  1.00 20.00     0.017 A 
HETATM    2  C2  UNL     1     -35.525  15.838  -2.779  1.00 20.00     0.020 C 
HETATM    3  C3  UNL     1     -34.839  15.130  -5.170  1.00 20.00     0.083 C 
HETATM    4  C4  UNL     1     -33.039  16.181  -3.380  1.00 20.00     0.082 C 
HETATM    5  C5  UNL     1     -37.276  15.919  -4.694  1.00 20.00     0.005 A 
HETATM    6  C6  UNL     1     -35.944  15.390  -4.173  1.00 20.00    -0.026 A 
HETATM    7  C7  UNL     1     -34.319  16.806  -2.763  1.00 20.00    -0.038 C 
HETATM    8  C8  UNL     1     -34.676  18.116  -3.496  1.00 20.00     0.015 C 
HETATM    9  C9  UNL     1     -34.023  17.174  -1.291  1.00 20.00     0.015 C 
HETATM   10  S11 UNL     1     -33.290  14.673  -4.372  1.00 20.00    -0.168 SA
ENDROOT
BRANCH   5  11
HETATM   11  C10 UNL     1     -37.513  16.227  -6.133  1.00 20.00     0.090 C 
HETATM   12 BR12 UNL     1     -37.214  18.123  -6.485  1.00 20.00    -0.096 Br
ENDBRANCH   5  11
TORSDOF 1
ENDMDL
MODEL 9
REMARK VINA RESULT:      -3.6      2.139      3.166
REMARK  1 active torsions:
REMARK  status: ('A' for Active; 'I' for Inactive)
REMARK    1  A    between atoms: C5_5  and  C10_10 
ROOT
HETATM    1  C1  UNL     1     -33.025  17.450  -1.818  1.00 20.00     0.017 A 
HETATM    2  C2  UNL     1     -33.781  17.684  -4.273  1.00 20.00     0.020 C 
HETATM    3  C3  UNL     1     -34.131  15.445  -3.025  1.00 20.00     0.083 C 
HETATM    4  C4  UNL     1     -34.499  15.684  -5.737  1.00 20.00     0.082 C 
HETATM    5  C5  UNL     1     -34.502  17.704  -1.779  1.00 20.00     0.005 A 
HETATM    6  C6  UNL     1     -33.899  16.936  -2.951  1.00 20.00    -0.026 A 
HETATM    7  C7  UNL     1     -34.740  17.173  -5.374  1.00 20.00    -0.038 C 
HETATM    8  C8  UNL     1     -36.207  17.383  -4.944  1.00 20.00     0.015 C 
HETATM    9  C9  UNL     1     -34.509  18.029  -6.640  1.00 20.00     0.015 C 
HETATM   10  S11 UNL     1     -33.498  14.728  -4.551  1.00 20.00    -0.168 SA
ENDROOT
BRANCH   5  11
HETATM   11  C10 UNL     1     -35.342  17.050  -0.735  1.00 20.00     0.090 C 
HETATM   12 BR12 UNL     1     -34.953  17.800   1.024  1.00 20.00    -0.096 Br
ENDBRANCH   5  11
TORSDOF 1
ENDMDL
