MODEL 1
REMARK VINA RESULT:      -4.3      0.000      0.000
REMARK  3 active torsions:
REMARK  status: ('A' for Active; 'I' for Inactive)
REMARK    1  A    between atoms: C4_4  and  C9_9 
REMARK    2  A    between atoms: C5_5  and  C6_6 
REMARK    3  A    between atoms: C9_9  and  O10_10 
ROOT
HETATM    1  C3  UNL     1     -34.993  15.124  -5.819  1.00 20.00     0.018 A 
HETATM    2  C4  UNL     1     -35.541  14.291  -4.696  1.00 20.00     0.019 A 
HETATM    3  C6  UNL     1     -34.288  15.136  -4.473  1.00 20.00    -0.031 A 
HETATM    4  C8  UNL     1     -32.987  14.373  -4.388  1.00 20.00     0.016 C 
ENDROOT
BRANCH   3   5
HETATM    5  C5  UNL     1     -34.305  16.401  -3.604  1.00 20.00    -0.036 A 
HETATM    6  C1  UNL     1     -34.625  16.308  -2.130  1.00 20.00     0.011 A 
HETATM    7  C2  UNL     1     -33.227  16.630  -2.571  1.00 20.00     0.011 A 
HETATM    8  C7  UNL     1     -34.814  17.624  -4.327  1.00 20.00     0.016 C 
ENDBRANCH   3   5
BRANCH   2   9
HETATM    9  C9  UNL     1     -36.849  14.638  -4.074  1.00 20.00     0.169 C 
BRANCH   9  10
HETATM   10  O10 UNL     1     -37.830  13.664  -4.429  1.00 20.00    -0.400 OA
HETATM   11  H26 UNL     1     -37.463  12.802  -4.180  1.00 20.00     0.209 HD
ENDBRANCH   9  10
ENDBRANCH   2   9
TORSDOF 3
ENDMDL
MODEL 2
REMARK VINA RESULT:      -4.2      1.191      2.193
REMARK  3 active torsions:
REMARK  status: ('A' for Active; 'I' for Inactive)
REMARK    1  A    between atoms: C4_4  and  C9_9 
REMARK    2  A    between atoms: C5_5  and  C6_6 
REMARK    3  A    between atoms: C9_9  and  O10_10 
ROOT
HETATM    1  C3  UNL     1     -33.325  14.488  -4.511  1.00 20.00     0.018 A 
HETATM    2  C4  UNL     1     -34.568  14.433  -3.671  1.00 20.00     0.019 A 
HETATM    3  C6  UNL     1     -33.944  15.784  -4.016  1.00 20.00    -0.031 A 
HETATM    4  C8  UNL     1     -33.226  16.485  -2.888  1.00 20.00     0.016 C 
ENDROOT
BRANCH   3   5
HETATM    5  C5  UNL     1     -34.603  16.754  -5.008  1.00 20.00    -0.036 A 
HETATM    6  C1  UNL     1     -35.917  17.417  -4.666  1.00 20.00     0.011 A 
HETATM    7  C2  UNL     1     -34.657  18.232  -4.705  1.00 20.00     0.011 A 
HETATM    8  C7  UNL     1     -34.398  16.370  -6.453  1.00 20.00     0.016 C 
ENDBRANCH   3   5
BRANCH   2   9
HETATM    9  C9  UNL     1     -35.857  13.983  -4.266  1.00 20.00     0.169 C 
BRANCH   9  10
HETATM   10  O10 UNL     1     -35.811  12.579  -4.521  1.00 20.00    -0.400 OA
HETATM   11  H26 UNL     1     -35.941  12.141  -3.666  1.00 20.00     0.209 HD
ENDBRANCH   9  10
ENDBRANCH   2   9
TORSDOF 3
ENDMDL
MODEL 3
REMARK VINA RESULT:      -4.1      1.141      1.977
REMARK  3 active torsions:
REMARK  status: ('A' for Active; 'I' for Inactive)
REMARK    1  A    between atoms: C4_4  and  C9_9 
REMARK    2  A    between atoms: C5_5  and  C6_6 
REMARK    3  A    between atoms: C9_9  and  O10_10 
ROOT
HETATM    1  C3  UNL     1     -36.504  16.579  -4.624  1.00 20.00     0.018 A 
HETATM    2  C4  UNL     1     -36.356  15.250  -5.307  1.00 20.00     0.019 A 
HETATM    3  C6  UNL     1     -35.119  16.102  -5.027  1.00 20.00    -0.031 A 
HETATM    4  C8  UNL     1     -34.498  16.776  -6.228  1.00 20.00     0.016 C 
ENDROOT
BRANCH   3   5
HETATM    5  C5  UNL     1     -34.092  15.715  -3.953  1.00 20.00    -0.036 A 
HETATM    6  C1  UNL     1     -33.491  16.774  -3.058  1.00 20.00     0.011 A 
HETATM    7  C2  UNL     1     -34.461  15.779  -2.489  1.00 20.00     0.011 A 
HETATM    8  C7  UNL     1     -33.181  14.587  -4.367  1.00 20.00     0.016 C 
ENDBRANCH   3   5
BRANCH   2   9
HETATM    9  C9  UNL     1     -36.632  13.989  -4.564  1.00 20.00     0.169 C 
BRANCH   9  10
HETATM   10  O10 UNL     1     -38.037  13.837  -4.370  1.00 20.00    -0.400 OA
HETATM   11  H26 UNL     1     -38.306  14.536  -3.754  1.00 20.00     0.209 HD
ENDBRANCH   9  10
ENDBRANCH   2   9
TORSDOF 3
ENDMDL
MODEL 4
REMARK VINA RESULT:      -4.0      1.944      2.619
REMARK  3 active torsions:
REMARK  status: ('A' for Active; 'I' for Inactive)
REMARK    1  A    between atoms: C4_4  and  C9_9 
REMARK    2  A    between atoms: C5_5  and  C6_6 
REMARK    3  A    between atoms: C9_9  and  O10_10 
ROOT
HETATM    1  C3  UNL     1     -35.212  13.720  -4.227  1.00 20.00     0.018 A 
HETATM    2  C4  UNL     1     -35.366  14.559  -5.463  1.00 20.00     0.019 A 
HETATM    3  C6  UNL     1     -35.924  15.060  -4.132  1.00 20.00    -0.031 A 
HETATM    4  C8  UNL     1     -37.427  15.015  -3.990  1.00 20.00     0.016 C 
ENDROOT
BRANCH   3   5
HETATM    5  C5  UNL     1     -35.278  16.224  -3.367  1.00 20.00    -0.036 A 
HETATM    6  C1  UNL     1     -35.078  16.135  -1.872  1.00 20.00     0.011 A 
HETATM    7  C2  UNL     1     -33.890  16.079  -2.790  1.00 20.00     0.011 A 
HETATM    8  C7  UNL     1     -35.639  17.582  -3.918  1.00 20.00     0.016 C 
ENDBRANCH   3   5
BRANCH   2   9
HETATM    9  C9  UNL     1     -34.171  15.179  -6.103  1.00 20.00     0.169 C 
BRANCH   9  10
HETATM   10  O10 UNL     1     -33.011  14.395  -5.828  1.00 20.00    -0.400 OA
HETATM   11  H26 UNL     1     -32.255  14.893  -6.172  1.00 20.00     0.209 HD
ENDBRANCH   9  10
ENDBRANCH   2   9
TORSDOF 3
ENDMDL
MODEL 5
REMARK VINA RESULT:      -4.0      1.109      2.103
REMARK  3 active torsions:
REMARK  status: ('A' for Active; 'I' for Inactive)
REMARK    1  A    between atoms: C4_4  and  C9_9 
REMARK    2  A    between atoms: C5_5  and  C6_6 
REMARK    3  A    between atoms: C9_9  and  O10_10 
ROOT
HETATM    1  C3  UNL     1     -36.939  16.480  -4.439  1.00 20.00     0.018 A 
HETATM    2  C4  UNL     1     -36.323  15.458  -5.351  1.00 20.00     0.019 A 
HETATM    3  C6  UNL     1     -35.435  16.491  -4.659  1.00 20.00    -0.031 A 
HETATM    4  C8  UNL     1     -34.892  17.589  -5.543  1.00 20.00     0.016 C 
ENDROOT
BRANCH   3   5
HETATM    5  C5  UNL     1     -34.485  16.109  -3.515  1.00 20.00    -0.036 A 
HETATM    6  C1  UNL     1     -33.287  15.228  -3.783  1.00 20.00     0.011 A 
HETATM    7  C2  UNL     1     -33.088  16.682  -3.464  1.00 20.00     0.011 A 
HETATM    8  C7  UNL     1     -35.181  15.916  -2.191  1.00 20.00     0.016 C 
ENDBRANCH   3   5
BRANCH   2   9
HETATM    9  C9  UNL     1     -36.310  14.019  -4.965  1.00 20.00     0.169 C 
BRANCH   9  10
HETATM   10  O10 UNL     1     -37.580  13.648  -4.429  1.00 20.00    -0.400 OA
HETATM   11  H26 UNL     1     -37.401  13.057  -3.682  1.00 20.00     0.209 HD
ENDBRANCH   9  10
ENDBRANCH   2   9
TORSDOF 3
ENDMDL
MODEL 6
REMARK VINA RESULT:      -3.9      1.454      2.510
REMARK  3 active torsions:
REMARK  status: ('A' for Active; 'I' for Inactive)
REMARK    1  A    between atoms: C4_4  and  C9_9 
REMARK    2  A    between atoms: C5_5  and  C6_6 
REMARK    3  A    between atoms: C9_9  and  O10_10 
ROOT
HETATM    1  C3  UNL     1     -33.693  15.444  -3.680  1.00 20.00     0.018 A 
HETATM    2  C4  UNL     1     -34.906  14.577  -3.500  1.00 20.00     0.019 A 
HETATM    3  C6  UNL     1     -34.965  16.055  -3.116  1.00 20.00    -0.031 A 
HETATM    4  C8  UNL     1     -34.971  16.350  -1.635  1.00 20.00     0.016 C 
ENDROOT
BRANCH   3   5
HETATM    5  C5  UNL     1     -35.762  17.077  -3.939  1.00 20.00    -0.036 A 
HETATM    6  C1  UNL     1     -37.259  16.931  -4.092  1.00 20.00     0.011 A 
HETATM    7  C2  UNL     1     -36.699  18.043  -3.253  1.00 20.00     0.011 A 
HETATM    8  C7  UNL     1     -35.012  17.604  -5.137  1.00 20.00     0.016 C 
ENDBRANCH   3   5
BRANCH   2   9
HETATM    9  C9  UNL     1     -35.627  14.040  -4.688  1.00 20.00     0.169 C 
BRANCH   9  10
HETATM   10  O10 UNL     1     -35.884  12.647  -4.511  1.00 20.00    -0.400 OA
HETATM   11  H26 UNL     1     -36.843  12.556  -4.405  1.00 20.00     0.209 HD
ENDBRANCH   9  10
ENDBRANCH   2   9
TORSDOF 3
ENDMDL
MODEL 7
REMARK VINA RESULT:      -3.9      2.242      3.717
REMARK  3 active torsions:
REMARK  status: ('A' for Active; 'I' for Inactive)
REMARK    1  A    between atoms: C4_4  and  C9_9 
REMARK    2  A    between atoms: C5_5  and  C6_6 
REMARK    3  A    between atoms: C9_9  and  O10_10 
ROOT
HETATM    1  C3  UNL     1     -35.367  15.506  -3.212  1.00 20.00     0.018 A 
HETATM    2  C4  UNL     1     -34.185  14.683  -3.638  1.00 20.00     0.019 A 
HETATM    3  C6  UNL     1     -35.398  14.803  -4.559  1.00 20.00    -0.031 A 
HETATM    4  C8  UNL     1     -36.274  13.576  -4.657  1.00 20.00     0.016 C 
ENDROOT
BRANCH   3   5
HETATM    5  C5  UNL     1     -35.355  15.620  -5.858  1.00 20.00    -0.036 A 
HETATM    6  C1  UNL     1     -34.343  15.291  -6.931  1.00 20.00     0.011 A 
HETATM    7  C2  UNL     1     -35.798  15.000  -7.162  1.00 20.00     0.011 A 
HETATM    8  C7  UNL     1     -35.679  17.081  -5.663  1.00 20.00     0.016 C 
ENDBRANCH   3   5
BRANCH   2   9
HETATM    9  C9  UNL     1     -32.886  15.341  -3.953  1.00 20.00     0.169 C 
BRANCH   9  10
HETATM   10  O10 UNL     1     -31.978  14.387  -4.501  1.00 20.00    -0.400 OA
HETATM   11  H26 UNL     1     -32.514  13.629  -4.783  1.00 20.00     0.209 HD
ENDBRANCH   9  10
ENDBRANCH   2   9
TORSDOF 3
ENDMDL
MODEL 8
REMARK VINA RESULT:      -3.9      1.247      2.613
REMARK  3 active torsions:
REMARK  status: ('A' for Active; 'I' for Inactive)
REMARK    1  A    between atoms: C4_4  and  C9_9 
REMARK    2  A    between atoms: C5_5  and  C6_6 
REMARK    3  A    between atoms: C9_9  and  O10_10 
ROOT
HETATM    1  C3  UNL     1     -34.888  13.855  -3.948  1.00 20.00     0.018 A 
HETATM    2  C4  UNL     1     -35.692  15.025  -3.458  1.00 20.00     0.019 A 
HETATM    3  C6  UNL     1     -34.447  15.264  -4.311  1.00 20.00    -0.031 A 
HETATM    4  C8  UNL     1     -33.240  15.801  -3.578  1.00 20.00     0.016 C 
ENDROOT
BRANCH   3   5
HETATM    5  C5  UNL     1     -34.538  15.751  -5.764  1.00 20.00    -0.036 A 
HETATM    6  C1  UNL     1     -33.783  15.032  -6.857  1.00 20.00     0.011 A 
HETATM    7  C2  UNL     1     -35.280  14.934  -6.796  1.00 20.00     0.011 A 
HETATM    8  C7  UNL     1     -34.642  17.251  -5.892  1.00 20.00     0.016 C 
ENDBRANCH   3   5
BRANCH   2   9
HETATM    9  C9  UNL     1     -37.066  15.263  -3.982  1.00 20.00     0.169 C 
BRANCH   9  10
HETATM   10  O10 UNL     1     -37.828  14.059  -3.912  1.00 20.00    -0.400 OA
HETATM   11  H26 UNL     1     -38.213  14.029  -3.023  1.00 20.00     0.209 HD
ENDBRANCH   9  10
ENDBRANCH   2   9
TORSDOF 3
ENDMDL
MODEL 9
REMARK VINA RESULT:      -3.9      1.930      3.420
REMARK  3 active torsions:
REMARK  status: ('A' for Active; 'I' for Inactive)
REMARK    1  A    between atoms: C4_4  and  C9_9 
REMARK    2  A    between atoms: C5_5  and  C6_6 
REMARK    3  A    between atoms: C9_9  and  O10_10 
ROOT
HETATM    1  C3  UNL     1     -33.723  16.858  -3.969  1.00 20.00     0.018 A 
HETATM    2  C4  UNL     1     -33.343  15.425  -3.730  1.00 20.00     0.019 A 
HETATM    3  C6  UNL     1     -34.789  15.872  -3.520  1.00 20.00    -0.031 A 
HETATM    4  C8  UNL     1     -35.242  15.979  -2.083  1.00 20.00     0.016 C 
ENDROOT
BRANCH   3   5
HETATM    5  C5  UNL     1     -35.914  15.461  -4.480  1.00 20.00    -0.036 A 
HETATM    6  C1  UNL     1     -36.250  14.001  -4.678  1.00 20.00     0.011 A 
HETATM    7  C2  UNL     1     -37.206  14.894  -3.940  1.00 20.00     0.011 A 
HETATM    8  C7  UNL     1     -36.025  16.348  -5.695  1.00 20.00     0.016 C 
ENDBRANCH   3   5
BRANCH   2   9
HETATM    9  C9  UNL     1     -32.943  14.554  -4.871  1.00 20.00     0.169 C 
BRANCH   9  10
HETATM   10  O10 UNL     1     -32.662  13.236  -4.401  1.00 20.00    -0.400 OA
HETATM   11  H26 UNL     1     -32.717  13.272  -3.434  1.00 20.00     0.209 HD
ENDBRANCH   9  10
ENDBRANCH   2   9
TORSDOF 3
ENDMDL
