MODEL 1
REMARK VINA RESULT:      -4.0      0.000      0.000
REMARK  3 active torsions:
REMARK  status: ('A' for Active; 'I' for Inactive)
REMARK    1  A    between atoms: C3_3  and  O10_10 
REMARK    2  A    between atoms: C4_4  and  C8_8 
REMARK    3  A    between atoms: C4_4  and  C9_9 
ROOT
HETATM    1  C1  UNL     1     -33.020  16.168  -3.348  1.00 20.00     0.037 C 
HETATM    2  C2  UNL     1     -34.467  16.634  -3.054  1.00 20.00    -0.005 C 
HETATM    3  C3  UNL     1     -33.594  14.887  -3.988  1.00 20.00     0.127 C 
HETATM    4  C4  UNL     1     -34.952  15.640  -4.170  1.00 20.00    -0.012 C 
HETATM    5  C5  UNL     1     -34.916  16.421  -1.614  1.00 20.00     0.011 C 
ENDROOT
BRANCH   4   6
HETATM    6  C8  UNL     1     -36.170  14.776  -3.851  1.00 20.00     0.008 C 
HETATM    7  C6  UNL     1     -36.303  13.635  -4.806  1.00 20.00     0.006 C 
ENDBRANCH   4   6
BRANCH   4   8
HETATM    8  C9  UNL     1     -35.132  16.333  -5.527  1.00 20.00     0.008 C 
HETATM    9  C7  UNL     1     -36.438  17.048  -5.605  1.00 20.00     0.006 C 
ENDBRANCH   4   8
BRANCH   3  10
HETATM   10  O10 UNL     1     -32.937  14.430  -5.184  1.00 20.00    -0.395 OA
HETATM   11  H28 UNL     1     -32.527  13.587  -4.954  1.00 20.00     0.210 HD
ENDBRANCH   3  10
TORSDOF 3
ENDMDL
MODEL 2
REMARK VINA RESULT:      -4.0      1.125      3.072
REMARK  3 active torsions:
REMARK  status: ('A' for Active; 'I' for Inactive)
REMARK    1  A    between atoms: C3_3  and  O10_10 
REMARK    2  A    between atoms: C4_4  and  C8_8 
REMARK    3  A    between atoms: C4_4  and  C9_9 
ROOT
HETATM    1  C1  UNL     1     -34.570  13.650  -3.991  1.00 20.00     0.037 C 
HETATM    2  C2  UNL     1     -35.622  14.724  -3.620  1.00 20.00    -0.005 C 
HETATM    3  C3  UNL     1     -33.757  14.740  -4.721  1.00 20.00     0.127 C 
HETATM    4  C4  UNL     1     -34.514  15.811  -3.869  1.00 20.00    -0.012 C 
HETATM    5  C5  UNL     1     -36.870  14.712  -4.493  1.00 20.00     0.011 C 
ENDROOT
BRANCH   4   6
HETATM    6  C8  UNL     1     -34.918  17.045  -4.672  1.00 20.00     0.008 C 
HETATM    7  C6  UNL     1     -33.870  18.109  -4.615  1.00 20.00     0.006 C 
ENDBRANCH   4   6
BRANCH   4   8
HETATM    8  C9  UNL     1     -33.806  16.227  -2.573  1.00 20.00     0.008 C 
HETATM    9  C7  UNL     1     -34.779  16.710  -1.551  1.00 20.00     0.006 C 
ENDBRANCH   4   8
BRANCH   3  10
HETATM   10  O10 UNL     1     -32.329  14.673  -4.563  1.00 20.00    -0.395 OA
HETATM   11  H28 UNL     1     -32.124  13.742  -4.409  1.00 20.00     0.210 HD
ENDBRANCH   3  10
TORSDOF 3
ENDMDL
MODEL 3
REMARK VINA RESULT:      -3.9      1.584      3.356
REMARK  3 active torsions:
REMARK  status: ('A' for Active; 'I' for Inactive)
REMARK    1  A    between atoms: C3_3  and  O10_10 
REMARK    2  A    between atoms: C4_4  and  C8_8 
REMARK    3  A    between atoms: C4_4  and  C9_9 
ROOT
HETATM    1  C1  UNL     1     -37.591  14.486  -4.176  1.00 20.00     0.037 C 
HETATM    2  C2  UNL     1     -36.970  15.904  -4.180  1.00 20.00    -0.005 C 
HETATM    3  C3  UNL     1     -36.380  13.984  -4.989  1.00 20.00     0.127 C 
HETATM    4  C4  UNL     1     -35.582  15.233  -4.487  1.00 20.00    -0.012 C 
HETATM    5  C5  UNL     1     -37.582  16.856  -5.200  1.00 20.00     0.011 C 
ENDROOT
BRANCH   4   6
HETATM    6  C8  UNL     1     -34.721  15.876  -5.571  1.00 20.00     0.008 C 
HETATM    7  C6  UNL     1     -33.787  14.889  -6.192  1.00 20.00     0.006 C 
ENDBRANCH   4   6
BRANCH   4   8
HETATM    8  C9  UNL     1     -34.754  15.004  -3.215  1.00 20.00     0.008 C 
HETATM    9  C7  UNL     1     -33.887  16.179  -2.911  1.00 20.00     0.006 C 
ENDBRANCH   4   8
BRANCH   3  10
HETATM   10  O10 UNL     1     -35.864  12.692  -4.621  1.00 20.00    -0.395 OA
HETATM   11  H28 UNL     1     -35.012  12.859  -4.198  1.00 20.00     0.210 HD
ENDBRANCH   3  10
TORSDOF 3
ENDMDL
MODEL 4
REMARK VINA RESULT:      -3.8      1.890      2.886
REMARK  3 active torsions:
REMARK  status: ('A' for Active; 'I' for Inactive)
REMARK    1  A    between atoms: C3_3  and  O10_10 
REMARK    2  A    between atoms: C4_4  and  C8_8 
REMARK    3  A    between atoms: C4_4  and  C9_9 
ROOT
HETATM    1  C1  UNL     1     -34.932  13.666  -3.836  1.00 20.00     0.037 C 
HETATM    2  C2  UNL     1     -34.137  14.846  -4.447  1.00 20.00    -0.005 C 
HETATM    3  C3  UNL     1     -36.237  14.444  -4.103  1.00 20.00     0.127 C 
HETATM    4  C4  UNL     1     -35.462  15.290  -5.167  1.00 20.00    -0.012 C 
HETATM    5  C5  UNL     1     -33.497  15.771  -3.420  1.00 20.00     0.011 C 
ENDROOT
BRANCH   4   6
HETATM    6  C8  UNL     1     -35.812  16.776  -5.127  1.00 20.00     0.008 C 
HETATM    7  C6  UNL     1     -37.095  17.060  -5.838  1.00 20.00     0.006 C 
ENDBRANCH   4   6
BRANCH   4   8
HETATM    8  C9  UNL     1     -35.548  14.760  -6.604  1.00 20.00     0.008 C 
HETATM    9  C7  UNL     1     -34.481  15.347  -7.465  1.00 20.00     0.006 C 
ENDBRANCH   4   8
BRANCH   3  10
HETATM   10  O10 UNL     1     -37.351  13.665  -4.577  1.00 20.00    -0.395 OA
HETATM   11  H28 UNL     1     -37.010  13.137  -5.310  1.00 20.00     0.210 HD
ENDBRANCH   3  10
TORSDOF 3
ENDMDL
MODEL 5
REMARK VINA RESULT:      -3.8     17.157     18.772
REMARK  3 active torsions:
REMARK  status: ('A' for Active; 'I' for Inactive)
REMARK    1  A    between atoms: C3_3  and  O10_10 
REMARK    2  A    between atoms: C4_4  and  C8_8 
REMARK    3  A    between atoms: C4_4  and  C9_9 
ROOT
HETATM    1  C1  UNL     1     -25.339  19.045   9.552  1.00 20.00     0.037 C 
HETATM    2  C2  UNL     1     -25.655  18.347  10.897  1.00 20.00    -0.005 C 
HETATM    3  C3  UNL     1     -23.855  19.111   9.967  1.00 20.00     0.127 C 
HETATM    4  C4  UNL     1     -24.134  17.957  10.985  1.00 20.00    -0.012 C 
HETATM    5  C5  UNL     1     -26.255  19.263  11.956  1.00 20.00     0.011 C 
ENDROOT
BRANCH   4   6
HETATM    6  C8  UNL     1     -23.441  18.157  12.330  1.00 20.00     0.008 C 
HETATM    7  C6  UNL     1     -22.004  17.751  12.276  1.00 20.00     0.006 C 
ENDBRANCH   4   6
BRANCH   4   8
HETATM    8  C9  UNL     1     -23.865  16.543  10.451  1.00 20.00     0.008 C 
HETATM    9  C7  UNL     1     -24.347  15.501  11.404  1.00 20.00     0.006 C 
ENDBRANCH   4   8
BRANCH   3  10
HETATM   10  O10 UNL     1     -22.896  18.844   8.928  1.00 20.00    -0.395 OA
HETATM   11  H28 UNL     1     -22.781  19.678   8.455  1.00 20.00     0.210 HD
ENDBRANCH   3  10
TORSDOF 3
ENDMDL
MODEL 6
REMARK VINA RESULT:      -3.8      1.962      3.116
REMARK  3 active torsions:
REMARK  status: ('A' for Active; 'I' for Inactive)
REMARK    1  A    between atoms: C3_3  and  O10_10 
REMARK    2  A    between atoms: C4_4  and  C8_8 
REMARK    3  A    between atoms: C4_4  and  C9_9 
ROOT
HETATM    1  C1  UNL     1     -35.082  16.497  -1.460  1.00 20.00     0.037 C 
HETATM    2  C2  UNL     1     -33.732  16.634  -2.206  1.00 20.00    -0.005 C 
HETATM    3  C3  UNL     1     -35.812  16.691  -2.805  1.00 20.00     0.127 C 
HETATM    4  C4  UNL     1     -34.493  16.266  -3.531  1.00 20.00    -0.012 C 
HETATM    5  C5  UNL     1     -33.076  18.003  -2.074  1.00 20.00     0.011 C 
ENDROOT
BRANCH   4   6
HETATM    6  C8  UNL     1     -34.185  17.108  -4.767  1.00 20.00     0.008 C 
HETATM    7  C6  UNL     1     -35.072  16.748  -5.914  1.00 20.00     0.006 C 
ENDBRANCH   4   6
BRANCH   4   8
HETATM    8  C9  UNL     1     -34.389  14.772  -3.865  1.00 20.00     0.008 C 
HETATM    9  C7  UNL     1     -33.043  14.428  -4.409  1.00 20.00     0.006 C 
ENDBRANCH   4   8
BRANCH   3  10
HETATM   10  O10 UNL     1     -36.968  15.863  -3.021  1.00 20.00    -0.395 OA
HETATM   11  H28 UNL     1     -37.019  15.724  -3.976  1.00 20.00     0.210 HD
ENDBRANCH   3  10
TORSDOF 3
ENDMDL
MODEL 7
REMARK VINA RESULT:      -3.7      1.177      2.943
REMARK  3 active torsions:
REMARK  status: ('A' for Active; 'I' for Inactive)
REMARK    1  A    between atoms: C3_3  and  O10_10 
REMARK    2  A    between atoms: C4_4  and  C8_8 
REMARK    3  A    between atoms: C4_4  and  C9_9 
ROOT
HETATM    1  C1  UNL     1     -34.088  14.973  -6.675  1.00 20.00     0.037 C 
HETATM    2  C2  UNL     1     -35.341  15.783  -6.262  1.00 20.00    -0.005 C 
HETATM    3  C3  UNL     1     -33.617  15.007  -5.207  1.00 20.00     0.127 C 
HETATM    4  C4  UNL     1     -35.095  15.301  -4.786  1.00 20.00    -0.012 C 
HETATM    5  C5  UNL     1     -35.265  17.270  -6.586  1.00 20.00     0.011 C 
ENDROOT
BRANCH   4   6
HETATM    6  C8  UNL     1     -35.212  16.349  -3.682  1.00 20.00     0.008 C 
HETATM    7  C6  UNL     1     -34.806  15.799  -2.354  1.00 20.00     0.006 C 
ENDBRANCH   4   6
BRANCH   4   8
HETATM    8  C9  UNL     1     -35.927  14.061  -4.434  1.00 20.00     0.008 C 
HETATM    9  C7  UNL     1     -37.376  14.394  -4.310  1.00 20.00     0.006 C 
ENDBRANCH   4   8
BRANCH   3  10
HETATM   10  O10 UNL     1     -33.027  13.794  -4.705  1.00 20.00    -0.395 OA
HETATM   11  H28 UNL     1     -33.712  13.117  -4.780  1.00 20.00     0.210 HD
ENDBRANCH   3  10
TORSDOF 3
ENDMDL
MODEL 8
REMARK VINA RESULT:      -3.7      1.438      3.074
REMARK  3 active torsions:
REMARK  status: ('A' for Active; 'I' for Inactive)
REMARK    1  A    between atoms: C3_3  and  O10_10 
REMARK    2  A    between atoms: C4_4  and  C8_8 
REMARK    3  A    between atoms: C4_4  and  C9_9 
ROOT
HETATM    1  C1  UNL     1     -33.699  14.797  -4.746  1.00 20.00     0.037 C 
HETATM    2  C2  UNL     1     -34.840  14.413  -3.772  1.00 20.00    -0.005 C 
HETATM    3  C3  UNL     1     -34.286  16.222  -4.825  1.00 20.00     0.127 C 
HETATM    4  C4  UNL     1     -35.023  15.945  -3.473  1.00 20.00    -0.012 C 
HETATM    5  C5  UNL     1     -35.980  13.633  -4.414  1.00 20.00     0.011 C 
ENDROOT
BRANCH   4   6
HETATM    6  C8  UNL     1     -36.451  16.483  -3.443  1.00 20.00     0.008 C 
HETATM    7  C6  UNL     1     -36.523  17.888  -3.945  1.00 20.00     0.006 C 
ENDBRANCH   4   6
BRANCH   4   8
HETATM    8  C9  UNL     1     -34.260  16.388  -2.218  1.00 20.00     0.008 C 
HETATM    9  C7  UNL     1     -35.192  16.689  -1.093  1.00 20.00     0.006 C 
ENDBRANCH   4   8
BRANCH   3  10
HETATM   10  O10 UNL     1     -33.331  17.298  -4.837  1.00 20.00    -0.395 OA
HETATM   11  H28 UNL     1     -33.200  17.544  -3.913  1.00 20.00     0.210 HD
ENDBRANCH   3  10
TORSDOF 3
ENDMDL
MODEL 9
REMARK VINA RESULT:      -3.7      1.879      3.186
REMARK  3 active torsions:
REMARK  status: ('A' for Active; 'I' for Inactive)
REMARK    1  A    between atoms: C3_3  and  O10_10 
REMARK    2  A    between atoms: C4_4  and  C8_8 
REMARK    3  A    between atoms: C4_4  and  C9_9 
ROOT
HETATM    1  C1  UNL     1     -35.522  14.348  -5.163  1.00 20.00     0.037 C 
HETATM    2  C2  UNL     1     -34.326  15.271  -4.824  1.00 20.00    -0.005 C 
HETATM    3  C3  UNL     1     -36.038  14.536  -3.721  1.00 20.00     0.127 C 
HETATM    4  C4  UNL     1     -35.176  15.838  -3.630  1.00 20.00    -0.012 C 
HETATM    5  C5  UNL     1     -33.025  14.534  -4.534  1.00 20.00     0.011 C 
ENDROOT
BRANCH   4   6
HETATM    6  C8  UNL     1     -34.468  16.001  -2.287  1.00 20.00     0.008 C 
HETATM    7  C6  UNL     1     -35.323  16.722  -1.296  1.00 20.00     0.006 C 
ENDBRANCH   4   6
BRANCH   4   8
HETATM    8  C9  UNL     1     -35.914  17.131  -4.004  1.00 20.00     0.008 C 
HETATM    9  C7  UNL     1     -34.959  18.216  -4.370  1.00 20.00     0.006 C 
ENDBRANCH   4   8
BRANCH   3  10
HETATM   10  O10 UNL     1     -37.461  14.686  -3.574  1.00 20.00    -0.395 OA
HETATM   11  H28 UNL     1     -37.601  15.590  -3.265  1.00 20.00     0.210 HD
ENDBRANCH   3  10
TORSDOF 3
ENDMDL
