MODEL 1
REMARK VINA RESULT:      -4.4      0.000      0.000
REMARK  2 active torsions:
REMARK  status: ('A' for Active; 'I' for Inactive)
REMARK    1  A    between atoms: C5_5  and  C6_6 
REMARK    2  A    between atoms: C7_7  and  C8_8 
ROOT
HETATM    1  C1  UNL     1     -24.515  19.251   8.979  1.00 20.00     0.033 C 
HETATM    2  C3  UNL     1     -24.412  18.987   7.492  1.00 20.00     0.168 C 
HETATM    3  C4  UNL     1     -22.722  17.798   8.567  1.00 20.00     0.172 C 
HETATM    4  C5  UNL     1     -23.853  18.020   9.557  1.00 20.00     0.016 C 
HETATM    5  O9  UNL     1     -23.211  18.228   7.288  1.00 20.00    -0.391 OA
ENDROOT
BRANCH   4   6
HETATM    6  C6  UNL     1     -23.388  18.178  10.992  1.00 20.00    -0.003 A 
HETATM    7  C2  UNL     1     -23.026  16.967  11.807  1.00 20.00     0.011 A 
HETATM    8  C7  UNL     1     -24.244  17.776  12.167  1.00 20.00     0.000 A 
BRANCH   8   9
HETATM    9  C8  UNL     1     -25.606  17.195  12.005  1.00 20.00     0.090 C 
HETATM   10 BR10 UNL     1     -26.948  18.611  11.925  1.00 20.00    -0.096 Br
ENDBRANCH   8   9
ENDBRANCH   4   6
TORSDOF 2
ENDMDL
MODEL 2
REMARK VINA RESULT:      -4.2     16.514     18.260
REMARK  2 active torsions:
REMARK  status: ('A' for Active; 'I' for Inactive)
REMARK    1  A    between atoms: C5_5  and  C6_6 
REMARK    2  A    between atoms: C7_7  and  C8_8 
ROOT
HETATM    1  C1  UNL     1     -37.038  15.924  -4.469  1.00 20.00     0.033 C 
HETATM    2  C3  UNL     1     -38.199  14.981  -4.232  1.00 20.00     0.168 C 
HETATM    3  C4  UNL     1     -36.273  13.708  -4.548  1.00 20.00     0.172 C 
HETATM    4  C5  UNL     1     -35.861  15.078  -4.035  1.00 20.00     0.016 C 
HETATM    5  O9  UNL     1     -37.704  13.651  -4.450  1.00 20.00    -0.391 OA
ENDROOT
BRANCH   4   6
HETATM    6  C6  UNL     1     -34.523  15.554  -4.567  1.00 20.00    -0.003 A 
HETATM    7  C2  UNL     1     -33.254  14.859  -4.151  1.00 20.00     0.011 A 
HETATM    8  C7  UNL     1     -33.518  16.272  -3.700  1.00 20.00     0.000 A 
BRANCH   8   9
HETATM    9  C8  UNL     1     -33.767  16.566  -2.260  1.00 20.00     0.090 C 
HETATM   10 BR10 UNL     1     -32.580  17.986  -1.639  1.00 20.00    -0.096 Br
ENDBRANCH   8   9
ENDBRANCH   4   6
TORSDOF 2
ENDMDL
MODEL 3
REMARK VINA RESULT:      -4.0      1.825      2.418
REMARK  2 active torsions:
REMARK  status: ('A' for Active; 'I' for Inactive)
REMARK    1  A    between atoms: C5_5  and  C6_6 
REMARK    2  A    between atoms: C7_7  and  C8_8 
ROOT
HETATM    1  C1  UNL     1     -26.063  19.263   8.027  1.00 20.00     0.033 C 
HETATM    2  C3  UNL     1     -26.470  19.082   6.580  1.00 20.00     0.168 C 
HETATM    3  C4  UNL     1     -24.144  19.046   6.697  1.00 20.00     0.172 C 
HETATM    4  C5  UNL     1     -24.697  18.615   8.045  1.00 20.00     0.016 C 
HETATM    5  O9  UNL     1     -25.264  19.116   5.802  1.00 20.00    -0.391 OA
ENDROOT
BRANCH   4   6
HETATM    6  C6  UNL     1     -23.830  19.022   9.221  1.00 20.00    -0.003 A 
HETATM    7  C2  UNL     1     -22.419  18.513   9.332  1.00 20.00     0.011 A 
HETATM    8  C7  UNL     1     -23.460  18.061  10.323  1.00 20.00     0.000 A 
BRANCH   8   9
HETATM    9  C8  UNL     1     -23.918  16.644  10.338  1.00 20.00     0.090 C 
HETATM   10 BR10 UNL     1     -24.941  16.274  11.959  1.00 20.00    -0.096 Br
ENDBRANCH   8   9
ENDBRANCH   4   6
TORSDOF 2
ENDMDL
MODEL 4
REMARK VINA RESULT:      -4.0     15.894     16.689
REMARK  2 active torsions:
REMARK  status: ('A' for Active; 'I' for Inactive)
REMARK    1  A    between atoms: C5_5  and  C6_6 
REMARK    2  A    between atoms: C7_7  and  C8_8 
ROOT
HETATM    1  C1  UNL     1     -34.406   4.950   3.782  1.00 20.00     0.033 C 
HETATM    2  C3  UNL     1     -35.343   5.067   4.966  1.00 20.00     0.168 C 
HETATM    3  C4  UNL     1     -33.678   6.682   5.185  1.00 20.00     0.172 C 
HETATM    4  C5  UNL     1     -33.824   6.345   3.711  1.00 20.00     0.016 C 
HETATM    5  O9  UNL     1     -34.762   6.026   5.862  1.00 20.00    -0.391 OA
ENDROOT
BRANCH   4   6
HETATM    6  C6  UNL     1     -32.527   6.440   2.930  1.00 20.00    -0.003 A 
HETATM    7  C2  UNL     1     -31.553   7.550   3.214  1.00 20.00     0.011 A 
HETATM    8  C7  UNL     1     -32.283   7.511   1.897  1.00 20.00     0.000 A 
BRANCH   8   9
HETATM    9  C8  UNL     1     -33.296   8.554   1.569  1.00 20.00     0.090 C 
HETATM   10 BR10 UNL     1     -33.361   8.859  -0.358  1.00 20.00    -0.096 Br
ENDBRANCH   8   9
ENDBRANCH   4   6
TORSDOF 2
ENDMDL
MODEL 5
REMARK VINA RESULT:      -3.9     16.745     18.345
REMARK  2 active torsions:
REMARK  status: ('A' for Active; 'I' for Inactive)
REMARK    1  A    between atoms: C5_5  and  C6_6 
REMARK    2  A    between atoms: C7_7  and  C8_8 
ROOT
HETATM    1  C1  UNL     1     -34.008  15.137  -6.541  1.00 20.00     0.033 C 
HETATM    2  C3  UNL     1     -35.102  15.139  -7.589  1.00 20.00     0.168 C 
HETATM    3  C4  UNL     1     -36.069  14.688  -5.518  1.00 20.00     0.172 C 
HETATM    4  C5  UNL     1     -34.785  15.465  -5.286  1.00 20.00     0.016 C 
HETATM    5  O9  UNL     1     -36.303  14.704  -6.934  1.00 20.00    -0.391 OA
ENDROOT
BRANCH   4   6
HETATM    6  C6  UNL     1     -34.071  15.097  -3.999  1.00 20.00    -0.003 A 
HETATM    7  C2  UNL     1     -34.629  15.538  -2.672  1.00 20.00     0.011 A 
HETATM    8  C7  UNL     1     -33.328  16.114  -3.168  1.00 20.00     0.000 A 
BRANCH   8   9
HETATM    9  C8  UNL     1     -33.240  17.551  -3.550  1.00 20.00     0.090 C 
HETATM   10 BR10 UNL     1     -32.461  18.597  -2.097  1.00 20.00    -0.096 Br
ENDBRANCH   8   9
ENDBRANCH   4   6
TORSDOF 2
ENDMDL
MODEL 6
REMARK VINA RESULT:      -3.9     15.895     17.428
REMARK  2 active torsions:
REMARK  status: ('A' for Active; 'I' for Inactive)
REMARK    1  A    between atoms: C5_5  and  C6_6 
REMARK    2  A    between atoms: C7_7  and  C8_8 
ROOT
HETATM    1  C1  UNL     1     -35.045  16.455  -1.499  1.00 20.00     0.033 C 
HETATM    2  C3  UNL     1     -34.491  17.743  -0.927  1.00 20.00     0.168 C 
HETATM    3  C4  UNL     1     -32.961  16.910  -2.474  1.00 20.00     0.172 C 
HETATM    4  C5  UNL     1     -34.340  16.385  -2.836  1.00 20.00     0.016 C 
HETATM    5  O9  UNL     1     -33.157  17.883  -1.437  1.00 20.00    -0.391 OA
ENDROOT
BRANCH   4   6
HETATM    6  C6  UNL     1     -34.324  15.002  -3.459  1.00 20.00    -0.003 A 
HETATM    7  C2  UNL     1     -33.179  14.583  -4.340  1.00 20.00     0.011 A 
HETATM    8  C7  UNL     1     -34.550  14.778  -4.934  1.00 20.00     0.000 A 
BRANCH   8   9
HETATM    9  C8  UNL     1     -34.804  15.896  -5.885  1.00 20.00     0.090 C 
HETATM   10 BR10 UNL     1     -34.091  15.465  -7.650  1.00 20.00    -0.096 Br
ENDBRANCH   8   9
ENDBRANCH   4   6
TORSDOF 2
ENDMDL
MODEL 7
REMARK VINA RESULT:      -3.8     15.231     16.584
REMARK  2 active torsions:
REMARK  status: ('A' for Active; 'I' for Inactive)
REMARK    1  A    between atoms: C5_5  and  C6_6 
REMARK    2  A    between atoms: C7_7  and  C8_8 
ROOT
HETATM    1  C1  UNL     1     -35.790  15.246  -3.671  1.00 20.00     0.033 C 
HETATM    2  C3  UNL     1     -35.624  13.832  -4.187  1.00 20.00     0.168 C 
HETATM    3  C4  UNL     1     -33.517  14.815  -4.052  1.00 20.00     0.172 C 
HETATM    4  C5  UNL     1     -34.433  15.511  -3.059  1.00 20.00     0.016 C 
HETATM    5  O9  UNL     1     -34.244  13.682  -4.550  1.00 20.00    -0.391 OA
ENDROOT
BRANCH   4   6
HETATM    6  C6  UNL     1     -34.116  16.981  -2.860  1.00 20.00    -0.003 A 
HETATM    7  C2  UNL     1     -33.043  17.398  -1.892  1.00 20.00     0.011 A 
HETATM    8  C7  UNL     1     -34.485  17.723  -1.600  1.00 20.00     0.000 A 
BRANCH   8   9
HETATM    9  C8  UNL     1     -35.186  17.068  -0.460  1.00 20.00     0.090 C 
HETATM   10 BR10 UNL     1     -34.724  17.946   1.221  1.00 20.00    -0.096 Br
ENDBRANCH   8   9
ENDBRANCH   4   6
TORSDOF 2
ENDMDL
MODEL 8
REMARK VINA RESULT:      -3.8      3.141      4.279
REMARK  2 active torsions:
REMARK  status: ('A' for Active; 'I' for Inactive)
REMARK    1  A    between atoms: C5_5  and  C6_6 
REMARK    2  A    between atoms: C7_7  and  C8_8 
ROOT
HETATM    1  C1  UNL     1     -25.905  16.562  12.331  1.00 20.00     0.033 C 
HETATM    2  C3  UNL     1     -27.163  17.405  12.301  1.00 20.00     0.168 C 
HETATM    3  C4  UNL     1     -25.325  18.824  12.118  1.00 20.00     0.172 C 
HETATM    4  C5  UNL     1     -24.922  17.452  11.604  1.00 20.00     0.016 C 
HETATM    5  O9  UNL     1     -26.744  18.777  12.331  1.00 20.00    -0.391 OA
ENDROOT
BRANCH   4   6
HETATM    6  C6  UNL     1     -23.466  17.108  11.856  1.00 20.00    -0.003 A 
HETATM    7  C2  UNL     1     -22.501  18.176  12.291  1.00 20.00     0.011 A 
HETATM    8  C7  UNL     1     -22.360  17.547  10.929  1.00 20.00     0.000 A 
BRANCH   8   9
HETATM    9  C8  UNL     1     -22.615  18.351   9.701  1.00 20.00     0.090 C 
HETATM   10 BR10 UNL     1     -21.987  17.397   8.118  1.00 20.00    -0.096 Br
ENDBRANCH   8   9
ENDBRANCH   4   6
TORSDOF 2
ENDMDL
MODEL 9
REMARK VINA RESULT:      -3.7     15.596     16.774
REMARK  2 active torsions:
REMARK  status: ('A' for Active; 'I' for Inactive)
REMARK    1  A    between atoms: C5_5  and  C6_6 
REMARK    2  A    between atoms: C7_7  and  C8_8 
ROOT
HETATM    1  C1  UNL     1     -33.346  15.365  -3.596  1.00 20.00     0.033 C 
HETATM    2  C3  UNL     1     -33.511  14.740  -4.966  1.00 20.00     0.168 C 
HETATM    3  C4  UNL     1     -35.590  14.761  -3.915  1.00 20.00     0.172 C 
HETATM    4  C5  UNL     1     -34.744  15.874  -3.321  1.00 20.00     0.016 C 
HETATM    5  O9  UNL     1     -34.858  14.250  -5.039  1.00 20.00    -0.391 OA
ENDROOT
BRANCH   4   6
HETATM    6  C6  UNL     1     -35.030  16.147  -1.857  1.00 20.00    -0.003 A 
HETATM    7  C2  UNL     1     -35.978  17.247  -1.464  1.00 20.00     0.011 A 
HETATM    8  C7  UNL     1     -34.511  17.372  -1.146  1.00 20.00     0.000 A 
BRANCH   8   9
HETATM    9  C8  UNL     1     -33.681  18.404  -1.830  1.00 20.00     0.090 C 
HETATM   10 BR10 UNL     1     -31.873  18.422  -1.094  1.00 20.00    -0.096 Br
ENDBRANCH   8   9
ENDBRANCH   4   6
TORSDOF 2
ENDMDL
