MODEL 1
REMARK VINA RESULT:      -4.7      0.000      0.000
REMARK  1 active torsions:
REMARK  status: ('A' for Active; 'I' for Inactive)
REMARK    1  A    between atoms: C7_7  and  C11_11 
ROOT
HETATM    1  C1  UNL     1     -34.383   4.618   3.695  1.00 20.00     0.005 C 
HETATM    2  C2  UNL     1     -33.327   5.147   2.722  1.00 20.00     0.010 C 
HETATM    3  C3  UNL     1     -34.142   7.368   3.673  1.00 20.00     0.014 C 
HETATM    4  C4  UNL     1     -31.661   7.140   2.937  1.00 20.00     0.016 A 
HETATM    5  C5  UNL     1     -34.173   5.212   5.091  1.00 20.00    -0.015 C 
HETATM    6  C6  UNL     1     -34.335   6.754   5.075  1.00 20.00    -0.014 C 
HETATM    7  C7  UNL     1     -32.440   7.326   1.669  1.00 20.00     0.009 A 
HETATM    8  C8  UNL     1     -33.092   6.640   2.863  1.00 20.00    -0.035 A 
HETATM    9  C9  UNL     1     -35.128   4.569   6.099  1.00 20.00     0.010 C 
HETATM   10  C10 UNL     1     -33.393   7.401   6.097  1.00 20.00     0.010 C 
ENDROOT
BRANCH   7  11
HETATM   11  C11 UNL     1     -32.824   8.691   1.212  1.00 20.00     0.120 C 
HETATM   12 CL12 UNL     1     -33.485   8.658  -0.446  1.00 20.00    -0.130 Cl
ENDBRANCH   7  11
TORSDOF 1
ENDMDL
MODEL 2
REMARK VINA RESULT:      -4.5     10.847     12.151
REMARK  1 active torsions:
REMARK  status: ('A' for Active; 'I' for Inactive)
REMARK    1  A    between atoms: C7_7  and  C11_11 
ROOT
HETATM    1  C1  UNL     1     -32.738  17.554  -1.791  1.00 20.00     0.005 C 
HETATM    2  C2  UNL     1     -32.968  16.878  -3.144  1.00 20.00     0.010 C 
HETATM    3  C3  UNL     1     -35.007  15.985  -1.898  1.00 20.00     0.014 C 
HETATM    4  C4  UNL     1     -35.170  16.405  -4.457  1.00 20.00     0.016 A 
HETATM    5  C5  UNL     1     -34.000  18.295  -1.338  1.00 20.00    -0.015 C 
HETATM    6  C6  UNL     1     -35.183  17.313  -1.134  1.00 20.00    -0.014 C 
HETATM    7  C7  UNL     1     -34.434  15.106  -4.310  1.00 20.00     0.009 A 
HETATM    8  C8  UNL     1     -34.310  16.172  -3.228  1.00 20.00    -0.035 A 
HETATM    9  C9  UNL     1     -33.724  19.097  -0.065  1.00 20.00     0.010 C 
HETATM   10  C10 UNL     1     -36.508  17.990  -1.500  1.00 20.00     0.010 C 
ENDROOT
BRANCH   7  11
HETATM   11  C11 UNL     1     -35.182  13.834  -4.109  1.00 20.00     0.120 C 
HETATM   12 CL12 UNL     1     -36.923  14.047  -4.440  1.00 20.00    -0.130 Cl
ENDBRANCH   7  11
TORSDOF 1
ENDMDL
MODEL 3
REMARK VINA RESULT:      -4.5     11.494     12.907
REMARK  1 active torsions:
REMARK  status: ('A' for Active; 'I' for Inactive)
REMARK    1  A    between atoms: C7_7  and  C11_11 
ROOT
HETATM    1  C1  UNL     1     -33.826  14.784  -5.657  1.00 20.00     0.005 C 
HETATM    2  C2  UNL     1     -33.441  14.929  -4.183  1.00 20.00     0.010 C 
HETATM    3  C3  UNL     1     -34.381  17.266  -4.583  1.00 20.00     0.014 C 
HETATM    4  C4  UNL     1     -34.625  16.189  -2.232  1.00 20.00     0.016 A 
HETATM    5  C5  UNL     1     -35.276  15.222  -5.880  1.00 20.00    -0.015 C 
HETATM    6  C6  UNL     1     -35.470  16.720  -5.528  1.00 20.00    -0.014 C 
HETATM    7  C7  UNL     1     -33.209  16.678  -2.303  1.00 20.00     0.009 A 
HETATM    8  C8  UNL     1     -33.921  16.236  -3.576  1.00 20.00    -0.035 A 
HETATM    9  C9  UNL     1     -35.710  14.933  -7.318  1.00 20.00     0.010 C 
HETATM   10  C10 UNL     1     -36.871  16.957  -4.954  1.00 20.00     0.010 C 
ENDROOT
BRANCH   7  11
HETATM   11  C11 UNL     1     -32.888  18.103  -2.011  1.00 20.00     0.120 C 
HETATM   12 CL12 UNL     1     -31.511  18.239  -0.882  1.00 20.00    -0.130 Cl
ENDBRANCH   7  11
TORSDOF 1
ENDMDL
MODEL 4
REMARK VINA RESULT:      -4.5     11.270     12.664
REMARK  1 active torsions:
REMARK  status: ('A' for Active; 'I' for Inactive)
REMARK    1  A    between atoms: C7_7  and  C11_11 
ROOT
HETATM    1  C1  UNL     1     -34.764  15.551  -2.664  1.00 20.00     0.005 C 
HETATM    2  C2  UNL     1     -35.164  16.399  -1.454  1.00 20.00     0.010 C 
HETATM    3  C3  UNL     1     -32.879  17.429  -1.926  1.00 20.00     0.014 C 
HETATM    4  C4  UNL     1     -34.761  18.921  -0.936  1.00 20.00     0.016 A 
HETATM    5  C5  UNL     1     -34.324  16.447  -3.826  1.00 20.00    -0.015 C 
HETATM    6  C6  UNL     1     -33.071  17.279  -3.449  1.00 20.00    -0.014 C 
HETATM    7  C7  UNL     1     -34.232  18.124   0.219  1.00 20.00     0.009 A 
HETATM    8  C8  UNL     1     -34.194  17.536  -1.186  1.00 20.00    -0.035 A 
HETATM    9  C9  UNL     1     -34.073  15.611  -5.083  1.00 20.00     0.010 C 
HETATM   10  C10 UNL     1     -33.113  18.648  -4.139  1.00 20.00     0.010 C 
ENDROOT
BRANCH   7  11
HETATM   11  C11 UNL     1     -33.007  18.567   0.943  1.00 20.00     0.120 C 
HETATM   12 CL12 UNL     1     -32.905  17.817   2.561  1.00 20.00    -0.130 Cl
ENDBRANCH   7  11
TORSDOF 1
ENDMDL
MODEL 5
REMARK VINA RESULT:      -4.3     11.226     12.373
REMARK  1 active torsions:
REMARK  status: ('A' for Active; 'I' for Inactive)
REMARK    1  A    between atoms: C7_7  and  C11_11 
ROOT
HETATM    1  C1  UNL     1     -35.355  16.975  -0.902  1.00 20.00     0.005 C 
HETATM    2  C2  UNL     1     -35.085  15.910  -1.968  1.00 20.00     0.010 C 
HETATM    3  C3  UNL     1     -34.199  17.953  -3.211  1.00 20.00     0.014 C 
HETATM    4  C4  UNL     1     -33.101  15.638  -3.636  1.00 20.00     0.016 A 
HETATM    5  C5  UNL     1     -34.094  17.802  -0.636  1.00 20.00    -0.015 C 
HETATM    6  C6  UNL     1     -33.647  18.568  -1.909  1.00 20.00    -0.014 C 
HETATM    7  C7  UNL     1     -34.373  15.629  -4.429  1.00 20.00     0.009 A 
HETATM    8  C8  UNL     1     -34.289  16.445  -3.145  1.00 20.00    -0.035 A 
HETATM    9  C9  UNL     1     -34.318  18.762   0.534  1.00 20.00     0.010 C 
HETATM   10  C10 UNL     1     -32.119  18.681  -1.955  1.00 20.00     0.010 C 
ENDROOT
BRANCH   7  11
HETATM   11  C11 UNL     1     -34.424  16.254  -5.781  1.00 20.00     0.120 C 
HETATM   12 CL12 UNL     1     -33.862  15.119  -7.040  1.00 20.00    -0.130 Cl
ENDBRANCH   7  11
TORSDOF 1
ENDMDL
MODEL 6
REMARK VINA RESULT:      -4.3     11.248     12.440
REMARK  1 active torsions:
REMARK  status: ('A' for Active; 'I' for Inactive)
REMARK    1  A    between atoms: C7_7  and  C11_11 
ROOT
HETATM    1  C1  UNL     1     -36.682  16.241  -3.766  1.00 20.00     0.005 C 
HETATM    2  C2  UNL     1     -36.001  17.556  -3.378  1.00 20.00     0.010 C 
HETATM    3  C3  UNL     1     -34.354  15.924  -2.315  1.00 20.00     0.014 C 
HETATM    4  C4  UNL     1     -33.475  18.187  -3.239  1.00 20.00     0.016 A 
HETATM    5  C5  UNL     1     -35.682  15.295  -4.438  1.00 20.00    -0.015 C 
HETATM    6  C6  UNL     1     -34.531  14.916  -3.469  1.00 20.00    -0.014 C 
HETATM    7  C7  UNL     1     -34.104  18.511  -1.917  1.00 20.00     0.009 A 
HETATM    8  C8  UNL     1     -34.637  17.346  -2.742  1.00 20.00    -0.035 A 
HETATM    9  C9  UNL     1     -36.393  14.047  -4.963  1.00 20.00     0.010 C 
HETATM   10  C10 UNL     1     -33.222  14.726  -4.244  1.00 20.00     0.010 C 
ENDROOT
BRANCH   7  11
HETATM   11  C11 UNL     1     -33.340  18.321  -0.652  1.00 20.00     0.120 C 
HETATM   12 CL12 UNL     1     -31.584  18.233  -0.963  1.00 20.00    -0.130 Cl
ENDBRANCH   7  11
TORSDOF 1
ENDMDL
MODEL 7
REMARK VINA RESULT:      -4.1     11.331     12.574
REMARK  1 active torsions:
REMARK  status: ('A' for Active; 'I' for Inactive)
REMARK    1  A    between atoms: C7_7  and  C11_11 
ROOT
HETATM    1  C1  UNL     1     -36.193  16.564  -4.403  1.00 20.00     0.005 C 
HETATM    2  C2  UNL     1     -35.430  17.753  -3.816  1.00 20.00     0.010 C 
HETATM    3  C3  UNL     1     -34.256  15.867  -2.563  1.00 20.00     0.014 C 
HETATM    4  C4  UNL     1     -32.919  18.010  -3.168  1.00 20.00     0.016 A 
HETATM    5  C5  UNL     1     -35.219  15.507  -4.931  1.00 20.00    -0.015 C 
HETATM    6  C6  UNL     1     -34.340  14.934  -3.789  1.00 20.00    -0.014 C 
HETATM    7  C7  UNL     1     -33.743  18.377  -1.970  1.00 20.00     0.009 A 
HETATM    8  C8  UNL     1     -34.257  17.329  -2.949  1.00 20.00    -0.035 A 
HETATM    9  C9  UNL     1     -35.976  14.392  -5.655  1.00 20.00     0.010 C 
HETATM   10  C10 UNL     1     -32.943  14.585  -4.314  1.00 20.00     0.010 C 
ENDROOT
BRANCH   7  11
HETATM   11  C11 UNL     1     -33.272  18.038  -0.598  1.00 20.00     0.120 C 
HETATM   12 CL12 UNL     1     -34.646  17.792   0.516  1.00 20.00    -0.130 Cl
ENDBRANCH   7  11
TORSDOF 1
ENDMDL
MODEL 8
REMARK VINA RESULT:      -4.1     11.059     12.524
REMARK  1 active torsions:
REMARK  status: ('A' for Active; 'I' for Inactive)
REMARK    1  A    between atoms: C7_7  and  C11_11 
ROOT
HETATM    1  C1  UNL     1     -35.226  16.796  -1.442  1.00 20.00     0.005 C 
HETATM    2  C2  UNL     1     -34.943  15.531  -2.256  1.00 20.00     0.010 C 
HETATM    3  C3  UNL     1     -34.745  17.260  -4.121  1.00 20.00     0.014 C 
HETATM    4  C4  UNL     1     -33.288  15.112  -4.226  1.00 20.00     0.016 A 
HETATM    5  C5  UNL     1     -34.137  17.846  -1.682  1.00 20.00    -0.015 C 
HETATM    6  C6  UNL     1     -34.102  18.288  -3.168  1.00 20.00    -0.014 C 
HETATM    7  C7  UNL     1     -34.656  14.691  -4.676  1.00 20.00     0.009 A 
HETATM    8  C8  UNL     1     -34.506  15.834  -3.679  1.00 20.00    -0.035 A 
HETATM    9  C9  UNL     1     -34.335  19.047  -0.754  1.00 20.00     0.010 C 
HETATM   10  C10 UNL     1     -32.666  18.614  -3.594  1.00 20.00     0.010 C 
ENDROOT
BRANCH   7  11
HETATM   11  C11 UNL     1     -35.083  14.902  -6.088  1.00 20.00     0.120 C 
HETATM   12 CL12 UNL     1     -33.678  14.977  -7.186  1.00 20.00    -0.130 Cl
ENDBRANCH   7  11
TORSDOF 1
ENDMDL
MODEL 9
REMARK VINA RESULT:      -4.1     11.460     12.568
REMARK  1 active torsions:
REMARK  status: ('A' for Active; 'I' for Inactive)
REMARK    1  A    between atoms: C7_7  and  C11_11 
ROOT
HETATM    1  C1  UNL     1     -35.710  15.158  -3.974  1.00 20.00     0.005 C 
HETATM    2  C2  UNL     1     -36.663  16.316  -3.670  1.00 20.00     0.010 C 
HETATM    3  C3  UNL     1     -35.128  16.519  -1.643  1.00 20.00     0.014 C 
HETATM    4  C4  UNL     1     -36.211  18.663  -2.632  1.00 20.00     0.016 A 
HETATM    5  C5  UNL     1     -34.254  15.626  -3.902  1.00 20.00    -0.015 C 
HETATM    6  C6  UNL     1     -33.893  16.120  -2.476  1.00 20.00    -0.014 C 
HETATM    7  C7  UNL     1     -37.291  18.005  -1.827  1.00 20.00     0.009 A 
HETATM    8  C8  UNL     1     -36.212  17.153  -2.486  1.00 20.00    -0.035 A 
HETATM    9  C9  UNL     1     -33.307  14.512  -4.355  1.00 20.00     0.010 C 
HETATM   10  C10 UNL     1     -32.880  17.268  -2.549  1.00 20.00     0.010 C 
ENDROOT
BRANCH   7  11
HETATM   11  C11 UNL     1     -37.366  18.213  -0.353  1.00 20.00     0.120 C 
HETATM   12 CL12 UNL     1     -39.039  18.026   0.242  1.00 20.00    -0.130 Cl
ENDBRANCH   7  11
TORSDOF 1
ENDMDL
