MODEL 1
REMARK VINA RESULT:      -3.9      0.000      0.000
REMARK  3 active torsions:
REMARK  status: ('A' for Active; 'I' for Inactive)
REMARK    1  A    between atoms: C4_4  and  C6_6 
REMARK    2  A    between atoms: C5_5  and  C8_8 
REMARK    3  A    between atoms: C6_6  and  C9_9 
ROOT
HETATM    1  C3  UNL     1     -35.976  13.678  -4.555  1.00 20.00     0.017 A 
HETATM    2  C5  UNL     1     -36.778  14.814  -3.987  1.00 20.00     0.009 A 
HETATM    3  C6  UNL     1     -35.300  15.018  -4.315  1.00 20.00    -0.032 A 
ENDROOT
BRANCH   3   4
HETATM    4  C4  UNL     1     -34.295  15.181  -3.164  1.00 20.00    -0.006 A 
HETATM    5  C1  UNL     1     -33.245  16.257  -3.150  1.00 20.00     0.006 A 
HETATM    6  C2  UNL     1     -34.380  16.303  -2.166  1.00 20.00     0.006 A 
ENDBRANCH   3   4
BRANCH   3   7
HETATM    7  C9  UNL     1     -34.932  15.819  -5.541  1.00 20.00     0.006 C 
HETATM    8  C7  UNL     1     -34.130  15.018  -6.524  1.00 20.00     0.006 C 
ENDBRANCH   3   7
BRANCH   2   9
HETATM    9  C8  UNL     1     -37.877  15.433  -4.780  1.00 20.00     0.120 C 
HETATM   10 CL10 UNL     1     -39.475  15.024  -4.100  1.00 20.00    -0.130 Cl
ENDBRANCH   2   9
TORSDOF 3
ENDMDL
MODEL 2
REMARK VINA RESULT:      -3.8      1.455      1.943
REMARK  3 active torsions:
REMARK  status: ('A' for Active; 'I' for Inactive)
REMARK    1  A    between atoms: C4_4  and  C6_6 
REMARK    2  A    between atoms: C5_5  and  C8_8 
REMARK    3  A    between atoms: C6_6  and  C9_9 
ROOT
HETATM    1  C3  UNL     1     -33.683  14.766  -4.434  1.00 20.00     0.017 A 
HETATM    2  C5  UNL     1     -35.009  14.298  -3.906  1.00 20.00     0.009 A 
HETATM    3  C6  UNL     1     -34.573  15.746  -3.688  1.00 20.00    -0.032 A 
ENDROOT
BRANCH   3   4
HETATM    4  C4  UNL     1     -34.197  16.205  -2.270  1.00 20.00    -0.006 A 
HETATM    5  C1  UNL     1     -34.309  17.637  -1.825  1.00 20.00     0.006 A 
HETATM    6  C2  UNL     1     -35.225  16.596  -1.244  1.00 20.00     0.006 A 
ENDBRANCH   3   4
BRANCH   3   7
HETATM    7  C9  UNL     1     -35.222  16.833  -4.511  1.00 20.00     0.006 C 
HETATM    8  C7  UNL     1     -34.273  17.440  -5.501  1.00 20.00     0.006 C 
ENDBRANCH   3   7
BRANCH   2   9
HETATM    9  C8  UNL     1     -36.102  13.915  -4.844  1.00 20.00     0.120 C 
HETATM   10 CL10 UNL     1     -37.699  14.387  -4.203  1.00 20.00    -0.130 Cl
ENDBRANCH   2   9
TORSDOF 3
ENDMDL
MODEL 3
REMARK VINA RESULT:      -3.7      1.912      2.269
REMARK  3 active torsions:
REMARK  status: ('A' for Active; 'I' for Inactive)
REMARK    1  A    between atoms: C4_4  and  C6_6 
REMARK    2  A    between atoms: C5_5  and  C8_8 
REMARK    3  A    between atoms: C6_6  and  C9_9 
ROOT
HETATM    1  C3  UNL     1     -35.683  14.354  -3.803  1.00 20.00     0.017 A 
HETATM    2  C5  UNL     1     -36.132  15.711  -4.266  1.00 20.00     0.009 A 
HETATM    3  C6  UNL     1     -34.910  15.585  -3.359  1.00 20.00    -0.032 A 
ENDROOT
BRANCH   3   4
HETATM    4  C4  UNL     1     -35.005  16.075  -1.906  1.00 20.00    -0.006 A 
HETATM    5  C1  UNL     1     -34.181  17.216  -1.378  1.00 20.00     0.006 A 
HETATM    6  C2  UNL     1     -35.668  17.371  -1.528  1.00 20.00     0.006 A 
ENDBRANCH   3   4
BRANCH   3   7
HETATM    7  C9  UNL     1     -33.537  15.773  -3.959  1.00 20.00     0.006 C 
HETATM    8  C7  UNL     1     -32.907  14.472  -4.360  1.00 20.00     0.006 C 
ENDBRANCH   3   7
BRANCH   2   9
HETATM    9  C8  UNL     1     -36.037  16.086  -5.705  1.00 20.00     0.120 C 
HETATM   10 CL10 UNL     1     -35.727  14.656  -6.727  1.00 20.00    -0.130 Cl
ENDBRANCH   2   9
TORSDOF 3
ENDMDL
MODEL 4
REMARK VINA RESULT:      -3.7      3.261      4.477
REMARK  3 active torsions:
REMARK  status: ('A' for Active; 'I' for Inactive)
REMARK    1  A    between atoms: C4_4  and  C6_6 
REMARK    2  A    between atoms: C5_5  and  C8_8 
REMARK    3  A    between atoms: C6_6  and  C9_9 
ROOT
HETATM    1  C3  UNL     1     -34.862  16.403  -1.748  1.00 20.00     0.017 A 
HETATM    2  C5  UNL     1     -33.465  16.759  -2.173  1.00 20.00     0.009 A 
HETATM    3  C6  UNL     1     -34.496  16.348  -3.222  1.00 20.00    -0.032 A 
ENDROOT
BRANCH   3   4
HETATM    4  C4  UNL     1     -34.341  14.992  -3.930  1.00 20.00    -0.006 A 
HETATM    5  C1  UNL     1     -34.069  14.872  -5.404  1.00 20.00     0.006 A 
HETATM    6  C2  UNL     1     -33.013  14.475  -4.411  1.00 20.00     0.006 A 
ENDBRANCH   3   4
BRANCH   3   7
HETATM    7  C9  UNL     1     -35.097  17.413  -4.108  1.00 20.00     0.006 C 
HETATM    8  C7  UNL     1     -36.595  17.347  -4.143  1.00 20.00     0.006 C 
ENDBRANCH   3   7
BRANCH   2   9
HETATM    9  C8  UNL     1     -32.967  18.156  -2.032  1.00 20.00     0.120 C 
HETATM   10 CL10 UNL     1     -31.577  18.237  -0.915  1.00 20.00    -0.130 Cl
ENDBRANCH   2   9
TORSDOF 3
ENDMDL
MODEL 5
REMARK VINA RESULT:      -3.7      1.807      2.937
REMARK  3 active torsions:
REMARK  status: ('A' for Active; 'I' for Inactive)
REMARK    1  A    between atoms: C4_4  and  C6_6 
REMARK    2  A    between atoms: C5_5  and  C8_8 
REMARK    3  A    between atoms: C6_6  and  C9_9 
ROOT
HETATM    1  C3  UNL     1     -35.473  16.520  -5.041  1.00 20.00     0.017 A 
HETATM    2  C5  UNL     1     -34.254  15.762  -5.485  1.00 20.00     0.009 A 
HETATM    3  C6  UNL     1     -35.027  15.301  -4.250  1.00 20.00    -0.032 A 
ENDROOT
BRANCH   3   4
HETATM    4  C4  UNL     1     -34.388  15.472  -2.863  1.00 20.00    -0.006 A 
HETATM    5  C1  UNL     1     -33.818  16.780  -2.387  1.00 20.00     0.006 A 
HETATM    6  C2  UNL     1     -35.059  16.224  -1.747  1.00 20.00     0.006 A 
ENDBRANCH   3   4
BRANCH   3   7
HETATM    7  C9  UNL     1     -35.896  14.071  -4.355  1.00 20.00     0.006 C 
HETATM    8  C7  UNL     1     -37.359  14.401  -4.299  1.00 20.00     0.006 C 
ENDBRANCH   3   7
BRANCH   2   9
HETATM    9  C8  UNL     1     -34.259  15.010  -6.771  1.00 20.00     0.120 C 
HETATM   10 CL10 UNL     1     -35.705  15.401  -7.742  1.00 20.00    -0.130 Cl
ENDBRANCH   2   9
TORSDOF 3
ENDMDL
MODEL 6
REMARK VINA RESULT:      -3.7     10.788     11.953
REMARK  3 active torsions:
REMARK  status: ('A' for Active; 'I' for Inactive)
REMARK    1  A    between atoms: C4_4  and  C6_6 
REMARK    2  A    between atoms: C5_5  and  C8_8 
REMARK    3  A    between atoms: C6_6  and  C9_9 
ROOT
HETATM    1  C3  UNL     1     -31.602   7.400   3.189  1.00 20.00     0.017 A 
HETATM    2  C5  UNL     1     -32.457   7.439   1.954  1.00 20.00     0.009 A 
HETATM    3  C6  UNL     1     -32.900   6.611   3.158  1.00 20.00    -0.032 A 
ENDROOT
BRANCH   3   4
HETATM    4  C4  UNL     1     -32.870   5.077   3.060  1.00 20.00    -0.006 A 
HETATM    5  C1  UNL     1     -34.046   4.216   3.433  1.00 20.00     0.006 A 
HETATM    6  C2  UNL     1     -33.613   4.316   1.997  1.00 20.00     0.006 A 
ENDBRANCH   3   4
BRANCH   3   7
HETATM    7  C9  UNL     1     -34.027   7.127   4.021  1.00 20.00     0.006 C 
HETATM    8  C7  UNL     1     -33.735   6.982   5.485  1.00 20.00     0.006 C 
ENDBRANCH   3   7
BRANCH   2   9
HETATM    9  C8  UNL     1     -33.135   8.702   1.545  1.00 20.00     0.120 C 
HETATM   10 CL10 UNL     1     -33.337   8.782  -0.226  1.00 20.00    -0.130 Cl
ENDBRANCH   2   9
TORSDOF 3
ENDMDL
MODEL 7
REMARK VINA RESULT:      -3.6     17.132     18.984
REMARK  3 active torsions:
REMARK  status: ('A' for Active; 'I' for Inactive)
REMARK    1  A    between atoms: C4_4  and  C6_6 
REMARK    2  A    between atoms: C5_5  and  C8_8 
REMARK    3  A    between atoms: C6_6  and  C9_9 
ROOT
HETATM    1  C3  UNL     1     -21.924  18.380  10.759  1.00 20.00     0.017 A 
HETATM    2  C5  UNL     1     -23.264  17.837  11.168  1.00 20.00     0.009 A 
HETATM    3  C6  UNL     1     -22.946  18.035   9.687  1.00 20.00    -0.032 A 
ENDROOT
BRANCH   3   4
HETATM    4  C4  UNL     1     -23.661  19.154   8.914  1.00 20.00    -0.006 A 
HETATM    5  C1  UNL     1     -24.374  18.913   7.611  1.00 20.00     0.006 A 
HETATM    6  C2  UNL     1     -25.160  19.263   8.844  1.00 20.00     0.006 A 
ENDBRANCH   3   4
BRANCH   3   7
HETATM    7  C9  UNL     1     -22.652  16.822   8.838  1.00 20.00     0.006 C 
HETATM    8  C7  UNL     1     -21.426  17.001   7.993  1.00 20.00     0.006 C 
ENDBRANCH   3   7
BRANCH   2   9
HETATM    9  C8  UNL     1     -23.372  16.492  11.800  1.00 20.00     0.120 C 
HETATM   10 CL10 UNL     1     -25.036  15.857  11.687  1.00 20.00    -0.130 Cl
ENDBRANCH   2   9
TORSDOF 3
ENDMDL
MODEL 8
REMARK VINA RESULT:      -3.5      2.888      4.398
REMARK  3 active torsions:
REMARK  status: ('A' for Active; 'I' for Inactive)
REMARK    1  A    between atoms: C4_4  and  C6_6 
REMARK    2  A    between atoms: C5_5  and  C8_8 
REMARK    3  A    between atoms: C6_6  and  C9_9 
ROOT
HETATM    1  C3  UNL     1     -34.999  16.129  -1.810  1.00 20.00     0.017 A 
HETATM    2  C5  UNL     1     -33.945  15.916  -2.859  1.00 20.00     0.009 A 
HETATM    3  C6  UNL     1     -35.421  15.910  -3.253  1.00 20.00    -0.032 A 
ENDROOT
BRANCH   3   4
HETATM    4  C4  UNL     1     -36.075  14.584  -3.673  1.00 20.00    -0.006 A 
HETATM    5  C1  UNL     1     -37.354  14.524  -4.463  1.00 20.00     0.006 A 
HETATM    6  C2  UNL     1     -36.061  14.085  -5.092  1.00 20.00     0.006 A 
ENDBRANCH   3   4
BRANCH   3   7
HETATM    7  C9  UNL     1     -35.983  17.106  -3.983  1.00 20.00     0.006 C 
HETATM    8  C7  UNL     1     -36.883  17.933  -3.113  1.00 20.00     0.006 C 
ENDBRANCH   3   7
BRANCH   2   9
HETATM    9  C8  UNL     1     -33.013  17.019  -3.228  1.00 20.00     0.120 C 
HETATM   10 CL10 UNL     1     -32.425  17.879  -1.779  1.00 20.00    -0.130 Cl
ENDBRANCH   2   9
TORSDOF 3
ENDMDL
MODEL 9
REMARK VINA RESULT:      -3.5      2.521      4.043
REMARK  3 active torsions:
REMARK  status: ('A' for Active; 'I' for Inactive)
REMARK    1  A    between atoms: C4_4  and  C6_6 
REMARK    2  A    between atoms: C5_5  and  C8_8 
REMARK    3  A    between atoms: C6_6  and  C9_9 
ROOT
HETATM    1  C3  UNL     1     -35.562  17.214  -2.748  1.00 20.00     0.017 A 
HETATM    2  C5  UNL     1     -35.176  16.619  -1.423  1.00 20.00     0.009 A 
HETATM    3  C6  UNL     1     -34.291  16.387  -2.646  1.00 20.00    -0.032 A 
ENDROOT
BRANCH   3   4
HETATM    4  C4  UNL     1     -34.232  14.983  -3.268  1.00 20.00    -0.006 A 
HETATM    5  C1  UNL     1     -35.357  14.408  -4.084  1.00 20.00     0.006 A 
HETATM    6  C2  UNL     1     -34.052  14.755  -4.744  1.00 20.00     0.006 A 
ENDBRANCH   3   4
BRANCH   3   7
HETATM    7  C9  UNL     1     -32.985  17.138  -2.752  1.00 20.00     0.006 C 
HETATM    8  C7  UNL     1     -33.050  18.255  -3.750  1.00 20.00     0.006 C 
ENDBRANCH   3   7
BRANCH   2   9
HETATM    9  C8  UNL     1     -34.776  17.499  -0.289  1.00 20.00     0.120 C 
HETATM   10 CL10 UNL     1     -35.925  17.365   1.070  1.00 20.00    -0.130 Cl
ENDBRANCH   2   9
TORSDOF 3
ENDMDL
