MODEL 1
REMARK VINA RESULT:      -4.2      0.000      0.000
REMARK  2 active torsions:
REMARK  status: ('A' for Active; 'I' for Inactive)
REMARK    1  A    between atoms: C3_3  and  C9_9 
REMARK    2  A    between atoms: C4_4  and  C10_10 
ROOT
HETATM    1  C1  UNL     1     -35.789  13.839  -4.230  1.00 20.00     0.131 C 
HETATM    2  C2  UNL     1     -36.518  15.122  -3.789  1.00 20.00     0.084 C 
HETATM    3  C3  UNL     1     -34.440  14.339  -3.657  1.00 20.00     0.060 C 
HETATM    4  C4  UNL     1     -35.275  15.439  -2.912  1.00 20.00     0.011 C 
HETATM    5  O11 UNL     1     -36.138  12.833  -4.807  1.00 20.00    -0.298 OA
ENDROOT
BRANCH   4   6
HETATM    6  C10 UNL     1     -34.796  16.879  -2.947  1.00 20.00    -0.047 C 
HETATM    7  C6  UNL     1     -35.735  17.771  -2.111  1.00 20.00     0.015 C 
HETATM    8  C7  UNL     1     -34.778  17.396  -4.398  1.00 20.00     0.015 C 
HETATM    9  C8  UNL     1     -33.370  16.976  -2.366  1.00 20.00     0.015 C 
ENDBRANCH   4   6
BRANCH   3  10
HETATM   10  C9  UNL     1     -33.424  14.745  -4.709  1.00 20.00     0.008 C 
HETATM   11  C5  UNL     1     -32.067  14.182  -4.424  1.00 20.00     0.006 C 
ENDBRANCH   3  10
TORSDOF 2
ENDMDL
MODEL 2
REMARK VINA RESULT:      -4.2      0.013      1.309
REMARK  2 active torsions:
REMARK  status: ('A' for Active; 'I' for Inactive)
REMARK    1  A    between atoms: C3_3  and  C9_9 
REMARK    2  A    between atoms: C4_4  and  C10_10 
ROOT
HETATM    1  C1  UNL     1     -35.786  13.844  -4.233  1.00 20.00     0.131 C 
HETATM    2  C2  UNL     1     -36.510  15.128  -3.788  1.00 20.00     0.084 C 
HETATM    3  C3  UNL     1     -34.436  14.336  -3.657  1.00 20.00     0.060 C 
HETATM    4  C4  UNL     1     -35.267  15.436  -2.908  1.00 20.00     0.011 C 
HETATM    5  O11 UNL     1     -36.138  12.841  -4.815  1.00 20.00    -0.298 OA
ENDROOT
BRANCH   4   6
HETATM    6  C10 UNL     1     -34.782  16.875  -2.938  1.00 20.00    -0.047 C 
HETATM    7  C6  UNL     1     -34.763  17.398  -4.387  1.00 20.00     0.015 C 
HETATM    8  C7  UNL     1     -33.359  16.966  -2.355  1.00 20.00     0.015 C 
HETATM    9  C8  UNL     1     -35.722  17.766  -2.100  1.00 20.00     0.015 C 
ENDBRANCH   4   6
BRANCH   3  10
HETATM   10  C9  UNL     1     -33.417  14.742  -4.707  1.00 20.00     0.008 C 
HETATM   11  C5  UNL     1     -32.058  14.187  -4.413  1.00 20.00     0.006 C 
ENDBRANCH   3  10
TORSDOF 2
ENDMDL
MODEL 3
REMARK VINA RESULT:      -4.2      0.008      1.312
REMARK  2 active torsions:
REMARK  status: ('A' for Active; 'I' for Inactive)
REMARK    1  A    between atoms: C3_3  and  C9_9 
REMARK    2  A    between atoms: C4_4  and  C10_10 
ROOT
HETATM    1  C1  UNL     1     -35.787  13.839  -4.231  1.00 20.00     0.131 C 
HETATM    2  C2  UNL     1     -36.515  15.120  -3.786  1.00 20.00     0.084 C 
HETATM    3  C3  UNL     1     -34.437  14.337  -3.659  1.00 20.00     0.060 C 
HETATM    4  C4  UNL     1     -35.271  15.435  -2.910  1.00 20.00     0.011 C 
HETATM    5  O11 UNL     1     -36.136  12.834  -4.810  1.00 20.00    -0.298 OA
ENDROOT
BRANCH   4   6
HETATM    6  C10 UNL     1     -34.793  16.875  -2.942  1.00 20.00    -0.047 C 
HETATM    7  C6  UNL     1     -33.364  16.973  -2.372  1.00 20.00     0.015 C 
HETATM    8  C7  UNL     1     -35.727  17.764  -2.098  1.00 20.00     0.015 C 
HETATM    9  C8  UNL     1     -34.786  17.397  -4.393  1.00 20.00     0.015 C 
ENDBRANCH   4   6
BRANCH   3  10
HETATM   10  C9  UNL     1     -33.423  14.746  -4.712  1.00 20.00     0.008 C 
HETATM   11  C5  UNL     1     -32.065  14.185  -4.429  1.00 20.00     0.006 C 
ENDBRANCH   3  10
TORSDOF 2
ENDMDL
MODEL 4
REMARK VINA RESULT:      -4.1      1.545      3.083
REMARK  2 active torsions:
REMARK  status: ('A' for Active; 'I' for Inactive)
REMARK    1  A    between atoms: C3_3  and  C9_9 
REMARK    2  A    between atoms: C4_4  and  C10_10 
ROOT
HETATM    1  C1  UNL     1     -37.304  14.424  -4.410  1.00 20.00     0.131 C 
HETATM    2  C2  UNL     1     -35.884  13.879  -4.169  1.00 20.00     0.084 C 
HETATM    3  C3  UNL     1     -36.781  15.870  -4.591  1.00 20.00     0.060 C 
HETATM    4  C4  UNL     1     -35.351  15.235  -4.710  1.00 20.00     0.011 C 
HETATM    5  O11 UNL     1     -38.403  13.916  -4.439  1.00 20.00    -0.298 OA
ENDROOT
BRANCH   4   6
HETATM    6  C10 UNL     1     -34.204  15.848  -3.929  1.00 20.00    -0.047 C 
HETATM    7  C6  UNL     1     -34.531  15.854  -2.423  1.00 20.00     0.015 C 
HETATM    8  C7  UNL     1     -33.962  17.298  -4.391  1.00 20.00     0.015 C 
HETATM    9  C8  UNL     1     -32.915  15.032  -4.154  1.00 20.00     0.015 C 
ENDBRANCH   4   6
BRANCH   3  10
HETATM   10  C9  UNL     1     -37.100  16.801  -3.436  1.00 20.00     0.008 C 
HETATM   11  C5  UNL     1     -37.610  18.127  -3.910  1.00 20.00     0.006 C 
ENDBRANCH   3  10
TORSDOF 2
ENDMDL
MODEL 5
REMARK VINA RESULT:      -4.1      1.620      2.949
REMARK  2 active torsions:
REMARK  status: ('A' for Active; 'I' for Inactive)
REMARK    1  A    between atoms: C3_3  and  C9_9 
REMARK    2  A    between atoms: C4_4  and  C10_10 
ROOT
HETATM    1  C1  UNL     1     -35.910  13.693  -4.640  1.00 20.00     0.131 C 
HETATM    2  C2  UNL     1     -36.031  14.463  -5.968  1.00 20.00     0.084 C 
HETATM    3  C3  UNL     1     -36.048  14.991  -3.808  1.00 20.00     0.060 C 
HETATM    4  C4  UNL     1     -36.529  15.676  -5.135  1.00 20.00     0.011 C 
HETATM    5  O11 UNL     1     -35.759  12.524  -4.359  1.00 20.00    -0.298 OA
ENDROOT
BRANCH   4   6
HETATM    6  C10 UNL     1     -35.948  17.023  -5.523  1.00 20.00    -0.047 C 
HETATM    7  C6  UNL     1     -34.412  16.932  -5.611  1.00 20.00     0.015 C 
HETATM    8  C7  UNL     1     -36.325  18.086  -4.473  1.00 20.00     0.015 C 
HETATM    9  C8  UNL     1     -36.499  17.461  -6.895  1.00 20.00     0.015 C 
ENDBRANCH   4   6
BRANCH   3  10
HETATM   10  C9  UNL     1     -34.762  15.450  -3.144  1.00 20.00     0.008 C 
HETATM   11  C5  UNL     1     -35.017  16.109  -1.825  1.00 20.00     0.006 C 
ENDBRANCH   3  10
TORSDOF 2
ENDMDL
MODEL 6
REMARK VINA RESULT:      -4.1      1.132      1.582
REMARK  2 active torsions:
REMARK  status: ('A' for Active; 'I' for Inactive)
REMARK    1  A    between atoms: C3_3  and  C9_9 
REMARK    2  A    between atoms: C4_4  and  C10_10 
ROOT
HETATM    1  C1  UNL     1     -35.841  14.032  -4.674  1.00 20.00     0.131 C 
HETATM    2  C2  UNL     1     -36.280  14.807  -3.419  1.00 20.00     0.084 C 
HETATM    3  C3  UNL     1     -34.431  14.670  -4.646  1.00 20.00     0.060 C 
HETATM    4  C4  UNL     1     -34.781  15.146  -3.193  1.00 20.00     0.011 C 
HETATM    5  O11 UNL     1     -36.391  13.235  -5.403  1.00 20.00    -0.298 OA
ENDROOT
BRANCH   4   6
HETATM    6  C10 UNL     1     -34.484  16.580  -2.794  1.00 20.00    -0.047 C 
HETATM    7  C6  UNL     1     -35.250  17.554  -3.709  1.00 20.00     0.015 C 
HETATM    8  C7  UNL     1     -32.974  16.863  -2.918  1.00 20.00     0.015 C 
HETATM    9  C8  UNL     1     -34.918  16.823  -1.334  1.00 20.00     0.015 C 
ENDBRANCH   4   6
BRANCH   3  10
HETATM   10  C9  UNL     1     -34.185  15.696  -5.738  1.00 20.00     0.008 C 
HETATM   11  C5  UNL     1     -33.703  15.060  -7.005  1.00 20.00     0.006 C 
ENDBRANCH   3  10
TORSDOF 2
ENDMDL
MODEL 7
REMARK VINA RESULT:      -4.0      1.127      1.903
REMARK  2 active torsions:
REMARK  status: ('A' for Active; 'I' for Inactive)
REMARK    1  A    between atoms: C3_3  and  C9_9 
REMARK    2  A    between atoms: C4_4  and  C10_10 
ROOT
HETATM    1  C1  UNL     1     -35.824  14.017  -4.679  1.00 20.00     0.131 C 
HETATM    2  C2  UNL     1     -36.278  14.791  -3.429  1.00 20.00     0.084 C 
HETATM    3  C3  UNL     1     -34.417  14.662  -4.640  1.00 20.00     0.060 C 
HETATM    4  C4  UNL     1     -34.782  15.137  -3.190  1.00 20.00     0.011 C 
HETATM    5  O11 UNL     1     -36.363  13.217  -5.413  1.00 20.00    -0.298 OA
ENDROOT
BRANCH   4   6
HETATM    6  C10 UNL     1     -34.496  16.573  -2.789  1.00 20.00    -0.047 C 
HETATM    7  C6  UNL     1     -32.988  16.867  -2.910  1.00 20.00     0.015 C 
HETATM    8  C7  UNL     1     -34.935  16.815  -1.332  1.00 20.00     0.015 C 
HETATM    9  C8  UNL     1     -35.267  17.542  -3.709  1.00 20.00     0.015 C 
ENDBRANCH   4   6
BRANCH   3  10
HETATM   10  C9  UNL     1     -34.167  15.688  -5.730  1.00 20.00     0.008 C 
HETATM   11  C5  UNL     1     -33.705  15.051  -7.004  1.00 20.00     0.006 C 
ENDBRANCH   3  10
TORSDOF 2
ENDMDL
MODEL 8
REMARK VINA RESULT:      -4.0      1.189      2.639
REMARK  2 active torsions:
REMARK  status: ('A' for Active; 'I' for Inactive)
REMARK    1  A    between atoms: C3_3  and  C9_9 
REMARK    2  A    between atoms: C4_4  and  C10_10 
ROOT
HETATM    1  C1  UNL     1     -35.625  13.871  -4.447  1.00 20.00     0.131 C 
HETATM    2  C2  UNL     1     -34.380  14.275  -3.636  1.00 20.00     0.084 C 
HETATM    3  C3  UNL     1     -36.045  15.347  -4.647  1.00 20.00     0.060 C 
HETATM    4  C4  UNL     1     -34.605  15.723  -4.150  1.00 20.00     0.011 C 
HETATM    5  O11 UNL     1     -36.094  12.808  -4.788  1.00 20.00    -0.298 OA
ENDROOT
BRANCH   4   6
HETATM    6  C10 UNL     1     -34.445  16.821  -3.114  1.00 20.00    -0.047 C 
HETATM    7  C6  UNL     1     -35.118  16.403  -1.791  1.00 20.00     0.015 C 
HETATM    8  C7  UNL     1     -35.099  18.123  -3.615  1.00 20.00     0.015 C 
HETATM    9  C8  UNL     1     -32.949  17.084  -2.849  1.00 20.00     0.015 C 
ENDBRANCH   4   6
BRANCH   3  10
HETATM   10  C9  UNL     1     -37.258  15.769  -3.838  1.00 20.00     0.008 C 
HETATM   11  C5  UNL     1     -38.290  16.445  -4.687  1.00 20.00     0.006 C 
ENDBRANCH   3  10
TORSDOF 2
ENDMDL
MODEL 9
REMARK VINA RESULT:      -3.9      1.991      3.535
REMARK  2 active torsions:
REMARK  status: ('A' for Active; 'I' for Inactive)
REMARK    1  A    between atoms: C3_3  and  C9_9 
REMARK    2  A    between atoms: C4_4  and  C10_10 
ROOT
HETATM    1  C1  UNL     1     -36.163  15.587  -6.653  1.00 20.00     0.131 C 
HETATM    2  C2  UNL     1     -34.679  15.576  -6.243  1.00 20.00     0.084 C 
HETATM    3  C3  UNL     1     -36.625  15.802  -5.191  1.00 20.00     0.060 C 
HETATM    4  C4  UNL     1     -35.129  16.151  -4.872  1.00 20.00     0.011 C 
HETATM    5  O11 UNL     1     -36.742  15.467  -7.710  1.00 20.00    -0.298 OA
ENDROOT
BRANCH   4   6
HETATM    6  C10 UNL     1     -34.471  15.530  -3.652  1.00 20.00    -0.047 C 
HETATM    7  C6  UNL     1     -34.400  13.999  -3.809  1.00 20.00     0.015 C 
HETATM    8  C7  UNL     1     -35.282  15.864  -2.385  1.00 20.00     0.015 C 
HETATM    9  C8  UNL     1     -33.040  16.080  -3.487  1.00 20.00     0.015 C 
ENDBRANCH   4   6
BRANCH   3  10
HETATM   10  C9  UNL     1     -37.271  14.587  -4.552  1.00 20.00     0.008 C 
HETATM   11  C5  UNL     1     -38.698  14.842  -4.177  1.00 20.00     0.006 C 
ENDBRANCH   3  10
TORSDOF 2
ENDMDL
