MODEL 1
REMARK VINA RESULT:      -4.2      0.000      0.000
REMARK  2 active torsions:
REMARK  status: ('A' for Active; 'I' for Inactive)
REMARK    1  A    between atoms: C4_4  and  C9_9 
REMARK    2  A    between atoms: C5_5  and  C6_6 
ROOT
HETATM    1  C3  UNL     1     -35.599  14.278  -4.048  1.00 20.00     0.017 A 
HETATM    2  C4  UNL     1     -35.397  15.285  -5.145  1.00 20.00     0.009 A 
HETATM    3  C6  UNL     1     -34.352  15.149  -4.038  1.00 20.00    -0.032 A 
HETATM    4  C8  UNL     1     -33.046  14.461  -4.354  1.00 20.00     0.016 C 
ENDROOT
BRANCH   3   5
HETATM    5  C5  UNL     1     -34.207  16.278  -3.006  1.00 20.00    -0.036 A 
HETATM    6  C1  UNL     1     -32.858  16.908  -2.752  1.00 20.00     0.011 A 
HETATM    7  C2  UNL     1     -33.927  17.692  -3.458  1.00 20.00     0.011 A 
HETATM    8  C7  UNL     1     -35.113  16.122  -1.809  1.00 20.00     0.016 C 
ENDBRANCH   3   5
BRANCH   2   9
HETATM    9  C9  UNL     1     -35.157  14.839  -6.546  1.00 20.00     0.120 C 
HETATM   10 CL10 UNL     1     -34.206  16.045  -7.455  1.00 20.00    -0.130 Cl
ENDBRANCH   2   9
TORSDOF 2
ENDMDL
MODEL 2
REMARK VINA RESULT:      -4.1      2.477      4.026
REMARK  2 active torsions:
REMARK  status: ('A' for Active; 'I' for Inactive)
REMARK    1  A    between atoms: C4_4  and  C9_9 
REMARK    2  A    between atoms: C5_5  and  C6_6 
ROOT
HETATM    1  C3  UNL     1     -34.789  16.291  -1.957  1.00 20.00     0.017 A 
HETATM    2  C4  UNL     1     -33.410  16.684  -2.405  1.00 20.00     0.009 A 
HETATM    3  C6  UNL     1     -34.463  16.296  -3.442  1.00 20.00    -0.032 A 
HETATM    4  C8  UNL     1     -35.103  17.385  -4.270  1.00 20.00     0.016 C 
ENDROOT
BRANCH   3   5
HETATM    5  C5  UNL     1     -34.308  14.970  -4.204  1.00 20.00    -0.036 A 
HETATM    6  C1  UNL     1     -33.775  14.962  -5.617  1.00 20.00     0.011 A 
HETATM    7  C2  UNL     1     -32.933  14.418  -4.498  1.00 20.00     0.011 A 
HETATM    8  C7  UNL     1     -35.384  13.961  -3.884  1.00 20.00     0.016 C 
ENDBRANCH   3   5
BRANCH   2   9
HETATM    9  C9  UNL     1     -32.927  18.081  -2.224  1.00 20.00     0.120 C 
HETATM   10 CL10 UNL     1     -31.666  18.172  -0.963  1.00 20.00    -0.130 Cl
ENDBRANCH   2   9
TORSDOF 2
ENDMDL
MODEL 3
REMARK VINA RESULT:      -4.1      1.910      2.615
REMARK  2 active torsions:
REMARK  status: ('A' for Active; 'I' for Inactive)
REMARK    1  A    between atoms: C4_4  and  C9_9 
REMARK    2  A    between atoms: C5_5  and  C6_6 
ROOT
HETATM    1  C3  UNL     1     -33.571  14.759  -4.176  1.00 20.00     0.017 A 
HETATM    2  C4  UNL     1     -34.970  14.463  -3.717  1.00 20.00     0.009 A 
HETATM    3  C6  UNL     1     -34.507  15.913  -3.855  1.00 20.00    -0.032 A 
HETATM    4  C8  UNL     1     -35.004  16.725  -5.027  1.00 20.00     0.016 C 
ENDROOT
BRANCH   3   5
HETATM    5  C5  UNL     1     -34.293  16.752  -2.587  1.00 20.00    -0.036 A 
HETATM    6  C1  UNL     1     -35.315  17.785  -2.174  1.00 20.00     0.011 A 
HETATM    7  C2  UNL     1     -35.158  16.527  -1.369  1.00 20.00     0.011 A 
HETATM    8  C7  UNL     1     -32.846  17.097  -2.328  1.00 20.00     0.016 C 
ENDBRANCH   3   5
BRANCH   2   9
HETATM    9  C9  UNL     1     -35.953  13.834  -4.643  1.00 20.00     0.120 C 
HETATM   10 CL10 UNL     1     -37.620  14.354  -4.270  1.00 20.00    -0.130 Cl
ENDBRANCH   2   9
TORSDOF 2
ENDMDL
MODEL 4
REMARK VINA RESULT:      -3.9      2.205      3.439
REMARK  2 active torsions:
REMARK  status: ('A' for Active; 'I' for Inactive)
REMARK    1  A    between atoms: C4_4  and  C9_9 
REMARK    2  A    between atoms: C5_5  and  C6_6 
ROOT
HETATM    1  C3  UNL     1     -33.135  16.208  -3.099  1.00 20.00     0.017 A 
HETATM    2  C4  UNL     1     -34.461  15.929  -2.451  1.00 20.00     0.009 A 
HETATM    3  C6  UNL     1     -33.938  17.363  -2.523  1.00 20.00    -0.032 A 
HETATM    4  C8  UNL     1     -34.561  18.314  -3.516  1.00 20.00     0.016 C 
ENDROOT
BRANCH   3   5
HETATM    5  C5  UNL     1     -33.478  18.055  -1.231  1.00 20.00    -0.036 A 
HETATM    6  C1  UNL     1     -34.272  19.206  -0.659  1.00 20.00     0.011 A 
HETATM    7  C2  UNL     1     -34.264  17.881   0.048  1.00 20.00     0.011 A 
HETATM    8  C7  UNL     1     -31.977  18.138  -1.091  1.00 20.00     0.016 C 
ENDBRANCH   3   5
BRANCH   2   9
HETATM    9  C9  UNL     1     -35.612  15.444  -3.263  1.00 20.00     0.120 C 
HETATM   10 CL10 UNL     1     -35.230  13.897  -4.068  1.00 20.00    -0.130 Cl
ENDBRANCH   2   9
TORSDOF 2
ENDMDL
MODEL 5
REMARK VINA RESULT:      -3.9     17.041     18.551
REMARK  2 active torsions:
REMARK  status: ('A' for Active; 'I' for Inactive)
REMARK    1  A    between atoms: C4_4  and  C9_9 
REMARK    2  A    between atoms: C5_5  and  C6_6 
ROOT
HETATM    1  C3  UNL     1     -23.345  17.909  12.205  1.00 20.00     0.017 A 
HETATM    2  C4  UNL     1     -24.649  18.420  11.662  1.00 20.00     0.009 A 
HETATM    3  C6  UNL     1     -23.833  17.412  10.854  1.00 20.00    -0.032 A 
HETATM    4  C8  UNL     1     -24.305  15.978  10.793  1.00 20.00     0.016 C 
ENDROOT
BRANCH   3   5
HETATM    5  C5  UNL     1     -23.140  17.875   9.563  1.00 20.00    -0.036 A 
HETATM    6  C1  UNL     1     -21.697  18.319   9.591  1.00 20.00     0.011 A 
HETATM    7  C2  UNL     1     -22.066  17.023   8.928  1.00 20.00     0.011 A 
HETATM    8  C7  UNL     1     -24.055  18.617   8.620  1.00 20.00     0.016 C 
ENDBRANCH   3   5
BRANCH   2   9
HETATM    9  C9  UNL     1     -25.935  18.072  12.330  1.00 20.00     0.120 C 
HETATM   10 CL10 UNL     1     -27.320  18.846  11.512  1.00 20.00    -0.130 Cl
ENDBRANCH   2   9
TORSDOF 2
ENDMDL
MODEL 6
REMARK VINA RESULT:      -3.8     10.998     11.895
REMARK  2 active torsions:
REMARK  status: ('A' for Active; 'I' for Inactive)
REMARK    1  A    between atoms: C4_4  and  C9_9 
REMARK    2  A    between atoms: C5_5  and  C6_6 
ROOT
HETATM    1  C3  UNL     1     -32.604   5.920   2.253  1.00 20.00     0.017 A 
HETATM    2  C4  UNL     1     -33.433   7.156   2.052  1.00 20.00     0.009 A 
HETATM    3  C6  UNL     1     -33.016   6.744   3.463  1.00 20.00    -0.032 A 
HETATM    4  C8  UNL     1     -31.922   7.523   4.153  1.00 20.00     0.016 C 
ENDROOT
BRANCH   3   5
HETATM    5  C5  UNL     1     -34.084   6.214   4.432  1.00 20.00    -0.036 A 
HETATM    6  C1  UNL     1     -35.439   5.792   3.916  1.00 20.00     0.011 A 
HETATM    7  C2  UNL     1     -34.473   4.754   4.411  1.00 20.00     0.011 A 
HETATM    8  C7  UNL     1     -34.058   6.883   5.784  1.00 20.00     0.016 C 
ENDBRANCH   3   5
BRANCH   2   9
HETATM    9  C9  UNL     1     -32.864   8.342   1.352  1.00 20.00     0.120 C 
HETATM   10 CL10 UNL     1     -33.433   8.432  -0.338  1.00 20.00    -0.130 Cl
ENDBRANCH   2   9
TORSDOF 2
ENDMDL
MODEL 7
REMARK VINA RESULT:      -3.8      1.710      3.761
REMARK  2 active torsions:
REMARK  status: ('A' for Active; 'I' for Inactive)
REMARK    1  A    between atoms: C4_4  and  C9_9 
REMARK    2  A    between atoms: C5_5  and  C6_6 
ROOT
HETATM    1  C3  UNL     1     -32.912  16.960  -2.697  1.00 20.00     0.017 A 
HETATM    2  C4  UNL     1     -33.944  17.671  -3.525  1.00 20.00     0.009 A 
HETATM    3  C6  UNL     1     -34.208  16.246  -3.044  1.00 20.00    -0.032 A 
HETATM    4  C8  UNL     1     -35.184  16.031  -1.912  1.00 20.00     0.016 C 
ENDROOT
BRANCH   3   5
HETATM    5  C5  UNL     1     -34.210  15.100  -4.068  1.00 20.00    -0.036 A 
HETATM    6  C1  UNL     1     -35.385  14.155  -4.152  1.00 20.00     0.011 A 
HETATM    7  C2  UNL     1     -35.141  15.143  -5.257  1.00 20.00     0.011 A 
HETATM    8  C7  UNL     1     -32.845  14.500  -4.304  1.00 20.00     0.016 C 
ENDBRANCH   3   5
BRANCH   2   9
HETATM    9  C9  UNL     1     -34.663  18.857  -2.981  1.00 20.00     0.120 C 
HETATM   10 CL10 UNL     1     -36.243  19.080  -3.782  1.00 20.00    -0.130 Cl
ENDBRANCH   2   9
TORSDOF 2
ENDMDL
MODEL 8
REMARK VINA RESULT:      -3.8      2.155      2.962
REMARK  2 active torsions:
REMARK  status: ('A' for Active; 'I' for Inactive)
REMARK    1  A    between atoms: C4_4  and  C9_9 
REMARK    2  A    between atoms: C5_5  and  C6_6 
ROOT
HETATM    1  C3  UNL     1     -36.066  13.557  -4.694  1.00 20.00     0.017 A 
HETATM    2  C4  UNL     1     -36.779  14.638  -3.934  1.00 20.00     0.009 A 
HETATM    3  C6  UNL     1     -35.531  14.979  -4.747  1.00 20.00    -0.032 A 
HETATM    4  C8  UNL     1     -35.697  15.714  -6.056  1.00 20.00     0.016 C 
ENDROOT
BRANCH   3   5
HETATM    5  C5  UNL     1     -34.235  15.346  -4.008  1.00 20.00    -0.036 A 
HETATM    6  C1  UNL     1     -33.910  16.791  -3.713  1.00 20.00     0.011 A 
HETATM    7  C2  UNL     1     -34.289  15.868  -2.591  1.00 20.00     0.011 A 
HETATM    8  C7  UNL     1     -33.070  14.450  -4.351  1.00 20.00     0.016 C 
ENDBRANCH   3   5
BRANCH   2   9
HETATM    9  C9  UNL     1     -38.149  15.065  -4.334  1.00 20.00     0.120 C 
HETATM   10 CL10 UNL     1     -38.560  16.657  -3.638  1.00 20.00    -0.130 Cl
ENDBRANCH   2   9
TORSDOF 2
ENDMDL
MODEL 9
REMARK VINA RESULT:      -3.7      2.332      3.904
REMARK  2 active torsions:
REMARK  status: ('A' for Active; 'I' for Inactive)
REMARK    1  A    between atoms: C4_4  and  C9_9 
REMARK    2  A    between atoms: C5_5  and  C6_6 
ROOT
HETATM    1  C3  UNL     1     -33.045  16.027  -3.150  1.00 20.00     0.017 A 
HETATM    2  C4  UNL     1     -33.714  17.275  -3.649  1.00 20.00     0.009 A 
HETATM    3  C6  UNL     1     -34.554  16.164  -3.020  1.00 20.00    -0.032 A 
HETATM    4  C8  UNL     1     -35.096  16.366  -1.625  1.00 20.00     0.016 C 
ENDROOT
BRANCH   3   5
HETATM    5  C5  UNL     1     -35.485  15.334  -3.916  1.00 20.00    -0.036 A 
HETATM    6  C1  UNL     1     -36.972  15.597  -3.920  1.00 20.00     0.011 A 
HETATM    7  C2  UNL     1     -36.147  15.965  -5.119  1.00 20.00     0.011 A 
HETATM    8  C7  UNL     1     -35.055  13.894  -4.064  1.00 20.00     0.016 C 
ENDBRANCH   3   5
BRANCH   2   9
HETATM    9  C9  UNL     1     -33.469  18.584  -2.980  1.00 20.00     0.120 C 
HETATM   10 CL10 UNL     1     -32.107  18.478  -1.831  1.00 20.00    -0.130 Cl
ENDBRANCH   2   9
TORSDOF 2
ENDMDL
