MODEL 1
REMARK VINA RESULT:      -4.3      0.000      0.000
REMARK  1 active torsions:
REMARK  status: ('A' for Active; 'I' for Inactive)
REMARK    1  A    between atoms: C6_6  and  C8_8 
ROOT
HETATM    1  C1  UNL     1     -33.783   4.232   3.647  1.00 20.00     0.027 C 
HETATM    2  C2  UNL     1     -33.571   5.309   2.585  1.00 20.00     0.014 C 
HETATM    3  C3  UNL     1     -31.815   7.032   3.422  1.00 20.00     0.018 A 
HETATM    4  C4  UNL     1     -34.778   4.703   4.700  1.00 20.00     0.167 C 
HETATM    5  C5  UNL     1     -34.245   6.986   4.340  1.00 20.00     0.177 C 
HETATM    6  C6  UNL     1     -32.679   7.778   2.442  1.00 20.00     0.011 A 
HETATM    7  C7  UNL     1     -33.265   6.633   3.248  1.00 20.00    -0.014 A 
HETATM    8  O9  UNL     1     -34.332   5.924   5.293  1.00 20.00    -0.390 OA
ENDROOT
BRANCH   6   9
HETATM    9  C8  UNL     1     -32.416   7.679   0.978  1.00 20.00     0.120 C 
HETATM   10 CL10 UNL     1     -33.228   8.994   0.085  1.00 20.00    -0.130 Cl
ENDBRANCH   6   9
TORSDOF 1
ENDMDL
MODEL 2
REMARK VINA RESULT:      -4.3     11.066     11.814
REMARK  1 active torsions:
REMARK  status: ('A' for Active; 'I' for Inactive)
REMARK    1  A    between atoms: C6_6  and  C8_8 
ROOT
HETATM    1  C1  UNL     1     -36.102  14.908  -3.630  1.00 20.00     0.027 C 
HETATM    2  C2  UNL     1     -35.130  15.649  -2.714  1.00 20.00     0.014 C 
HETATM    3  C3  UNL     1     -33.756  17.366  -4.099  1.00 20.00     0.018 A 
HETATM    4  C4  UNL     1     -35.404  13.750  -4.334  1.00 20.00     0.167 C 
HETATM    5  C5  UNL     1     -33.286  14.812  -4.214  1.00 20.00     0.177 C 
HETATM    6  C6  UNL     1     -32.893  17.014  -2.917  1.00 20.00     0.011 A 
HETATM    7  C7  UNL     1     -33.868  15.991  -3.472  1.00 20.00    -0.014 A 
HETATM    8  O9  UNL     1     -34.273  14.225  -5.066  1.00 20.00    -0.390 OA
ENDROOT
BRANCH   6   9
HETATM    9  C8  UNL     1     -33.098  17.692  -1.606  1.00 20.00     0.120 C 
HETATM   10 CL10 UNL     1     -31.546  18.223  -0.902  1.00 20.00    -0.130 Cl
ENDBRANCH   6   9
TORSDOF 1
ENDMDL
MODEL 3
REMARK VINA RESULT:      -4.2     11.159     12.269
REMARK  1 active torsions:
REMARK  status: ('A' for Active; 'I' for Inactive)
REMARK    1  A    between atoms: C6_6  and  C8_8 
ROOT
HETATM    1  C1  UNL     1     -34.506  16.549  -6.052  1.00 20.00     0.027 C 
HETATM    2  C2  UNL     1     -35.142  16.682  -4.670  1.00 20.00     0.014 C 
HETATM    3  C3  UNL     1     -33.323  16.385  -2.837  1.00 20.00     0.018 A 
HETATM    4  C4  UNL     1     -34.377  15.083  -6.448  1.00 20.00     0.167 C 
HETATM    5  C5  UNL     1     -34.258  14.372  -4.189  1.00 20.00     0.177 C 
HETATM    6  C6  UNL     1     -34.619  15.975  -2.192  1.00 20.00     0.011 A 
HETATM    7  C7  UNL     1     -34.425  15.785  -3.686  1.00 20.00    -0.014 A 
HETATM    8  O9  UNL     1     -33.620  14.370  -5.468  1.00 20.00    -0.390 OA
ENDROOT
BRANCH   6   9
HETATM    9  C8  UNL     1     -35.536  17.003  -1.624  1.00 20.00     0.120 C 
HETATM   10 CL10 UNL     1     -35.455  17.028   0.159  1.00 20.00    -0.130 Cl
ENDBRANCH   6   9
TORSDOF 1
ENDMDL
MODEL 4
REMARK VINA RESULT:      -4.2     11.194     12.451
REMARK  1 active torsions:
REMARK  status: ('A' for Active; 'I' for Inactive)
REMARK    1  A    between atoms: C6_6  and  C8_8 
ROOT
HETATM    1  C1  UNL     1     -34.679  16.062  -6.998  1.00 20.00     0.027 C 
HETATM    2  C2  UNL     1     -34.667  16.382  -5.504  1.00 20.00     0.014 C 
HETATM    3  C3  UNL     1     -33.592  14.411  -4.195  1.00 20.00     0.018 A 
HETATM    4  C4  UNL     1     -35.882  15.197  -7.354  1.00 20.00     0.167 C 
HETATM    5  C5  UNL     1     -35.994  14.265  -5.175  1.00 20.00     0.177 C 
HETATM    6  C6  UNL     1     -34.516  15.089  -3.220  1.00 20.00     0.011 A 
HETATM    7  C7  UNL     1     -34.835  15.110  -4.705  1.00 20.00    -0.014 A 
HETATM    8  O9  UNL     1     -35.879  13.999  -6.575  1.00 20.00    -0.390 OA
ENDROOT
BRANCH   6   9
HETATM    9  C8  UNL     1     -34.069  16.300  -2.476  1.00 20.00     0.120 C 
HETATM   10 CL10 UNL     1     -35.173  16.673  -1.124  1.00 20.00    -0.130 Cl
ENDBRANCH   6   9
TORSDOF 1
ENDMDL
MODEL 5
REMARK VINA RESULT:      -4.1     10.571     11.543
REMARK  1 active torsions:
REMARK  status: ('A' for Active; 'I' for Inactive)
REMARK    1  A    between atoms: C6_6  and  C8_8 
ROOT
HETATM    1  C1  UNL     1     -34.808  13.523  -3.968  1.00 20.00     0.027 C 
HETATM    2  C2  UNL     1     -34.169  14.910  -3.935  1.00 20.00     0.014 C 
HETATM    3  C3  UNL     1     -34.944  16.182  -1.805  1.00 20.00     0.018 A 
HETATM    4  C4  UNL     1     -36.216  13.592  -4.547  1.00 20.00     0.167 C 
HETATM    5  C5  UNL     1     -36.509  15.840  -3.851  1.00 20.00     0.177 C 
HETATM    6  C6  UNL     1     -34.605  17.247  -2.811  1.00 20.00     0.011 A 
HETATM    7  C7  UNL     1     -35.112  15.895  -3.282  1.00 20.00    -0.014 A 
HETATM    8  O9  UNL     1     -37.018  14.505  -3.795  1.00 20.00    -0.390 OA
ENDROOT
BRANCH   6   9
HETATM    9  C8  UNL     1     -33.193  17.685  -2.997  1.00 20.00     0.120 C 
HETATM   10 CL10 UNL     1     -32.349  17.828  -1.431  1.00 20.00    -0.130 Cl
ENDBRANCH   6   9
TORSDOF 1
ENDMDL
MODEL 6
REMARK VINA RESULT:      -3.9     11.199     12.178
REMARK  1 active torsions:
REMARK  status: ('A' for Active; 'I' for Inactive)
REMARK    1  A    between atoms: C6_6  and  C8_8 
ROOT
HETATM    1  C1  UNL     1     -33.924  16.984  -1.660  1.00 20.00     0.027 C 
HETATM    2  C2  UNL     1     -34.791  15.998  -2.440  1.00 20.00     0.014 C 
HETATM    3  C3  UNL     1     -33.338  14.755  -4.199  1.00 20.00     0.018 A 
HETATM    4  C4  UNL     1     -33.772  18.292  -2.427  1.00 20.00     0.167 C 
HETATM    5  C5  UNL     1     -34.079  17.224  -4.523  1.00 20.00     0.177 C 
HETATM    6  C6  UNL     1     -34.740  14.735  -4.745  1.00 20.00     0.011 A 
HETATM    7  C7  UNL     1     -34.289  15.884  -3.861  1.00 20.00    -0.014 A 
HETATM    8  O9  UNL     1     -33.224  18.046  -3.723  1.00 20.00    -0.390 OA
ENDROOT
BRANCH   6   9
HETATM    9  C8  UNL     1     -35.712  13.702  -4.287  1.00 20.00     0.120 C 
HETATM   10 CL10 UNL     1     -37.391  14.297  -4.401  1.00 20.00    -0.130 Cl
ENDBRANCH   6   9
TORSDOF 1
ENDMDL
MODEL 7
REMARK VINA RESULT:      -3.8     10.961     12.116
REMARK  1 active torsions:
REMARK  status: ('A' for Active; 'I' for Inactive)
REMARK    1  A    between atoms: C6_6  and  C8_8 
ROOT
HETATM    1  C1  UNL     1     -34.797  17.319  -0.811  1.00 20.00     0.027 C 
HETATM    2  C2  UNL     1     -35.066  16.170  -1.780  1.00 20.00     0.014 C 
HETATM    3  C3  UNL     1     -33.061  15.913  -3.413  1.00 20.00     0.018 A 
HETATM    4  C4  UNL     1     -35.167  18.656  -1.443  1.00 20.00     0.167 C 
HETATM    5  C5  UNL     1     -34.781  17.848  -3.639  1.00 20.00     0.177 C 
HETATM    6  C6  UNL     1     -34.254  15.368  -4.149  1.00 20.00     0.011 A 
HETATM    7  C7  UNL     1     -34.438  16.472  -3.122  1.00 20.00    -0.014 A 
HETATM    8  O9  UNL     1     -34.452  18.842  -2.665  1.00 20.00    -0.390 OA
ENDROOT
BRANCH   6   9
HETATM    9  C8  UNL     1     -34.709  13.968  -3.915  1.00 20.00     0.120 C 
HETATM   10 CL10 UNL     1     -36.337  13.695  -4.593  1.00 20.00    -0.130 Cl
ENDBRANCH   6   9
TORSDOF 1
ENDMDL
MODEL 8
REMARK VINA RESULT:      -3.8     11.050     11.945
REMARK  1 active torsions:
REMARK  status: ('A' for Active; 'I' for Inactive)
REMARK    1  A    between atoms: C6_6  and  C8_8 
ROOT
HETATM    1  C1  UNL     1     -32.754  18.004  -2.114  1.00 20.00     0.027 C 
HETATM    2  C2  UNL     1     -33.105  16.606  -2.620  1.00 20.00     0.014 C 
HETATM    3  C3  UNL     1     -35.463  16.636  -3.712  1.00 20.00     0.018 A 
HETATM    4  C4  UNL     1     -33.365  18.248  -0.739  1.00 20.00     0.167 C 
HETATM    5  C5  UNL     1     -35.138  16.723  -1.135  1.00 20.00     0.177 C 
HETATM    6  C6  UNL     1     -35.254  15.224  -3.239  1.00 20.00     0.011 A 
HETATM    7  C7  UNL     1     -34.594  16.375  -2.500  1.00 20.00    -0.014 A 
HETATM    8  O9  UNL     1     -34.780  18.063  -0.785  1.00 20.00    -0.390 OA
ENDROOT
BRANCH   6   9
HETATM    9  C8  UNL     1     -34.485  14.256  -4.071  1.00 20.00     0.120 C 
HETATM   10 CL10 UNL     1     -34.199  14.900  -5.712  1.00 20.00    -0.130 Cl
ENDBRANCH   6   9
TORSDOF 1
ENDMDL
MODEL 9
REMARK VINA RESULT:      -3.8     11.042     11.907
REMARK  1 active torsions:
REMARK  status: ('A' for Active; 'I' for Inactive)
REMARK    1  A    between atoms: C6_6  and  C8_8 
ROOT
HETATM    1  C1  UNL     1     -35.032  16.641  -1.254  1.00 20.00     0.027 C 
HETATM    2  C2  UNL     1     -35.466  16.366  -2.692  1.00 20.00     0.014 C 
HETATM    3  C3  UNL     1     -33.838  14.664  -3.790  1.00 20.00     0.018 A 
HETATM    4  C4  UNL     1     -33.934  17.698  -1.215  1.00 20.00     0.167 C 
HETATM    5  C5  UNL     1     -33.175  17.145  -3.393  1.00 20.00     0.177 C 
HETATM    6  C6  UNL     1     -34.410  15.468  -4.926  1.00 20.00     0.011 A 
HETATM    7  C7  UNL     1     -34.253  16.101  -3.554  1.00 20.00    -0.014 A 
HETATM    8  O9  UNL     1     -32.823  17.288  -2.015  1.00 20.00    -0.390 OA
ENDROOT
BRANCH   6   9
HETATM    9  C8  UNL     1     -35.738  15.118  -5.503  1.00 20.00     0.120 C 
HETATM   10 CL10 UNL     1     -36.349  13.580  -4.833  1.00 20.00    -0.130 Cl
ENDBRANCH   6   9
TORSDOF 1
ENDMDL
