MODEL 1
REMARK VINA RESULT:      -4.7      0.000      0.000
REMARK  1 active torsions:
REMARK  status: ('A' for Active; 'I' for Inactive)
REMARK    1  A    between atoms: C4_4  and  C10_10 
ROOT
HETATM    1  C1  UNL     1     -33.225  15.129  -4.062  1.00 20.00     0.007 C 
HETATM    2  C2  UNL     1     -34.241  15.321  -5.189  1.00 20.00     0.009 C 
HETATM    3  C3  UNL     1     -35.972  16.051  -3.484  1.00 20.00     0.013 C 
HETATM    4  C4  UNL     1     -33.490  16.041  -2.853  1.00 20.00     0.003 C 
HETATM    5  C5  UNL     1     -34.943  15.857  -2.356  1.00 20.00    -0.013 C 
HETATM    6  C6  UNL     1     -35.707  15.168  -4.726  1.00 20.00    -0.047 C 
HETATM    7  C7  UNL     1     -35.283  16.760  -1.167  1.00 20.00     0.010 C 
HETATM    8  C8  UNL     1     -36.640  15.618  -5.866  1.00 20.00     0.015 C 
HETATM    9  C9  UNL     1     -36.023  13.691  -4.415  1.00 20.00     0.015 C 
ENDROOT
BRANCH   4  10
HETATM   10  C10 UNL     1     -33.123  17.494  -3.176  1.00 20.00     0.119 C 
HETATM   11 CL11 UNL     1     -32.178  18.187  -1.851  1.00 20.00    -0.130 Cl
ENDBRANCH   4  10
TORSDOF 1
ENDMDL
MODEL 2
REMARK VINA RESULT:      -4.3     16.258     18.043
REMARK  1 active torsions:
REMARK  status: ('A' for Active; 'I' for Inactive)
REMARK    1  A    between atoms: C4_4  and  C10_10 
ROOT
HETATM    1  C1  UNL     1     -22.034  18.079  10.931  1.00 20.00     0.007 C 
HETATM    2  C2  UNL     1     -23.003  17.179  11.699  1.00 20.00     0.009 C 
HETATM    3  C3  UNL     1     -24.841  17.780  10.058  1.00 20.00     0.013 C 
HETATM    4  C4  UNL     1     -22.394  18.215   9.442  1.00 20.00     0.003 C 
HETATM    5  C5  UNL     1     -23.860  18.683   9.289  1.00 20.00    -0.013 C 
HETATM    6  C6  UNL     1     -24.481  17.601  11.551  1.00 20.00    -0.047 C 
HETATM    7  C7  UNL     1     -24.293  18.812   7.827  1.00 20.00     0.010 C 
HETATM    8  C8  UNL     1     -25.377  16.500  12.152  1.00 20.00     0.015 C 
HETATM    9  C9  UNL     1     -24.751  18.903  12.332  1.00 20.00     0.015 C 
ENDROOT
BRANCH   4  10
HETATM   10  C10 UNL     1     -22.072  16.921   8.684  1.00 20.00     0.119 C 
HETATM   11 CL11 UNL     1     -21.335  17.305   7.122  1.00 20.00    -0.130 Cl
ENDBRANCH   4  10
TORSDOF 1
ENDMDL
MODEL 3
REMARK VINA RESULT:      -4.2      2.666      4.387
REMARK  1 active torsions:
REMARK  status: ('A' for Active; 'I' for Inactive)
REMARK    1  A    between atoms: C4_4  and  C10_10 
ROOT
HETATM    1  C1  UNL     1     -35.873  13.890  -4.323  1.00 20.00     0.007 C 
HETATM    2  C2  UNL     1     -35.053  14.695  -3.314  1.00 20.00     0.009 C 
HETATM    3  C3  UNL     1     -34.373  16.292  -5.163  1.00 20.00     0.013 C 
HETATM    4  C4  UNL     1     -36.382  14.740  -5.498  1.00 20.00     0.003 C 
HETATM    5  C5  UNL     1     -35.201  15.478  -6.173  1.00 20.00    -0.013 C 
HETATM    6  C6  UNL     1     -33.877  15.465  -3.955  1.00 20.00    -0.047 C 
HETATM    7  C7  UNL     1     -35.645  16.368  -7.336  1.00 20.00     0.010 C 
HETATM    8  C8  UNL     1     -33.278  16.422  -2.907  1.00 20.00     0.015 C 
HETATM    9  C9  UNL     1     -32.765  14.488  -4.388  1.00 20.00     0.015 C 
ENDROOT
BRANCH   4  10
HETATM   10  C10 UNL     1     -37.518  15.667  -5.047  1.00 20.00     0.119 C 
HETATM   11 CL11 UNL     1     -38.760  14.732  -4.203  1.00 20.00    -0.130 Cl
ENDBRANCH   4  10
TORSDOF 1
ENDMDL
MODEL 4
REMARK VINA RESULT:      -4.2      2.332      4.348
REMARK  1 active torsions:
REMARK  status: ('A' for Active; 'I' for Inactive)
REMARK    1  A    between atoms: C4_4  and  C10_10 
ROOT
HETATM    1  C1  UNL     1     -35.290  16.601  -1.644  1.00 20.00     0.007 C 
HETATM    2  C2  UNL     1     -34.783  17.960  -2.130  1.00 20.00     0.009 C 
HETATM    3  C3  UNL     1     -33.185  16.782  -3.709  1.00 20.00     0.013 C 
HETATM    4  C4  UNL     1     -35.160  15.497  -2.705  1.00 20.00     0.003 C 
HETATM    5  C5  UNL     1     -33.702  15.418  -3.216  1.00 20.00    -0.013 C 
HETATM    6  C6  UNL     1     -33.336  17.917  -2.670  1.00 20.00    -0.047 C 
HETATM    7  C7  UNL     1     -33.509  14.354  -4.299  1.00 20.00     0.010 C 
HETATM    8  C8  UNL     1     -33.018  19.262  -3.351  1.00 20.00     0.015 C 
HETATM    9  C9  UNL     1     -32.334  17.727  -1.514  1.00 20.00     0.015 C 
ENDROOT
BRANCH   4  10
HETATM   10  C10 UNL     1     -36.199  15.686  -3.817  1.00 20.00     0.119 C 
HETATM   11 CL11 UNL     1     -36.973  14.139  -4.188  1.00 20.00    -0.130 Cl
ENDBRANCH   4  10
TORSDOF 1
ENDMDL
MODEL 5
REMARK VINA RESULT:      -4.1      2.409      4.189
REMARK  1 active torsions:
REMARK  status: ('A' for Active; 'I' for Inactive)
REMARK    1  A    between atoms: C4_4  and  C10_10 
ROOT
HETATM    1  C1  UNL     1     -36.243  17.556  -3.628  1.00 20.00     0.007 C 
HETATM    2  C2  UNL     1     -35.025  18.170  -2.935  1.00 20.00     0.009 C 
HETATM    3  C3  UNL     1     -34.042  15.850  -2.639  1.00 20.00     0.013 C 
HETATM    4  C4  UNL     1     -35.927  16.227  -4.332  1.00 20.00     0.003 C 
HETATM    5  C5  UNL     1     -35.271  15.240  -3.338  1.00 20.00    -0.013 C 
HETATM    6  C6  UNL     1     -34.328  17.205  -1.951  1.00 20.00    -0.047 C 
HETATM    7  C7  UNL     1     -34.903  13.902  -3.985  1.00 20.00     0.010 C 
HETATM    8  C8  UNL     1     -32.992  17.829  -1.503  1.00 20.00     0.015 C 
HETATM    9  C9  UNL     1     -35.195  16.999  -0.692  1.00 20.00     0.015 C 
ENDROOT
BRANCH   4  10
HETATM   10  C10 UNL     1     -35.103  16.467  -5.604  1.00 20.00     0.119 C 
HETATM   11 CL11 UNL     1     -35.891  15.695  -6.987  1.00 20.00    -0.130 Cl
ENDBRANCH   4  10
TORSDOF 1
ENDMDL
MODEL 6
REMARK VINA RESULT:      -4.0      2.725      4.154
REMARK  1 active torsions:
REMARK  status: ('A' for Active; 'I' for Inactive)
REMARK    1  A    between atoms: C4_4  and  C10_10 
ROOT
HETATM    1  C1  UNL     1     -33.658  14.820  -4.767  1.00 20.00     0.007 C 
HETATM    2  C2  UNL     1     -34.267  14.938  -3.369  1.00 20.00     0.009 C 
HETATM    3  C3  UNL     1     -35.055  17.284  -3.925  1.00 20.00     0.013 C 
HETATM    4  C4  UNL     1     -34.379  15.688  -5.811  1.00 20.00     0.003 C 
HETATM    5  C5  UNL     1     -34.440  17.158  -5.331  1.00 20.00    -0.013 C 
HETATM    6  C6  UNL     1     -34.367  16.394  -2.864  1.00 20.00    -0.047 C 
HETATM    7  C7  UNL     1     -35.173  18.073  -6.315  1.00 20.00     0.010 C 
HETATM    8  C8  UNL     1     -35.207  16.418  -1.573  1.00 20.00     0.015 C 
HETATM    9  C9  UNL     1     -32.967  16.944  -2.523  1.00 20.00     0.015 C 
ENDROOT
BRANCH   4  10
HETATM   10  C10 UNL     1     -35.747  15.092  -6.163  1.00 20.00     0.119 C 
HETATM   11 CL11 UNL     1     -35.897  14.921  -7.918  1.00 20.00    -0.130 Cl
ENDBRANCH   4  10
TORSDOF 1
ENDMDL
MODEL 7
REMARK VINA RESULT:      -3.9      1.744      2.044
REMARK  1 active torsions:
REMARK  status: ('A' for Active; 'I' for Inactive)
REMARK    1  A    between atoms: C4_4  and  C10_10 
ROOT
HETATM    1  C1  UNL     1     -35.180  13.984  -4.107  1.00 20.00     0.007 C 
HETATM    2  C2  UNL     1     -35.893  14.643  -5.288  1.00 20.00     0.009 C 
HETATM    3  C3  UNL     1     -36.397  16.663  -3.839  1.00 20.00     0.013 C 
HETATM    4  C4  UNL     1     -34.585  15.003  -3.120  1.00 20.00     0.003 C 
HETATM    5  C5  UNL     1     -35.677  15.994  -2.654  1.00 20.00    -0.013 C 
HETATM    6  C6  UNL     1     -36.976  15.659  -4.863  1.00 20.00    -0.047 C 
HETATM    7  C7  UNL     1     -35.143  17.055  -1.690  1.00 20.00     0.010 C 
HETATM    8  C8  UNL     1     -37.451  16.433  -6.107  1.00 20.00     0.015 C 
HETATM    9  C9  UNL     1     -38.198  14.927  -4.270  1.00 20.00     0.015 C 
ENDROOT
BRANCH   4  10
HETATM   10  C10 UNL     1     -33.346  15.680  -3.719  1.00 20.00     0.119 C 
HETATM   11 CL11 UNL     1     -32.260  14.458  -4.398  1.00 20.00    -0.130 Cl
ENDBRANCH   4  10
TORSDOF 1
ENDMDL
MODEL 8
REMARK VINA RESULT:      -3.9      1.459      2.033
REMARK  1 active torsions:
REMARK  status: ('A' for Active; 'I' for Inactive)
REMARK    1  A    between atoms: C4_4  and  C10_10 
ROOT
HETATM    1  C1  UNL     1     -34.101  15.112  -3.388  1.00 20.00     0.007 C 
HETATM    2  C2  UNL     1     -33.597  14.760  -4.789  1.00 20.00     0.009 C 
HETATM    3  C3  UNL     1     -34.804  16.788  -5.718  1.00 20.00     0.013 C 
HETATM    4  C4  UNL     1     -34.354  16.617  -3.202  1.00 20.00     0.003 C 
HETATM    5  C5  UNL     1     -35.306  17.137  -4.305  1.00 20.00    -0.013 C 
HETATM    6  C6  UNL     1     -34.510  15.283  -5.919  1.00 20.00    -0.047 C 
HETATM    7  C7  UNL     1     -35.578  18.639  -4.194  1.00 20.00     0.010 C 
HETATM    8  C8  UNL     1     -33.794  15.091  -7.269  1.00 20.00     0.015 C 
HETATM    9  C9  UNL     1     -35.825  14.478  -5.967  1.00 20.00     0.015 C 
ENDROOT
BRANCH   4  10
HETATM   10  C10 UNL     1     -33.029  17.385  -3.112  1.00 20.00     0.119 C 
HETATM   11 CL11 UNL     1     -32.671  17.774  -1.424  1.00 20.00    -0.130 Cl
ENDBRANCH   4  10
TORSDOF 1
ENDMDL
MODEL 9
REMARK VINA RESULT:      -3.9      2.094      2.659
REMARK  1 active torsions:
REMARK  status: ('A' for Active; 'I' for Inactive)
REMARK    1  A    between atoms: C4_4  and  C10_10 
ROOT
HETATM    1  C1  UNL     1     -34.341  17.381  -5.001  1.00 20.00     0.007 C 
HETATM    2  C2  UNL     1     -35.009  16.010  -5.113  1.00 20.00     0.009 C 
HETATM    3  C3  UNL     1     -34.589  15.621  -2.642  1.00 20.00     0.013 C 
HETATM    4  C4  UNL     1     -34.457  17.994  -3.596  1.00 20.00     0.003 C 
HETATM    5  C5  UNL     1     -33.918  17.002  -2.537  1.00 20.00    -0.013 C 
HETATM    6  C6  UNL     1     -34.514  14.999  -4.056  1.00 20.00    -0.047 C 
HETATM    7  C7  UNL     1     -34.032  17.540  -1.109  1.00 20.00     0.010 C 
HETATM    8  C8  UNL     1     -35.415  13.749  -4.100  1.00 20.00     0.015 C 
HETATM    9  C9  UNL     1     -33.073  14.550  -4.373  1.00 20.00     0.015 C 
ENDROOT
BRANCH   4  10
HETATM   10  C10 UNL     1     -35.889  18.472  -3.328  1.00 20.00     0.119 C 
HETATM   11 CL11 UNL     1     -36.541  19.263  -4.770  1.00 20.00    -0.130 Cl
ENDBRANCH   4  10
TORSDOF 1
ENDMDL
