MODEL 1
REMARK VINA RESULT:      -4.7      0.000      0.000
REMARK  3 active torsions:
REMARK  status: ('A' for Active; 'I' for Inactive)
REMARK    1  A    between atoms: C4_4  and  C5_5 
REMARK    2  A    between atoms: C6_6  and  C7_7 
REMARK    3  A    between atoms: C7_7  and  O8_8 
ROOT
HETATM    1  C3  UNL     1     -33.011   5.506   2.539  1.00 20.00     0.012 A 
HETATM    2  C5  UNL     1     -33.169   6.527   3.635  1.00 20.00    -0.004 A 
HETATM    3  C6  UNL     1     -33.294   6.943   2.193  1.00 20.00     0.014 A 
ENDROOT
BRANCH   2   4
HETATM    4  C4  UNL     1     -34.354   6.526   4.588  1.00 20.00    -0.010 A 
HETATM    5  C1  UNL     1     -34.827   5.287   5.295  1.00 20.00     0.005 A 
HETATM    6  C2  UNL     1     -34.197   6.404   6.078  1.00 20.00     0.005 A 
ENDBRANCH   2   4
BRANCH   3   7
HETATM    7  C7  UNL     1     -32.240   7.784   1.559  1.00 20.00     0.169 C 
BRANCH   7   8
HETATM    8  O8  UNL     1     -32.843   8.835   0.804  1.00 20.00    -0.400 OA
HETATM    9  H20 UNL     1     -32.861   9.612   1.383  1.00 20.00     0.209 HD
ENDBRANCH   7   8
ENDBRANCH   3   7
TORSDOF 3
ENDMDL
MODEL 2
REMARK VINA RESULT:      -4.1     10.672     11.520
REMARK  3 active torsions:
REMARK  status: ('A' for Active; 'I' for Inactive)
REMARK    1  A    between atoms: C4_4  and  C5_5 
REMARK    2  A    between atoms: C6_6  and  C7_7 
REMARK    3  A    between atoms: C7_7  and  O8_8 
ROOT
HETATM    1  C3  UNL     1     -33.215  14.561  -4.538  1.00 20.00     0.012 A 
HETATM    2  C5  UNL     1     -33.883  15.714  -3.836  1.00 20.00    -0.004 A 
HETATM    3  C6  UNL     1     -34.481  14.333  -3.756  1.00 20.00     0.014 A 
ENDROOT
BRANCH   2   4
HETATM    4  C4  UNL     1     -33.266  16.405  -2.630  1.00 20.00    -0.010 A 
HETATM    5  C1  UNL     1     -32.902  17.864  -2.629  1.00 20.00     0.005 A 
HETATM    6  C2  UNL     1     -34.031  17.371  -1.768  1.00 20.00     0.005 A 
ENDBRANCH   2   4
BRANCH   3   7
HETATM    7  C7  UNL     1     -35.755  14.024  -4.464  1.00 20.00     0.169 C 
BRANCH   7   8
HETATM    8  O8  UNL     1     -35.935  12.609  -4.546  1.00 20.00    -0.400 OA
HETATM    9  H20 UNL     1     -36.690  12.397  -3.977  1.00 20.00     0.209 HD
ENDBRANCH   7   8
ENDBRANCH   3   7
TORSDOF 3
ENDMDL
MODEL 3
REMARK VINA RESULT:      -4.1      0.998      1.417
REMARK  3 active torsions:
REMARK  status: ('A' for Active; 'I' for Inactive)
REMARK    1  A    between atoms: C4_4  and  C5_5 
REMARK    2  A    between atoms: C6_6  and  C7_7 
REMARK    3  A    between atoms: C7_7  and  O8_8 
ROOT
HETATM    1  C3  UNL     1     -32.002   7.386   3.699  1.00 20.00     0.012 A 
HETATM    2  C5  UNL     1     -33.447   6.968   3.630  1.00 20.00    -0.004 A 
HETATM    3  C6  UNL     1     -32.612   7.005   2.377  1.00 20.00     0.014 A 
ENDROOT
BRANCH   2   4
HETATM    4  C4  UNL     1     -33.951   5.666   4.234  1.00 20.00    -0.010 A 
HETATM    5  C1  UNL     1     -34.626   5.602   5.575  1.00 20.00     0.005 A 
HETATM    6  C2  UNL     1     -35.413   5.326   4.325  1.00 20.00     0.005 A 
ENDBRANCH   2   4
BRANCH   3   7
HETATM    7  C7  UNL     1     -32.861   8.045   1.339  1.00 20.00     0.169 C 
BRANCH   7   8
HETATM    8  O8  UNL     1     -31.844   7.988   0.338  1.00 20.00    -0.400 OA
HETATM    9  H20 UNL     1     -31.003   7.887   0.809  1.00 20.00     0.209 HD
ENDBRANCH   7   8
ENDBRANCH   3   7
TORSDOF 3
ENDMDL
MODEL 4
REMARK VINA RESULT:      -4.1     10.883     11.347
REMARK  3 active torsions:
REMARK  status: ('A' for Active; 'I' for Inactive)
REMARK    1  A    between atoms: C4_4  and  C5_5 
REMARK    2  A    between atoms: C6_6  and  C7_7 
REMARK    3  A    between atoms: C7_7  and  O8_8 
ROOT
HETATM    1  C3  UNL     1     -33.807  14.600  -4.451  1.00 20.00     0.012 A 
HETATM    2  C5  UNL     1     -34.718  15.509  -3.669  1.00 20.00    -0.004 A 
HETATM    3  C6  UNL     1     -35.179  14.127  -4.050  1.00 20.00     0.014 A 
ENDROOT
BRANCH   2   4
HETATM    4  C4  UNL     1     -34.436  15.905  -2.227  1.00 20.00    -0.010 A 
HETATM    5  C1  UNL     1     -33.896  17.256  -1.847  1.00 20.00     0.005 A 
HETATM    6  C2  UNL     1     -35.299  16.874  -1.467  1.00 20.00     0.005 A 
ENDBRANCH   2   4
BRANCH   3   7
HETATM    7  C7  UNL     1     -36.241  13.947  -5.079  1.00 20.00     0.169 C 
BRANCH   7   8
HETATM    8  O8  UNL     1     -37.478  13.610  -4.449  1.00 20.00    -0.400 OA
HETATM    9  H20 UNL     1     -38.128  14.256  -4.762  1.00 20.00     0.209 HD
ENDBRANCH   7   8
ENDBRANCH   3   7
TORSDOF 3
ENDMDL
MODEL 5
REMARK VINA RESULT:      -4.0      2.368      4.247
REMARK  3 active torsions:
REMARK  status: ('A' for Active; 'I' for Inactive)
REMARK    1  A    between atoms: C4_4  and  C5_5 
REMARK    2  A    between atoms: C6_6  and  C7_7 
REMARK    3  A    between atoms: C7_7  and  O8_8 
ROOT
HETATM    1  C3  UNL     1     -33.191   5.114   2.562  1.00 20.00     0.012 A 
HETATM    2  C5  UNL     1     -33.538   6.563   2.347  1.00 20.00    -0.004 A 
HETATM    3  C6  UNL     1     -33.533   5.988   3.739  1.00 20.00     0.014 A 
ENDROOT
BRANCH   2   4
HETATM    4  C4  UNL     1     -32.514   7.590   1.887  1.00 20.00    -0.010 A 
HETATM    5  C1  UNL     1     -32.077   7.714   0.454  1.00 20.00     0.005 A 
HETATM    6  C2  UNL     1     -32.888   8.808   1.089  1.00 20.00     0.005 A 
ENDBRANCH   2   4
BRANCH   3   7
HETATM    7  C7  UNL     1     -34.814   5.788   4.474  1.00 20.00     0.169 C 
BRANCH   7   8
HETATM    8  O8  UNL     1     -35.139   4.398   4.518  1.00 20.00    -0.400 OA
HETATM    9  H20 UNL     1     -35.382   4.146   3.615  1.00 20.00     0.209 HD
ENDBRANCH   7   8
ENDBRANCH   3   7
TORSDOF 3
ENDMDL
MODEL 6
REMARK VINA RESULT:      -3.9     11.138     11.846
REMARK  3 active torsions:
REMARK  status: ('A' for Active; 'I' for Inactive)
REMARK    1  A    between atoms: C4_4  and  C5_5 
REMARK    2  A    between atoms: C6_6  and  C7_7 
REMARK    3  A    between atoms: C7_7  and  O8_8 
ROOT
HETATM    1  C3  UNL     1     -34.826  15.584  -2.826  1.00 20.00     0.012 A 
HETATM    2  C5  UNL     1     -33.465  16.186  -2.602  1.00 20.00    -0.004 A 
HETATM    3  C6  UNL     1     -33.852  15.685  -3.969  1.00 20.00     0.014 A 
ENDROOT
BRANCH   2   4
HETATM    4  C4  UNL     1     -33.264  17.664  -2.303  1.00 20.00    -0.010 A 
HETATM    5  C1  UNL     1     -33.598  18.276  -0.971  1.00 20.00     0.005 A 
HETATM    6  C2  UNL     1     -32.164  18.170  -1.411  1.00 20.00     0.005 A 
ENDBRANCH   2   4
BRANCH   3   7
HETATM    7  C7  UNL     1     -33.218  14.457  -4.526  1.00 20.00     0.169 C 
BRANCH   7   8
HETATM    8  O8  UNL     1     -33.082  14.578  -5.942  1.00 20.00    -0.400 OA
HETATM    9  H20 UNL     1     -33.970  14.466  -6.312  1.00 20.00     0.209 HD
ENDBRANCH   7   8
ENDBRANCH   3   7
TORSDOF 3
ENDMDL
MODEL 7
REMARK VINA RESULT:      -3.8     15.929     16.885
REMARK  3 active torsions:
REMARK  status: ('A' for Active; 'I' for Inactive)
REMARK    1  A    between atoms: C4_4  and  C5_5 
REMARK    2  A    between atoms: C6_6  and  C7_7 
REMARK    3  A    between atoms: C7_7  and  O8_8 
ROOT
HETATM    1  C3  UNL     1     -22.984  17.738  12.314  1.00 20.00     0.012 A 
HETATM    2  C5  UNL     1     -23.128  17.226  10.905  1.00 20.00    -0.004 A 
HETATM    3  C6  UNL     1     -24.354  17.501  11.736  1.00 20.00     0.014 A 
ENDROOT
BRANCH   2   4
HETATM    4  C4  UNL     1     -22.763  18.065   9.690  1.00 20.00    -0.010 A 
HETATM    5  C1  UNL     1     -21.347  18.226   9.211  1.00 20.00     0.005 A 
HETATM    6  C2  UNL     1     -22.337  17.457   8.382  1.00 20.00     0.005 A 
ENDBRANCH   2   4
BRANCH   3   7
HETATM    7  C7  UNL     1     -25.193  16.374  12.233  1.00 20.00     0.169 C 
BRANCH   7   8
HETATM    8  O8  UNL     1     -26.550  16.564  11.830  1.00 20.00    -0.400 OA
HETATM    9  H20 UNL     1     -26.938  15.679  11.753  1.00 20.00     0.209 HD
ENDBRANCH   7   8
ENDBRANCH   3   7
TORSDOF 3
ENDMDL
MODEL 8
REMARK VINA RESULT:      -3.8     15.934     16.636
REMARK  3 active torsions:
REMARK  status: ('A' for Active; 'I' for Inactive)
REMARK    1  A    between atoms: C4_4  and  C5_5 
REMARK    2  A    between atoms: C6_6  and  C7_7 
REMARK    3  A    between atoms: C7_7  and  O8_8 
ROOT
HETATM    1  C3  UNL     1     -23.272  16.834   9.659  1.00 20.00     0.012 A 
HETATM    2  C5  UNL     1     -24.192  17.998   9.916  1.00 20.00    -0.004 A 
HETATM    3  C6  UNL     1     -22.931  17.843  10.724  1.00 20.00     0.014 A 
ENDROOT
BRANCH   2   4
HETATM    4  C4  UNL     1     -24.384  19.126   8.913  1.00 20.00    -0.010 A 
HETATM    5  C1  UNL     1     -24.313  18.911   7.428  1.00 20.00     0.005 A 
HETATM    6  C2  UNL     1     -25.623  19.263   8.073  1.00 20.00     0.005 A 
ENDBRANCH   2   4
BRANCH   3   7
HETATM    7  C7  UNL     1     -23.002  17.467  12.164  1.00 20.00     0.169 C 
BRANCH   7   8
HETATM    8  O8  UNL     1     -23.166  16.054  12.291  1.00 20.00    -0.400 OA
HETATM    9  H20 UNL     1     -23.092  15.689  11.396  1.00 20.00     0.209 HD
ENDBRANCH   7   8
ENDBRANCH   3   7
TORSDOF 3
ENDMDL
MODEL 9
REMARK VINA RESULT:      -3.7     11.113     11.528
REMARK  3 active torsions:
REMARK  status: ('A' for Active; 'I' for Inactive)
REMARK    1  A    between atoms: C4_4  and  C5_5 
REMARK    2  A    between atoms: C6_6  and  C7_7 
REMARK    3  A    between atoms: C7_7  and  O8_8 
ROOT
HETATM    1  C3  UNL     1     -33.013  16.270  -3.236  1.00 20.00     0.012 A 
HETATM    2  C5  UNL     1     -34.488  16.421  -2.977  1.00 20.00    -0.004 A 
HETATM    3  C6  UNL     1     -33.959  15.157  -3.601  1.00 20.00     0.014 A 
ENDROOT
BRANCH   2   4
HETATM    4  C4  UNL     1     -35.072  16.454  -1.573  1.00 20.00    -0.010 A 
HETATM    5  C1  UNL     1     -34.635  17.449  -0.535  1.00 20.00     0.005 A 
HETATM    6  C2  UNL     1     -36.020  17.527  -1.113  1.00 20.00     0.005 A 
ENDBRANCH   2   4
BRANCH   3   7
HETATM    7  C7  UNL     1     -34.240  14.849  -5.031  1.00 20.00     0.169 C 
BRANCH   7   8
HETATM    8  O8  UNL     1     -33.032  14.478  -5.697  1.00 20.00    -0.400 OA
HETATM    9  H20 UNL     1     -33.279  13.816  -6.360  1.00 20.00     0.209 HD
ENDBRANCH   7   8
ENDBRANCH   3   7
TORSDOF 3
ENDMDL
