MODEL 1
REMARK VINA RESULT:      -4.2      0.000      0.000
REMARK  1 active torsions:
REMARK  status: ('A' for Active; 'I' for Inactive)
REMARK    1  A    between atoms: C5_5  and  C7_7 
ROOT
HETATM    1  C1  UNL     1     -34.130   6.507   4.428  1.00 20.00     0.038 C 
HETATM    2  C2  UNL     1     -31.795   7.191   3.505  1.00 20.00     0.018 A 
HETATM    3  C3  UNL     1     -34.987   5.295   4.110  1.00 20.00     0.168 C 
HETATM    4  C4  UNL     1     -33.139   5.079   2.754  1.00 20.00     0.177 C 
HETATM    5  C5  UNL     1     -32.802   7.689   2.507  1.00 20.00     0.007 A 
HETATM    6  C6  UNL     1     -33.108   6.457   3.339  1.00 20.00    -0.012 A 
HETATM    7  O8  UNL     1     -34.072   4.335   3.559  1.00 20.00    -0.390 OA
ENDROOT
BRANCH   5   8
HETATM    8  C7  UNL     1     -32.500   7.611   1.051  1.00 20.00     0.090 C 
HETATM    9 BR9  UNL     1     -33.240   9.156   0.116  1.00 20.00    -0.096 Br
ENDBRANCH   5   8
TORSDOF 1
ENDMDL
MODEL 2
REMARK VINA RESULT:      -4.0     16.183     17.111
REMARK  1 active torsions:
REMARK  status: ('A' for Active; 'I' for Inactive)
REMARK    1  A    between atoms: C5_5  and  C7_7 
ROOT
HETATM    1  C1  UNL     1     -22.904  17.033   9.651  1.00 20.00     0.038 C 
HETATM    2  C2  UNL     1     -24.322  15.878  11.504  1.00 20.00     0.018 A 
HETATM    3  C3  UNL     1     -21.817  18.086   9.769  1.00 20.00     0.168 C 
HETATM    4  C4  UNL     1     -22.538  17.742  11.929  1.00 20.00     0.177 C 
HETATM    5  C5  UNL     1     -25.014  17.176  11.194  1.00 20.00     0.007 A 
HETATM    6  C6  UNL     1     -23.511  17.060  11.017  1.00 20.00    -0.012 A 
HETATM    7  O8  UNL     1     -21.367  17.995  11.130  1.00 20.00    -0.390 OA
ENDROOT
BRANCH   5   8
HETATM    8  C7  UNL     1     -25.626  17.968  12.297  1.00 20.00     0.090 C 
HETATM    9 BR9  UNL     1     -26.900  19.263  11.582  1.00 20.00    -0.096 Br
ENDBRANCH   5   8
TORSDOF 1
ENDMDL
MODEL 3
REMARK VINA RESULT:      -4.0     15.973     16.757
REMARK  1 active torsions:
REMARK  status: ('A' for Active; 'I' for Inactive)
REMARK    1  A    between atoms: C5_5  and  C7_7 
ROOT
HETATM    1  C1  UNL     1     -24.974  17.877  12.126  1.00 20.00     0.038 C 
HETATM    2  C2  UNL     1     -23.788  16.620  10.180  1.00 20.00     0.018 A 
HETATM    3  C3  UNL     1     -25.858  19.112  12.093  1.00 20.00     0.168 C 
HETATM    4  C4  UNL     1     -25.213  18.794   9.906  1.00 20.00     0.177 C 
HETATM    5  C5  UNL     1     -22.876  17.750  10.567  1.00 20.00     0.007 A 
HETATM    6  C6  UNL     1     -24.375  17.890  10.757  1.00 20.00    -0.012 A 
HETATM    7  O8  UNL     1     -26.319  19.196  10.736  1.00 20.00    -0.390 OA
ENDROOT
BRANCH   5   8
HETATM    8  C7  UNL     1     -22.134  18.495   9.511  1.00 20.00     0.090 C 
HETATM    9 BR9  UNL     1     -21.768  17.334   7.986  1.00 20.00    -0.096 Br
ENDBRANCH   5   8
TORSDOF 1
ENDMDL
MODEL 4
REMARK VINA RESULT:      -3.9     10.688     11.485
REMARK  1 active torsions:
REMARK  status: ('A' for Active; 'I' for Inactive)
REMARK    1  A    between atoms: C5_5  and  C7_7 
ROOT
HETATM    1  C1  UNL     1     -34.904  13.892  -3.864  1.00 20.00     0.038 C 
HETATM    2  C2  UNL     1     -33.465  15.987  -3.301  1.00 20.00     0.018 A 
HETATM    3  C3  UNL     1     -36.172  13.774  -4.691  1.00 20.00     0.168 C 
HETATM    4  C4  UNL     1     -35.677  16.022  -4.693  1.00 20.00     0.177 C 
HETATM    5  C5  UNL     1     -34.577  15.958  -2.290  1.00 20.00     0.007 A 
HETATM    6  C6  UNL     1     -34.796  15.370  -3.672  1.00 20.00    -0.012 A 
HETATM    7  O8  UNL     1     -36.184  14.952  -5.512  1.00 20.00    -0.390 OA
ENDROOT
BRANCH   5   8
HETATM    8  C7  UNL     1     -35.214  17.232  -1.856  1.00 20.00     0.090 C 
HETATM    9 BR9  UNL     1     -35.432  17.262   0.083  1.00 20.00    -0.096 Br
ENDBRANCH   5   8
TORSDOF 1
ENDMDL
MODEL 5
REMARK VINA RESULT:      -3.9     11.024     11.648
REMARK  1 active torsions:
REMARK  status: ('A' for Active; 'I' for Inactive)
REMARK    1  A    between atoms: C5_5  and  C7_7 
ROOT
HETATM    1  C1  UNL     1     -36.987  15.904  -3.821  1.00 20.00     0.038 C 
HETATM    2  C2  UNL     1     -34.566  15.102  -3.304  1.00 20.00     0.018 A 
HETATM    3  C3  UNL     1     -38.135  15.169  -4.492  1.00 20.00     0.168 C 
HETATM    4  C4  UNL     1     -36.376  13.686  -4.550  1.00 20.00     0.177 C 
HETATM    5  C5  UNL     1     -34.551  15.591  -4.726  1.00 20.00     0.007 A 
HETATM    6  C6  UNL     1     -35.827  15.017  -4.137  1.00 20.00    -0.012 A 
HETATM    7  O8  UNL     1     -37.801  13.778  -4.368  1.00 20.00    -0.390 OA
ENDROOT
BRANCH   5   8
HETATM    8  C7  UNL     1     -33.749  14.863  -5.749  1.00 20.00     0.090 C 
HETATM    9 BR9  UNL     1     -34.172  15.515  -7.539  1.00 20.00    -0.096 Br
ENDBRANCH   5   8
TORSDOF 1
ENDMDL
MODEL 6
REMARK VINA RESULT:      -3.9     10.524     11.241
REMARK  1 active torsions:
REMARK  status: ('A' for Active; 'I' for Inactive)
REMARK    1  A    between atoms: C5_5  and  C7_7 
ROOT
HETATM    1  C1  UNL     1     -36.621  14.933  -3.859  1.00 20.00     0.038 C 
HETATM    2  C2  UNL     1     -35.082  15.998  -2.051  1.00 20.00     0.018 A 
HETATM    3  C3  UNL     1     -36.318  13.854  -4.885  1.00 20.00     0.168 C 
HETATM    4  C4  UNL     1     -34.325  14.192  -3.783  1.00 20.00     0.177 C 
HETATM    5  C5  UNL     1     -34.814  16.750  -3.325  1.00 20.00     0.007 A 
HETATM    6  C6  UNL     1     -35.253  15.298  -3.381  1.00 20.00    -0.012 A 
HETATM    7  O8  UNL     1     -35.160  13.178  -4.373  1.00 20.00    -0.390 OA
ENDROOT
BRANCH   5   8
HETATM    8  C7  UNL     1     -33.425  17.175  -3.654  1.00 20.00     0.090 C 
HETATM    9 BR9  UNL     1     -32.592  18.035  -2.113  1.00 20.00    -0.096 Br
ENDBRANCH   5   8
TORSDOF 1
ENDMDL
MODEL 7
REMARK VINA RESULT:      -3.8      9.304     10.295
REMARK  1 active torsions:
REMARK  status: ('A' for Active; 'I' for Inactive)
REMARK    1  A    between atoms: C5_5  and  C7_7 
ROOT
HETATM    1  C1  UNL     1     -41.137   7.565   0.683  1.00 20.00     0.038 C 
HETATM    2  C2  UNL     1     -42.785   5.561   0.895  1.00 20.00     0.018 A 
HETATM    3  C3  UNL     1     -41.387   8.987   0.212  1.00 20.00     0.168 C 
HETATM    4  C4  UNL     1     -43.417   7.926  -0.022  1.00 20.00     0.177 C 
HETATM    5  C5  UNL     1     -42.323   5.575  -0.535  1.00 20.00     0.007 A 
HETATM    6  C6  UNL     1     -42.389   6.872   0.250  1.00 20.00    -0.012 A 
HETATM    7  O8  UNL     1     -42.804   9.174   0.351  1.00 20.00    -0.390 OA
ENDROOT
BRANCH   5   8
HETATM    8  C7  UNL     1     -43.287   5.255  -1.625  1.00 20.00     0.090 C 
HETATM    9 BR9  UNL     1     -42.782   3.594  -2.518  1.00 20.00    -0.096 Br
ENDBRANCH   5   8
TORSDOF 1
ENDMDL
MODEL 8
REMARK VINA RESULT:      -3.7     11.099     11.893
REMARK  1 active torsions:
REMARK  status: ('A' for Active; 'I' for Inactive)
REMARK    1  A    between atoms: C5_5  and  C7_7 
ROOT
HETATM    1  C1  UNL     1     -35.287  15.844  -4.979  1.00 20.00     0.038 C 
HETATM    2  C2  UNL     1     -34.907  15.726  -2.407  1.00 20.00     0.018 A 
HETATM    3  C3  UNL     1     -34.419  15.336  -6.117  1.00 20.00     0.168 C 
HETATM    4  C4  UNL     1     -33.229  14.847  -4.208  1.00 20.00     0.177 C 
HETATM    5  C5  UNL     1     -34.159  16.939  -2.886  1.00 20.00     0.007 A 
HETATM    6  C6  UNL     1     -34.353  15.755  -3.815  1.00 20.00    -0.012 A 
HETATM    7  O8  UNL     1     -33.569  14.348  -5.515  1.00 20.00    -0.390 OA
ENDROOT
BRANCH   5   8
HETATM    8  C7  UNL     1     -32.835  17.274  -2.290  1.00 20.00     0.090 C 
HETATM    9 BR9  UNL     1     -33.064  18.381  -0.699  1.00 20.00    -0.096 Br
ENDBRANCH   5   8
TORSDOF 1
ENDMDL
MODEL 9
REMARK VINA RESULT:      -3.6     11.043     11.679
REMARK  1 active torsions:
REMARK  status: ('A' for Active; 'I' for Inactive)
REMARK    1  A    between atoms: C5_5  and  C7_7 
ROOT
HETATM    1  C1  UNL     1     -33.121  16.557  -2.829  1.00 20.00     0.038 C 
HETATM    2  C2  UNL     1     -33.123  14.439  -4.341  1.00 20.00     0.018 A 
HETATM    3  C3  UNL     1     -34.216  17.123  -1.942  1.00 20.00     0.168 C 
HETATM    4  C4  UNL     1     -35.166  15.280  -2.943  1.00 20.00     0.177 C 
HETATM    5  C5  UNL     1     -33.745  15.537  -5.158  1.00 20.00     0.007 A 
HETATM    6  C6  UNL     1     -33.872  15.555  -3.645  1.00 20.00    -0.012 A 
HETATM    7  O8  UNL     1     -35.105  16.019  -1.709  1.00 20.00    -0.390 OA
ENDROOT
BRANCH   5   8
HETATM    8  C7  UNL     1     -34.898  15.232  -6.050  1.00 20.00     0.090 C 
HETATM    9 BR9  UNL     1     -34.409  15.514  -7.918  1.00 20.00    -0.096 Br
ENDBRANCH   5   8
TORSDOF 1
ENDMDL
