MODEL 1
REMARK VINA RESULT:      -4.3      0.000      0.000
REMARK  2 active torsions:
REMARK  status: ('A' for Active; 'I' for Inactive)
REMARK    1  A    between atoms: C3_3  and  C6_6 
REMARK    2  A    between atoms: C7_7  and  C9_9 
ROOT
HETATM    1  C1  UNL     1     -33.274  15.550  -3.695  1.00 20.00     0.016 A 
HETATM    2  C2  UNL     1     -32.851  16.633  -2.871  1.00 20.00     0.015 A 
HETATM    3  C3  UNL     1     -34.574  15.176  -3.432  1.00 20.00    -0.013 A 
HETATM    4  C4  UNL     1     -33.844  17.046  -2.010  1.00 20.00    -0.021 A 
HETATM    5  C8  UNL     1     -33.800  18.133  -1.009  1.00 20.00     0.056 C 
HETATM    6  S10 UNL     1     -35.278  16.129  -2.197  1.00 20.00    -0.099 SA
ENDROOT
BRANCH   3   7
HETATM    7  C6  UNL     1     -35.312  14.040  -4.161  1.00 20.00     0.031 A 
HETATM    8  C5  UNL     1     -36.807  14.162  -4.361  1.00 20.00     0.016 A 
HETATM    9  C7  UNL     1     -35.892  14.259  -5.545  1.00 20.00     0.005 A 
BRANCH   9  10
HETATM   10  C9  UNL     1     -35.753  15.551  -6.276  1.00 20.00     0.090 C 
HETATM   11 BR11 UNL     1     -34.221  15.490  -7.484  1.00 20.00    -0.096 Br
ENDBRANCH   9  10
ENDBRANCH   3   7
TORSDOF 2
ENDMDL
MODEL 2
REMARK VINA RESULT:      -4.3      1.079      1.385
REMARK  2 active torsions:
REMARK  status: ('A' for Active; 'I' for Inactive)
REMARK    1  A    between atoms: C3_3  and  C6_6 
REMARK    2  A    between atoms: C7_7  and  C9_9 
ROOT
HETATM    1  C1  UNL     1     -35.427  15.882  -2.288  1.00 20.00     0.016 A 
HETATM    2  C2  UNL     1     -34.689  16.920  -1.648  1.00 20.00     0.015 A 
HETATM    3  C3  UNL     1     -34.698  15.266  -3.282  1.00 20.00    -0.013 A 
HETATM    4  C4  UNL     1     -33.424  17.057  -2.178  1.00 20.00    -0.021 A 
HETATM    5  C8  UNL     1     -32.362  18.009  -1.788  1.00 20.00     0.056 C 
HETATM    6  S10 UNL     1     -33.132  15.938  -3.441  1.00 20.00    -0.099 SA
ENDROOT
BRANCH   3   7
HETATM    7  C6  UNL     1     -35.224  14.109  -4.148  1.00 20.00     0.031 A 
HETATM    8  C5  UNL     1     -36.706  14.048  -4.448  1.00 20.00     0.016 A 
HETATM    9  C7  UNL     1     -35.741  14.368  -5.551  1.00 20.00     0.005 A 
BRANCH   9  10
HETATM   10  C9  UNL     1     -35.737  15.725  -6.167  1.00 20.00     0.090 C 
HETATM   11 BR11 UNL     1     -34.319  15.864  -7.502  1.00 20.00    -0.096 Br
ENDBRANCH   9  10
ENDBRANCH   3   7
TORSDOF 2
ENDMDL
MODEL 3
REMARK VINA RESULT:      -4.2      1.632      1.842
REMARK  2 active torsions:
REMARK  status: ('A' for Active; 'I' for Inactive)
REMARK    1  A    between atoms: C3_3  and  C6_6 
REMARK    2  A    between atoms: C7_7  and  C9_9 
ROOT
HETATM    1  C1  UNL     1     -35.303  15.865  -2.201  1.00 20.00     0.016 A 
HETATM    2  C2  UNL     1     -34.610  16.920  -1.538  1.00 20.00     0.015 A 
HETATM    3  C3  UNL     1     -34.569  15.339  -3.243  1.00 20.00    -0.013 A 
HETATM    4  C4  UNL     1     -33.375  17.159  -2.098  1.00 20.00    -0.021 A 
HETATM    5  C8  UNL     1     -32.362  18.160  -1.698  1.00 20.00     0.056 C 
HETATM    6  S10 UNL     1     -33.054  16.116  -3.418  1.00 20.00    -0.099 SA
ENDROOT
BRANCH   3   7
HETATM    7  C6  UNL     1     -35.049  14.189  -4.144  1.00 20.00     0.031 A 
HETATM    8  C5  UNL     1     -36.537  14.009  -4.352  1.00 20.00     0.016 A 
HETATM    9  C7  UNL     1     -35.682  14.477  -5.492  1.00 20.00     0.005 A 
BRANCH   9  10
HETATM   10  C9  UNL     1     -35.839  15.861  -6.023  1.00 20.00     0.090 C 
HETATM   11 BR11 UNL     1     -37.611  16.558  -5.596  1.00 20.00    -0.096 Br
ENDBRANCH   9  10
ENDBRANCH   3   7
TORSDOF 2
ENDMDL
MODEL 4
REMARK VINA RESULT:      -4.0      1.770      2.302
REMARK  2 active torsions:
REMARK  status: ('A' for Active; 'I' for Inactive)
REMARK    1  A    between atoms: C3_3  and  C6_6 
REMARK    2  A    between atoms: C7_7  and  C9_9 
ROOT
HETATM    1  C1  UNL     1     -35.002  16.095  -1.829  1.00 20.00     0.016 A 
HETATM    2  C2  UNL     1     -35.070  17.128  -0.850  1.00 20.00     0.015 A 
HETATM    3  C3  UNL     1     -33.882  16.206  -2.623  1.00 20.00    -0.013 A 
HETATM    4  C4  UNL     1     -33.998  17.990  -0.934  1.00 20.00    -0.021 A 
HETATM    5  C8  UNL     1     -33.704  19.176  -0.101  1.00 20.00     0.056 C 
HETATM    6  S10 UNL     1     -32.918  17.552  -2.188  1.00 20.00    -0.099 SA
ENDROOT
BRANCH   3   7
HETATM    7  C6  UNL     1     -33.532  15.238  -3.766  1.00 20.00     0.031 A 
HETATM    8  C5  UNL     1     -34.604  14.292  -4.263  1.00 20.00     0.016 A 
HETATM    9  C7  UNL     1     -34.143  15.416  -5.143  1.00 20.00     0.005 A 
BRANCH   9  10
HETATM   10  C9  UNL     1     -35.071  16.537  -5.468  1.00 20.00     0.090 C 
HETATM   11 BR11 UNL     1     -36.926  15.951  -5.322  1.00 20.00    -0.096 Br
ENDBRANCH   9  10
ENDBRANCH   3   7
TORSDOF 2
ENDMDL
MODEL 5
REMARK VINA RESULT:      -4.0     17.013     18.185
REMARK  2 active torsions:
REMARK  status: ('A' for Active; 'I' for Inactive)
REMARK    1  A    between atoms: C3_3  and  C6_6 
REMARK    2  A    between atoms: C7_7  and  C9_9 
ROOT
HETATM    1  C1  UNL     1     -26.291  16.800  12.332  1.00 20.00     0.016 A 
HETATM    2  C2  UNL     1     -27.694  17.032  12.234  1.00 20.00     0.015 A 
HETATM    3  C3  UNL     1     -25.558  17.927  12.029  1.00 20.00    -0.013 A 
HETATM    4  C4  UNL     1     -27.978  18.327  11.859  1.00 20.00    -0.021 A 
HETATM    5  C8  UNL     1     -29.301  18.956  11.654  1.00 20.00     0.056 C 
HETATM    6  S10 UNL     1     -26.558  19.256  11.627  1.00 20.00    -0.099 SA
ENDROOT
BRANCH   3   7
HETATM    7  C6  UNL     1     -24.021  17.989  12.049  1.00 20.00     0.031 A 
HETATM    8  C5  UNL     1     -23.244  16.710  11.824  1.00 20.00     0.016 A 
HETATM    9  C7  UNL     1     -23.223  17.783  10.775  1.00 20.00     0.005 A 
BRANCH   9  10
HETATM   10  C9  UNL     1     -23.872  17.546   9.454  1.00 20.00     0.090 C 
HETATM   11 BR11 UNL     1     -24.281  19.243   8.580  1.00 20.00    -0.096 Br
ENDBRANCH   9  10
ENDBRANCH   3   7
TORSDOF 2
ENDMDL
MODEL 6
REMARK VINA RESULT:      -3.9      3.108      5.090
REMARK  2 active torsions:
REMARK  status: ('A' for Active; 'I' for Inactive)
REMARK    1  A    between atoms: C3_3  and  C6_6 
REMARK    2  A    between atoms: C7_7  and  C9_9 
ROOT
HETATM    1  C1  UNL     1     -34.698  15.518  -2.678  1.00 20.00     0.016 A 
HETATM    2  C2  UNL     1     -34.496  14.718  -3.840  1.00 20.00     0.015 A 
HETATM    3  C3  UNL     1     -34.635  16.866  -2.960  1.00 20.00    -0.013 A 
HETATM    4  C4  UNL     1     -34.286  15.486  -4.965  1.00 20.00    -0.021 A 
HETATM    5  C8  UNL     1     -34.045  15.036  -6.353  1.00 20.00     0.056 C 
HETATM    6  S10 UNL     1     -34.333  17.162  -4.618  1.00 20.00    -0.099 SA
ENDROOT
BRANCH   3   7
HETATM    7  C6  UNL     1     -34.816  17.977  -1.912  1.00 20.00     0.031 A 
HETATM    8  C5  UNL     1     -34.570  17.643  -0.456  1.00 20.00     0.016 A 
HETATM    9  C7  UNL     1     -33.617  18.549  -1.178  1.00 20.00     0.005 A 
BRANCH   9  10
HETATM   10  C9  UNL     1     -32.222  18.098  -1.451  1.00 20.00     0.090 C 
HETATM   11 BR11 UNL     1     -31.072  18.476   0.079  1.00 20.00    -0.096 Br
ENDBRANCH   9  10
ENDBRANCH   3   7
TORSDOF 2
ENDMDL
MODEL 7
REMARK VINA RESULT:      -3.8      3.686      6.086
REMARK  2 active torsions:
REMARK  status: ('A' for Active; 'I' for Inactive)
REMARK    1  A    between atoms: C3_3  and  C6_6 
REMARK    2  A    between atoms: C7_7  and  C9_9 
ROOT
HETATM    1  C1  UNL     1     -35.213  17.027  -1.030  1.00 20.00     0.016 A 
HETATM    2  C2  UNL     1     -34.934  16.013  -1.991  1.00 20.00     0.015 A 
HETATM    3  C3  UNL     1     -34.254  18.017  -1.029  1.00 20.00    -0.013 A 
HETATM    4  C4  UNL     1     -33.774  16.267  -2.689  1.00 20.00    -0.021 A 
HETATM    5  C8  UNL     1     -33.151  15.463  -3.763  1.00 20.00     0.056 C 
HETATM    6  S10 UNL     1     -33.026  17.722  -2.184  1.00 20.00    -0.099 SA
ENDROOT
BRANCH   3   7
HETATM    7  C6  UNL     1     -34.281  19.246  -0.104  1.00 20.00     0.031 A 
HETATM    8  C5  UNL     1     -34.967  19.122   1.239  1.00 20.00     0.016 A 
HETATM    9  C7  UNL     1     -33.474  19.263   1.180  1.00 20.00     0.005 A 
BRANCH   9  10
HETATM   10  C9  UNL     1     -32.602  18.126   1.592  1.00 20.00     0.090 C 
HETATM   11 BR11 UNL     1     -30.766  18.428   1.005  1.00 20.00    -0.096 Br
ENDBRANCH   9  10
ENDBRANCH   3   7
TORSDOF 2
ENDMDL
MODEL 8
REMARK VINA RESULT:      -3.7      2.746      4.858
REMARK  2 active torsions:
REMARK  status: ('A' for Active; 'I' for Inactive)
REMARK    1  A    between atoms: C3_3  and  C6_6 
REMARK    2  A    between atoms: C7_7  and  C9_9 
ROOT
HETATM    1  C1  UNL     1     -35.763  14.234  -4.127  1.00 20.00     0.016 A 
HETATM    2  C2  UNL     1     -36.189  14.078  -5.478  1.00 20.00     0.015 A 
HETATM    3  C3  UNL     1     -34.837  15.246  -3.990  1.00 20.00    -0.013 A 
HETATM    4  C4  UNL     1     -35.573  14.977  -6.322  1.00 20.00    -0.021 A 
HETATM    5  C8  UNL     1     -35.748  15.137  -7.781  1.00 20.00     0.056 C 
HETATM    6  S10 UNL     1     -34.486  16.002  -5.485  1.00 20.00    -0.099 SA
ENDROOT
BRANCH   3   7
HETATM    7  C6  UNL     1     -34.194  15.654  -2.654  1.00 20.00     0.031 A 
HETATM    8  C5  UNL     1     -33.470  16.981  -2.577  1.00 20.00     0.016 A 
HETATM    9  C7  UNL     1     -34.764  16.801  -1.841  1.00 20.00     0.005 A 
BRANCH   9  10
HETATM   10  C9  UNL     1     -35.976  17.559  -2.266  1.00 20.00     0.090 C 
HETATM   11 BR11 UNL     1     -36.981  18.169  -0.709  1.00 20.00    -0.096 Br
ENDBRANCH   9  10
ENDBRANCH   3   7
TORSDOF 2
ENDMDL
MODEL 9
REMARK VINA RESULT:      -3.7      3.294      4.533
REMARK  2 active torsions:
REMARK  status: ('A' for Active; 'I' for Inactive)
REMARK    1  A    between atoms: C3_3  and  C6_6 
REMARK    2  A    between atoms: C7_7  and  C9_9 
ROOT
HETATM    1  C1  UNL     1     -35.347  17.036  -0.099  1.00 20.00     0.016 A 
HETATM    2  C2  UNL     1     -36.438  17.824   0.368  1.00 20.00     0.015 A 
HETATM    3  C3  UNL     1     -35.364  16.889  -1.470  1.00 20.00    -0.013 A 
HETATM    4  C4  UNL     1     -37.247  18.249  -0.663  1.00 20.00    -0.021 A 
HETATM    5  C8  UNL     1     -38.467  19.082  -0.591  1.00 20.00     0.056 C 
HETATM    6  S10 UNL     1     -36.691  17.698  -2.186  1.00 20.00    -0.099 SA
ENDROOT
BRANCH   3   7
HETATM    7  C6  UNL     1     -34.316  16.094  -2.267  1.00 20.00     0.031 A 
HETATM    8  C5  UNL     1     -34.144  16.402  -3.739  1.00 20.00     0.016 A 
HETATM    9  C7  UNL     1     -33.056  16.771  -2.775  1.00 20.00     0.005 A 
BRANCH   9  10
HETATM   10  C9  UNL     1     -32.754  18.206  -2.504  1.00 20.00     0.090 C 
HETATM   11 BR11 UNL     1     -31.754  18.390  -0.838  1.00 20.00    -0.096 Br
ENDBRANCH   9  10
ENDBRANCH   3   7
TORSDOF 2
ENDMDL
