MODEL 1
REMARK VINA RESULT:      -4.2      0.000      0.000
REMARK  2 active torsions:
REMARK  status: ('A' for Active; 'I' for Inactive)
REMARK    1  A    between atoms: C2_2  and  C6_6 
REMARK    2  A    between atoms: C3_3  and  C7_7 
ROOT
HETATM    1  C1  UNL     1     -33.816   4.703   2.092  1.00 20.00     0.011 A 
HETATM    2  C2  UNL     1     -33.887   4.692   3.596  1.00 20.00     0.004 A 
HETATM    3  C3  UNL     1     -32.836   5.520   2.893  1.00 20.00    -0.006 A 
ENDROOT
BRANCH   3   4
HETATM    4  C7  UNL     1     -32.886   7.008   2.850  1.00 20.00    -0.018 C 
HETATM    5  C4  UNL     1     -31.960   7.644   3.904  1.00 20.00     0.010 C 
HETATM    6  C5  UNL     1     -32.519   7.555   1.458  1.00 20.00     0.010 C 
ENDBRANCH   3   4
BRANCH   2   7
HETATM    7  C6  UNL     1     -35.049   5.305   4.299  1.00 20.00     0.119 C 
HETATM    8 CL8  UNL     1     -34.674   5.622   6.016  1.00 20.00    -0.130 Cl
ENDBRANCH   2   7
TORSDOF 2
ENDMDL
MODEL 2
REMARK VINA RESULT:      -4.1      2.761      4.017
REMARK  2 active torsions:
REMARK  status: ('A' for Active; 'I' for Inactive)
REMARK    1  A    between atoms: C2_2  and  C6_6 
REMARK    2  A    between atoms: C3_3  and  C7_7 
ROOT
HETATM    1  C1  UNL     1     -31.681   7.377   3.304  1.00 20.00     0.011 A 
HETATM    2  C2  UNL     1     -32.475   7.294   2.026  1.00 20.00     0.004 A 
HETATM    3  C3  UNL     1     -32.797   6.372   3.180  1.00 20.00    -0.006 A 
ENDROOT
BRANCH   3   4
HETATM    4  C7  UNL     1     -34.033   6.517   3.999  1.00 20.00    -0.018 C 
HETATM    5  C4  UNL     1     -34.842   5.208   4.054  1.00 20.00     0.010 C 
HETATM    6  C5  UNL     1     -33.720   6.978   5.435  1.00 20.00     0.010 C 
ENDBRANCH   3   4
BRANCH   2   7
HETATM    7  C6  UNL     1     -33.372   8.415   1.625  1.00 20.00     0.119 C 
HETATM    8 CL8  UNL     1     -33.247   8.748  -0.125  1.00 20.00    -0.130 Cl
ENDBRANCH   2   7
TORSDOF 2
ENDMDL
MODEL 3
REMARK VINA RESULT:      -3.8     15.906     17.110
REMARK  2 active torsions:
REMARK  status: ('A' for Active; 'I' for Inactive)
REMARK    1  A    between atoms: C2_2  and  C6_6 
REMARK    2  A    between atoms: C3_3  and  C7_7 
ROOT
HETATM    1  C1  UNL     1     -21.721  18.119   9.368  1.00 20.00     0.011 A 
HETATM    2  C2  UNL     1     -22.993  18.085   8.561  1.00 20.00     0.004 A 
HETATM    3  C3  UNL     1     -22.814  17.148   9.735  1.00 20.00    -0.006 A 
ENDROOT
BRANCH   3   4
HETATM    4  C7  UNL     1     -23.566  17.311  11.010  1.00 20.00    -0.018 C 
HETATM    5  C4  UNL     1     -24.411  16.067  11.341  1.00 20.00     0.010 C 
HETATM    6  C5  UNL     1     -22.629  17.616  12.194  1.00 20.00     0.010 C 
ENDBRANCH   3   4
BRANCH   2   7
HETATM    7  C6  UNL     1     -23.936  19.238   8.596  1.00 20.00     0.119 C 
HETATM    8 CL8  UNL     1     -25.421  18.888   7.668  1.00 20.00    -0.130 Cl
ENDBRANCH   2   7
TORSDOF 2
ENDMDL
MODEL 4
REMARK VINA RESULT:      -3.7      2.395      3.547
REMARK  2 active torsions:
REMARK  status: ('A' for Active; 'I' for Inactive)
REMARK    1  A    between atoms: C2_2  and  C6_6 
REMARK    2  A    between atoms: C3_3  and  C7_7 
ROOT
HETATM    1  C1  UNL     1     -33.680   4.449   2.936  1.00 20.00     0.011 A 
HETATM    2  C2  UNL     1     -33.704   5.912   2.575  1.00 20.00     0.004 A 
HETATM    3  C3  UNL     1     -34.455   5.418   3.791  1.00 20.00    -0.006 A 
ENDROOT
BRANCH   3   4
HETATM    4  C7  UNL     1     -34.010   5.714   5.181  1.00 20.00    -0.018 C 
HETATM    5  C4  UNL     1     -34.155   7.209   5.524  1.00 20.00     0.010 C 
HETATM    6  C5  UNL     1     -34.782   4.880   6.221  1.00 20.00     0.010 C 
ENDBRANCH   3   4
BRANCH   2   7
HETATM    7  C6  UNL     1     -32.465   6.732   2.681  1.00 20.00     0.119 C 
HETATM    8 CL8  UNL     1     -32.445   8.035   1.460  1.00 20.00    -0.130 Cl
ENDBRANCH   2   7
TORSDOF 2
ENDMDL
MODEL 5
REMARK VINA RESULT:      -3.6      1.279      2.461
REMARK  2 active torsions:
REMARK  status: ('A' for Active; 'I' for Inactive)
REMARK    1  A    between atoms: C2_2  and  C6_6 
REMARK    2  A    between atoms: C3_3  and  C7_7 
ROOT
HETATM    1  C1  UNL     1     -35.548   5.822   4.152  1.00 20.00     0.011 A 
HETATM    2  C2  UNL     1     -34.992   4.856   5.166  1.00 20.00     0.004 A 
HETATM    3  C3  UNL     1     -34.629   4.714   3.705  1.00 20.00    -0.006 A 
ENDROOT
BRANCH   3   4
HETATM    4  C7  UNL     1     -33.270   5.031   3.184  1.00 20.00    -0.018 C 
HETATM    5  C4  UNL     1     -32.901   4.153   1.974  1.00 20.00     0.010 C 
HETATM    6  C5  UNL     1     -33.137   6.514   2.793  1.00 20.00     0.010 C 
ENDBRANCH   3   4
BRANCH   2   7
HETATM    7  C6  UNL     1     -34.015   5.322   6.190  1.00 20.00     0.119 C 
HETATM    8 CL8  UNL     1     -33.867   7.102   6.180  1.00 20.00    -0.130 Cl
ENDBRANCH   2   7
TORSDOF 2
ENDMDL
MODEL 6
REMARK VINA RESULT:      -3.5      8.939      9.524
REMARK  2 active torsions:
REMARK  status: ('A' for Active; 'I' for Inactive)
REMARK    1  A    between atoms: C2_2  and  C6_6 
REMARK    2  A    between atoms: C3_3  and  C7_7 
ROOT
HETATM    1  C1  UNL     1     -40.837   5.787  -0.550  1.00 20.00     0.011 A 
HETATM    2  C2  UNL     1     -41.820   5.515   0.559  1.00 20.00     0.004 A 
HETATM    3  C3  UNL     1     -41.225   6.896   0.394  1.00 20.00    -0.006 A 
ENDROOT
BRANCH   3   4
HETATM    4  C7  UNL     1     -42.020   8.056  -0.096  1.00 20.00    -0.018 C 
HETATM    5  C4  UNL     1     -41.432   9.397   0.380  1.00 20.00     0.010 C 
HETATM    6  C5  UNL     1     -42.130   8.069  -1.632  1.00 20.00     0.010 C 
ENDBRANCH   3   4
BRANCH   2   7
HETATM    7  C6  UNL     1     -43.245   5.217   0.243  1.00 20.00     0.119 C 
HETATM    8 CL8  UNL     1     -43.415   4.536  -1.400  1.00 20.00    -0.130 Cl
ENDBRANCH   2   7
TORSDOF 2
ENDMDL
MODEL 7
REMARK VINA RESULT:      -3.5     11.452     12.004
REMARK  2 active torsions:
REMARK  status: ('A' for Active; 'I' for Inactive)
REMARK    1  A    between atoms: C2_2  and  C6_6 
REMARK    2  A    between atoms: C3_3  and  C7_7 
ROOT
HETATM    1  C1  UNL     1     -33.621  14.650  -4.463  1.00 20.00     0.011 A 
HETATM    2  C2  UNL     1     -35.063  14.325  -4.175  1.00 20.00     0.004 A 
HETATM    3  C3  UNL     1     -34.218  15.013  -3.128  1.00 20.00    -0.006 A 
ENDROOT
BRANCH   3   4
HETATM    4  C7  UNL     1     -34.411  16.442  -2.755  1.00 20.00    -0.018 C 
HETATM    5  C4  UNL     1     -35.125  16.590  -1.399  1.00 20.00     0.010 C 
HETATM    6  C5  UNL     1     -33.077  17.210  -2.711  1.00 20.00     0.010 C 
ENDBRANCH   3   4
BRANCH   2   7
HETATM    7  C6  UNL     1     -36.153  15.028  -4.909  1.00 20.00     0.119 C 
HETATM    8 CL8  UNL     1     -37.761  14.527  -4.316  1.00 20.00    -0.130 Cl
ENDBRANCH   2   7
TORSDOF 2
ENDMDL
MODEL 8
REMARK VINA RESULT:      -3.5     11.977     12.582
REMARK  2 active torsions:
REMARK  status: ('A' for Active; 'I' for Inactive)
REMARK    1  A    between atoms: C2_2  and  C6_6 
REMARK    2  A    between atoms: C3_3  and  C7_7 
ROOT
HETATM    1  C1  UNL     1     -33.538  14.746  -4.268  1.00 20.00     0.011 A 
HETATM    2  C2  UNL     1     -35.030  14.776  -4.471  1.00 20.00     0.004 A 
HETATM    3  C3  UNL     1     -34.440  15.140  -3.128  1.00 20.00    -0.006 A 
ENDROOT
BRANCH   3   4
HETATM    4  C7  UNL     1     -34.431  16.536  -2.610  1.00 20.00    -0.018 C 
HETATM    5  C4  UNL     1     -35.165  16.654  -1.262  1.00 20.00     0.010 C 
HETATM    6  C5  UNL     1     -32.999  17.081  -2.455  1.00 20.00     0.010 C 
ENDBRANCH   3   4
BRANCH   2   7
HETATM    7  C6  UNL     1     -35.645  15.789  -5.374  1.00 20.00     0.119 C 
HETATM    8 CL8  UNL     1     -34.439  16.468  -6.502  1.00 20.00    -0.130 Cl
ENDBRANCH   2   7
TORSDOF 2
ENDMDL
MODEL 9
REMARK VINA RESULT:      -3.3     11.980     12.784
REMARK  2 active torsions:
REMARK  status: ('A' for Active; 'I' for Inactive)
REMARK    1  A    between atoms: C2_2  and  C6_6 
REMARK    2  A    between atoms: C3_3  and  C7_7 
ROOT
HETATM    1  C1  UNL     1     -35.195  16.293  -1.872  1.00 20.00     0.011 A 
HETATM    2  C2  UNL     1     -34.125  17.245  -2.339  1.00 20.00     0.004 A 
HETATM    3  C3  UNL     1     -34.003  15.767  -2.630  1.00 20.00    -0.006 A 
ENDROOT
BRANCH   3   4
HETATM    4  C7  UNL     1     -34.172  15.204  -3.998  1.00 20.00    -0.018 C 
HETATM    5  C4  UNL     1     -32.901  14.483  -4.483  1.00 20.00     0.010 C 
HETATM    6  C5  UNL     1     -35.365  14.233  -4.077  1.00 20.00     0.010 C 
ENDBRANCH   3   4
BRANCH   2   7
HETATM    7  C6  UNL     1     -34.421  18.246  -3.402  1.00 20.00     0.119 C 
HETATM    8 CL8  UNL     1     -32.921  18.841  -4.168  1.00 20.00    -0.130 Cl
ENDBRANCH   2   7
TORSDOF 2
ENDMDL
