MODEL 1
REMARK VINA RESULT:      -4.6      0.000      0.000
REMARK  2 active torsions:
REMARK  status: ('A' for Active; 'I' for Inactive)
REMARK    1  A    between atoms: C6_6  and  C8_8 
REMARK    2  A    between atoms: C8_8  and  O9_9 
ROOT
HETATM    1  C1  UNL     1     -32.897  17.620  -2.341  1.00 20.00     0.011 C 
HETATM    2  C2  UNL     1     -33.885  16.462  -2.225  1.00 20.00     0.011 C 
HETATM    3  C3  UNL     1     -33.424  14.885  -4.246  1.00 20.00     0.018 A 
HETATM    4  C4  UNL     1     -33.464  18.804  -3.115  1.00 20.00     0.074 C 
HETATM    5  C5  UNL     1     -34.998  16.945  -4.457  1.00 20.00     0.083 C 
HETATM    6  C6  UNL     1     -34.733  14.474  -3.630  1.00 20.00     0.019 A 
HETATM    7  C7  UNL     1     -34.298  15.933  -3.585  1.00 20.00    -0.026 A 
HETATM    8  S10 UNL     1     -33.899  18.342  -4.818  1.00 20.00    -0.168 SA
ENDROOT
BRANCH   6   9
HETATM    9  C8  UNL     1     -35.846  13.983  -4.490  1.00 20.00     0.169 C 
BRANCH   9  10
HETATM   10  O9  UNL     1     -35.848  12.556  -4.515  1.00 20.00    -0.400 OA
HETATM   11  H24 UNL     1     -35.878  12.265  -3.591  1.00 20.00     0.209 HD
ENDBRANCH   9  10
ENDBRANCH   6   9
TORSDOF 2
ENDMDL
MODEL 2
REMARK VINA RESULT:      -4.3      1.476      1.764
REMARK  2 active torsions:
REMARK  status: ('A' for Active; 'I' for Inactive)
REMARK    1  A    between atoms: C6_6  and  C8_8 
REMARK    2  A    between atoms: C8_8  and  O9_9 
ROOT
HETATM    1  C1  UNL     1     -32.831  17.293  -2.849  1.00 20.00     0.011 C 
HETATM    2  C2  UNL     1     -33.140  15.884  -3.350  1.00 20.00     0.011 C 
HETATM    3  C3  UNL     1     -35.188  16.096  -4.946  1.00 20.00     0.018 A 
HETATM    4  C4  UNL     1     -33.540  17.622  -1.541  1.00 20.00     0.074 C 
HETATM    5  C5  UNL     1     -35.485  15.852  -2.373  1.00 20.00     0.083 C 
HETATM    6  C6  UNL     1     -34.990  14.637  -4.641  1.00 20.00     0.019 A 
HETATM    7  C7  UNL     1     -34.623  15.686  -3.599  1.00 20.00    -0.026 A 
HETATM    8  S10 UNL     1     -35.347  17.539  -1.722  1.00 20.00    -0.168 SA
ENDROOT
BRANCH   6   9
HETATM    9  C8  UNL     1     -36.166  13.732  -4.505  1.00 20.00     0.169 C 
BRANCH   9  10
HETATM   10  O9  UNL     1     -35.726  12.390  -4.304  1.00 20.00    -0.400 OA
HETATM   11  H24 UNL     1     -36.044  11.880  -5.065  1.00 20.00     0.209 HD
ENDBRANCH   9  10
ENDBRANCH   6   9
TORSDOF 2
ENDMDL
MODEL 3
REMARK VINA RESULT:      -4.2      1.726      1.807
REMARK  2 active torsions:
REMARK  status: ('A' for Active; 'I' for Inactive)
REMARK    1  A    between atoms: C6_6  and  C8_8 
REMARK    2  A    between atoms: C8_8  and  O9_9 
ROOT
HETATM    1  C1  UNL     1     -34.062  17.025  -1.455  1.00 20.00     0.011 C 
HETATM    2  C2  UNL     1     -34.790  16.144  -2.467  1.00 20.00     0.011 C 
HETATM    3  C3  UNL     1     -32.962  15.131  -4.021  1.00 20.00     0.018 A 
HETATM    4  C4  UNL     1     -33.952  18.476  -1.907  1.00 20.00     0.074 C 
HETATM    5  C5  UNL     1     -33.992  17.476  -4.478  1.00 20.00     0.083 C 
HETATM    6  C6  UNL     1     -34.300  14.880  -4.660  1.00 20.00     0.019 A 
HETATM    7  C7  UNL     1     -34.087  16.127  -3.810  1.00 20.00    -0.026 A 
HETATM    8  S10 UNL     1     -33.022  18.622  -3.462  1.00 20.00    -0.168 SA
ENDROOT
BRANCH   6   9
HETATM    9  C8  UNL     1     -34.444  14.921  -6.142  1.00 20.00     0.169 C 
BRANCH   9  10
HETATM   10  O9  UNL     1     -33.215  14.544  -6.761  1.00 20.00    -0.400 OA
HETATM   11  H24 UNL     1     -33.396  13.733  -7.260  1.00 20.00     0.209 HD
ENDBRANCH   9  10
ENDBRANCH   6   9
TORSDOF 2
ENDMDL
MODEL 4
REMARK VINA RESULT:      -4.0      2.751      4.221
REMARK  2 active torsions:
REMARK  status: ('A' for Active; 'I' for Inactive)
REMARK    1  A    between atoms: C6_6  and  C8_8 
REMARK    2  A    between atoms: C8_8  and  O9_9 
ROOT
HETATM    1  C1  UNL     1     -35.228  13.849  -4.074  1.00 20.00     0.011 C 
HETATM    2  C2  UNL     1     -33.941  14.640  -3.855  1.00 20.00     0.011 C 
HETATM    3  C3  UNL     1     -34.462  16.412  -2.018  1.00 20.00     0.018 A 
HETATM    4  C4  UNL     1     -36.094  14.428  -5.186  1.00 20.00     0.074 C 
HETATM    5  C5  UNL     1     -34.973  16.861  -4.529  1.00 20.00     0.083 C 
HETATM    6  C6  UNL     1     -33.148  16.777  -2.651  1.00 20.00     0.019 A 
HETATM    7  C7  UNL     1     -34.221  16.082  -3.479  1.00 20.00    -0.026 A 
HETATM    8  S10 UNL     1     -36.609  16.131  -4.813  1.00 20.00    -0.168 SA
ENDROOT
BRANCH   6   9
HETATM    9  C8  UNL     1     -32.776  18.208  -2.838  1.00 20.00     0.169 C 
BRANCH   9  10
HETATM   10  O9  UNL     1     -31.798  18.586  -1.870  1.00 20.00    -0.400 OA
HETATM   11  H24 UNL     1     -31.015  18.870  -2.367  1.00 20.00     0.209 HD
ENDBRANCH   9  10
ENDBRANCH   6   9
TORSDOF 2
ENDMDL
MODEL 5
REMARK VINA RESULT:      -4.0      2.014      2.386
REMARK  2 active torsions:
REMARK  status: ('A' for Active; 'I' for Inactive)
REMARK    1  A    between atoms: C6_6  and  C8_8 
REMARK    2  A    between atoms: C8_8  and  O9_9 
ROOT
HETATM    1  C1  UNL     1     -35.604  17.635  -1.142  1.00 20.00     0.011 C 
HETATM    2  C2  UNL     1     -35.006  16.304  -1.592  1.00 20.00     0.011 C 
HETATM    3  C3  UNL     1     -33.208  16.868  -3.391  1.00 20.00     0.018 A 
HETATM    4  C4  UNL     1     -36.841  18.025  -1.941  1.00 20.00     0.074 C 
HETATM    5  C5  UNL     1     -35.719  16.590  -4.013  1.00 20.00     0.083 C 
HETATM    6  C6  UNL     1     -33.463  15.387  -3.443  1.00 20.00     0.019 A 
HETATM    7  C7  UNL     1     -34.587  16.337  -3.049  1.00 20.00    -0.026 A 
HETATM    8  S10 UNL     1     -36.461  18.217  -3.708  1.00 20.00    -0.168 SA
ENDROOT
BRANCH   6   9
HETATM    9  C8  UNL     1     -33.428  14.663  -4.745  1.00 20.00     0.169 C 
BRANCH   9  10
HETATM   10  O9  UNL     1     -32.749  13.417  -4.590  1.00 20.00    -0.400 OA
HETATM   11  H24 UNL     1     -32.941  13.110  -3.691  1.00 20.00     0.209 HD
ENDBRANCH   9  10
ENDBRANCH   6   9
TORSDOF 2
ENDMDL
MODEL 6
REMARK VINA RESULT:      -4.0      2.332      3.649
REMARK  2 active torsions:
REMARK  status: ('A' for Active; 'I' for Inactive)
REMARK    1  A    between atoms: C6_6  and  C8_8 
REMARK    2  A    between atoms: C8_8  and  O9_9 
ROOT
HETATM    1  C1  UNL     1     -38.294  15.242  -4.262  1.00 20.00     0.011 C 
HETATM    2  C2  UNL     1     -37.061  14.349  -4.370  1.00 20.00     0.011 C 
HETATM    3  C3  UNL     1     -35.198  15.478  -2.942  1.00 20.00     0.018 A 
HETATM    4  C4  UNL     1     -38.372  16.278  -5.376  1.00 20.00     0.074 C 
HETATM    5  C5  UNL     1     -35.616  16.156  -5.418  1.00 20.00     0.083 C 
HETATM    6  C6  UNL     1     -34.552  14.410  -3.781  1.00 20.00     0.019 A 
HETATM    7  C7  UNL     1     -35.776  15.150  -4.306  1.00 20.00    -0.026 A 
HETATM    8  S10 UNL     1     -36.938  17.396  -5.349  1.00 20.00    -0.168 SA
ENDROOT
BRANCH   6   9
HETATM    9  C8  UNL     1     -33.182  14.612  -4.329  1.00 20.00     0.169 C 
BRANCH   9  10
HETATM   10  O9  UNL     1     -32.557  13.348  -4.553  1.00 20.00    -0.400 OA
HETATM   11  H24 UNL     1     -33.251  12.750  -4.867  1.00 20.00     0.209 HD
ENDBRANCH   9  10
ENDBRANCH   6   9
TORSDOF 2
ENDMDL
MODEL 7
REMARK VINA RESULT:      -3.9      2.184      2.723
REMARK  2 active torsions:
REMARK  status: ('A' for Active; 'I' for Inactive)
REMARK    1  A    between atoms: C6_6  and  C8_8 
REMARK    2  A    between atoms: C8_8  and  O9_9 
ROOT
HETATM    1  C1  UNL     1     -33.373  18.718  -0.983  1.00 20.00     0.011 C 
HETATM    2  C2  UNL     1     -32.723  17.531  -1.689  1.00 20.00     0.011 C 
HETATM    3  C3  UNL     1     -33.910  17.297  -3.996  1.00 20.00     0.018 A 
HETATM    4  C4  UNL     1     -34.541  18.309  -0.095  1.00 20.00     0.074 C 
HETATM    5  C5  UNL     1     -34.884  16.204  -1.845  1.00 20.00     0.083 C 
HETATM    6  C6  UNL     1     -33.105  16.048  -3.763  1.00 20.00     0.019 A 
HETATM    7  C7  UNL     1     -33.706  16.795  -2.579  1.00 20.00    -0.026 A 
HETATM    8  S10 UNL     1     -35.862  17.511  -1.055  1.00 20.00    -0.168 SA
ENDROOT
BRANCH   6   9
HETATM    9  C8  UNL     1     -33.613  14.729  -4.235  1.00 20.00     0.169 C 
BRANCH   9  10
HETATM   10  O9  UNL     1     -32.960  14.364  -5.450  1.00 20.00    -0.400 OA
HETATM   11  H24 UNL     1     -33.616  13.888  -5.981  1.00 20.00     0.209 HD
ENDBRANCH   9  10
ENDBRANCH   6   9
TORSDOF 2
ENDMDL
MODEL 8
REMARK VINA RESULT:      -3.9      1.632      1.844
REMARK  2 active torsions:
REMARK  status: ('A' for Active; 'I' for Inactive)
REMARK    1  A    between atoms: C6_6  and  C8_8 
REMARK    2  A    between atoms: C8_8  and  O9_9 
ROOT
HETATM    1  C1  UNL     1     -33.162  16.259  -3.051  1.00 20.00     0.011 C 
HETATM    2  C2  UNL     1     -34.504  15.602  -2.738  1.00 20.00     0.011 C 
HETATM    3  C3  UNL     1     -35.282  14.423  -4.927  1.00 20.00     0.018 A 
HETATM    4  C4  UNL     1     -33.306  17.702  -3.519  1.00 20.00     0.074 C 
HETATM    5  C5  UNL     1     -35.775  16.939  -4.486  1.00 20.00     0.083 C 
HETATM    6  C6  UNL     1     -36.452  14.459  -3.982  1.00 20.00     0.019 A 
HETATM    7  C7  UNL     1     -35.416  15.576  -3.950  1.00 20.00    -0.026 A 
HETATM    8  S10 UNL     1     -34.288  17.814  -5.044  1.00 20.00    -0.168 SA
ENDROOT
BRANCH   6   9
HETATM    9  C8  UNL     1     -37.834  14.646  -4.505  1.00 20.00     0.169 C 
BRANCH   9  10
HETATM   10  O9  UNL     1     -38.750  14.780  -3.418  1.00 20.00    -0.400 OA
HETATM   11  H24 UNL     1     -39.356  14.025  -3.476  1.00 20.00     0.209 HD
ENDBRANCH   9  10
ENDBRANCH   6   9
TORSDOF 2
ENDMDL
MODEL 9
REMARK VINA RESULT:      -3.8     16.759     17.579
REMARK  2 active torsions:
REMARK  status: ('A' for Active; 'I' for Inactive)
REMARK    1  A    between atoms: C6_6  and  C8_8 
REMARK    2  A    between atoms: C8_8  and  O9_9 
ROOT
HETATM    1  C1  UNL     1     -23.587  19.263   8.711  1.00 20.00     0.011 C 
HETATM    2  C2  UNL     1     -24.895  18.764   9.320  1.00 20.00     0.011 C 
HETATM    3  C3  UNL     1     -24.505  18.604  11.890  1.00 20.00     0.018 A 
HETATM    4  C4  UNL     1     -22.667  18.127   8.280  1.00 20.00     0.074 C 
HETATM    5  C5  UNL     1     -23.857  16.658  10.290  1.00 20.00     0.083 C 
HETATM    6  C6  UNL     1     -25.785  17.882  11.573  1.00 20.00     0.019 A 
HETATM    7  C7  UNL     1     -24.656  17.910  10.550  1.00 20.00    -0.026 A 
HETATM    8  S10 UNL     1     -22.198  17.077   9.688  1.00 20.00    -0.168 SA
ENDROOT
BRANCH   6   9
HETATM    9  C8  UNL     1     -26.165  16.657  12.332  1.00 20.00     0.169 C 
BRANCH   9  10
HETATM   10  O9  UNL     1     -27.574  16.451  12.249  1.00 20.00    -0.400 OA
HETATM   11  H24 UNL     1     -27.990  17.238  12.632  1.00 20.00     0.209 HD
ENDBRANCH   9  10
ENDBRANCH   6   9
TORSDOF 2
ENDMDL
