MODEL 1
REMARK VINA RESULT:      -4.1      0.000      0.000
REMARK  3 active torsions:
REMARK  status: ('A' for Active; 'I' for Inactive)
REMARK    1  A    between atoms: C2_2  and  C6_6 
REMARK    2  A    between atoms: C3_3  and  C7_7 
REMARK    3  A    between atoms: C6_6  and  O8_8 
ROOT
HETATM    1  C1  UNL     1     -33.408  14.901  -4.119  1.00 20.00     0.017 A 
HETATM    2  C2  UNL     1     -34.764  14.499  -3.612  1.00 20.00     0.018 A 
HETATM    3  C3  UNL     1     -34.329  15.963  -3.538  1.00 20.00    -0.038 A 
HETATM    4  C4  UNL     1     -34.927  16.974  -4.481  1.00 20.00     0.015 C 
ENDROOT
BRANCH   2   5
HETATM    5  C6  UNL     1     -35.808  14.016  -4.559  1.00 20.00     0.169 C 
BRANCH   5   6
HETATM    6  O8  UNL     1     -35.867  12.590  -4.531  1.00 20.00    -0.400 OA
HETATM    7  H22 UNL     1     -34.952  12.276  -4.578  1.00 20.00     0.209 HD
ENDBRANCH   5   6
ENDBRANCH   2   5
BRANCH   3   8
HETATM    8  C7  UNL     1     -33.998  16.515  -2.177  1.00 20.00     0.005 C 
HETATM    9  C5  UNL     1     -32.867  17.501  -2.219  1.00 20.00     0.006 C 
ENDBRANCH   3   8
TORSDOF 3
ENDMDL
MODEL 2
REMARK VINA RESULT:      -4.0      1.426      2.049
REMARK  3 active torsions:
REMARK  status: ('A' for Active; 'I' for Inactive)
REMARK    1  A    between atoms: C2_2  and  C6_6 
REMARK    2  A    between atoms: C3_3  and  C7_7 
REMARK    3  A    between atoms: C6_6  and  O8_8 
ROOT
HETATM    1  C1  UNL     1     -35.449  13.697  -4.150  1.00 20.00     0.017 A 
HETATM    2  C2  UNL     1     -35.600  14.948  -4.967  1.00 20.00     0.018 A 
HETATM    3  C3  UNL     1     -34.532  14.879  -3.875  1.00 20.00    -0.038 A 
HETATM    4  C4  UNL     1     -33.079  14.749  -4.250  1.00 20.00     0.015 C 
ENDROOT
BRANCH   2   5
HETATM    5  C6  UNL     1     -35.267  14.942  -6.419  1.00 20.00     0.169 C 
BRANCH   5   6
HETATM    6  O8  UNL     1     -35.928  13.854  -7.065  1.00 20.00    -0.400 OA
HETATM    7  H22 UNL     1     -35.800  13.080  -6.498  1.00 20.00     0.209 HD
ENDBRANCH   5   6
ENDBRANCH   2   5
BRANCH   3   8
HETATM    8  C7  UNL     1     -34.773  15.682  -2.624  1.00 20.00     0.005 C 
HETATM    9  C5  UNL     1     -33.655  16.641  -2.336  1.00 20.00     0.006 C 
ENDBRANCH   3   8
TORSDOF 3
ENDMDL
MODEL 3
REMARK VINA RESULT:      -3.9      1.533      2.097
REMARK  3 active torsions:
REMARK  status: ('A' for Active; 'I' for Inactive)
REMARK    1  A    between atoms: C2_2  and  C6_6 
REMARK    2  A    between atoms: C3_3  and  C7_7 
REMARK    3  A    between atoms: C6_6  and  O8_8 
ROOT
HETATM    1  C1  UNL     1     -34.015  16.857  -4.238  1.00 20.00     0.017 A 
HETATM    2  C2  UNL     1     -33.257  15.619  -3.851  1.00 20.00     0.018 A 
HETATM    3  C3  UNL     1     -33.833  16.528  -2.765  1.00 20.00    -0.038 A 
HETATM    4  C4  UNL     1     -35.043  16.092  -1.982  1.00 20.00     0.015 C 
ENDROOT
BRANCH   2   5
HETATM    5  C6  UNL     1     -33.815  14.271  -4.151  1.00 20.00     0.169 C 
BRANCH   5   6
HETATM    6  O8  UNL     1     -32.763  13.380  -4.522  1.00 20.00    -0.400 OA
HETATM    7  H22 UNL     1     -32.461  13.661  -5.398  1.00 20.00     0.209 HD
ENDBRANCH   5   6
ENDBRANCH   2   5
BRANCH   3   8
HETATM    8  C7  UNL     1     -32.857  17.357  -1.973  1.00 20.00     0.005 C 
HETATM    9  C5  UNL     1     -33.509  18.063  -0.820  1.00 20.00     0.006 C 
ENDBRANCH   3   8
TORSDOF 3
ENDMDL
MODEL 4
REMARK VINA RESULT:      -3.8     10.414     11.945
REMARK  3 active torsions:
REMARK  status: ('A' for Active; 'I' for Inactive)
REMARK    1  A    between atoms: C2_2  and  C6_6 
REMARK    2  A    between atoms: C3_3  and  C7_7 
REMARK    3  A    between atoms: C6_6  and  O8_8 
ROOT
HETATM    1  C1  UNL     1     -42.256   7.000   0.974  1.00 20.00     0.017 A 
HETATM    2  C2  UNL     1     -41.449   8.039   0.250  1.00 20.00     0.018 A 
HETATM    3  C3  UNL     1     -41.967   6.816  -0.507  1.00 20.00    -0.038 A 
HETATM    4  C4  UNL     1     -43.112   6.959  -1.475  1.00 20.00     0.015 C 
ENDROOT
BRANCH   2   5
HETATM    5  C6  UNL     1     -42.000   9.407   0.041  1.00 20.00     0.169 C 
BRANCH   5   6
HETATM    6  O8  UNL     1     -41.091  10.381   0.555  1.00 20.00    -0.400 OA
HETATM    7  H22 UNL     1     -41.581  10.892   1.216  1.00 20.00     0.209 HD
ENDBRANCH   5   6
ENDBRANCH   2   5
BRANCH   3   8
HETATM    8  C7  UNL     1     -40.955   5.773  -0.904  1.00 20.00     0.005 C 
HETATM    9  C5  UNL     1     -41.575   4.632  -1.657  1.00 20.00     0.006 C 
ENDBRANCH   3   8
TORSDOF 3
ENDMDL
MODEL 5
REMARK VINA RESULT:      -3.8     17.601     18.332
REMARK  3 active torsions:
REMARK  status: ('A' for Active; 'I' for Inactive)
REMARK    1  A    between atoms: C2_2  and  C6_6 
REMARK    2  A    between atoms: C3_3  and  C7_7 
REMARK    3  A    between atoms: C6_6  and  O8_8 
ROOT
HETATM    1  C1  UNL     1     -24.562  18.138  10.490  1.00 20.00     0.017 A 
HETATM    2  C2  UNL     1     -24.564  16.673  10.825  1.00 20.00     0.018 A 
HETATM    3  C3  UNL     1     -23.237  17.425  10.717  1.00 20.00    -0.038 A 
HETATM    4  C4  UNL     1     -22.458  17.759  11.961  1.00 20.00     0.015 C 
ENDROOT
BRANCH   2   5
HETATM    5  C6  UNL     1     -25.117  16.200  12.124  1.00 20.00     0.169 C 
BRANCH   5   6
HETATM    6  O8  UNL     1     -26.543  16.273  12.101  1.00 20.00    -0.400 OA
HETATM    7  H22 UNL     1     -26.864  15.360  12.060  1.00 20.00     0.209 HD
ENDBRANCH   5   6
ENDBRANCH   2   5
BRANCH   3   8
HETATM    8  C7  UNL     1     -22.378  17.136   9.515  1.00 20.00     0.005 C 
HETATM    9  C5  UNL     1     -21.293  18.156   9.328  1.00 20.00     0.006 C 
ENDBRANCH   3   8
TORSDOF 3
ENDMDL
MODEL 6
REMARK VINA RESULT:      -3.8     10.661     12.146
REMARK  3 active torsions:
REMARK  status: ('A' for Active; 'I' for Inactive)
REMARK    1  A    between atoms: C2_2  and  C6_6 
REMARK    2  A    between atoms: C3_3  and  C7_7 
REMARK    3  A    between atoms: C6_6  and  O8_8 
ROOT
HETATM    1  C1  UNL     1     -41.014   5.782  -0.865  1.00 20.00     0.017 A 
HETATM    2  C2  UNL     1     -42.227   5.551  -0.010  1.00 20.00     0.018 A 
HETATM    3  C3  UNL     1     -41.852   6.973  -0.428  1.00 20.00    -0.038 A 
HETATM    4  C4  UNL     1     -42.665   7.689  -1.473  1.00 20.00     0.015 C 
ENDROOT
BRANCH   2   5
HETATM    5  C6  UNL     1     -43.411   4.836  -0.562  1.00 20.00     0.169 C 
BRANCH   5   6
HETATM    6  O8  UNL     1     -42.985   3.804  -1.451  1.00 20.00    -0.400 OA
HETATM    7  H22 UNL     1     -42.553   4.245  -2.197  1.00 20.00     0.209 HD
ENDBRANCH   5   6
ENDBRANCH   2   5
BRANCH   3   8
HETATM    8  C7  UNL     1     -41.289   7.877   0.637  1.00 20.00     0.005 C 
HETATM    9  C5  UNL     1     -41.441   9.331   0.292  1.00 20.00     0.006 C 
ENDBRANCH   3   8
TORSDOF 3
ENDMDL
MODEL 7
REMARK VINA RESULT:      -3.8      1.725      1.869
REMARK  3 active torsions:
REMARK  status: ('A' for Active; 'I' for Inactive)
REMARK    1  A    between atoms: C2_2  and  C6_6 
REMARK    2  A    between atoms: C3_3  and  C7_7 
REMARK    3  A    between atoms: C6_6  and  O8_8 
ROOT
HETATM    1  C1  UNL     1     -33.071  16.114  -3.311  1.00 20.00     0.017 A 
HETATM    2  C2  UNL     1     -34.067  15.087  -3.769  1.00 20.00     0.018 A 
HETATM    3  C3  UNL     1     -34.554  16.365  -3.084  1.00 20.00    -0.038 A 
HETATM    4  C4  UNL     1     -35.221  17.445  -3.894  1.00 20.00     0.015 C 
ENDROOT
BRANCH   2   5
HETATM    5  C6  UNL     1     -34.265  14.828  -5.222  1.00 20.00     0.169 C 
BRANCH   5   6
HETATM    6  O8  UNL     1     -33.015  14.507  -5.833  1.00 20.00    -0.400 OA
HETATM    7  H22 UNL     1     -32.437  15.271  -5.693  1.00 20.00     0.209 HD
ENDBRANCH   5   6
ENDBRANCH   2   5
BRANCH   3   8
HETATM    8  C7  UNL     1     -35.084  16.235  -1.681  1.00 20.00     0.005 C 
HETATM    9  C5  UNL     1     -34.685  17.390  -0.809  1.00 20.00     0.006 C 
ENDBRANCH   3   8
TORSDOF 3
ENDMDL
MODEL 8
REMARK VINA RESULT:      -3.7      1.969      2.641
REMARK  3 active torsions:
REMARK  status: ('A' for Active; 'I' for Inactive)
REMARK    1  A    between atoms: C2_2  and  C6_6 
REMARK    2  A    between atoms: C3_3  and  C7_7 
REMARK    3  A    between atoms: C6_6  and  O8_8 
ROOT
HETATM    1  C1  UNL     1     -35.687  16.331  -4.806  1.00 20.00     0.017 A 
HETATM    2  C2  UNL     1     -34.384  15.923  -5.432  1.00 20.00     0.018 A 
HETATM    3  C3  UNL     1     -34.806  15.316  -4.094  1.00 20.00    -0.038 A 
HETATM    4  C4  UNL     1     -35.279  13.888  -4.032  1.00 20.00     0.015 C 
ENDROOT
BRANCH   2   5
HETATM    5  C6  UNL     1     -34.371  15.144  -6.701  1.00 20.00     0.169 C 
BRANCH   5   6
HETATM    6  O8  UNL     1     -33.103  14.508  -6.869  1.00 20.00    -0.400 OA
HETATM    7  H22 UNL     1     -33.204  13.885  -7.603  1.00 20.00     0.209 HD
ENDBRANCH   5   6
ENDBRANCH   2   5
BRANCH   3   8
HETATM    8  C7  UNL     1     -34.060  15.768  -2.867  1.00 20.00     0.005 C 
HETATM    9  C5  UNL     1     -34.977  16.300  -1.804  1.00 20.00     0.006 C 
ENDBRANCH   3   8
TORSDOF 3
ENDMDL
MODEL 9
REMARK VINA RESULT:      -3.6     10.505     12.305
REMARK  3 active torsions:
REMARK  status: ('A' for Active; 'I' for Inactive)
REMARK    1  A    between atoms: C2_2  and  C6_6 
REMARK    2  A    between atoms: C3_3  and  C7_7 
REMARK    3  A    between atoms: C6_6  and  O8_8 
ROOT
HETATM    1  C1  UNL     1     -43.280   7.968  -0.770  1.00 20.00     0.017 A 
HETATM    2  C2  UNL     1     -42.426   8.521   0.336  1.00 20.00     0.018 A 
HETATM    3  C3  UNL     1     -42.566   7.008   0.169  1.00 20.00    -0.038 A 
HETATM    4  C4  UNL     1     -41.419   6.202  -0.380  1.00 20.00     0.015 C 
ENDROOT
BRANCH   2   5
HETATM    5  C6  UNL     1     -41.168   9.252   0.019  1.00 20.00     0.169 C 
BRANCH   5   6
HETATM    6  O8  UNL     1     -41.226  10.575   0.555  1.00 20.00    -0.400 OA
HETATM    7  H22 UNL     1     -41.285  10.479   1.517  1.00 20.00     0.209 HD
ENDBRANCH   5   6
ENDBRANCH   2   5
BRANCH   3   8
HETATM    8  C7  UNL     1     -43.395   6.277   1.192  1.00 20.00     0.005 C 
HETATM    9  C5  UNL     1     -42.860   4.906   1.488  1.00 20.00     0.006 C 
ENDBRANCH   3   8
TORSDOF 3
ENDMDL
