MODEL 1
REMARK VINA RESULT:      -4.4      0.000      0.000
REMARK  1 active torsions:
REMARK  status: ('A' for Active; 'I' for Inactive)
REMARK    1  A    between atoms: C5_5  and  C9_9 
ROOT
HETATM    1  C1  UNL     1     -35.649  14.863  -3.647  1.00 20.00     0.036 C 
HETATM    2  C2  UNL     1     -33.085  15.112  -4.024  1.00 20.00     0.016 A 
HETATM    3  C3  UNL     1     -34.835  15.944  -5.767  1.00 20.00     0.041 C 
HETATM    4  C4  UNL     1     -36.168  13.723  -4.518  1.00 20.00     0.169 C 
HETATM    5  C5  UNL     1     -33.561  16.467  -3.572  1.00 20.00     0.009 A 
HETATM    6  C6  UNL     1     -35.392  14.731  -6.519  1.00 20.00     0.118 C 
HETATM    7  C7  UNL     1     -34.498  15.554  -4.344  1.00 20.00    -0.031 A 
HETATM    8  C8  UNL     1     -35.852  15.118  -7.918  1.00 20.00     0.039 C 
HETATM    9  O10 UNL     1     -36.527  14.204  -5.816  1.00 20.00    -0.386 OA
ENDROOT
BRANCH   5  10
HETATM   10  C9  UNL     1     -33.736  16.756  -2.121  1.00 20.00     0.120 C 
HETATM   11 CL11 UNL     1     -32.416  17.784  -1.502  1.00 20.00    -0.130 Cl
ENDBRANCH   5  10
TORSDOF 1
ENDMDL
MODEL 2
REMARK VINA RESULT:      -4.4      2.997      4.696
REMARK  1 active torsions:
REMARK  status: ('A' for Active; 'I' for Inactive)
REMARK    1  A    between atoms: C5_5  and  C9_9 
ROOT
HETATM    1  C1  UNL     1     -34.800  16.843  -4.684  1.00 20.00     0.036 C 
HETATM    2  C2  UNL     1     -33.518  14.606  -4.329  1.00 20.00     0.016 A 
HETATM    3  C3  UNL     1     -34.045  16.234  -2.364  1.00 20.00     0.041 C 
HETATM    4  C4  UNL     1     -33.804  17.997  -4.623  1.00 20.00     0.169 C 
HETATM    5  C5  UNL     1     -34.933  14.336  -3.889  1.00 20.00     0.009 A 
HETATM    6  C6  UNL     1     -33.080  17.422  -2.440  1.00 20.00     0.118 C 
HETATM    7  C7  UNL     1     -34.352  15.734  -3.760  1.00 20.00    -0.031 A 
HETATM    8  C8  UNL     1     -32.844  18.024  -1.062  1.00 20.00     0.039 C 
HETATM    9  O10 UNL     1     -33.637  18.447  -3.276  1.00 20.00    -0.386 OA
ENDROOT
BRANCH   5  10
HETATM   10  C9  UNL     1     -35.979  13.991  -4.892  1.00 20.00     0.120 C 
HETATM   11 CL11 UNL     1     -37.611  14.375  -4.282  1.00 20.00    -0.130 Cl
ENDBRANCH   5  10
TORSDOF 1
ENDMDL
MODEL 3
REMARK VINA RESULT:      -4.3     18.094     18.686
REMARK  1 active torsions:
REMARK  status: ('A' for Active; 'I' for Inactive)
REMARK    1  A    between atoms: C5_5  and  C9_9 
ROOT
HETATM    1  C1  UNL     1     -25.325  16.721  11.662  1.00 20.00     0.036 C 
HETATM    2  C2  UNL     1     -25.664  19.214  12.330  1.00 20.00     0.016 A 
HETATM    3  C3  UNL     1     -24.670  18.514  10.024  1.00 20.00     0.041 C 
HETATM    4  C4  UNL     1     -23.842  16.380  11.764  1.00 20.00     0.169 C 
HETATM    5  C5  UNL     1     -26.820  18.876  11.426  1.00 20.00     0.009 A 
HETATM    6  C6  UNL     1     -23.217  18.076  10.230  1.00 20.00     0.118 C 
HETATM    7  C7  UNL     1     -25.488  18.167  11.250  1.00 20.00    -0.031 A 
HETATM    8  C8  UNL     1     -22.394  18.303   8.970  1.00 20.00     0.039 C 
HETATM    9  O10 UNL     1     -23.171  16.674  10.535  1.00 20.00    -0.386 OA
ENDROOT
BRANCH   5  10
HETATM   10  C9  UNL     1     -28.027  18.195  11.972  1.00 20.00     0.120 C 
HETATM   11 CL11 UNL     1     -29.467  18.530  10.974  1.00 20.00    -0.130 Cl
ENDBRANCH   5  10
TORSDOF 1
ENDMDL
MODEL 4
REMARK VINA RESULT:      -4.3      3.287      4.919
REMARK  1 active torsions:
REMARK  status: ('A' for Active; 'I' for Inactive)
REMARK    1  A    between atoms: C5_5  and  C9_9 
ROOT
HETATM    1  C1  UNL     1     -35.182  16.061  -1.844  1.00 20.00     0.036 C 
HETATM    2  C2  UNL     1     -34.638  16.384  -4.369  1.00 20.00     0.016 A 
HETATM    3  C3  UNL     1     -32.878  16.828  -2.499  1.00 20.00     0.041 C 
HETATM    4  C4  UNL     1     -35.372  17.432  -1.201  1.00 20.00     0.169 C 
HETATM    5  C5  UNL     1     -34.038  15.056  -3.992  1.00 20.00     0.009 A 
HETATM    6  C6  UNL     1     -33.206  18.165  -1.826  1.00 20.00     0.118 C 
HETATM    7  C7  UNL     1     -34.157  16.156  -2.952  1.00 20.00    -0.031 A 
HETATM    8  C8  UNL     1     -31.952  18.811  -1.254  1.00 20.00     0.039 C 
HETATM    9  O10 UNL     1     -34.121  17.950  -0.741  1.00 20.00    -0.386 OA
ENDROOT
BRANCH   5  10
HETATM   10  C9  UNL     1     -34.883  13.829  -3.965  1.00 20.00     0.120 C 
HETATM   11 CL11 UNL     1     -36.413  14.078  -4.849  1.00 20.00    -0.130 Cl
ENDBRANCH   5  10
TORSDOF 1
ENDMDL
MODEL 5
REMARK VINA RESULT:      -4.2      1.629      2.274
REMARK  1 active torsions:
REMARK  status: ('A' for Active; 'I' for Inactive)
REMARK    1  A    between atoms: C5_5  and  C9_9 
ROOT
HETATM    1  C1  UNL     1     -35.027  14.295  -3.811  1.00 20.00     0.036 C 
HETATM    2  C2  UNL     1     -34.714  16.611  -4.957  1.00 20.00     0.016 A 
HETATM    3  C3  UNL     1     -36.874  15.992  -3.636  1.00 20.00     0.041 C 
HETATM    4  C4  UNL     1     -35.984  13.454  -4.650  1.00 20.00     0.169 C 
HETATM    5  C5  UNL     1     -34.429  16.840  -3.497  1.00 20.00     0.009 A 
HETATM    6  C6  UNL     1     -37.725  15.055  -4.499  1.00 20.00     0.118 C 
HETATM    7  C7  UNL     1     -35.405  15.755  -3.916  1.00 20.00    -0.031 A 
HETATM    8  C8  UNL     1     -39.202  15.186  -4.154  1.00 20.00     0.039 C 
HETATM    9  O10 UNL     1     -37.339  13.693  -4.262  1.00 20.00    -0.386 OA
ENDROOT
BRANCH   5  10
HETATM   10  C9  UNL     1     -33.082  16.536  -2.938  1.00 20.00     0.120 C 
HETATM   11 CL11 UNL     1     -32.655  17.667  -1.626  1.00 20.00    -0.130 Cl
ENDBRANCH   5  10
TORSDOF 1
ENDMDL
MODEL 6
REMARK VINA RESULT:      -4.2      3.371      5.090
REMARK  1 active torsions:
REMARK  status: ('A' for Active; 'I' for Inactive)
REMARK    1  A    between atoms: C5_5  and  C9_9 
ROOT
HETATM    1  C1  UNL     1     -34.533  17.710  -4.062  1.00 20.00     0.036 C 
HETATM    2  C2  UNL     1     -33.617  15.320  -3.586  1.00 20.00     0.016 A 
HETATM    3  C3  UNL     1     -33.552  17.217  -1.799  1.00 20.00     0.041 C 
HETATM    4  C4  UNL     1     -33.355  18.655  -4.281  1.00 20.00     0.169 C 
HETATM    5  C5  UNL     1     -34.974  15.371  -2.935  1.00 20.00     0.009 A 
HETATM    6  C6  UNL     1     -32.420  18.185  -2.154  1.00 20.00     0.118 C 
HETATM    7  C7  UNL     1     -34.149  16.640  -3.065  1.00 20.00    -0.031 A 
HETATM    8  C8  UNL     1     -31.878  18.873  -0.908  1.00 20.00     0.039 C 
HETATM    9  O10 UNL     1     -32.912  19.204  -3.037  1.00 20.00    -0.386 OA
ENDROOT
BRANCH   5  10
HETATM   10  C9  UNL     1     -36.203  15.127  -3.740  1.00 20.00     0.120 C 
HETATM   11 CL11 UNL     1     -36.122  13.557  -4.584  1.00 20.00    -0.130 Cl
ENDBRANCH   5  10
TORSDOF 1
ENDMDL
MODEL 7
REMARK VINA RESULT:      -4.2      1.825      2.619
REMARK  1 active torsions:
REMARK  status: ('A' for Active; 'I' for Inactive)
REMARK    1  A    between atoms: C5_5  and  C9_9 
ROOT
HETATM    1  C1  UNL     1     -34.926  17.600  -3.963  1.00 20.00     0.036 C 
HETATM    2  C2  UNL     1     -34.766  16.916  -1.457  1.00 20.00     0.016 A 
HETATM    3  C3  UNL     1     -34.628  15.171  -3.387  1.00 20.00     0.041 C 
HETATM    4  C4  UNL     1     -36.308  17.227  -4.490  1.00 20.00     0.169 C 
HETATM    5  C5  UNL     1     -33.349  16.921  -1.966  1.00 20.00     0.009 A 
HETATM    6  C6  UNL     1     -36.038  14.937  -3.938  1.00 20.00     0.118 C 
HETATM    7  C7  UNL     1     -34.494  16.602  -2.913  1.00 20.00    -0.031 A 
HETATM    8  C8  UNL     1     -36.169  13.541  -4.532  1.00 20.00     0.039 C 
HETATM    9  O10 UNL     1     -36.314  15.884  -4.981  1.00 20.00    -0.386 OA
ENDROOT
BRANCH   5  10
HETATM   10  C9  UNL     1     -32.580  18.195  -2.037  1.00 20.00     0.120 C 
HETATM   11 CL11 UNL     1     -31.359  18.286  -0.739  1.00 20.00    -0.130 Cl
ENDBRANCH   5  10
TORSDOF 1
ENDMDL
MODEL 8
REMARK VINA RESULT:      -4.1     15.990     17.944
REMARK  1 active torsions:
REMARK  status: ('A' for Active; 'I' for Inactive)
REMARK    1  A    between atoms: C5_5  and  C9_9 
ROOT
HETATM    1  C1  UNL     1     -25.817  19.117   9.770  1.00 20.00     0.036 C 
HETATM    2  C2  UNL     1     -23.336  19.211   8.988  1.00 20.00     0.016 A 
HETATM    3  C3  UNL     1     -24.382  17.070  10.044  1.00 20.00     0.041 C 
HETATM    4  C4  UNL     1     -25.859  19.198  11.292  1.00 20.00     0.169 C 
HETATM    5  C5  UNL     1     -24.078  18.487   7.896  1.00 20.00     0.009 A 
HETATM    6  C6  UNL     1     -24.496  17.276  11.557  1.00 20.00     0.118 C 
HETATM    7  C7  UNL     1     -24.564  18.394   9.331  1.00 20.00    -0.031 A 
HETATM    8  C8  UNL     1     -24.436  15.947  12.297  1.00 20.00     0.039 C 
HETATM    9  O10 UNL     1     -25.754  17.894  11.870  1.00 20.00    -0.386 OA
ENDROOT
BRANCH   5  10
HETATM   10  C9  UNL     1     -24.809  19.254   6.848  1.00 20.00     0.120 C 
HETATM   11 CL11 UNL     1     -26.308  18.416   6.362  1.00 20.00    -0.130 Cl
ENDBRANCH   5  10
TORSDOF 1
ENDMDL
MODEL 9
REMARK VINA RESULT:      -4.1      1.729      2.459
REMARK  1 active torsions:
REMARK  status: ('A' for Active; 'I' for Inactive)
REMARK    1  A    between atoms: C5_5  and  C9_9 
ROOT
HETATM    1  C1  UNL     1     -33.051  15.469  -3.625  1.00 20.00     0.036 C 
HETATM    2  C2  UNL     1     -34.081  17.857  -3.731  1.00 20.00     0.016 A 
HETATM    3  C3  UNL     1     -35.504  15.753  -3.146  1.00 20.00     0.041 C 
HETATM    4  C4  UNL     1     -33.464  14.698  -4.875  1.00 20.00     0.169 C 
HETATM    5  C5  UNL     1     -33.876  17.569  -2.267  1.00 20.00     0.009 A 
HETATM    6  C6  UNL     1     -35.776  14.973  -4.435  1.00 20.00     0.118 C 
HETATM    7  C7  UNL     1     -34.151  16.429  -3.232  1.00 20.00    -0.031 A 
HETATM    8  C8  UNL     1     -37.076  14.185  -4.333  1.00 20.00     0.039 C 
HETATM    9  O10 UNL     1     -34.715  14.036  -4.670  1.00 20.00    -0.386 OA
ENDROOT
BRANCH   5  10
HETATM   10  C9  UNL     1     -32.543  17.784  -1.638  1.00 20.00     0.120 C 
HETATM   11 CL11 UNL     1     -32.706  18.349   0.047  1.00 20.00    -0.130 Cl
ENDBRANCH   5  10
TORSDOF 1
ENDMDL
