MODEL 1
REMARK VINA RESULT:      -4.5      0.000      0.000
REMARK  1 active torsions:
REMARK  status: ('A' for Active; 'I' for Inactive)
REMARK    1  A    between atoms: C4_4  and  C10_10 
ROOT
HETATM    1  C1  UNL     1     -32.716  17.109  -2.282  1.00 20.00     0.006 C 
HETATM    2  C2  UNL     1     -33.129  16.247  -3.480  1.00 20.00     0.009 C 
HETATM    3  C3  UNL     1     -35.187  15.901  -2.032  1.00 20.00     0.013 C 
HETATM    4  C4  UNL     1     -33.822  18.082  -1.866  1.00 20.00    -0.001 C 
HETATM    5  C5  UNL     1     -35.107  17.323  -1.431  1.00 20.00    -0.013 C 
HETATM    6  C6  UNL     1     -34.606  15.776  -3.455  1.00 20.00    -0.047 C 
HETATM    7  C7  UNL     1     -35.313  17.221   0.086  1.00 20.00     0.010 C 
HETATM    8  C8  UNL     1     -35.451  16.589  -4.457  1.00 20.00     0.015 C 
HETATM    9  C9  UNL     1     -34.671  14.298  -3.890  1.00 20.00     0.015 C 
ENDROOT
BRANCH   4  10
HETATM   10  C10 UNL     1     -33.296  19.091  -0.844  1.00 20.00     0.090 C 
HETATM   11 BR11 UNL     1     -31.510  18.576  -0.298  1.00 20.00    -0.096 Br
ENDBRANCH   4  10
TORSDOF 1
ENDMDL
MODEL 2
REMARK VINA RESULT:      -4.4      1.262      2.365
REMARK  1 active torsions:
REMARK  status: ('A' for Active; 'I' for Inactive)
REMARK    1  A    between atoms: C4_4  and  C10_10 
ROOT
HETATM    1  C1  UNL     1     -34.818  16.567  -1.840  1.00 20.00     0.006 C 
HETATM    2  C2  UNL     1     -34.970  15.360  -2.772  1.00 20.00     0.009 C 
HETATM    3  C3  UNL     1     -34.062  17.034  -4.454  1.00 20.00     0.013 C 
HETATM    4  C4  UNL     1     -33.437  17.217  -1.960  1.00 20.00    -0.001 C 
HETATM    5  C5  UNL     1     -33.187  17.748  -3.399  1.00 20.00    -0.013 C 
HETATM    6  C6  UNL     1     -34.317  15.540  -4.167  1.00 20.00    -0.047 C 
HETATM    7  C7  UNL     1     -33.364  19.262  -3.566  1.00 20.00     0.010 C 
HETATM    8  C8  UNL     1     -33.001  14.741  -4.257  1.00 20.00     0.015 C 
HETATM    9  C9  UNL     1     -35.269  14.983  -5.246  1.00 20.00     0.015 C 
ENDROOT
BRANCH   4  10
HETATM   10  C10 UNL     1     -33.228  18.247  -0.849  1.00 20.00     0.090 C 
HETATM   11 BR11 UNL     1     -31.340  18.361  -0.430  1.00 20.00    -0.096 Br
ENDBRANCH   4  10
TORSDOF 1
ENDMDL
MODEL 3
REMARK VINA RESULT:      -4.2      2.659      4.443
REMARK  1 active torsions:
REMARK  status: ('A' for Active; 'I' for Inactive)
REMARK    1  A    between atoms: C4_4  and  C10_10 
ROOT
HETATM    1  C1  UNL     1     -35.158  16.222  -1.700  1.00 20.00     0.006 C 
HETATM    2  C2  UNL     1     -34.391  17.455  -1.207  1.00 20.00     0.009 C 
HETATM    3  C3  UNL     1     -32.711  16.617  -2.917  1.00 20.00     0.013 C 
HETATM    4  C4  UNL     1     -35.229  16.163  -3.228  1.00 20.00    -0.001 C 
HETATM    5  C5  UNL     1     -33.810  16.071  -3.856  1.00 20.00    -0.013 C 
HETATM    6  C6  UNL     1     -33.146  17.819  -2.055  1.00 20.00    -0.047 C 
HETATM    7  C7  UNL     1     -33.401  14.666  -4.318  1.00 20.00     0.010 C 
HETATM    8  C8  UNL     1     -33.436  19.044  -2.946  1.00 20.00     0.015 C 
HETATM    9  C9  UNL     1     -31.986  18.200  -1.112  1.00 20.00     0.015 C 
ENDROOT
BRANCH   4  10
HETATM   10  C10 UNL     1     -36.204  15.075  -3.680  1.00 20.00     0.090 C 
HETATM   11 BR11 UNL     1     -37.203  15.710  -5.214  1.00 20.00    -0.096 Br
ENDBRANCH   4  10
TORSDOF 1
ENDMDL
MODEL 4
REMARK VINA RESULT:      -4.2      1.992      3.070
REMARK  1 active torsions:
REMARK  status: ('A' for Active; 'I' for Inactive)
REMARK    1  A    between atoms: C4_4  and  C10_10 
ROOT
HETATM    1  C1  UNL     1     -36.223  16.688  -2.910  1.00 20.00     0.006 C 
HETATM    2  C2  UNL     1     -36.315  15.669  -4.052  1.00 20.00     0.009 C 
HETATM    3  C3  UNL     1     -33.795  15.988  -4.023  1.00 20.00     0.013 C 
HETATM    4  C4  UNL     1     -35.175  16.290  -1.868  1.00 20.00    -0.001 C 
HETATM    5  C5  UNL     1     -33.755  16.214  -2.495  1.00 20.00    -0.013 C 
HETATM    6  C6  UNL     1     -34.951  15.089  -4.506  1.00 20.00    -0.047 C 
HETATM    7  C7  UNL     1     -32.858  17.424  -2.206  1.00 20.00     0.010 C 
HETATM    8  C8  UNL     1     -34.772  13.650  -3.980  1.00 20.00     0.015 C 
HETATM    9  C9  UNL     1     -34.919  15.022  -6.047  1.00 20.00     0.015 C 
ENDROOT
BRANCH   4  10
HETATM   10  C10 UNL     1     -35.283  17.180  -0.629  1.00 20.00     0.090 C 
HETATM   11 BR11 UNL     1     -36.928  18.201  -0.716  1.00 20.00    -0.096 Br
ENDBRANCH   4  10
TORSDOF 1
ENDMDL
MODEL 5
REMARK VINA RESULT:      -4.1      2.860      4.691
REMARK  1 active torsions:
REMARK  status: ('A' for Active; 'I' for Inactive)
REMARK    1  A    between atoms: C4_4  and  C10_10 
ROOT
HETATM    1  C1  UNL     1     -35.860  17.120  -4.713  1.00 20.00     0.006 C 
HETATM    2  C2  UNL     1     -35.199  17.732  -3.473  1.00 20.00     0.009 C 
HETATM    3  C3  UNL     1     -35.146  15.292  -2.771  1.00 20.00     0.013 C 
HETATM    4  C4  UNL     1     -35.061  15.937  -5.265  1.00 20.00    -0.001 C 
HETATM    5  C5  UNL     1     -34.955  14.791  -4.220  1.00 20.00    -0.013 C 
HETATM    6  C6  UNL     1     -34.575  16.698  -2.501  1.00 20.00    -0.047 C 
HETATM    7  C7  UNL     1     -35.911  13.614  -4.457  1.00 20.00     0.010 C 
HETATM    8  C8  UNL     1     -33.038  16.691  -2.632  1.00 20.00     0.015 C 
HETATM    9  C9  UNL     1     -34.911  17.102  -1.051  1.00 20.00     0.015 C 
ENDROOT
BRANCH   4  10
HETATM   10  C10 UNL     1     -35.601  15.513  -6.632  1.00 20.00     0.090 C 
HETATM   11 BR11 UNL     1     -34.152  15.510  -7.918  1.00 20.00    -0.096 Br
ENDBRANCH   4  10
TORSDOF 1
ENDMDL
MODEL 6
REMARK VINA RESULT:      -3.9      2.001      2.469
REMARK  1 active torsions:
REMARK  status: ('A' for Active; 'I' for Inactive)
REMARK    1  A    between atoms: C4_4  and  C10_10 
ROOT
HETATM    1  C1  UNL     1     -33.611  15.949  -3.115  1.00 20.00     0.006 C 
HETATM    2  C2  UNL     1     -34.109  14.685  -3.823  1.00 20.00     0.009 C 
HETATM    3  C3  UNL     1     -36.041  16.230  -4.395  1.00 20.00     0.013 C 
HETATM    4  C4  UNL     1     -33.674  17.179  -4.024  1.00 20.00    -0.001 C 
HETATM    5  C5  UNL     1     -35.132  17.479  -4.469  1.00 20.00    -0.013 C 
HETATM    6  C6  UNL     1     -35.336  14.905  -4.745  1.00 20.00    -0.047 C 
HETATM    7  C7  UNL     1     -35.816  18.623  -3.710  1.00 20.00     0.010 C 
HETATM    8  C8  UNL     1     -34.908  14.896  -6.227  1.00 20.00     0.015 C 
HETATM    9  C9  UNL     1     -36.332  13.744  -4.546  1.00 20.00     0.015 C 
ENDROOT
BRANCH   4  10
HETATM   10  C10 UNL     1     -32.943  18.361  -3.383  1.00 20.00     0.090 C 
HETATM   11 BR11 UNL     1     -32.595  17.963  -1.519  1.00 20.00    -0.096 Br
ENDBRANCH   4  10
TORSDOF 1
ENDMDL
MODEL 7
REMARK VINA RESULT:      -3.8      2.732      3.349
REMARK  1 active torsions:
REMARK  status: ('A' for Active; 'I' for Inactive)
REMARK    1  A    between atoms: C4_4  and  C10_10 
ROOT
HETATM    1  C1  UNL     1     -35.461  17.418  -4.340  1.00 20.00     0.006 C 
HETATM    2  C2  UNL     1     -34.801  16.204  -5.002  1.00 20.00     0.009 C 
HETATM    3  C3  UNL     1     -34.123  15.744  -2.598  1.00 20.00     0.013 C 
HETATM    4  C4  UNL     1     -36.300  17.022  -3.121  1.00 20.00    -0.001 C 
HETATM    5  C5  UNL     1     -35.423  16.354  -2.025  1.00 20.00    -0.013 C 
HETATM    6  C6  UNL     1     -34.269  15.139  -4.008  1.00 20.00    -0.047 C 
HETATM    7  C7  UNL     1     -35.054  17.269  -0.850  1.00 20.00     0.010 C 
HETATM    8  C8  UNL     1     -35.204  13.914  -3.976  1.00 20.00     0.015 C 
HETATM    9  C9  UNL     1     -32.886  14.650  -4.484  1.00 20.00     0.015 C 
ENDROOT
BRANCH   4  10
HETATM   10  C10 UNL     1     -37.141  18.205  -2.639  1.00 20.00     0.090 C 
HETATM   11 BR11 UNL     1     -39.018  17.737  -2.738  1.00 20.00    -0.096 Br
ENDBRANCH   4  10
TORSDOF 1
ENDMDL
MODEL 8
REMARK VINA RESULT:      -3.8      2.262      4.154
REMARK  1 active torsions:
REMARK  status: ('A' for Active; 'I' for Inactive)
REMARK    1  A    between atoms: C4_4  and  C10_10 
ROOT
HETATM    1  C1  UNL     1     -33.610  16.207  -3.071  1.00 20.00     0.006 C 
HETATM    2  C2  UNL     1     -33.469  17.145  -1.868  1.00 20.00     0.009 C 
HETATM    3  C3  UNL     1     -35.880  17.663  -2.479  1.00 20.00     0.013 C 
HETATM    4  C4  UNL     1     -34.872  15.345  -2.984  1.00 20.00    -0.001 C 
HETATM    5  C5  UNL     1     -36.155  16.222  -2.967  1.00 20.00    -0.013 C 
HETATM    6  C6  UNL     1     -34.802  17.770  -1.381  1.00 20.00    -0.047 C 
HETATM    7  C7  UNL     1     -36.901  16.298  -4.305  1.00 20.00     0.010 C 
HETATM    8  C8  UNL     1     -35.281  17.085  -0.086  1.00 20.00     0.015 C 
HETATM    9  C9  UNL     1     -34.571  19.260  -1.055  1.00 20.00     0.015 C 
ENDROOT
BRANCH   4  10
HETATM   10  C10 UNL     1     -34.855  14.253  -4.054  1.00 20.00     0.090 C 
HETATM   11 BR11 UNL     1     -33.771  14.841  -5.549  1.00 20.00    -0.096 Br
ENDBRANCH   4  10
TORSDOF 1
ENDMDL
MODEL 9
REMARK VINA RESULT:      -3.7      3.396      5.068
REMARK  1 active torsions:
REMARK  status: ('A' for Active; 'I' for Inactive)
REMARK    1  A    between atoms: C4_4  and  C10_10 
ROOT
HETATM    1  C1  UNL     1     -36.623  13.988  -4.524  1.00 20.00     0.006 C 
HETATM    2  C2  UNL     1     -35.240  13.930  -3.866  1.00 20.00     0.009 C 
HETATM    3  C3  UNL     1     -35.112  16.279  -4.823  1.00 20.00     0.013 C 
HETATM    4  C4  UNL     1     -37.383  15.263  -4.152  1.00 20.00    -0.001 C 
HETATM    5  C5  UNL     1     -36.624  16.533  -4.628  1.00 20.00    -0.013 C 
HETATM    6  C6  UNL     1     -34.496  15.289  -3.815  1.00 20.00    -0.047 C 
HETATM    7  C7  UNL     1     -37.178  17.172  -5.908  1.00 20.00     0.010 C 
HETATM    8  C8  UNL     1     -34.535  15.875  -2.389  1.00 20.00     0.015 C 
HETATM    9  C9  UNL     1     -33.013  15.066  -4.180  1.00 20.00     0.015 C 
ENDROOT
BRANCH   4  10
HETATM   10  C10 UNL     1     -38.840  15.176  -4.611  1.00 20.00     0.090 C 
HETATM   11 BR11 UNL     1     -39.953  16.208  -3.407  1.00 20.00    -0.096 Br
ENDBRANCH   4  10
TORSDOF 1
ENDMDL
