MODEL 1
REMARK VINA RESULT:      -5.0      0.000      0.000
REMARK  2 active torsions:
REMARK  status: ('A' for Active; 'I' for Inactive)
REMARK    1  A    between atoms: C5_5  and  C8_8 
REMARK    2  A    between atoms: C9_9  and  C10_10 
ROOT
HETATM    1  C1  UNL     1     -32.760  17.013  -2.495  1.00 20.00     0.009 A 
HETATM    2  C2  UNL     1     -34.781  17.003  -1.172  1.00 20.00     0.009 A 
HETATM    3  C3  UNL     1     -33.302  16.039  -3.332  1.00 20.00     0.019 A 
HETATM    4  C4  UNL     1     -35.324  16.029  -2.010  1.00 20.00     0.019 A 
HETATM    5  C5  UNL     1     -33.499  17.495  -1.415  1.00 20.00    -0.053 A 
HETATM    6  C6  UNL     1     -34.584  15.547  -3.090  1.00 20.00     0.011 A 
HETATM    7 BR12 UNL     1     -35.320  14.227  -4.224  1.00 20.00    -0.051 Br
ENDROOT
BRANCH   5   8
HETATM    8  C8  UNL     1     -32.911  18.552  -0.507  1.00 20.00     0.024 A 
HETATM    9  C7  UNL     1     -31.417  18.794  -0.487  1.00 20.00     0.016 A 
HETATM   10  C9  UNL     1     -32.080  18.143   0.690  1.00 20.00     0.008 A 
BRANCH  10  11
HETATM   11  C10 UNL     1     -32.214  18.881   1.977  1.00 20.00     0.119 C 
HETATM   12 CL11 UNL     1     -32.543  17.763   3.332  1.00 20.00    -0.130 Cl
ENDBRANCH  10  11
ENDBRANCH   5   8
TORSDOF 2
ENDMDL
MODEL 2
REMARK VINA RESULT:      -5.0      0.057      1.396
REMARK  2 active torsions:
REMARK  status: ('A' for Active; 'I' for Inactive)
REMARK    1  A    between atoms: C5_5  and  C8_8 
REMARK    2  A    between atoms: C9_9  and  C10_10 
ROOT
HETATM    1  C1  UNL     1     -34.775  17.002  -1.169  1.00 20.00     0.009 A 
HETATM    2  C2  UNL     1     -32.755  17.060  -2.494  1.00 20.00     0.009 A 
HETATM    3  C3  UNL     1     -35.294  16.014  -2.004  1.00 20.00     0.019 A 
HETATM    4  C4  UNL     1     -33.274  16.072  -3.328  1.00 20.00     0.019 A 
HETATM    5  C5  UNL     1     -33.505  17.526  -1.414  1.00 20.00    -0.053 A 
HETATM    6  C6  UNL     1     -34.544  15.548  -3.083  1.00 20.00     0.011 A 
HETATM    7 BR12 UNL     1     -35.247  14.208  -4.215  1.00 20.00    -0.051 Br
ENDROOT
BRANCH   5   8
HETATM    8  C8  UNL     1     -32.942  18.597  -0.509  1.00 20.00     0.024 A 
HETATM    9  C7  UNL     1     -31.453  18.872  -0.488  1.00 20.00     0.016 A 
HETATM   10  C9  UNL     1     -32.102  18.210   0.691  1.00 20.00     0.008 A 
BRANCH  10  11
HETATM   11  C10 UNL     1     -32.253  18.948   1.976  1.00 20.00     0.119 C 
HETATM   12 CL11 UNL     1     -32.562  17.827   3.332  1.00 20.00    -0.130 Cl
ENDBRANCH  10  11
ENDBRANCH   5   8
TORSDOF 2
ENDMDL
MODEL 3
REMARK VINA RESULT:      -4.8      3.992      5.736
REMARK  2 active torsions:
REMARK  status: ('A' for Active; 'I' for Inactive)
REMARK    1  A    between atoms: C5_5  and  C8_8 
REMARK    2  A    between atoms: C9_9  and  C10_10 
ROOT
HETATM    1  C1  UNL     1     -33.004  16.801  -2.574  1.00 20.00     0.009 A 
HETATM    2  C2  UNL     1     -35.176  16.220  -1.688  1.00 20.00     0.009 A 
HETATM    3  C3  UNL     1     -32.855  17.765  -1.578  1.00 20.00     0.019 A 
HETATM    4  C4  UNL     1     -35.026  17.184  -0.692  1.00 20.00     0.019 A 
HETATM    5  C5  UNL     1     -34.165  16.029  -2.630  1.00 20.00    -0.053 A 
HETATM    6  C6  UNL     1     -33.866  17.956  -0.636  1.00 20.00     0.011 A 
HETATM    7 BR12 UNL     1     -33.665  19.262   0.715  1.00 20.00    -0.051 Br
ENDROOT
BRANCH   5   8
HETATM    8  C8  UNL     1     -34.326  14.984  -3.710  1.00 20.00     0.024 A 
HETATM    9  C7  UNL     1     -33.131  14.537  -4.523  1.00 20.00     0.016 A 
HETATM   10  C9  UNL     1     -34.195  15.374  -5.166  1.00 20.00     0.008 A 
BRANCH  10  11
HETATM   11  C10 UNL     1     -35.106  14.778  -6.183  1.00 20.00     0.119 C 
HETATM   12 CL11 UNL     1     -36.581  15.764  -6.387  1.00 20.00    -0.130 Cl
ENDBRANCH  10  11
ENDBRANCH   5   8
TORSDOF 2
ENDMDL
MODEL 4
REMARK VINA RESULT:      -4.8      3.991      5.902
REMARK  2 active torsions:
REMARK  status: ('A' for Active; 'I' for Inactive)
REMARK    1  A    between atoms: C5_5  and  C8_8 
REMARK    2  A    between atoms: C9_9  and  C10_10 
ROOT
HETATM    1  C1  UNL     1     -35.187  16.251  -1.718  1.00 20.00     0.009 A 
HETATM    2  C2  UNL     1     -33.002  16.786  -2.597  1.00 20.00     0.009 A 
HETATM    3  C3  UNL     1     -35.021  17.211  -0.720  1.00 20.00     0.019 A 
HETATM    4  C4  UNL     1     -32.836  17.747  -1.601  1.00 20.00     0.019 A 
HETATM    5  C5  UNL     1     -34.177  16.038  -2.656  1.00 20.00    -0.053 A 
HETATM    6  C6  UNL     1     -33.846  17.960  -0.662  1.00 20.00     0.011 A 
HETATM    7 BR12 UNL     1     -33.620  19.262   0.689  1.00 20.00    -0.051 Br
ENDROOT
BRANCH   5   8
HETATM    8  C8  UNL     1     -34.357  14.997  -3.737  1.00 20.00     0.024 A 
HETATM    9  C7  UNL     1     -33.162  14.499  -4.522  1.00 20.00     0.016 A 
HETATM   10  C9  UNL     1     -34.177  15.377  -5.191  1.00 20.00     0.008 A 
BRANCH  10  11
HETATM   11  C10 UNL     1     -35.088  14.816  -6.227  1.00 20.00     0.119 C 
HETATM   12 CL11 UNL     1     -36.557  15.816  -6.408  1.00 20.00    -0.130 Cl
ENDBRANCH  10  11
ENDBRANCH   5   8
TORSDOF 2
ENDMDL
MODEL 5
REMARK VINA RESULT:      -4.7      1.832      2.368
REMARK  2 active torsions:
REMARK  status: ('A' for Active; 'I' for Inactive)
REMARK    1  A    between atoms: C5_5  and  C8_8 
REMARK    2  A    between atoms: C9_9  and  C10_10 
ROOT
HETATM    1  C1  UNL     1     -35.153  16.767  -1.193  1.00 20.00     0.009 A 
HETATM    2  C2  UNL     1     -32.952  17.631  -1.692  1.00 20.00     0.009 A 
HETATM    3  C3  UNL     1     -35.056  15.893  -2.275  1.00 20.00     0.019 A 
HETATM    4  C4  UNL     1     -32.855  16.756  -2.774  1.00 20.00     0.019 A 
HETATM    5  C5  UNL     1     -34.102  17.636  -0.901  1.00 20.00    -0.053 A 
HETATM    6  C6  UNL     1     -33.906  15.887  -3.065  1.00 20.00     0.011 A 
HETATM    7 BR12 UNL     1     -33.774  14.703  -4.532  1.00 20.00    -0.051 Br
ENDROOT
BRANCH   5   8
HETATM    8  C8  UNL     1     -34.206  18.584   0.271  1.00 20.00     0.024 A 
HETATM    9  C7  UNL     1     -33.022  18.793   1.191  1.00 20.00     0.016 A 
HETATM   10  C9  UNL     1     -34.222  18.040   1.684  1.00 20.00     0.008 A 
BRANCH  10  11
HETATM   11  C10 UNL     1     -35.119  18.647   2.707  1.00 20.00     0.119 C 
HETATM   12 CL11 UNL     1     -36.746  17.912   2.657  1.00 20.00    -0.130 Cl
ENDBRANCH  10  11
ENDBRANCH   5   8
TORSDOF 2
ENDMDL
MODEL 6
REMARK VINA RESULT:      -4.7      1.855      1.993
REMARK  2 active torsions:
REMARK  status: ('A' for Active; 'I' for Inactive)
REMARK    1  A    between atoms: C5_5  and  C8_8 
REMARK    2  A    between atoms: C9_9  and  C10_10 
ROOT
HETATM    1  C1  UNL     1     -32.996  17.623  -1.696  1.00 20.00     0.009 A 
HETATM    2  C2  UNL     1     -35.175  16.710  -1.191  1.00 20.00     0.009 A 
HETATM    3  C3  UNL     1     -32.878  16.748  -2.775  1.00 20.00     0.019 A 
HETATM    4  C4  UNL     1     -35.058  15.835  -2.270  1.00 20.00     0.019 A 
HETATM    5  C5  UNL     1     -34.144  17.605  -0.904  1.00 20.00    -0.053 A 
HETATM    6  C6  UNL     1     -33.910  15.854  -3.062  1.00 20.00     0.011 A 
HETATM    7 BR12 UNL     1     -33.751  14.667  -4.524  1.00 20.00    -0.051 Br
ENDROOT
BRANCH   5   8
HETATM    8  C8  UNL     1     -34.272  18.554   0.265  1.00 20.00     0.024 A 
HETATM    9  C7  UNL     1     -33.080  18.830   1.157  1.00 20.00     0.016 A 
HETATM   10  C9  UNL     1     -34.229  18.021   1.681  1.00 20.00     0.008 A 
BRANCH  10  11
HETATM   11  C10 UNL     1     -35.133  18.588   2.720  1.00 20.00     0.119 C 
HETATM   12 CL11 UNL     1     -36.779  17.908   2.585  1.00 20.00    -0.130 Cl
ENDBRANCH  10  11
ENDBRANCH   5   8
TORSDOF 2
ENDMDL
MODEL 7
REMARK VINA RESULT:      -4.5      3.783      5.724
REMARK  2 active torsions:
REMARK  status: ('A' for Active; 'I' for Inactive)
REMARK    1  A    between atoms: C5_5  and  C8_8 
REMARK    2  A    between atoms: C9_9  and  C10_10 
ROOT
HETATM    1  C1  UNL     1     -33.347  16.237  -3.068  1.00 20.00     0.009 A 
HETATM    2  C2  UNL     1     -35.099  16.525  -1.430  1.00 20.00     0.009 A 
HETATM    3  C3  UNL     1     -32.603  17.242  -2.450  1.00 20.00     0.019 A 
HETATM    4  C4  UNL     1     -34.355  17.529  -0.812  1.00 20.00     0.019 A 
HETATM    5  C5  UNL     1     -34.595  15.879  -2.559  1.00 20.00    -0.053 A 
HETATM    6  C6  UNL     1     -33.107  17.887  -1.321  1.00 20.00     0.011 A 
HETATM    7 BR12 UNL     1     -32.100  19.249  -0.483  1.00 20.00    -0.051 Br
ENDROOT
BRANCH   5   8
HETATM    8  C8  UNL     1     -35.401  14.790  -3.229  1.00 20.00     0.024 A 
HETATM    9  C7  UNL     1     -35.072  14.357  -4.641  1.00 20.00     0.016 A 
HETATM   10  C9  UNL     1     -36.329  15.131  -4.375  1.00 20.00     0.008 A 
BRANCH  10  11
HETATM   11  C10 UNL     1     -37.657  14.466  -4.484  1.00 20.00     0.119 C 
HETATM   12 CL11 UNL     1     -38.949  15.483  -3.787  1.00 20.00    -0.130 Cl
ENDBRANCH  10  11
ENDBRANCH   5   8
TORSDOF 2
ENDMDL
MODEL 8
REMARK VINA RESULT:      -4.4      3.948      5.648
REMARK  2 active torsions:
REMARK  status: ('A' for Active; 'I' for Inactive)
REMARK    1  A    between atoms: C5_5  and  C8_8 
REMARK    2  A    between atoms: C9_9  and  C10_10 
ROOT
HETATM    1  C1  UNL     1     -35.343  16.886  -0.687  1.00 20.00     0.009 A 
HETATM    2  C2  UNL     1     -33.192  17.807  -1.289  1.00 20.00     0.009 A 
HETATM    3  C3  UNL     1     -35.200  17.394   0.604  1.00 20.00     0.019 A 
HETATM    4  C4  UNL     1     -33.049  18.316   0.001  1.00 20.00     0.019 A 
HETATM    5  C5  UNL     1     -34.340  17.092  -1.633  1.00 20.00    -0.053 A 
HETATM    6  C6  UNL     1     -34.053  18.110   0.948  1.00 20.00     0.011 A 
HETATM    7 BR12 UNL     1     -33.858  18.800   2.696  1.00 20.00    -0.051 Br
ENDROOT
BRANCH   5   8
HETATM    8  C8  UNL     1     -34.495  16.541  -3.032  1.00 20.00     0.024 A 
HETATM    9  C7  UNL     1     -35.533  15.479  -3.322  1.00 20.00     0.016 A 
HETATM   10  C9  UNL     1     -34.078  15.117  -3.335  1.00 20.00     0.008 A 
BRANCH  10  11
HETATM   11  C10 UNL     1     -33.396  14.798  -4.621  1.00 20.00     0.119 C 
HETATM   12 CL11 UNL     1     -34.542  14.846  -5.990  1.00 20.00    -0.130 Cl
ENDBRANCH  10  11
ENDBRANCH   5   8
TORSDOF 2
ENDMDL
MODEL 9
REMARK VINA RESULT:      -4.2      1.950      2.594
REMARK  2 active torsions:
REMARK  status: ('A' for Active; 'I' for Inactive)
REMARK    1  A    between atoms: C5_5  and  C8_8 
REMARK    2  A    between atoms: C9_9  and  C10_10 
ROOT
HETATM    1  C1  UNL     1     -33.660  16.147  -2.594  1.00 20.00     0.009 A 
HETATM    2  C2  UNL     1     -36.028  16.253  -3.064  1.00 20.00     0.009 A 
HETATM    3  C3  UNL     1     -33.416  15.762  -3.912  1.00 20.00     0.019 A 
HETATM    4  C4  UNL     1     -35.784  15.868  -4.381  1.00 20.00     0.019 A 
HETATM    5  C5  UNL     1     -34.966  16.393  -2.170  1.00 20.00    -0.053 A 
HETATM    6  C6  UNL     1     -34.478  15.623  -4.806  1.00 20.00     0.011 A 
HETATM    7 BR12 UNL     1     -34.147  15.100  -6.591  1.00 20.00    -0.051 Br
ENDROOT
BRANCH   5   8
HETATM    8  C8  UNL     1     -35.231  16.811  -0.742  1.00 20.00     0.024 A 
HETATM    9  C7  UNL     1     -36.290  17.849  -0.436  1.00 20.00     0.016 A 
HETATM   10  C9  UNL     1     -34.840  18.197  -0.274  1.00 20.00     0.008 A 
BRANCH  10  11
HETATM   11  C10 UNL     1     -34.262  18.389   1.085  1.00 20.00     0.119 C 
HETATM   12 CL11 UNL     1     -32.476  18.390   1.035  1.00 20.00    -0.130 Cl
ENDBRANCH  10  11
ENDBRANCH   5   8
TORSDOF 2
ENDMDL
