MODEL 1
REMARK VINA RESULT:      -4.4      0.000      0.000
REMARK  1 active torsions:
REMARK  status: ('A' for Active; 'I' for Inactive)
REMARK    1  A    between atoms: C4_4  and  C10_10 
ROOT
HETATM    1  C1  UNL     1     -35.598  16.760  -1.990  1.00 20.00     0.006 C 
HETATM    2  C2  UNL     1     -35.009  15.524  -2.670  1.00 20.00     0.009 C 
HETATM    3  C3  UNL     1     -32.815  16.717  -3.155  1.00 20.00     0.013 C 
HETATM    4  C4  UNL     1     -34.591  17.909  -1.780  1.00 20.00    -0.001 C 
HETATM    5  C5  UNL     1     -33.141  17.385  -1.800  1.00 20.00    -0.013 C 
HETATM    6  C6  UNL     1     -33.959  15.849  -3.747  1.00 20.00    -0.047 C 
HETATM    7  C7  UNL     1     -32.100  18.471  -1.511  1.00 20.00     0.010 C 
HETATM    8  C8  UNL     1     -34.621  16.579  -4.935  1.00 20.00     0.015 C 
HETATM    9  C9  UNL     1     -33.371  14.530  -4.285  1.00 20.00     0.015 C 
ENDROOT
BRANCH   4  10
HETATM   10  C10 UNL     1     -34.948  18.677  -0.505  1.00 20.00     0.090 C 
HETATM   11 BR11 UNL     1     -35.602  17.433   0.829  1.00 20.00    -0.096 Br
ENDBRANCH   4  10
TORSDOF 1
ENDMDL
MODEL 2
REMARK VINA RESULT:      -4.2      1.753      2.705
REMARK  1 active torsions:
REMARK  status: ('A' for Active; 'I' for Inactive)
REMARK    1  A    between atoms: C4_4  and  C10_10 
ROOT
HETATM    1  C1  UNL     1     -32.880  18.054  -3.024  1.00 20.00     0.006 C 
HETATM    2  C2  UNL     1     -33.803  17.535  -4.127  1.00 20.00     0.009 C 
HETATM    3  C3  UNL     1     -35.105  16.087  -2.491  1.00 20.00     0.013 C 
HETATM    4  C4  UNL     1     -33.301  17.640  -1.599  1.00 20.00    -0.001 C 
HETATM    5  C5  UNL     1     -34.798  17.272  -1.548  1.00 20.00    -0.013 C 
HETATM    6  C6  UNL     1     -34.366  16.129  -3.856  1.00 20.00    -0.047 C 
HETATM    7  C7  UNL     1     -35.290  16.935  -0.137  1.00 20.00     0.010 C 
HETATM    8  C8  UNL     1     -33.228  15.086  -3.877  1.00 20.00     0.015 C 
HETATM    9  C9  UNL     1     -35.352  15.760  -4.981  1.00 20.00     0.015 C 
ENDROOT
BRANCH   4  10
HETATM   10  C10 UNL     1     -32.906  18.738  -0.609  1.00 20.00     0.090 C 
HETATM   11 BR11 UNL     1     -31.093  18.428   0.002  1.00 20.00    -0.096 Br
ENDBRANCH   4  10
TORSDOF 1
ENDMDL
MODEL 3
REMARK VINA RESULT:      -4.1      2.892      4.776
REMARK  1 active torsions:
REMARK  status: ('A' for Active; 'I' for Inactive)
REMARK    1  A    between atoms: C4_4  and  C10_10 
ROOT
HETATM    1  C1  UNL     1     -33.161  16.381  -3.787  1.00 20.00     0.006 C 
HETATM    2  C2  UNL     1     -33.514  16.613  -2.317  1.00 20.00     0.009 C 
HETATM    3  C3  UNL     1     -35.888  15.765  -2.651  1.00 20.00     0.013 C 
HETATM    4  C4  UNL     1     -34.246  15.632  -4.588  1.00 20.00    -0.001 C 
HETATM    5  C5  UNL     1     -35.171  14.829  -3.651  1.00 20.00    -0.013 C 
HETATM    6  C6  UNL     1     -35.005  16.905  -2.075  1.00 20.00    -0.047 C 
HETATM    7  C7  UNL     1     -36.216  13.997  -4.400  1.00 20.00     0.010 C 
HETATM    8  C8  UNL     1     -35.395  18.255  -2.712  1.00 20.00     0.015 C 
HETATM    9  C9  UNL     1     -35.251  17.021  -0.557  1.00 20.00     0.015 C 
ENDROOT
BRANCH   4  10
HETATM   10  C10 UNL     1     -33.584  14.780  -5.673  1.00 20.00     0.090 C 
HETATM   11 BR11 UNL     1     -34.169  15.395  -7.415  1.00 20.00    -0.096 Br
ENDBRANCH   4  10
TORSDOF 1
ENDMDL
MODEL 4
REMARK VINA RESULT:      -4.0      2.081      3.260
REMARK  1 active torsions:
REMARK  status: ('A' for Active; 'I' for Inactive)
REMARK    1  A    between atoms: C4_4  and  C10_10 
ROOT
HETATM    1  C1  UNL     1     -34.067  15.427  -3.129  1.00 20.00     0.006 C 
HETATM    2  C2  UNL     1     -34.210  15.210  -4.636  1.00 20.00     0.009 C 
HETATM    3  C3  UNL     1     -36.632  15.987  -4.617  1.00 20.00     0.013 C 
HETATM    4  C4  UNL     1     -35.273  16.131  -2.473  1.00 20.00    -0.001 C 
HETATM    5  C5  UNL     1     -36.086  16.925  -3.516  1.00 20.00    -0.013 C 
HETATM    6  C6  UNL     1     -35.646  14.882  -5.083  1.00 20.00    -0.047 C 
HETATM    7  C7  UNL     1     -37.246  17.715  -2.905  1.00 20.00     0.010 C 
HETATM    8  C8  UNL     1     -36.079  13.511  -4.523  1.00 20.00     0.015 C 
HETATM    9  C9  UNL     1     -35.679  14.786  -6.621  1.00 20.00     0.015 C 
ENDROOT
BRANCH   4  10
HETATM   10  C10 UNL     1     -34.790  16.982  -1.296  1.00 20.00     0.090 C 
HETATM   11 BR11 UNL     1     -33.058  17.739  -1.722  1.00 20.00    -0.096 Br
ENDBRANCH   4  10
TORSDOF 1
ENDMDL
MODEL 5
REMARK VINA RESULT:      -4.0      2.677      4.301
REMARK  1 active torsions:
REMARK  status: ('A' for Active; 'I' for Inactive)
REMARK    1  A    between atoms: C4_4  and  C10_10 
ROOT
HETATM    1  C1  UNL     1     -36.411  16.150  -3.614  1.00 20.00     0.006 C 
HETATM    2  C2  UNL     1     -35.782  17.474  -3.181  1.00 20.00     0.009 C 
HETATM    3  C3  UNL     1     -33.516  16.385  -2.794  1.00 20.00     0.013 C 
HETATM    4  C4  UNL     1     -35.403  14.994  -3.780  1.00 20.00    -0.001 C 
HETATM    5  C5  UNL     1     -33.974  15.533  -4.000  1.00 20.00    -0.013 C 
HETATM    6  C6  UNL     1     -34.609  17.313  -2.198  1.00 20.00    -0.047 C 
HETATM    7  C7  UNL     1     -32.944  14.429  -4.257  1.00 20.00     0.010 C 
HETATM    8  C8  UNL     1     -35.113  16.747  -0.854  1.00 20.00     0.015 C 
HETATM    9  C9  UNL     1     -34.000  18.701  -1.916  1.00 20.00     0.015 C 
ENDROOT
BRANCH   4  10
HETATM   10  C10 UNL     1     -35.880  14.054  -4.889  1.00 20.00     0.090 C 
HETATM   11 BR11 UNL     1     -35.861  14.998  -6.581  1.00 20.00    -0.096 Br
ENDBRANCH   4  10
TORSDOF 1
ENDMDL
MODEL 6
REMARK VINA RESULT:      -3.9      1.576      2.834
REMARK  1 active torsions:
REMARK  status: ('A' for Active; 'I' for Inactive)
REMARK    1  A    between atoms: C4_4  and  C10_10 
ROOT
HETATM    1  C1  UNL     1     -33.894  16.234  -2.295  1.00 20.00     0.006 C 
HETATM    2  C2  UNL     1     -33.517  15.972  -3.754  1.00 20.00     0.009 C 
HETATM    3  C3  UNL     1     -35.955  15.897  -4.473  1.00 20.00     0.013 C 
HETATM    4  C4  UNL     1     -35.396  16.501  -2.067  1.00 20.00    -0.001 C 
HETATM    5  C5  UNL     1     -36.079  16.971  -3.368  1.00 20.00    -0.013 C 
HETATM    6  C6  UNL     1     -34.579  15.181  -4.537  1.00 20.00    -0.047 C 
HETATM    7  C7  UNL     1     -37.555  17.333  -3.179  1.00 20.00     0.010 C 
HETATM    8  C8  UNL     1     -34.697  13.748  -3.979  1.00 20.00     0.015 C 
HETATM    9  C9  UNL     1     -34.132  15.069  -6.009  1.00 20.00     0.015 C 
ENDROOT
BRANCH   4  10
HETATM   10  C10 UNL     1     -35.572  17.472  -0.898  1.00 20.00     0.090 C 
HETATM   11 BR11 UNL     1     -33.843  18.192  -0.398  1.00 20.00    -0.096 Br
ENDBRANCH   4  10
TORSDOF 1
ENDMDL
MODEL 7
REMARK VINA RESULT:      -3.9      2.203      3.930
REMARK  1 active torsions:
REMARK  status: ('A' for Active; 'I' for Inactive)
REMARK    1  A    between atoms: C4_4  and  C10_10 
ROOT
HETATM    1  C1  UNL     1     -36.088  16.470  -3.122  1.00 20.00     0.006 C 
HETATM    2  C2  UNL     1     -35.339  17.802  -3.070  1.00 20.00     0.009 C 
HETATM    3  C3  UNL     1     -33.076  16.641  -3.090  1.00 20.00     0.013 C 
HETATM    4  C4  UNL     1     -35.183  15.242  -3.349  1.00 20.00    -0.001 C 
HETATM    5  C5  UNL     1     -33.845  15.653  -3.996  1.00 20.00    -0.013 C 
HETATM    6  C6  UNL     1     -33.959  17.712  -2.395  1.00 20.00    -0.047 C 
HETATM    7  C7  UNL     1     -32.940  14.461  -4.324  1.00 20.00     0.010 C 
HETATM    8  C8  UNL     1     -34.119  17.380  -0.896  1.00 20.00     0.015 C 
HETATM    9  C9  UNL     1     -33.266  19.086  -2.493  1.00 20.00     0.015 C 
ENDROOT
BRANCH   4  10
HETATM   10  C10 UNL     1     -35.948  14.182  -4.145  1.00 20.00     0.090 C 
HETATM   11 BR11 UNL     1     -37.789  14.748  -4.359  1.00 20.00    -0.096 Br
ENDBRANCH   4  10
TORSDOF 1
ENDMDL
MODEL 8
REMARK VINA RESULT:      -3.9      2.744      4.289
REMARK  1 active torsions:
REMARK  status: ('A' for Active; 'I' for Inactive)
REMARK    1  A    between atoms: C4_4  and  C10_10 
ROOT
HETATM    1  C1  UNL     1     -36.545  17.587  -3.731  1.00 20.00     0.006 C 
HETATM    2  C2  UNL     1     -35.079  17.825  -3.367  1.00 20.00     0.009 C 
HETATM    3  C3  UNL     1     -34.663  15.341  -3.009  1.00 20.00     0.013 C 
HETATM    4  C4  UNL     1     -36.927  16.100  -3.884  1.00 20.00    -0.001 C 
HETATM    5  C5  UNL     1     -35.681  15.235  -4.167  1.00 20.00    -0.013 C 
HETATM    6  C6  UNL     1     -34.496  16.766  -2.415  1.00 20.00    -0.047 C 
HETATM    7  C7  UNL     1     -36.012  13.760  -4.414  1.00 20.00     0.010 C 
HETATM    8  C8  UNL     1     -35.183  16.852  -1.036  1.00 20.00     0.015 C 
HETATM    9  C9  UNL     1     -32.997  17.057  -2.204  1.00 20.00     0.015 C 
ENDROOT
BRANCH   4  10
HETATM   10  C10 UNL     1     -38.023  15.959  -4.942  1.00 20.00     0.090 C 
HETATM   11 BR11 UNL     1     -39.657  15.351  -4.095  1.00 20.00    -0.096 Br
ENDBRANCH   4  10
TORSDOF 1
ENDMDL
MODEL 9
REMARK VINA RESULT:      -3.9      2.836      4.591
REMARK  1 active torsions:
REMARK  status: ('A' for Active; 'I' for Inactive)
REMARK    1  A    between atoms: C4_4  and  C10_10 
ROOT
HETATM    1  C1  UNL     1     -34.617  17.533  -5.123  1.00 20.00     0.006 C 
HETATM    2  C2  UNL     1     -33.548  17.891  -4.089  1.00 20.00     0.009 C 
HETATM    3  C3  UNL     1     -34.095  15.851  -2.672  1.00 20.00     0.013 C 
HETATM    4  C4  UNL     1     -35.267  16.151  -4.909  1.00 20.00    -0.001 C 
HETATM    5  C5  UNL     1     -34.357  15.235  -4.065  1.00 20.00    -0.013 C 
HETATM    6  C6  UNL     1     -33.862  17.386  -2.670  1.00 20.00    -0.047 C 
HETATM    7  C7  UNL     1     -34.915  13.819  -3.894  1.00 20.00     0.010 C 
HETATM    8  C8  UNL     1     -35.102  18.113  -2.108  1.00 20.00     0.015 C 
HETATM    9  C9  UNL     1     -32.673  17.719  -1.748  1.00 20.00     0.015 C 
ENDROOT
BRANCH   4  10
HETATM   10  C10 UNL     1     -35.654  15.552  -6.263  1.00 20.00     0.090 C 
HETATM   11 BR11 UNL     1     -34.064  15.360  -7.355  1.00 20.00    -0.096 Br
ENDBRANCH   4  10
TORSDOF 1
ENDMDL
