MODEL 1
REMARK VINA RESULT:      -5.8      0.000      0.000
REMARK  2 active torsions:
REMARK  status: ('A' for Active; 'I' for Inactive)
REMARK    1  A    between atoms: C1_1  and  C11_11 
REMARK    2  A    between atoms: C5_5  and  C11_11 
ROOT
HETATM    1  C2  UNL     1     -36.209  16.409  -3.628  1.00 20.00     0.006 C 
HETATM    2  C3  UNL     1     -35.738  16.855  -2.242  1.00 20.00     0.009 C 
HETATM    3  C4  UNL     1     -33.306  16.382  -2.810  1.00 20.00     0.013 C 
HETATM    4  C5  UNL     1     -35.107  15.766  -4.494  1.00 20.00    -0.001 C 
HETATM    5  C6  UNL     1     -33.953  15.236  -3.620  1.00 20.00    -0.013 C 
HETATM    6  C7  UNL     1     -34.305  17.414  -2.224  1.00 20.00    -0.047 C 
HETATM    7  C8  UNL     1     -32.869  14.510  -4.423  1.00 20.00     0.010 C 
HETATM    8  C9  UNL     1     -34.238  18.732  -3.022  1.00 20.00     0.015 C 
HETATM    9  C10 UNL     1     -33.914  17.733  -0.768  1.00 20.00     0.015 C 
ENDROOT
BRANCH   4  10
HETATM   10  C11 UNL     1     -35.727  14.701  -5.403  1.00 20.00     0.118 C 
BRANCH  10  11
HETATM   11  C1  UNL     1     -36.467  13.587  -4.671  1.00 20.00     0.172 C 
HETATM   12  O12 UNL     1     -37.681  13.788  -4.394  1.00 20.00    -0.648 OA
HETATM   13  O13 UNL     1     -35.746  12.577  -4.428  1.00 20.00    -0.648 OA
ENDBRANCH  10  11
ENDBRANCH   4  10
TORSDOF 2
ENDMDL
MODEL 2
REMARK VINA RESULT:      -5.7      1.043      1.334
REMARK  2 active torsions:
REMARK  status: ('A' for Active; 'I' for Inactive)
REMARK    1  A    between atoms: C1_1  and  C11_11 
REMARK    2  A    between atoms: C5_5  and  C11_11 
ROOT
HETATM    1  C2  UNL     1     -35.597  15.944  -2.281  1.00 20.00     0.006 C 
HETATM    2  C3  UNL     1     -34.737  16.894  -1.445  1.00 20.00     0.009 C 
HETATM    3  C4  UNL     1     -32.867  16.870  -3.167  1.00 20.00     0.013 C 
HETATM    4  C5  UNL     1     -34.875  15.351  -3.508  1.00 20.00    -0.001 C 
HETATM    5  C6  UNL     1     -33.345  15.410  -3.334  1.00 20.00    -0.013 C 
HETATM    6  C7  UNL     1     -33.778  17.759  -2.281  1.00 20.00    -0.047 C 
HETATM    7  C8  UNL     1     -32.579  14.756  -4.487  1.00 20.00     0.010 C 
HETATM    8  C9  UNL     1     -34.577  18.744  -3.159  1.00 20.00     0.015 C 
HETATM    9  C10 UNL     1     -32.902  18.596  -1.326  1.00 20.00     0.015 C 
ENDROOT
BRANCH   4  10
HETATM   10  C11 UNL     1     -35.408  13.942  -3.783  1.00 20.00     0.118 C 
BRANCH  10  11
HETATM   11  C1  UNL     1     -36.436  13.854  -4.905  1.00 20.00     0.172 C 
HETATM   12  O12 UNL     1     -36.001  13.881  -6.089  1.00 20.00    -0.648 OA
HETATM   13  O13 UNL     1     -37.628  13.764  -4.492  1.00 20.00    -0.648 OA
ENDBRANCH  10  11
ENDBRANCH   4  10
TORSDOF 2
ENDMDL
MODEL 3
REMARK VINA RESULT:      -5.6      1.020      2.435
REMARK  2 active torsions:
REMARK  status: ('A' for Active; 'I' for Inactive)
REMARK    1  A    between atoms: C1_1  and  C11_11 
REMARK    2  A    between atoms: C5_5  and  C11_11 
ROOT
HETATM    1  C2  UNL     1     -34.166  15.545  -2.995  1.00 20.00     0.006 C 
HETATM    2  C3  UNL     1     -33.500  16.758  -2.344  1.00 20.00     0.009 C 
HETATM    3  C4  UNL     1     -35.560  18.204  -2.706  1.00 20.00     0.013 C 
HETATM    4  C5  UNL     1     -35.524  15.849  -3.660  1.00 20.00    -0.001 C 
HETATM    5  C6  UNL     1     -35.656  17.348  -3.990  1.00 20.00    -0.013 C 
HETATM    6  C7  UNL     1     -34.492  17.731  -1.684  1.00 20.00    -0.047 C 
HETATM    7  C8  UNL     1     -36.952  17.694  -4.730  1.00 20.00     0.010 C 
HETATM    8  C9  UNL     1     -35.174  17.057  -0.476  1.00 20.00     0.015 C 
HETATM    9  C10 UNL     1     -33.715  18.953  -1.155  1.00 20.00     0.015 C 
ENDROOT
BRANCH   4  10
HETATM   10  C11 UNL     1     -35.715  14.934  -4.874  1.00 20.00     0.118 C 
BRANCH  10  11
HETATM   11  C1  UNL     1     -36.461  13.637  -4.587  1.00 20.00     0.172 C 
HETATM   12  O12 UNL     1     -35.773  12.582  -4.509  1.00 20.00    -0.648 OA
HETATM   13  O13 UNL     1     -37.710  13.790  -4.460  1.00 20.00    -0.648 OA
ENDBRANCH  10  11
ENDBRANCH   4  10
TORSDOF 2
ENDMDL
MODEL 4
REMARK VINA RESULT:      -5.1      3.383      5.246
REMARK  2 active torsions:
REMARK  status: ('A' for Active; 'I' for Inactive)
REMARK    1  A    between atoms: C1_1  and  C11_11 
REMARK    2  A    between atoms: C5_5  and  C11_11 
ROOT
HETATM    1  C2  UNL     1     -33.085  16.260  -2.898  1.00 20.00     0.006 C 
HETATM    2  C3  UNL     1     -33.914  15.131  -3.513  1.00 20.00     0.009 C 
HETATM    3  C4  UNL     1     -36.097  16.192  -2.757  1.00 20.00     0.013 C 
HETATM    4  C5  UNL     1     -33.900  17.248  -2.040  1.00 20.00    -0.001 C 
HETATM    5  C6  UNL     1     -35.216  16.609  -1.557  1.00 20.00    -0.013 C 
HETATM    6  C7  UNL     1     -35.326  15.563  -3.946  1.00 20.00    -0.047 C 
HETATM    7  C8  UNL     1     -36.026  17.518  -0.628  1.00 20.00     0.010 C 
HETATM    8  C9  UNL     1     -35.240  16.565  -5.115  1.00 20.00     0.015 C 
HETATM    9  C10 UNL     1     -36.092  14.325  -4.454  1.00 20.00     0.015 C 
ENDROOT
BRANCH   4  10
HETATM   10  C11 UNL     1     -33.023  17.780  -0.902  1.00 20.00     0.118 C 
BRANCH  10  11
HETATM   11  C1  UNL     1     -31.748  18.484  -1.353  1.00 20.00     0.172 C 
HETATM   12  O12 UNL     1     -31.839  19.263  -2.341  1.00 20.00    -0.648 OA
HETATM   13  O13 UNL     1     -30.734  18.187  -0.657  1.00 20.00    -0.648 OA
ENDBRANCH  10  11
ENDBRANCH   4  10
TORSDOF 2
ENDMDL
MODEL 5
REMARK VINA RESULT:      -4.8      1.718      2.668
REMARK  2 active torsions:
REMARK  status: ('A' for Active; 'I' for Inactive)
REMARK    1  A    between atoms: C1_1  and  C11_11 
REMARK    2  A    between atoms: C5_5  and  C11_11 
ROOT
HETATM    1  C2  UNL     1     -33.551  15.413  -4.001  1.00 20.00     0.006 C 
HETATM    2  C3  UNL     1     -33.000  16.341  -2.918  1.00 20.00     0.009 C 
HETATM    3  C4  UNL     1     -34.756  18.113  -3.406  1.00 20.00     0.013 C 
HETATM    4  C5  UNL     1     -34.640  16.051  -4.887  1.00 20.00    -0.001 C 
HETATM    5  C6  UNL     1     -34.557  17.590  -4.847  1.00 20.00    -0.013 C 
HETATM    6  C7  UNL     1     -34.057  17.275  -2.304  1.00 20.00    -0.047 C 
HETATM    7  C8  UNL     1     -35.563  18.275  -5.776  1.00 20.00     0.010 C 
HETATM    8  C9  UNL     1     -35.101  16.454  -1.518  1.00 20.00     0.015 C 
HETATM    9  C10 UNL     1     -33.366  18.222  -1.303  1.00 20.00     0.015 C 
ENDROOT
BRANCH   4  10
HETATM   10  C11 UNL     1     -34.555  15.469  -6.301  1.00 20.00     0.118 C 
BRANCH  10  11
HETATM   11  C1  UNL     1     -35.726  14.576  -6.696  1.00 20.00     0.172 C 
HETATM   12  O12 UNL     1     -36.036  13.647  -5.902  1.00 20.00    -0.648 OA
HETATM   13  O13 UNL     1     -36.251  14.892  -7.803  1.00 20.00    -0.648 OA
ENDBRANCH  10  11
ENDBRANCH   4  10
TORSDOF 2
ENDMDL
MODEL 6
REMARK VINA RESULT:      -4.6      3.568      5.261
REMARK  2 active torsions:
REMARK  status: ('A' for Active; 'I' for Inactive)
REMARK    1  A    between atoms: C1_1  and  C11_11 
REMARK    2  A    between atoms: C5_5  and  C11_11 
ROOT
HETATM    1  C2  UNL     1     -33.677  16.682  -1.929  1.00 20.00     0.006 C 
HETATM    2  C3  UNL     1     -34.759  15.884  -2.658  1.00 20.00     0.009 C 
HETATM    3  C4  UNL     1     -34.143  16.910  -4.901  1.00 20.00     0.013 C 
HETATM    4  C5  UNL     1     -32.982  17.748  -2.801  1.00 20.00    -0.001 C 
HETATM    5  C6  UNL     1     -33.861  18.138  -4.006  1.00 20.00    -0.013 C 
HETATM    6  C7  UNL     1     -34.430  15.594  -4.132  1.00 20.00    -0.047 C 
HETATM    7  C8  UNL     1     -33.257  19.257  -4.859  1.00 20.00     0.010 C 
HETATM    8  C9  UNL     1     -33.217  14.646  -4.230  1.00 20.00     0.015 C 
HETATM    9  C10 UNL     1     -35.631  14.876  -4.780  1.00 20.00     0.015 C 
ENDROOT
BRANCH   4  10
HETATM   10  C11 UNL     1     -32.577  18.939  -1.926  1.00 20.00     0.118 C 
BRANCH  10  11
HETATM   11  C1  UNL     1     -31.854  18.568  -0.637  1.00 20.00     0.172 C 
HETATM   12  O12 UNL     1     -32.515  18.637   0.435  1.00 20.00    -0.648 OA
HETATM   13  O13 UNL     1     -30.648  18.229  -0.814  1.00 20.00    -0.648 OA
ENDBRANCH  10  11
ENDBRANCH   4  10
TORSDOF 2
ENDMDL
MODEL 7
REMARK VINA RESULT:      -4.6      1.411      2.627
REMARK  2 active torsions:
REMARK  status: ('A' for Active; 'I' for Inactive)
REMARK    1  A    between atoms: C1_1  and  C11_11 
REMARK    2  A    between atoms: C5_5  and  C11_11 
ROOT
HETATM    1  C2  UNL     1     -34.550  15.491  -3.184  1.00 20.00     0.006 C 
HETATM    2  C3  UNL     1     -33.321  16.297  -2.760  1.00 20.00     0.009 C 
HETATM    3  C4  UNL     1     -34.536  18.506  -3.086  1.00 20.00     0.013 C 
HETATM    4  C5  UNL     1     -35.707  16.347  -3.739  1.00 20.00    -0.001 C 
HETATM    5  C6  UNL     1     -35.196  17.713  -4.237  1.00 20.00    -0.013 C 
HETATM    6  C7  UNL     1     -33.658  17.659  -2.128  1.00 20.00    -0.047 C 
HETATM    7  C8  UNL     1     -36.291  18.572  -4.878  1.00 20.00     0.010 C 
HETATM    8  C9  UNL     1     -34.383  17.455  -0.782  1.00 20.00     0.015 C 
HETATM    9  C10 UNL     1     -32.345  18.413  -1.838  1.00 20.00     0.015 C 
ENDROOT
BRANCH   4  10
HETATM   10  C11 UNL     1     -36.467  15.550  -4.804  1.00 20.00     0.118 C 
BRANCH  10  11
HETATM   11  C1  UNL     1     -37.788  14.954  -4.334  1.00 20.00     0.172 C 
HETATM   12  O12 UNL     1     -37.907  13.699  -4.391  1.00 20.00    -0.648 OA
HETATM   13  O13 UNL     1     -38.621  15.820  -3.938  1.00 20.00    -0.648 OA
ENDBRANCH  10  11
ENDBRANCH   4  10
TORSDOF 2
ENDMDL
MODEL 8
REMARK VINA RESULT:      -4.4      4.169      5.924
REMARK  2 active torsions:
REMARK  status: ('A' for Active; 'I' for Inactive)
REMARK    1  A    between atoms: C1_1  and  C11_11 
REMARK    2  A    between atoms: C5_5  and  C11_11 
ROOT
HETATM    1  C2  UNL     1     -35.082  18.505  -0.626  1.00 20.00     0.006 C 
HETATM    2  C3  UNL     1     -35.105  18.402  -2.152  1.00 20.00     0.009 C 
HETATM    3  C4  UNL     1     -32.745  17.459  -2.219  1.00 20.00     0.013 C 
HETATM    4  C5  UNL     1     -33.706  18.216   0.008  1.00 20.00    -0.001 C 
HETATM    5  C6  UNL     1     -32.572  18.414  -1.016  1.00 20.00    -0.013 C 
HETATM    6  C7  UNL     1     -34.206  17.286  -2.711  1.00 20.00    -0.047 C 
HETATM    7  C8  UNL     1     -31.175  18.223  -0.417  1.00 20.00     0.010 C 
HETATM    8  C9  UNL     1     -34.749  15.904  -2.292  1.00 20.00     0.015 C 
HETATM    9  C10 UNL     1     -34.236  17.347  -4.252  1.00 20.00     0.015 C 
ENDROOT
BRANCH   4  10
HETATM   10  C11 UNL     1     -33.541  19.059   1.277  1.00 20.00     0.118 C 
BRANCH  10  11
HETATM   11  C1  UNL     1     -33.748  18.297   2.581  1.00 20.00     0.172 C 
HETATM   12  O12 UNL     1     -32.819  17.529   2.953  1.00 20.00    -0.648 OA
HETATM   13  O13 UNL     1     -34.857  18.541   3.138  1.00 20.00    -0.648 OA
ENDBRANCH  10  11
ENDBRANCH   4  10
TORSDOF 2
ENDMDL
MODEL 9
REMARK VINA RESULT:      -4.4     14.184     16.585
REMARK  2 active torsions:
REMARK  status: ('A' for Active; 'I' for Inactive)
REMARK    1  A    between atoms: C1_1  and  C11_11 
REMARK    2  A    between atoms: C5_5  and  C11_11 
ROOT
HETATM    1  C2  UNL     1     -23.728  18.464   8.147  1.00 20.00     0.006 C 
HETATM    2  C3  UNL     1     -22.921  18.493   9.446  1.00 20.00     0.009 C 
HETATM    3  C4  UNL     1     -25.015  18.253  10.867  1.00 20.00     0.013 C 
HETATM    4  C5  UNL     1     -25.256  18.515   8.351  1.00 20.00    -0.001 C 
HETATM    5  C6  UNL     1     -25.613  19.109   9.728  1.00 20.00    -0.013 C 
HETATM    6  C7  UNL     1     -23.580  17.724  10.604  1.00 20.00    -0.047 C 
HETATM    7  C8  UNL     1     -27.120  19.263   9.950  1.00 20.00     0.010 C 
HETATM    8  C9  UNL     1     -23.619  16.215  10.287  1.00 20.00     0.015 C 
HETATM    9  C10 UNL     1     -22.727  17.909  11.875  1.00 20.00     0.015 C 
ENDROOT
BRANCH   4  10
HETATM   10  C11 UNL     1     -25.904  19.256   7.177  1.00 20.00     0.118 C 
BRANCH  10  11
HETATM   11  C1  UNL     1     -25.379  18.859   5.803  1.00 20.00     0.172 C 
HETATM   12  O12 UNL     1     -24.196  19.195   5.519  1.00 20.00    -0.648 OA
HETATM   13  O13 UNL     1     -26.221  18.227   5.103  1.00 20.00    -0.648 OA
ENDBRANCH  10  11
ENDBRANCH   4  10
TORSDOF 2
ENDMDL
