MODEL 1
REMARK VINA RESULT:      -4.4      0.000      0.000
REMARK  1 active torsions:
REMARK  status: ('A' for Active; 'I' for Inactive)
REMARK    1  A    between atoms: C5_5  and  C10_10 
ROOT
HETATM    1  C1  UNL     1     -36.061  13.714  -4.811  1.00 20.00     0.002 C 
HETATM    2  C2  UNL     1     -34.906  13.890  -3.832  1.00 20.00     0.011 C 
HETATM    3  C3  UNL     1     -35.911  14.904  -5.747  1.00 20.00     0.010 C 
HETATM    4  C4  UNL     1     -33.239  15.836  -3.470  1.00 20.00     0.017 A 
HETATM    5  C5  UNL     1     -34.273  15.985  -2.396  1.00 20.00     0.005 A 
HETATM    6  C6  UNL     1     -34.667  15.392  -3.749  1.00 20.00    -0.029 A 
HETATM    7  C7  UNL     1     -35.546  16.086  -4.807  1.00 20.00    -0.040 C 
HETATM    8  C8  UNL     1     -34.844  17.170  -5.630  1.00 20.00     0.015 C 
HETATM    9  C9  UNL     1     -36.837  16.659  -4.196  1.00 20.00     0.015 C 
ENDROOT
BRANCH   5  10
HETATM   10  C10 UNL     1     -34.618  17.350  -1.916  1.00 20.00     0.090 C 
HETATM   11 BR11 UNL     1     -35.357  17.275  -0.111  1.00 20.00    -0.096 Br
ENDBRANCH   5  10
TORSDOF 1
ENDMDL
MODEL 2
REMARK VINA RESULT:      -4.4      2.301      3.295
REMARK  1 active torsions:
REMARK  status: ('A' for Active; 'I' for Inactive)
REMARK    1  A    between atoms: C5_5  and  C10_10 
ROOT
HETATM    1  C1  UNL     1     -34.661  15.267  -3.019  1.00 20.00     0.002 C 
HETATM    2  C2  UNL     1     -33.328  15.998  -3.114  1.00 20.00     0.011 C 
HETATM    3  C3  UNL     1     -35.676  16.397  -2.934  1.00 20.00     0.010 C 
HETATM    4  C4  UNL     1     -32.715  18.499  -2.847  1.00 20.00     0.017 A 
HETATM    5  C5  UNL     1     -32.356  17.853  -1.544  1.00 20.00     0.005 A 
HETATM    6  C6  UNL     1     -33.527  17.307  -2.361  1.00 20.00    -0.029 A 
HETATM    7  C7  UNL     1     -35.015  17.433  -1.983  1.00 20.00    -0.040 C 
HETATM    8  C8  UNL     1     -35.642  18.806  -2.241  1.00 20.00     0.015 C 
HETATM    9  C9  UNL     1     -35.276  17.015  -0.525  1.00 20.00     0.015 C 
ENDROOT
BRANCH   5  10
HETATM   10  C10 UNL     1     -32.471  18.650  -0.293  1.00 20.00     0.090 C 
HETATM   11 BR11 UNL     1     -30.916  18.356   0.851  1.00 20.00    -0.096 Br
ENDBRANCH   5  10
TORSDOF 1
ENDMDL
MODEL 3
REMARK VINA RESULT:      -4.1      1.444      2.153
REMARK  1 active torsions:
REMARK  status: ('A' for Active; 'I' for Inactive)
REMARK    1  A    between atoms: C5_5  and  C10_10 
ROOT
HETATM    1  C1  UNL     1     -37.495  16.016  -5.366  1.00 20.00     0.002 C 
HETATM    2  C2  UNL     1     -36.901  15.257  -4.187  1.00 20.00     0.011 C 
HETATM    3  C3  UNL     1     -36.507  15.745  -6.491  1.00 20.00     0.010 C 
HETATM    4  C4  UNL     1     -34.624  14.062  -3.880  1.00 20.00     0.017 A 
HETATM    5  C5  UNL     1     -34.480  15.389  -3.198  1.00 20.00     0.005 A 
HETATM    6  C6  UNL     1     -35.395  15.259  -4.417  1.00 20.00    -0.029 A 
HETATM    7  C7  UNL     1     -35.114  15.852  -5.811  1.00 20.00    -0.040 C 
HETATM    8  C8  UNL     1     -34.094  15.083  -6.655  1.00 20.00     0.015 C 
HETATM    9  C9  UNL     1     -34.706  17.334  -5.734  1.00 20.00     0.015 C 
ENDROOT
BRANCH   5  10
HETATM   10  C10 UNL     1     -33.146  16.047  -3.184  1.00 20.00     0.090 C 
HETATM   11 BR11 UNL     1     -33.149  17.575  -1.970  1.00 20.00    -0.096 Br
ENDBRANCH   5  10
TORSDOF 1
ENDMDL
MODEL 4
REMARK VINA RESULT:      -4.0      2.622      4.127
REMARK  1 active torsions:
REMARK  status: ('A' for Active; 'I' for Inactive)
REMARK    1  A    between atoms: C5_5  and  C10_10 
ROOT
HETATM    1  C1  UNL     1     -35.670  16.855  -2.132  1.00 20.00     0.002 C 
HETATM    2  C2  UNL     1     -35.732  17.604  -3.457  1.00 20.00     0.011 C 
HETATM    3  C3  UNL     1     -34.425  15.992  -2.274  1.00 20.00     0.010 C 
HETATM    4  C4  UNL     1     -34.377  17.340  -5.647  1.00 20.00     0.017 A 
HETATM    5  C5  UNL     1     -35.680  16.642  -5.891  1.00 20.00     0.005 A 
HETATM    6  C6  UNL     1     -35.092  16.675  -4.480  1.00 20.00    -0.029 A 
HETATM    7  C7  UNL     1     -34.490  15.467  -3.736  1.00 20.00    -0.040 C 
HETATM    8  C8  UNL     1     -33.079  15.065  -4.176  1.00 20.00     0.015 C 
HETATM    9  C9  UNL     1     -35.415  14.239  -3.788  1.00 20.00     0.015 C 
ENDROOT
BRANCH   5  10
HETATM   10  C10 UNL     1     -35.701  15.458  -6.792  1.00 20.00     0.090 C 
HETATM   11 BR11 UNL     1     -34.104  15.422  -7.914  1.00 20.00    -0.096 Br
ENDBRANCH   5  10
TORSDOF 1
ENDMDL
MODEL 5
REMARK VINA RESULT:      -3.9      2.253      3.920
REMARK  1 active torsions:
REMARK  status: ('A' for Active; 'I' for Inactive)
REMARK    1  A    between atoms: C5_5  and  C10_10 
ROOT
HETATM    1  C1  UNL     1     -32.736  18.854  -2.412  1.00 20.00     0.002 C 
HETATM    2  C2  UNL     1     -32.910  17.391  -2.022  1.00 20.00     0.011 C 
HETATM    3  C3  UNL     1     -34.126  19.260  -2.878  1.00 20.00     0.010 C 
HETATM    4  C4  UNL     1     -34.885  15.749  -2.343  1.00 20.00     0.017 A 
HETATM    5  C5  UNL     1     -33.907  15.423  -3.431  1.00 20.00     0.005 A 
HETATM    6  C6  UNL     1     -34.020  16.860  -2.920  1.00 20.00    -0.029 A 
HETATM    7  C7  UNL     1     -34.624  18.041  -3.703  1.00 20.00    -0.040 C 
HETATM    8  C8  UNL     1     -36.154  18.076  -3.756  1.00 20.00     0.015 C 
HETATM    9  C9  UNL     1     -34.057  18.136  -5.130  1.00 20.00     0.015 C 
ENDROOT
BRANCH   5  10
HETATM   10  C10 UNL     1     -34.424  14.926  -4.734  1.00 20.00     0.090 C 
HETATM   11 BR11 UNL     1     -36.122  13.995  -4.487  1.00 20.00    -0.096 Br
ENDBRANCH   5  10
TORSDOF 1
ENDMDL
MODEL 6
REMARK VINA RESULT:      -3.9      2.663      3.879
REMARK  1 active torsions:
REMARK  status: ('A' for Active; 'I' for Inactive)
REMARK    1  A    between atoms: C5_5  and  C10_10 
ROOT
HETATM    1  C1  UNL     1     -34.055  17.047  -2.289  1.00 20.00     0.002 C 
HETATM    2  C2  UNL     1     -33.143  16.145  -3.111  1.00 20.00     0.011 C 
HETATM    3  C3  UNL     1     -35.379  16.297  -2.285  1.00 20.00     0.010 C 
HETATM    4  C4  UNL     1     -33.632  14.032  -4.525  1.00 20.00     0.017 A 
HETATM    5  C5  UNL     1     -33.531  15.160  -5.506  1.00 20.00     0.005 A 
HETATM    6  C6  UNL     1     -34.058  15.429  -4.096  1.00 20.00    -0.029 A 
HETATM    7  C7  UNL     1     -35.519  15.762  -3.737  1.00 20.00    -0.040 C 
HETATM    8  C8  UNL     1     -36.479  14.569  -3.731  1.00 20.00     0.015 C 
HETATM    9  C9  UNL     1     -36.090  16.878  -4.630  1.00 20.00     0.015 C 
ENDROOT
BRANCH   5  10
HETATM   10  C10 UNL     1     -34.355  15.111  -6.743  1.00 20.00     0.090 C 
HETATM   11 BR11 UNL     1     -34.048  16.701  -7.834  1.00 20.00    -0.096 Br
ENDBRANCH   5  10
TORSDOF 1
ENDMDL
MODEL 7
REMARK VINA RESULT:      -3.8      2.075      3.813
REMARK  1 active torsions:
REMARK  status: ('A' for Active; 'I' for Inactive)
REMARK    1  A    between atoms: C5_5  and  C10_10 
ROOT
HETATM    1  C1  UNL     1     -32.933  17.854  -3.280  1.00 20.00     0.002 C 
HETATM    2  C2  UNL     1     -34.030  18.199  -4.279  1.00 20.00     0.011 C 
HETATM    3  C3  UNL     1     -33.036  16.342  -3.153  1.00 20.00     0.010 C 
HETATM    4  C4  UNL     1     -35.921  16.768  -5.318  1.00 20.00     0.017 A 
HETATM    5  C5  UNL     1     -36.567  17.556  -4.219  1.00 20.00     0.005 A 
HETATM    6  C6  UNL     1     -35.103  17.134  -4.088  1.00 20.00    -0.029 A 
HETATM    7  C7  UNL     1     -34.565  16.065  -3.118  1.00 20.00    -0.040 C 
HETATM    8  C8  UNL     1     -34.811  14.615  -3.542  1.00 20.00     0.015 C 
HETATM    9  C9  UNL     1     -35.081  16.277  -1.684  1.00 20.00     0.015 C 
ENDROOT
BRANCH   5  10
HETATM   10  C10 UNL     1     -37.710  16.953  -3.481  1.00 20.00     0.090 C 
HETATM   11 BR11 UNL     1     -38.431  15.428  -4.463  1.00 20.00    -0.096 Br
ENDBRANCH   5  10
TORSDOF 1
ENDMDL
MODEL 8
REMARK VINA RESULT:      -3.8      2.033      3.594
REMARK  1 active torsions:
REMARK  status: ('A' for Active; 'I' for Inactive)
REMARK    1  A    between atoms: C5_5  and  C10_10 
ROOT
HETATM    1  C1  UNL     1     -33.748  16.250  -2.552  1.00 20.00     0.002 C 
HETATM    2  C2  UNL     1     -34.713  17.264  -3.152  1.00 20.00     0.011 C 
HETATM    3  C3  UNL     1     -33.243  15.486  -3.766  1.00 20.00     0.010 C 
HETATM    4  C4  UNL     1     -35.659  17.531  -5.547  1.00 20.00     0.017 A 
HETATM    5  C5  UNL     1     -36.738  16.854  -4.760  1.00 20.00     0.005 A 
HETATM    6  C6  UNL     1     -35.272  16.603  -4.405  1.00 20.00    -0.029 A 
HETATM    7  C7  UNL     1     -34.508  15.287  -4.646  1.00 20.00    -0.040 C 
HETATM    8  C8  UNL     1     -34.067  15.043  -6.092  1.00 20.00     0.015 C 
HETATM    9  C9  UNL     1     -35.290  14.065  -4.133  1.00 20.00     0.015 C 
ENDROOT
BRANCH   5  10
HETATM   10  C10 UNL     1     -37.637  15.893  -5.454  1.00 20.00     0.090 C 
HETATM   11 BR11 UNL     1     -38.959  15.172  -4.211  1.00 20.00    -0.096 Br
ENDBRANCH   5  10
TORSDOF 1
ENDMDL
MODEL 9
REMARK VINA RESULT:      -3.8      2.098      3.878
REMARK  1 active torsions:
REMARK  status: ('A' for Active; 'I' for Inactive)
REMARK    1  A    between atoms: C5_5  and  C10_10 
ROOT
HETATM    1  C1  UNL     1     -33.349  18.063  -3.070  1.00 20.00     0.002 C 
HETATM    2  C2  UNL     1     -33.989  18.192  -4.447  1.00 20.00     0.011 C 
HETATM    3  C3  UNL     1     -32.870  16.620  -3.041  1.00 20.00     0.010 C 
HETATM    4  C4  UNL     1     -34.542  16.429  -6.260  1.00 20.00     0.017 A 
HETATM    5  C5  UNL     1     -35.833  16.696  -5.549  1.00 20.00     0.005 A 
HETATM    6  C6  UNL     1     -34.513  16.802  -4.785  1.00 20.00    -0.029 A 
HETATM    7  C7  UNL     1     -34.025  15.819  -3.704  1.00 20.00    -0.040 C 
HETATM    8  C8  UNL     1     -33.467  14.494  -4.229  1.00 20.00     0.015 C 
HETATM    9  C9  UNL     1     -35.111  15.539  -2.650  1.00 20.00     0.015 C 
ENDROOT
BRANCH   5  10
HETATM   10  C10 UNL     1     -36.822  15.592  -5.419  1.00 20.00     0.090 C 
HETATM   11 BR11 UNL     1     -38.421  16.212  -4.485  1.00 20.00    -0.096 Br
ENDBRANCH   5  10
TORSDOF 1
ENDMDL
