MODEL 1
REMARK VINA RESULT:      -5.4      0.000      0.000
REMARK  2 active torsions:
REMARK  status: ('A' for Active; 'I' for Inactive)
REMARK    1  A    between atoms: C5_5  and  C6_6 
REMARK    2  A    between atoms: C7_7  and  C8_8 
ROOT
HETATM    1  C4  UNL     1     -31.848   7.251   3.534  1.00 20.00     0.011 A 
HETATM    2  C6  UNL     1     -33.067   6.437   3.215  1.00 20.00    -0.005 A 
HETATM    3  C7  UNL     1     -32.790   7.698   2.447  1.00 20.00     0.000 A 
ENDROOT
BRANCH   2   4
HETATM    4  C5  UNL     1     -34.236   6.303   4.169  1.00 20.00    -0.010 C 
HETATM    5  C2  UNL     1     -33.934   6.529   5.673  1.00 20.00     0.005 C 
HETATM    6  C1  UNL     1     -34.949   5.406   5.969  1.00 20.00     0.001 C 
HETATM    7  C3  UNL     1     -34.651   4.860   4.559  1.00 20.00     0.005 C 
ENDBRANCH   2   4
BRANCH   3   8
HETATM    8  C8  UNL     1     -32.377   7.622   1.018  1.00 20.00     0.090 C 
HETATM    9 BR9  UNL     1     -33.253   9.022  -0.022  1.00 20.00    -0.096 Br
ENDBRANCH   3   8
TORSDOF 2
ENDMDL
MODEL 2
REMARK VINA RESULT:      -4.2      2.567      4.629
REMARK  2 active torsions:
REMARK  status: ('A' for Active; 'I' for Inactive)
REMARK    1  A    between atoms: C5_5  and  C6_6 
REMARK    2  A    between atoms: C7_7  and  C8_8 
ROOT
HETATM    1  C4  UNL     1     -32.941   5.685   2.550  1.00 20.00     0.011 A 
HETATM    2  C6  UNL     1     -32.341   7.058   2.628  1.00 20.00    -0.005 A 
HETATM    3  C7  UNL     1     -33.644   6.773   3.319  1.00 20.00     0.000 A 
ENDROOT
BRANCH   2   4
HETATM    4  C5  UNL     1     -32.238   7.977   1.429  1.00 20.00    -0.010 C 
HETATM    5  C2  UNL     1     -33.092   9.270   1.469  1.00 20.00     0.005 C 
HETATM    6  C1  UNL     1     -33.315   9.081  -0.046  1.00 20.00     0.001 C 
HETATM    7  C3  UNL     1     -33.059   7.577   0.175  1.00 20.00     0.005 C 
ENDBRANCH   2   4
BRANCH   3   8
HETATM    8  C8  UNL     1     -33.700   6.722   4.806  1.00 20.00     0.090 C 
HETATM    9 BR9  UNL     1     -34.875   5.280   5.398  1.00 20.00    -0.096 Br
ENDBRANCH   3   8
TORSDOF 2
ENDMDL
MODEL 3
REMARK VINA RESULT:      -4.1      2.356      4.462
REMARK  2 active torsions:
REMARK  status: ('A' for Active; 'I' for Inactive)
REMARK    1  A    between atoms: C5_5  and  C6_6 
REMARK    2  A    between atoms: C7_7  and  C8_8 
ROOT
HETATM    1  C4  UNL     1     -33.176   5.148   2.338  1.00 20.00     0.011 A 
HETATM    2  C6  UNL     1     -32.739   6.438   2.967  1.00 20.00    -0.005 A 
HETATM    3  C7  UNL     1     -34.163   5.982   3.112  1.00 20.00     0.000 A 
ENDROOT
BRANCH   2   4
HETATM    4  C5  UNL     1     -32.351   7.656   2.155  1.00 20.00    -0.010 C 
HETATM    5  C2  UNL     1     -33.484   8.661   1.825  1.00 20.00     0.005 C 
HETATM    6  C1  UNL     1     -32.807   8.861   0.453  1.00 20.00     0.001 C 
HETATM    7  C3  UNL     1     -32.205   7.452   0.624  1.00 20.00     0.005 C 
ENDBRANCH   2   4
BRANCH   3   8
HETATM    8  C8  UNL     1     -34.663   5.517   4.435  1.00 20.00     0.090 C 
HETATM    9 BR9  UNL     1     -34.004   6.676   5.861  1.00 20.00    -0.096 Br
ENDBRANCH   3   8
TORSDOF 2
ENDMDL
MODEL 4
REMARK VINA RESULT:      -4.0     10.937     11.807
REMARK  2 active torsions:
REMARK  status: ('A' for Active; 'I' for Inactive)
REMARK    1  A    between atoms: C5_5  and  C6_6 
REMARK    2  A    between atoms: C7_7  and  C8_8 
ROOT
HETATM    1  C4  UNL     1     -34.901  13.883  -3.975  1.00 20.00     0.011 A 
HETATM    2  C6  UNL     1     -34.786  15.351  -3.687  1.00 20.00    -0.005 A 
HETATM    3  C7  UNL     1     -33.907  14.724  -4.731  1.00 20.00     0.000 A 
ENDROOT
BRANCH   2   4
HETATM    4  C5  UNL     1     -34.242  15.889  -2.380  1.00 20.00    -0.010 C 
HETATM    5  C2  UNL     1     -35.156  16.868  -1.598  1.00 20.00     0.005 C 
HETATM    6  C1  UNL     1     -33.876  17.634  -1.206  1.00 20.00     0.001 C 
HETATM    7  C3  UNL     1     -33.225  17.055  -2.478  1.00 20.00     0.005 C 
ENDBRANCH   2   4
BRANCH   3   8
HETATM    8  C8  UNL     1     -34.129  15.034  -6.171  1.00 20.00     0.090 C 
HETATM    9 BR9  UNL     1     -34.685  16.891  -6.393  1.00 20.00    -0.096 Br
ENDBRANCH   3   8
TORSDOF 2
ENDMDL
MODEL 5
REMARK VINA RESULT:      -4.0     11.151     12.114
REMARK  2 active torsions:
REMARK  status: ('A' for Active; 'I' for Inactive)
REMARK    1  A    between atoms: C5_5  and  C6_6 
REMARK    2  A    between atoms: C7_7  and  C8_8 
ROOT
HETATM    1  C4  UNL     1     -32.914  18.153  -3.301  1.00 20.00     0.011 A 
HETATM    2  C6  UNL     1     -33.749  17.353  -2.345  1.00 20.00    -0.005 A 
HETATM    3  C7  UNL     1     -32.397  17.849  -1.919  1.00 20.00     0.000 A 
ENDROOT
BRANCH   2   4
HETATM    4  C5  UNL     1     -34.050  15.883  -2.553  1.00 20.00    -0.010 C 
HETATM    5  C2  UNL     1     -33.506  15.239  -3.853  1.00 20.00     0.005 C 
HETATM    6  C1  UNL     1     -34.806  14.409  -3.899  1.00 20.00     0.001 C 
HETATM    7  C3  UNL     1     -35.468  15.532  -3.075  1.00 20.00     0.005 C 
ENDBRANCH   2   4
BRANCH   3   8
HETATM    8  C8  UNL     1     -32.290  18.933  -0.904  1.00 20.00     0.090 C 
HETATM    9 BR9  UNL     1     -30.988  18.457   0.470  1.00 20.00    -0.096 Br
ENDBRANCH   3   8
TORSDOF 2
ENDMDL
MODEL 6
REMARK VINA RESULT:      -4.0     15.757     16.666
REMARK  2 active torsions:
REMARK  status: ('A' for Active; 'I' for Inactive)
REMARK    1  A    between atoms: C5_5  and  C6_6 
REMARK    2  A    between atoms: C7_7  and  C8_8 
ROOT
HETATM    1  C4  UNL     1     -23.283  16.732  11.897  1.00 20.00     0.011 A 
HETATM    2  C6  UNL     1     -23.505  17.998  11.124  1.00 20.00    -0.005 A 
HETATM    3  C7  UNL     1     -24.600  16.973  11.205  1.00 20.00     0.000 A 
ENDROOT
BRANCH   2   4
HETATM    4  C5  UNL     1     -22.775  18.311   9.835  1.00 20.00    -0.010 C 
HETATM    5  C2  UNL     1     -23.617  18.281   8.533  1.00 20.00     0.005 C 
HETATM    6  C1  UNL     1     -22.379  17.683   7.833  1.00 20.00     0.001 C 
HETATM    7  C3  UNL     1     -21.937  17.162   9.215  1.00 20.00     0.005 C 
ENDBRANCH   2   4
BRANCH   3   8
HETATM    8  C8  UNL     1     -25.824  17.256  12.004  1.00 20.00     0.090 C 
HETATM    9 BR9  UNL     1     -26.428  19.088  11.704  1.00 20.00    -0.096 Br
ENDBRANCH   3   8
TORSDOF 2
ENDMDL
MODEL 7
REMARK VINA RESULT:      -4.0      9.500     10.245
REMARK  2 active torsions:
REMARK  status: ('A' for Active; 'I' for Inactive)
REMARK    1  A    between atoms: C5_5  and  C6_6 
REMARK    2  A    between atoms: C7_7  and  C8_8 
ROOT
HETATM    1  C4  UNL     1     -40.987   5.173  -1.113  1.00 20.00     0.011 A 
HETATM    2  C6  UNL     1     -41.772   5.765   0.021  1.00 20.00    -0.005 A 
HETATM    3  C7  UNL     1     -42.466   5.416  -1.264  1.00 20.00     0.000 A 
ENDROOT
BRANCH   2   4
HETATM    4  C5  UNL     1     -41.587   7.194   0.487  1.00 20.00    -0.010 C 
HETATM    5  C2  UNL     1     -42.871   8.055   0.613  1.00 20.00     0.005 C 
HETATM    6  C1  UNL     1     -42.032   9.246   0.105  1.00 20.00     0.001 C 
HETATM    7  C3  UNL     1     -41.111   8.215  -0.578  1.00 20.00     0.005 C 
ENDBRANCH   2   4
BRANCH   3   8
HETATM    8  C8  UNL     1     -43.413   4.268  -1.309  1.00 20.00     0.090 C 
HETATM    9 BR9  UNL     1     -43.352   3.398  -3.055  1.00 20.00    -0.096 Br
ENDBRANCH   3   8
TORSDOF 2
ENDMDL
MODEL 8
REMARK VINA RESULT:      -3.9     11.086     11.953
REMARK  2 active torsions:
REMARK  status: ('A' for Active; 'I' for Inactive)
REMARK    1  A    between atoms: C5_5  and  C6_6 
REMARK    2  A    between atoms: C7_7  and  C8_8 
ROOT
HETATM    1  C4  UNL     1     -35.418  17.022  -0.964  1.00 20.00     0.011 A 
HETATM    2  C6  UNL     1     -34.195  16.645  -1.747  1.00 20.00    -0.005 A 
HETATM    3  C7  UNL     1     -34.422  18.079  -1.362  1.00 20.00     0.000 A 
ENDROOT
BRANCH   2   4
HETATM    4  C5  UNL     1     -34.256  16.167  -3.183  1.00 20.00    -0.010 C 
HETATM    5  C2  UNL     1     -34.882  14.768  -3.423  1.00 20.00     0.005 C 
HETATM    6  C1  UNL     1     -33.826  14.568  -4.530  1.00 20.00     0.001 C 
HETATM    7  C3  UNL     1     -32.947  15.587  -3.778  1.00 20.00     0.005 C 
ENDBRANCH   2   4
BRANCH   3   8
HETATM    8  C8  UNL     1     -33.555  18.717  -0.332  1.00 20.00     0.090 C 
HETATM    9 BR9  UNL     1     -31.672  18.367  -0.711  1.00 20.00    -0.096 Br
ENDBRANCH   3   8
TORSDOF 2
ENDMDL
MODEL 9
REMARK VINA RESULT:      -3.8     11.201     11.672
REMARK  2 active torsions:
REMARK  status: ('A' for Active; 'I' for Inactive)
REMARK    1  A    between atoms: C5_5  and  C6_6 
REMARK    2  A    between atoms: C7_7  and  C8_8 
ROOT
HETATM    1  C4  UNL     1     -33.083  15.353  -3.822  1.00 20.00     0.011 A 
HETATM    2  C6  UNL     1     -34.367  15.723  -3.141  1.00 20.00    -0.005 A 
HETATM    3  C7  UNL     1     -34.290  15.729  -4.640  1.00 20.00     0.000 A 
ENDROOT
BRANCH   2   4
HETATM    4  C5  UNL     1     -34.528  16.991  -2.327  1.00 20.00    -0.010 C 
HETATM    5  C2  UNL     1     -33.257  17.526  -1.617  1.00 20.00     0.005 C 
HETATM    6  C1  UNL     1     -34.175  17.937  -0.447  1.00 20.00     0.001 C 
HETATM    7  C3  UNL     1     -35.146  16.834  -0.913  1.00 20.00     0.005 C 
ENDBRANCH   2   4
BRANCH   3   8
HETATM    8  C8  UNL     1     -35.015  14.692  -5.425  1.00 20.00     0.090 C 
HETATM    9 BR9  UNL     1     -36.638  14.140  -4.492  1.00 20.00    -0.096 Br
ENDBRANCH   3   8
TORSDOF 2
ENDMDL
