MODEL 1
REMARK VINA RESULT:      -5.3      0.000      0.000
REMARK  3 active torsions:
REMARK  status: ('A' for Active; 'I' for Inactive)
REMARK    1  A    between atoms: C1_1  and  C5_5 
REMARK    2  A    between atoms: C5_5  and  C7_7 
REMARK    3  A    between atoms: C6_6  and  C7_7 
ROOT
HETATM    1  C5  UNL     1     -35.471  14.800  -4.726  1.00 20.00     0.274 C 
HETATM    2  F10 UNL     1     -34.907  14.609  -5.955  1.00 20.00    -0.238 F 
ENDROOT
BRANCH   1   3
HETATM    3  C1  UNL     1     -36.376  13.583  -4.534  1.00 20.00     0.208 C 
HETATM    4  O8  UNL     1     -35.768  12.480  -4.440  1.00 20.00    -0.646 OA
HETATM    5  O9  UNL     1     -37.614  13.826  -4.482  1.00 20.00    -0.646 OA
ENDBRANCH   1   3
BRANCH   1   6
HETATM    6  C7  UNL     1     -34.342  14.931  -3.691  1.00 20.00     0.029 C 
HETATM    7  C4  UNL     1     -33.001  14.608  -4.367  1.00 20.00     0.014 C 
BRANCH   6   8
HETATM    8  C6  UNL     1     -34.348  16.305  -2.962  1.00 20.00    -0.016 C 
HETATM    9  C2  UNL     1     -35.143  16.252  -1.653  1.00 20.00     0.010 C 
HETATM   10  C3  UNL     1     -32.952  16.873  -2.693  1.00 20.00     0.010 C 
ENDBRANCH   6   8
ENDBRANCH   1   6
TORSDOF 3
ENDMDL
MODEL 2
REMARK VINA RESULT:      -5.2      0.442      1.163
REMARK  3 active torsions:
REMARK  status: ('A' for Active; 'I' for Inactive)
REMARK    1  A    between atoms: C1_1  and  C5_5 
REMARK    2  A    between atoms: C5_5  and  C7_7 
REMARK    3  A    between atoms: C6_6  and  C7_7 
ROOT
HETATM    1  C5  UNL     1     -35.583  14.901  -4.458  1.00 20.00     0.274 C 
HETATM    2  F10 UNL     1     -35.123  15.036  -5.737  1.00 20.00    -0.238 F 
ENDROOT
BRANCH   1   3
HETATM    3  C1  UNL     1     -36.458  13.648  -4.505  1.00 20.00     0.208 C 
HETATM    4  O8  UNL     1     -35.822  12.558  -4.547  1.00 20.00    -0.646 OA
HETATM    5  O9  UNL     1     -37.704  13.853  -4.483  1.00 20.00    -0.646 OA
ENDBRANCH   1   3
BRANCH   1   6
HETATM    6  C7  UNL     1     -34.371  14.803  -3.517  1.00 20.00     0.029 C 
HETATM    7  C4  UNL     1     -33.086  14.739  -4.357  1.00 20.00     0.014 C 
BRANCH   6   8
HETATM    8  C6  UNL     1     -34.349  15.930  -2.445  1.00 20.00    -0.016 C 
HETATM    9  C2  UNL     1     -33.151  16.868  -2.629  1.00 20.00     0.010 C 
HETATM   10  C3  UNL     1     -35.639  16.751  -2.378  1.00 20.00     0.010 C 
ENDBRANCH   6   8
ENDBRANCH   1   6
TORSDOF 3
ENDMDL
MODEL 3
REMARK VINA RESULT:      -4.8      1.072      2.179
REMARK  3 active torsions:
REMARK  status: ('A' for Active; 'I' for Inactive)
REMARK    1  A    between atoms: C1_1  and  C5_5 
REMARK    2  A    between atoms: C5_5  and  C7_7 
REMARK    3  A    between atoms: C6_6  and  C7_7 
ROOT
HETATM    1  C5  UNL     1     -35.980  14.903  -5.382  1.00 20.00     0.274 C 
HETATM    2  F10 UNL     1     -34.890  14.414  -6.045  1.00 20.00    -0.238 F 
ENDROOT
BRANCH   1   3
HETATM    3  C1  UNL     1     -36.562  13.683  -4.667  1.00 20.00     0.208 C 
HETATM    4  O8  UNL     1     -37.775  13.794  -4.333  1.00 20.00    -0.646 OA
HETATM    5  O9  UNL     1     -35.769  12.714  -4.509  1.00 20.00    -0.646 OA
ENDBRANCH   1   3
BRANCH   1   6
HETATM    6  C7  UNL     1     -35.511  16.031  -4.449  1.00 20.00     0.029 C 
HETATM    7  C4  UNL     1     -36.730  16.854  -4.004  1.00 20.00     0.014 C 
BRANCH   6   8
HETATM    8  C6  UNL     1     -34.651  15.513  -3.261  1.00 20.00    -0.016 C 
HETATM    9  C2  UNL     1     -33.152  15.704  -3.517  1.00 20.00     0.010 C 
HETATM   10  C3  UNL     1     -35.025  16.126  -1.909  1.00 20.00     0.010 C 
ENDBRANCH   6   8
ENDBRANCH   1   6
TORSDOF 3
ENDMDL
MODEL 4
REMARK VINA RESULT:      -4.6      0.934      1.609
REMARK  3 active torsions:
REMARK  status: ('A' for Active; 'I' for Inactive)
REMARK    1  A    between atoms: C1_1  and  C5_5 
REMARK    2  A    between atoms: C5_5  and  C7_7 
REMARK    3  A    between atoms: C6_6  and  C7_7 
ROOT
HETATM    1  C5  UNL     1     -35.509  14.969  -4.499  1.00 20.00     0.274 C 
HETATM    2  F10 UNL     1     -34.684  14.857  -5.581  1.00 20.00    -0.238 F 
ENDROOT
BRANCH   1   3
HETATM    3  C1  UNL     1     -36.158  13.590  -4.377  1.00 20.00     0.208 C 
HETATM    4  O8  UNL     1     -37.416  13.584  -4.494  1.00 20.00    -0.646 OA
HETATM    5  O9  UNL     1     -35.362  12.628  -4.187  1.00 20.00    -0.646 OA
ENDBRANCH   1   3
BRANCH   1   6
HETATM    6  C7  UNL     1     -34.662  15.390  -3.287  1.00 20.00     0.029 C 
HETATM    7  C4  UNL     1     -33.185  15.457  -3.706  1.00 20.00     0.014 C 
BRANCH   6   8
HETATM    8  C6  UNL     1     -35.172  16.700  -2.621  1.00 20.00    -0.016 C 
HETATM    9  C2  UNL     1     -36.572  17.082  -3.114  1.00 20.00     0.010 C 
HETATM   10  C3  UNL     1     -35.158  16.666  -1.090  1.00 20.00     0.010 C 
ENDBRANCH   6   8
ENDBRANCH   1   6
TORSDOF 3
ENDMDL
MODEL 5
REMARK VINA RESULT:      -4.6     11.814     12.226
REMARK  3 active torsions:
REMARK  status: ('A' for Active; 'I' for Inactive)
REMARK    1  A    between atoms: C1_1  and  C5_5 
REMARK    2  A    between atoms: C5_5  and  C7_7 
REMARK    3  A    between atoms: C6_6  and  C7_7 
ROOT
HETATM    1  C5  UNL     1     -34.575   5.783   4.187  1.00 20.00     0.274 C 
HETATM    2  F10 UNL     1     -35.175   4.569   4.011  1.00 20.00    -0.238 F 
ENDROOT
BRANCH   1   3
HETATM    3  C1  UNL     1     -34.430   5.913   5.704  1.00 20.00     0.208 C 
HETATM    4  O8  UNL     1     -34.676   4.857   6.352  1.00 20.00    -0.646 OA
HETATM    5  O9  UNL     1     -34.071   7.049   6.122  1.00 20.00    -0.646 OA
ENDBRANCH   1   3
BRANCH   1   6
HETATM    6  C7  UNL     1     -33.248   5.784   3.412  1.00 20.00     0.029 C 
HETATM    7  C4  UNL     1     -33.339   4.773   2.260  1.00 20.00     0.014 C 
BRANCH   6   8
HETATM    8  C6  UNL     1     -32.822   7.207   2.949  1.00 20.00    -0.016 C 
HETATM    9  C2  UNL     1     -31.602   7.717   3.724  1.00 20.00     0.010 C 
HETATM   10  C3  UNL     1     -32.558   7.319   1.445  1.00 20.00     0.010 C 
ENDBRANCH   6   8
ENDBRANCH   1   6
TORSDOF 3
ENDMDL
MODEL 6
REMARK VINA RESULT:      -4.5     10.653     11.173
REMARK  3 active torsions:
REMARK  status: ('A' for Active; 'I' for Inactive)
REMARK    1  A    between atoms: C1_1  and  C5_5 
REMARK    2  A    between atoms: C5_5  and  C7_7 
REMARK    3  A    between atoms: C6_6  and  C7_7 
ROOT
HETATM    1  C5  UNL     1     -32.685   7.419   2.786  1.00 20.00     0.274 C 
HETATM    2  F10 UNL     1     -31.432   6.903   2.958  1.00 20.00    -0.238 F 
ENDROOT
BRANCH   1   3
HETATM    3  C1  UNL     1     -32.633   8.078   1.407  1.00 20.00     0.208 C 
HETATM    4  O8  UNL     1     -33.432   9.043   1.250  1.00 20.00    -0.646 OA
HETATM    5  O9  UNL     1     -31.794   7.588   0.601  1.00 20.00    -0.646 OA
ENDBRANCH   1   3
BRANCH   1   6
HETATM    6  C7  UNL     1     -33.701   6.273   2.913  1.00 20.00     0.029 C 
HETATM    7  C4  UNL     1     -33.010   4.947   2.564  1.00 20.00     0.014 C 
BRANCH   6   8
HETATM    8  C6  UNL     1     -34.414   6.250   4.295  1.00 20.00    -0.016 C 
HETATM    9  C2  UNL     1     -34.813   4.828   4.706  1.00 20.00     0.010 C 
HETATM   10  C3  UNL     1     -33.610   6.904   5.421  1.00 20.00     0.010 C 
ENDBRANCH   6   8
ENDBRANCH   1   6
TORSDOF 3
ENDMDL
MODEL 7
REMARK VINA RESULT:      -4.2      1.360      2.110
REMARK  3 active torsions:
REMARK  status: ('A' for Active; 'I' for Inactive)
REMARK    1  A    between atoms: C1_1  and  C5_5 
REMARK    2  A    between atoms: C5_5  and  C7_7 
REMARK    3  A    between atoms: C6_6  and  C7_7 
ROOT
HETATM    1  C5  UNL     1     -34.692  14.666  -4.639  1.00 20.00     0.274 C 
HETATM    2  F10 UNL     1     -33.862  13.826  -3.954  1.00 20.00    -0.238 F 
ENDROOT
BRANCH   1   3
HETATM    3  C1  UNL     1     -35.982  13.863  -4.808  1.00 20.00     0.208 C 
HETATM    4  O8  UNL     1     -36.953  14.514  -5.285  1.00 20.00    -0.646 OA
HETATM    5  O9  UNL     1     -35.918  12.650  -4.463  1.00 20.00    -0.646 OA
ENDBRANCH   1   3
BRANCH   1   6
HETATM    6  C7  UNL     1     -34.844  15.963  -3.828  1.00 20.00     0.029 C 
HETATM    7  C4  UNL     1     -35.257  15.612  -2.391  1.00 20.00     0.014 C 
BRANCH   6   8
HETATM    8  C6  UNL     1     -33.583  16.871  -3.901  1.00 20.00    -0.016 C 
HETATM    9  C2  UNL     1     -33.876  18.197  -4.612  1.00 20.00     0.010 C 
HETATM   10  C3  UNL     1     -32.937  17.149  -2.541  1.00 20.00     0.010 C 
ENDBRANCH   6   8
ENDBRANCH   1   6
TORSDOF 3
ENDMDL
MODEL 8
REMARK VINA RESULT:      -4.2     11.484     12.050
REMARK  3 active torsions:
REMARK  status: ('A' for Active; 'I' for Inactive)
REMARK    1  A    between atoms: C1_1  and  C5_5 
REMARK    2  A    between atoms: C5_5  and  C7_7 
REMARK    3  A    between atoms: C6_6  and  C7_7 
ROOT
HETATM    1  C5  UNL     1     -33.155   5.889   3.105  1.00 20.00     0.274 C 
HETATM    2  F10 UNL     1     -33.689   5.379   1.956  1.00 20.00    -0.238 F 
ENDROOT
BRANCH   1   3
HETATM    3  C1  UNL     1     -32.385   7.127   2.645  1.00 20.00     0.208 C 
HETATM    4  O8  UNL     1     -31.555   7.577   3.484  1.00 20.00    -0.646 OA
HETATM    5  O9  UNL     1     -32.661   7.540   1.484  1.00 20.00    -0.646 OA
ENDBRANCH   1   3
BRANCH   1   6
HETATM    6  C7  UNL     1     -34.304   6.174   4.086  1.00 20.00     0.029 C 
HETATM    7  C4  UNL     1     -35.521   5.322   3.696  1.00 20.00     0.014 C 
BRANCH   6   8
HETATM    8  C6  UNL     1     -33.883   6.002   5.574  1.00 20.00    -0.016 C 
HETATM    9  C2  UNL     1     -33.770   7.350   6.293  1.00 20.00     0.010 C 
HETATM   10  C3  UNL     1     -34.794   5.067   6.374  1.00 20.00     0.010 C 
ENDBRANCH   6   8
ENDBRANCH   1   6
TORSDOF 3
ENDMDL
MODEL 9
REMARK VINA RESULT:      -4.2     18.060     19.013
REMARK  3 active torsions:
REMARK  status: ('A' for Active; 'I' for Inactive)
REMARK    1  A    between atoms: C1_1  and  C5_5 
REMARK    2  A    between atoms: C5_5  and  C7_7 
REMARK    3  A    between atoms: C6_6  and  C7_7 
ROOT
HETATM    1  C5  UNL     1     -24.529  17.131  11.309  1.00 20.00     0.274 C 
HETATM    2  F10 UNL     1     -24.139  16.048  12.046  1.00 20.00    -0.238 F 
ENDROOT
BRANCH   1   3
HETATM    3  C1  UNL     1     -25.753  17.668  12.051  1.00 20.00     0.208 C 
HETATM    4  O8  UNL     1     -25.731  18.909  12.282  1.00 20.00    -0.646 OA
HETATM    5  O9  UNL     1     -26.639  16.813  12.331  1.00 20.00    -0.646 OA
ENDBRANCH   1   3
BRANCH   1   6
HETATM    6  C7  UNL     1     -23.347  18.110  11.226  1.00 20.00     0.029 C 
HETATM    7  C4  UNL     1     -22.267  17.680  12.230  1.00 20.00     0.014 C 
BRANCH   6   8
HETATM    8  C6  UNL     1     -22.807  18.281   9.777  1.00 20.00    -0.016 C 
HETATM    9  C2  UNL     1     -22.559  16.929   9.098  1.00 20.00     0.010 C 
HETATM   10  C3  UNL     1     -23.693  19.151   8.882  1.00 20.00     0.010 C 
ENDBRANCH   6   8
ENDBRANCH   1   6
TORSDOF 3
ENDMDL
