MODEL 1
REMARK VINA RESULT:      -5.7      0.000      0.000
REMARK  2 active torsions:
REMARK  status: ('A' for Active; 'I' for Inactive)
REMARK    1  A    between atoms: C5_5  and  C6_6 
REMARK    2  A    between atoms: C7_7  and  C8_8 
ROOT
HETATM    1  C4  UNL     1     -31.835   7.317   3.467  1.00 20.00     0.011 A 
HETATM    2  C6  UNL     1     -33.052   6.499   3.149  1.00 20.00    -0.005 A 
HETATM    3  C7  UNL     1     -32.791   7.772   2.396  1.00 20.00     0.004 A 
ENDROOT
BRANCH   2   4
HETATM    4  C5  UNL     1     -34.209   6.344   4.113  1.00 20.00    -0.010 C 
HETATM    5  C2  UNL     1     -33.896   6.562   5.616  1.00 20.00     0.005 C 
HETATM    6  C1  UNL     1     -34.896   5.425   5.914  1.00 20.00     0.001 C 
HETATM    7  C3  UNL     1     -34.604   4.894   4.495  1.00 20.00     0.005 C 
ENDBRANCH   2   4
BRANCH   3   8
HETATM    8  C8  UNL     1     -32.392   7.719   0.962  1.00 20.00     0.119 C 
HETATM    9 CL9  UNL     1     -33.234   8.972   0.009  1.00 20.00    -0.130 Cl
ENDBRANCH   3   8
TORSDOF 2
ENDMDL
MODEL 2
REMARK VINA RESULT:      -4.2      2.500      4.588
REMARK  2 active torsions:
REMARK  status: ('A' for Active; 'I' for Inactive)
REMARK    1  A    between atoms: C5_5  and  C6_6 
REMARK    2  A    between atoms: C7_7  and  C8_8 
ROOT
HETATM    1  C4  UNL     1     -33.057   5.711   2.645  1.00 20.00     0.011 A 
HETATM    2  C6  UNL     1     -32.370   7.023   2.890  1.00 20.00    -0.005 A 
HETATM    3  C7  UNL     1     -33.703   6.749   3.525  1.00 20.00     0.004 A 
ENDROOT
BRANCH   2   4
HETATM    4  C5  UNL     1     -32.181   8.064   1.806  1.00 20.00    -0.010 C 
HETATM    5  C2  UNL     1     -33.383   9.003   1.528  1.00 20.00     0.005 C 
HETATM    6  C1  UNL     1     -32.993   8.937   0.036  1.00 20.00     0.001 C 
HETATM    7  C3  UNL     1     -32.333   7.577   0.342  1.00 20.00     0.005 C 
ENDBRANCH   2   4
BRANCH   3   8
HETATM    8  C8  UNL     1     -33.795   6.532   4.996  1.00 20.00     0.119 C 
HETATM    9 CL9  UNL     1     -35.027   5.302   5.392  1.00 20.00    -0.130 Cl
ENDBRANCH   3   8
TORSDOF 2
ENDMDL
MODEL 3
REMARK VINA RESULT:      -4.0     11.016     11.534
REMARK  2 active torsions:
REMARK  status: ('A' for Active; 'I' for Inactive)
REMARK    1  A    between atoms: C5_5  and  C6_6 
REMARK    2  A    between atoms: C7_7  and  C8_8 
ROOT
HETATM    1  C4  UNL     1     -33.817  14.552  -4.172  1.00 20.00     0.011 A 
HETATM    2  C6  UNL     1     -34.698  15.201  -3.146  1.00 20.00    -0.005 A 
HETATM    3  C7  UNL     1     -35.248  14.882  -4.506  1.00 20.00     0.004 A 
ENDROOT
BRANCH   2   4
HETATM    4  C5  UNL     1     -34.486  16.621  -2.663  1.00 20.00    -0.010 C 
HETATM    5  C2  UNL     1     -33.033  17.022  -2.300  1.00 20.00     0.005 C 
HETATM    6  C1  UNL     1     -33.631  17.863  -1.153  1.00 20.00     0.001 C 
HETATM    7  C3  UNL     1     -34.845  16.911  -1.183  1.00 20.00     0.005 C 
ENDBRANCH   2   4
BRANCH   3   8
HETATM    8  C8  UNL     1     -36.250  13.792  -4.666  1.00 20.00     0.119 C 
HETATM    9 CL9  UNL     1     -37.901  14.374  -4.311  1.00 20.00    -0.130 Cl
ENDBRANCH   3   8
TORSDOF 2
ENDMDL
MODEL 4
REMARK VINA RESULT:      -4.0      9.442     10.175
REMARK  2 active torsions:
REMARK  status: ('A' for Active; 'I' for Inactive)
REMARK    1  A    between atoms: C5_5  and  C6_6 
REMARK    2  A    between atoms: C7_7  and  C8_8 
ROOT
HETATM    1  C4  UNL     1     -40.911   5.296  -1.053  1.00 20.00     0.011 A 
HETATM    2  C6  UNL     1     -41.753   5.875   0.046  1.00 20.00    -0.005 A 
HETATM    3  C7  UNL     1     -42.384   5.521  -1.269  1.00 20.00     0.004 A 
ENDROOT
BRANCH   2   4
HETATM    4  C5  UNL     1     -41.607   7.304   0.524  1.00 20.00    -0.010 C 
HETATM    5  C2  UNL     1     -42.905   8.150   0.594  1.00 20.00     0.005 C 
HETATM    6  C1  UNL     1     -42.059   9.353   0.128  1.00 20.00     0.001 C 
HETATM    7  C3  UNL     1     -41.096   8.334  -0.517  1.00 20.00     0.005 C 
ENDBRANCH   2   4
BRANCH   3   8
HETATM    8  C8  UNL     1     -43.315   4.361  -1.359  1.00 20.00     0.119 C 
HETATM    9 CL9  UNL     1     -43.099   3.477  -2.895  1.00 20.00    -0.130 Cl
ENDBRANCH   3   8
TORSDOF 2
ENDMDL
MODEL 5
REMARK VINA RESULT:      -4.0     10.870     11.754
REMARK  2 active torsions:
REMARK  status: ('A' for Active; 'I' for Inactive)
REMARK    1  A    between atoms: C5_5  and  C6_6 
REMARK    2  A    between atoms: C7_7  and  C8_8 
ROOT
HETATM    1  C4  UNL     1     -34.842  13.881  -3.992  1.00 20.00     0.011 A 
HETATM    2  C6  UNL     1     -34.753  15.351  -3.703  1.00 20.00    -0.005 A 
HETATM    3  C7  UNL     1     -33.865  14.741  -4.749  1.00 20.00     0.004 A 
ENDROOT
BRANCH   2   4
HETATM    4  C5  UNL     1     -34.218  15.898  -2.397  1.00 20.00    -0.010 C 
HETATM    5  C2  UNL     1     -35.127  16.899  -1.638  1.00 20.00     0.005 C 
HETATM    6  C1  UNL     1     -33.841  17.652  -1.239  1.00 20.00     0.001 C 
HETATM    7  C3  UNL     1     -33.183  17.049  -2.498  1.00 20.00     0.005 C 
ENDBRANCH   2   4
BRANCH   3   8
HETATM    8  C8  UNL     1     -34.095  15.047  -6.189  1.00 20.00     0.119 C 
HETATM    9 CL9  UNL     1     -34.463  16.777  -6.433  1.00 20.00    -0.130 Cl
ENDBRANCH   3   8
TORSDOF 2
ENDMDL
MODEL 6
REMARK VINA RESULT:      -4.0     11.077     11.859
REMARK  2 active torsions:
REMARK  status: ('A' for Active; 'I' for Inactive)
REMARK    1  A    between atoms: C5_5  and  C6_6 
REMARK    2  A    between atoms: C7_7  and  C8_8 
ROOT
HETATM    1  C4  UNL     1     -33.240  17.785  -3.378  1.00 20.00     0.011 A 
HETATM    2  C6  UNL     1     -34.119  17.018  -2.433  1.00 20.00    -0.005 A 
HETATM    3  C7  UNL     1     -32.728  17.399  -2.015  1.00 20.00     0.004 A 
ENDROOT
BRANCH   2   4
HETATM    4  C5  UNL     1     -34.533  15.583  -2.681  1.00 20.00    -0.010 C 
HETATM    5  C2  UNL     1     -33.833  14.851  -3.855  1.00 20.00     0.005 C 
HETATM    6  C1  UNL     1     -35.184  14.159  -4.131  1.00 20.00     0.001 C 
HETATM    7  C3  UNL     1     -35.861  15.367  -3.451  1.00 20.00     0.005 C 
ENDBRANCH   2   4
BRANCH   3   8
HETATM    8  C8  UNL     1     -32.524  18.439  -0.968  1.00 20.00     0.119 C 
HETATM    9 CL9  UNL     1     -30.924  18.273  -0.193  1.00 20.00    -0.130 Cl
ENDBRANCH   3   8
TORSDOF 2
ENDMDL
MODEL 7
REMARK VINA RESULT:      -3.9     14.961     15.798
REMARK  2 active torsions:
REMARK  status: ('A' for Active; 'I' for Inactive)
REMARK    1  A    between atoms: C5_5  and  C6_6 
REMARK    2  A    between atoms: C7_7  and  C8_8 
ROOT
HETATM    1  C4  UNL     1     -22.320  18.514   9.278  1.00 20.00     0.011 A 
HETATM    2  C6  UNL     1     -23.422  17.551   9.612  1.00 20.00    -0.005 A 
HETATM    3  C7  UNL     1     -23.748  18.857   8.945  1.00 20.00     0.004 A 
ENDROOT
BRANCH   2   4
HETATM    4  C5  UNL     1     -23.832  17.237  11.035  1.00 20.00    -0.010 C 
HETATM    5  C2  UNL     1     -24.648  15.937  11.252  1.00 20.00     0.005 C 
HETATM    6  C1  UNL     1     -25.441  16.703  12.332  1.00 20.00     0.001 C 
HETATM    7  C3  UNL     1     -25.065  18.000  11.587  1.00 20.00     0.005 C 
ENDBRANCH   2   4
BRANCH   3   8
HETATM    8  C8  UNL     1     -24.204  18.874   7.527  1.00 20.00     0.119 C 
HETATM    9 CL9  UNL     1     -25.984  18.969   7.421  1.00 20.00    -0.130 Cl
ENDBRANCH   3   8
TORSDOF 2
ENDMDL
MODEL 8
REMARK VINA RESULT:      -3.8     10.966     11.786
REMARK  2 active torsions:
REMARK  status: ('A' for Active; 'I' for Inactive)
REMARK    1  A    between atoms: C5_5  and  C6_6 
REMARK    2  A    between atoms: C7_7  and  C8_8 
ROOT
HETATM    1  C4  UNL     1     -33.278  14.699  -4.356  1.00 20.00     0.011 A 
HETATM    2  C6  UNL     1     -34.369  15.036  -3.382  1.00 20.00    -0.005 A 
HETATM    3  C7  UNL     1     -34.534  15.377  -4.834  1.00 20.00     0.004 A 
ENDROOT
BRANCH   2   4
HETATM    4  C5  UNL     1     -34.211  16.092  -2.308  1.00 20.00    -0.010 C 
HETATM    5  C2  UNL     1     -35.145  17.326  -2.404  1.00 20.00     0.005 C 
HETATM    6  C1  UNL     1     -33.957  18.172  -1.902  1.00 20.00     0.001 C 
HETATM    7  C3  UNL     1     -33.030  17.082  -2.478  1.00 20.00     0.005 C 
ENDBRANCH   2   4
BRANCH   3   8
HETATM    8  C8  UNL     1     -35.519  14.630  -5.666  1.00 20.00     0.119 C 
HETATM    9 CL9  UNL     1     -36.784  13.880  -4.653  1.00 20.00    -0.130 Cl
ENDBRANCH   3   8
TORSDOF 2
ENDMDL
MODEL 9
REMARK VINA RESULT:      -3.8     11.060     11.863
REMARK  2 active torsions:
REMARK  status: ('A' for Active; 'I' for Inactive)
REMARK    1  A    between atoms: C5_5  and  C6_6 
REMARK    2  A    between atoms: C7_7  and  C8_8 
ROOT
HETATM    1  C4  UNL     1     -35.219  17.121  -0.862  1.00 20.00     0.011 A 
HETATM    2  C6  UNL     1     -34.074  16.667  -1.719  1.00 20.00    -0.005 A 
HETATM    3  C7  UNL     1     -34.181  18.110  -1.321  1.00 20.00     0.004 A 
ENDROOT
BRANCH   2   4
HETATM    4  C5  UNL     1     -34.256  16.197  -3.147  1.00 20.00    -0.010 C 
HETATM    5  C2  UNL     1     -35.031  14.870  -3.349  1.00 20.00     0.005 C 
HETATM    6  C1  UNL     1     -34.058  14.564  -4.508  1.00 20.00     0.001 C 
HETATM    7  C3  UNL     1     -33.043  15.489  -3.804  1.00 20.00     0.005 C 
ENDBRANCH   2   4
BRANCH   3   8
HETATM    8  C8  UNL     1     -33.212  18.687  -0.348  1.00 20.00     0.119 C 
HETATM    9 CL9  UNL     1     -31.532  18.261  -0.777  1.00 20.00    -0.130 Cl
ENDBRANCH   3   8
TORSDOF 2
ENDMDL
