MODEL 1
REMARK VINA RESULT:      -4.1      0.000      0.000
REMARK  3 active torsions:
REMARK  status: ('A' for Active; 'I' for Inactive)
REMARK    1  A    between atoms: C2_2  and  C6_6 
REMARK    2  A    between atoms: C3_3  and  C7_7 
REMARK    3  A    between atoms: C7_7  and  C8_8 
ROOT
HETATM    1  C1  UNL     1     -32.715   5.699   2.544  1.00 20.00     0.016 A 
HETATM    2  C2  UNL     1     -33.214   6.958   1.894  1.00 20.00     0.008 A 
HETATM    3  C3  UNL     1     -33.062   6.897   3.413  1.00 20.00    -0.039 A 
HETATM    4  C4  UNL     1     -31.935   7.634   4.087  1.00 20.00     0.015 C 
ENDROOT
BRANCH   3   5
HETATM    5  C7  UNL     1     -34.326   6.834   4.228  1.00 20.00     0.009 C 
BRANCH   5   6
HETATM    6  C8  UNL     1     -34.048   6.470   5.691  1.00 20.00    -0.004 C 
HETATM    7  C5  UNL     1     -34.712   5.162   6.088  1.00 20.00     0.005 C 
ENDBRANCH   5   6
ENDBRANCH   3   5
BRANCH   2   8
HETATM    8  C6  UNL     1     -32.309   7.764   1.026  1.00 20.00     0.120 C 
HETATM    9 CL9  UNL     1     -32.992   9.382   0.705  1.00 20.00    -0.130 Cl
ENDBRANCH   2   8
TORSDOF 3
ENDMDL
MODEL 2
REMARK VINA RESULT:      -3.8      2.600      4.453
REMARK  3 active torsions:
REMARK  status: ('A' for Active; 'I' for Inactive)
REMARK    1  A    between atoms: C2_2  and  C6_6 
REMARK    2  A    between atoms: C3_3  and  C7_7 
REMARK    3  A    between atoms: C7_7  and  C8_8 
ROOT
HETATM    1  C1  UNL     1     -33.076   6.653   4.020  1.00 20.00     0.016 A 
HETATM    2  C2  UNL     1     -34.496   6.281   3.702  1.00 20.00     0.008 A 
HETATM    3  C3  UNL     1     -33.380   5.929   2.718  1.00 20.00    -0.039 A 
HETATM    4  C4  UNL     1     -32.923   4.502   2.578  1.00 20.00     0.015 C 
ENDROOT
BRANCH   3   5
HETATM    5  C7  UNL     1     -33.315   6.721   1.440  1.00 20.00     0.009 C 
BRANCH   5   6
HETATM    6  C8  UNL     1     -32.397   7.942   1.566  1.00 20.00    -0.004 C 
HETATM    7  C5  UNL     1     -32.879   9.106   0.716  1.00 20.00     0.005 C 
ENDBRANCH   5   6
ENDBRANCH   3   5
BRANCH   2   8
HETATM    8  C6  UNL     1     -35.203   5.254   4.517  1.00 20.00     0.120 C 
HETATM    9 CL9  UNL     1     -34.653   5.285   6.216  1.00 20.00    -0.130 Cl
ENDBRANCH   2   8
TORSDOF 3
ENDMDL
MODEL 3
REMARK VINA RESULT:      -3.7     10.358     11.567
REMARK  3 active torsions:
REMARK  status: ('A' for Active; 'I' for Inactive)
REMARK    1  A    between atoms: C2_2  and  C6_6 
REMARK    2  A    between atoms: C3_3  and  C7_7 
REMARK    3  A    between atoms: C7_7  and  C8_8 
ROOT
HETATM    1  C1  UNL     1     -34.702  16.313  -4.427  1.00 20.00     0.016 A 
HETATM    2  C2  UNL     1     -34.003  15.049  -4.015  1.00 20.00     0.008 A 
HETATM    3  C3  UNL     1     -34.134  16.202  -3.022  1.00 20.00    -0.039 A 
HETATM    4  C4  UNL     1     -35.101  16.101  -1.873  1.00 20.00     0.015 C 
ENDROOT
BRANCH   3   5
HETATM    5  C7  UNL     1     -32.885  16.981  -2.703  1.00 20.00     0.009 C 
BRANCH   5   6
HETATM    6  C8  UNL     1     -33.045  17.830  -1.437  1.00 20.00    -0.004 C 
HETATM    7  C5  UNL     1     -31.706  18.312  -0.903  1.00 20.00     0.005 C 
ENDBRANCH   5   6
ENDBRANCH   3   5
BRANCH   2   8
HETATM    8  C6  UNL     1     -34.769  13.778  -3.878  1.00 20.00     0.120 C 
HETATM    9 CL9  UNL     1     -36.372  13.902  -4.655  1.00 20.00    -0.130 Cl
ENDBRANCH   2   8
TORSDOF 3
ENDMDL
MODEL 4
REMARK VINA RESULT:      -3.7      9.534     10.316
REMARK  3 active torsions:
REMARK  status: ('A' for Active; 'I' for Inactive)
REMARK    1  A    between atoms: C2_2  and  C6_6 
REMARK    2  A    between atoms: C3_3  and  C7_7 
REMARK    3  A    between atoms: C7_7  and  C8_8 
ROOT
HETATM    1  C1  UNL     1     -40.843   5.587  -0.752  1.00 20.00     0.016 A 
HETATM    2  C2  UNL     1     -41.538   6.909  -0.585  1.00 20.00     0.008 A 
HETATM    3  C3  UNL     1     -42.344   5.613  -0.516  1.00 20.00    -0.039 A 
HETATM    4  C4  UNL     1     -42.862   5.118   0.809  1.00 20.00     0.015 C 
ENDROOT
BRANCH   3   5
HETATM    5  C7  UNL     1     -43.246   5.300  -1.680  1.00 20.00     0.009 C 
BRANCH   5   6
HETATM    6  C8  UNL     1     -43.415   3.791  -1.887  1.00 20.00    -0.004 C 
HETATM    7  C5  UNL     1     -42.464   3.252  -2.943  1.00 20.00     0.005 C 
ENDBRANCH   5   6
ENDBRANCH   3   5
BRANCH   2   8
HETATM    8  C6  UNL     1     -41.267   7.753   0.612  1.00 20.00     0.120 C 
HETATM    9 CL9  UNL     1     -41.386   9.491   0.219  1.00 20.00    -0.130 Cl
ENDBRANCH   2   8
TORSDOF 3
ENDMDL
MODEL 5
REMARK VINA RESULT:      -3.7     10.761     11.580
REMARK  3 active torsions:
REMARK  status: ('A' for Active; 'I' for Inactive)
REMARK    1  A    between atoms: C2_2  and  C6_6 
REMARK    2  A    between atoms: C3_3  and  C7_7 
REMARK    3  A    between atoms: C7_7  and  C8_8 
ROOT
HETATM    1  C1  UNL     1     -33.580  14.558  -4.303  1.00 20.00     0.016 A 
HETATM    2  C2  UNL     1     -34.994  14.290  -3.874  1.00 20.00     0.008 A 
HETATM    3  C3  UNL     1     -34.419  15.700  -3.753  1.00 20.00    -0.039 A 
HETATM    4  C4  UNL     1     -34.860  16.778  -4.707  1.00 20.00     0.015 C 
ENDROOT
BRANCH   3   5
HETATM    5  C7  UNL     1     -34.108  16.200  -2.367  1.00 20.00     0.009 C 
BRANCH   5   6
HETATM    6  C8  UNL     1     -32.920  17.169  -2.359  1.00 20.00    -0.004 C 
HETATM    7  C5  UNL     1     -32.889  18.019  -1.099  1.00 20.00     0.005 C 
ENDBRANCH   5   6
ENDBRANCH   3   5
BRANCH   2   8
HETATM    8  C6  UNL     1     -36.028  13.926  -4.884  1.00 20.00     0.120 C 
HETATM    9 CL9  UNL     1     -37.667  14.339  -4.309  1.00 20.00    -0.130 Cl
ENDBRANCH   2   8
TORSDOF 3
ENDMDL
MODEL 6
REMARK VINA RESULT:      -3.7     10.898     11.606
REMARK  3 active torsions:
REMARK  status: ('A' for Active; 'I' for Inactive)
REMARK    1  A    between atoms: C2_2  and  C6_6 
REMARK    2  A    between atoms: C3_3  and  C7_7 
REMARK    3  A    between atoms: C7_7  and  C8_8 
ROOT
HETATM    1  C1  UNL     1     -35.549  13.722  -4.161  1.00 20.00     0.016 A 
HETATM    2  C2  UNL     1     -35.558  14.944  -5.034  1.00 20.00     0.008 A 
HETATM    3  C3  UNL     1     -34.465  14.772  -3.980  1.00 20.00    -0.039 A 
HETATM    4  C4  UNL     1     -33.062  14.422  -4.401  1.00 20.00     0.015 C 
ENDROOT
BRANCH   3   5
HETATM    5  C7  UNL     1     -34.536  15.657  -2.764  1.00 20.00     0.009 C 
BRANCH   5   6
HETATM    6  C8  UNL     1     -33.342  16.614  -2.680  1.00 20.00    -0.004 C 
HETATM    7  C5  UNL     1     -33.435  17.534  -1.473  1.00 20.00     0.005 C 
ENDBRANCH   5   6
ENDBRANCH   3   5
BRANCH   2   8
HETATM    8  C6  UNL     1     -35.293  14.824  -6.495  1.00 20.00     0.120 C 
HETATM    9 CL9  UNL     1     -34.568  16.320  -7.147  1.00 20.00    -0.130 Cl
ENDBRANCH   2   8
TORSDOF 3
ENDMDL
MODEL 7
REMARK VINA RESULT:      -3.7     10.461     11.711
REMARK  3 active torsions:
REMARK  status: ('A' for Active; 'I' for Inactive)
REMARK    1  A    between atoms: C2_2  and  C6_6 
REMARK    2  A    between atoms: C3_3  and  C7_7 
REMARK    3  A    between atoms: C7_7  and  C8_8 
ROOT
HETATM    1  C1  UNL     1     -34.586  16.188  -2.230  1.00 20.00     0.016 A 
HETATM    2  C2  UNL     1     -33.183  16.596  -2.579  1.00 20.00     0.008 A 
HETATM    3  C3  UNL     1     -34.138  16.137  -3.681  1.00 20.00    -0.039 A 
HETATM    4  C4  UNL     1     -34.721  17.141  -4.638  1.00 20.00     0.015 C 
ENDROOT
BRANCH   3   5
HETATM    5  C7  UNL     1     -33.883  14.785  -4.293  1.00 20.00     0.009 C 
BRANCH   5   6
HETATM    6  C8  UNL     1     -34.922  13.749  -3.849  1.00 20.00    -0.004 C 
HETATM    7  C5  UNL     1     -36.172  13.790  -4.714  1.00 20.00     0.005 C 
ENDBRANCH   5   6
ENDBRANCH   3   5
BRANCH   2   8
HETATM    8  C6  UNL     1     -32.754  18.014  -2.426  1.00 20.00     0.120 C 
HETATM    9 CL9  UNL     1     -31.662  18.213  -1.027  1.00 20.00    -0.130 Cl
ENDBRANCH   2   8
TORSDOF 3
ENDMDL
MODEL 8
REMARK VINA RESULT:      -3.6     10.882     11.894
REMARK  3 active torsions:
REMARK  status: ('A' for Active; 'I' for Inactive)
REMARK    1  A    between atoms: C2_2  and  C6_6 
REMARK    2  A    between atoms: C3_3  and  C7_7 
REMARK    3  A    between atoms: C7_7  and  C8_8 
ROOT
HETATM    1  C1  UNL     1     -33.128  16.103  -3.221  1.00 20.00     0.016 A 
HETATM    2  C2  UNL     1     -34.437  15.816  -2.544  1.00 20.00     0.008 A 
HETATM    3  C3  UNL     1     -33.876  17.237  -2.539  1.00 20.00    -0.039 A 
HETATM    4  C4  UNL     1     -34.500  18.296  -3.408  1.00 20.00     0.015 C 
ENDROOT
BRANCH   3   5
HETATM    5  C7  UNL     1     -33.331  17.757  -1.236  1.00 20.00     0.009 C 
BRANCH   5   6
HETATM    6  C8  UNL     1     -31.977  18.453  -1.416  1.00 20.00    -0.004 C 
HETATM    7  C5  UNL     1     -31.118  18.359  -0.165  1.00 20.00     0.005 C 
ENDBRANCH   5   6
ENDBRANCH   3   5
BRANCH   2   8
HETATM    8  C6  UNL     1     -35.628  15.424  -3.349  1.00 20.00     0.120 C 
HETATM    9 CL9  UNL     1     -35.392  13.830  -4.119  1.00 20.00    -0.130 Cl
ENDBRANCH   2   8
TORSDOF 3
ENDMDL
MODEL 9
REMARK VINA RESULT:      -3.6     10.760     11.424
REMARK  3 active torsions:
REMARK  status: ('A' for Active; 'I' for Inactive)
REMARK    1  A    between atoms: C2_2  and  C6_6 
REMARK    2  A    between atoms: C3_3  and  C7_7 
REMARK    3  A    between atoms: C7_7  and  C8_8 
ROOT
HETATM    1  C1  UNL     1     -34.631  13.930  -3.945  1.00 20.00     0.016 A 
HETATM    2  C2  UNL     1     -35.037  15.046  -4.865  1.00 20.00     0.008 A 
HETATM    3  C3  UNL     1     -34.417  15.370  -3.506  1.00 20.00    -0.039 A 
HETATM    4  C4  UNL     1     -33.004  15.884  -3.426  1.00 20.00     0.015 C 
ENDROOT
BRANCH   3   5
HETATM    5  C7  UNL     1     -35.332  15.927  -2.448  1.00 20.00     0.009 C 
BRANCH   5   6
HETATM    6  C8  UNL     1     -34.610  16.918  -1.529  1.00 20.00    -0.004 C 
HETATM    7  C5  UNL     1     -35.358  17.131  -0.222  1.00 20.00     0.005 C 
ENDBRANCH   5   6
ENDBRANCH   3   5
BRANCH   2   8
HETATM    8  C6  UNL     1     -34.313  15.259  -6.150  1.00 20.00     0.120 C 
HETATM    9 CL9  UNL     1     -34.482  16.945  -6.716  1.00 20.00    -0.130 Cl
ENDBRANCH   2   8
TORSDOF 3
ENDMDL
