MODEL 1
REMARK VINA RESULT:      -4.0      0.000      0.000
REMARK  1 active torsions:
REMARK  status: ('A' for Active; 'I' for Inactive)
REMARK    1  A    between atoms: C5_5  and  C7_7 
ROOT
HETATM    1  C1  UNL     1     -34.698  14.074  -3.913  1.00 20.00     0.020 C 
HETATM    2  C2  UNL     1     -33.445  16.140  -2.973  1.00 20.00     0.017 A 
HETATM    3  C3  UNL     1     -36.070  13.755  -4.473  1.00 20.00     0.075 C 
HETATM    4  C4  UNL     1     -35.373  16.345  -4.700  1.00 20.00     0.083 C 
HETATM    5  C5  UNL     1     -34.704  16.005  -2.166  1.00 20.00     0.005 A 
HETATM    6  C6  UNL     1     -34.682  15.552  -3.619  1.00 20.00    -0.026 A 
HETATM    7  S8  UNL     1     -36.418  15.139  -5.582  1.00 20.00    -0.168 SA
ENDROOT
BRANCH   5   8
HETATM    8  C7  UNL     1     -35.421  17.227  -1.703  1.00 20.00     0.090 C 
HETATM    9 BR9  UNL     1     -35.477  17.289   0.246  1.00 20.00    -0.096 Br
ENDBRANCH   5   8
TORSDOF 1
ENDMDL
MODEL 2
REMARK VINA RESULT:      -3.7     17.412     18.439
REMARK  1 active torsions:
REMARK  status: ('A' for Active; 'I' for Inactive)
REMARK    1  A    between atoms: C5_5  and  C7_7 
ROOT
HETATM    1  C1  UNL     1     -21.614  17.964  10.460  1.00 20.00     0.020 C 
HETATM    2  C2  UNL     1     -23.475  18.131  12.258  1.00 20.00     0.017 A 
HETATM    3  C3  UNL     1     -21.479  17.484   9.029  1.00 20.00     0.075 C 
HETATM    4  C4  UNL     1     -23.986  18.188   9.712  1.00 20.00     0.083 C 
HETATM    5  C5  UNL     1     -23.434  16.695  11.823  1.00 20.00     0.005 A 
HETATM    6  C6  UNL     1     -23.063  17.796  10.839  1.00 20.00    -0.026 A 
HETATM    7  S8  UNL     1     -22.953  18.138   8.211  1.00 20.00    -0.168 SA
ENDROOT
BRANCH   5   8
HETATM    8  C7  UNL     1     -24.700  15.913  11.731  1.00 20.00     0.090 C 
HETATM    9 BR9  UNL     1     -26.212  16.990  12.332  1.00 20.00    -0.096 Br
ENDBRANCH   5   8
TORSDOF 1
ENDMDL
MODEL 3
REMARK VINA RESULT:      -3.7     17.543     18.206
REMARK  1 active torsions:
REMARK  status: ('A' for Active; 'I' for Inactive)
REMARK    1  A    between atoms: C5_5  and  C7_7 
ROOT
HETATM    1  C1  UNL     1     -23.299  16.473   9.306  1.00 20.00     0.020 C 
HETATM    2  C2  UNL     1     -24.261  16.041  11.674  1.00 20.00     0.017 A 
HETATM    3  C3  UNL     1     -22.604  17.600   8.567  1.00 20.00     0.075 C 
HETATM    4  C4  UNL     1     -22.315  17.705  11.241  1.00 20.00     0.083 C 
HETATM    5  C5  UNL     1     -24.924  17.290  11.169  1.00 20.00     0.005 A 
HETATM    6  C6  UNL     1     -23.510  16.947  10.721  1.00 20.00    -0.026 A 
HETATM    7  S8  UNL     1     -21.387  18.211   9.756  1.00 20.00    -0.168 SA
ENDROOT
BRANCH   5   8
HETATM    8  C7  UNL     1     -25.232  18.398  12.117  1.00 20.00     0.090 C 
HETATM    9 BR9  UNL     1     -26.913  19.262  11.633  1.00 20.00    -0.096 Br
ENDBRANCH   5   8
TORSDOF 1
ENDMDL
MODEL 4
REMARK VINA RESULT:      -3.5      3.172      4.120
REMARK  1 active torsions:
REMARK  status: ('A' for Active; 'I' for Inactive)
REMARK    1  A    between atoms: C5_5  and  C7_7 
ROOT
HETATM    1  C1  UNL     1     -32.954  17.024  -2.284  1.00 20.00     0.020 C 
HETATM    2  C2  UNL     1     -33.496  15.159  -4.001  1.00 20.00     0.017 A 
HETATM    3  C3  UNL     1     -33.714  18.053  -1.471  1.00 20.00     0.075 C 
HETATM    4  C4  UNL     1     -35.192  15.921  -2.189  1.00 20.00     0.083 C 
HETATM    5  C5  UNL     1     -34.100  16.422  -4.543  1.00 20.00     0.005 A 
HETATM    6  C6  UNL     1     -33.983  16.222  -3.039  1.00 20.00    -0.026 A 
HETATM    7  S8  UNL     1     -35.136  17.138  -0.832  1.00 20.00    -0.168 SA
ENDROOT
BRANCH   5   8
HETATM    8  C7  UNL     1     -35.398  16.367  -5.274  1.00 20.00     0.090 C 
HETATM    9 BR9  UNL     1     -35.632  14.624  -6.119  1.00 20.00    -0.096 Br
ENDBRANCH   5   8
TORSDOF 1
ENDMDL
MODEL 5
REMARK VINA RESULT:      -3.4      3.319      4.276
REMARK  1 active torsions:
REMARK  status: ('A' for Active; 'I' for Inactive)
REMARK    1  A    between atoms: C5_5  and  C7_7 
ROOT
HETATM    1  C1  UNL     1     -33.177  16.220  -3.103  1.00 20.00     0.020 C 
HETATM    2  C2  UNL     1     -34.695  14.235  -3.792  1.00 20.00     0.017 A 
HETATM    3  C3  UNL     1     -33.072  17.704  -3.393  1.00 20.00     0.075 C 
HETATM    4  C4  UNL     1     -35.539  16.690  -3.760  1.00 20.00     0.083 C 
HETATM    5  C5  UNL     1     -34.181  14.837  -5.067  1.00 20.00     0.005 A 
HETATM    6  C6  UNL     1     -34.390  15.717  -3.843  1.00 20.00    -0.026 A 
HETATM    7  S8  UNL     1     -34.782  18.285  -3.303  1.00 20.00    -0.168 SA
ENDROOT
BRANCH   5   8
HETATM    8  C7  UNL     1     -35.062  14.890  -6.268  1.00 20.00     0.090 C 
HETATM    9 BR9  UNL     1     -34.071  15.549  -7.814  1.00 20.00    -0.096 Br
ENDBRANCH   5   8
TORSDOF 1
ENDMDL
MODEL 6
REMARK VINA RESULT:      -3.4      2.673      3.180
REMARK  1 active torsions:
REMARK  status: ('A' for Active; 'I' for Inactive)
REMARK    1  A    between atoms: C5_5  and  C7_7 
ROOT
HETATM    1  C1  UNL     1     -35.044  16.106  -2.132  1.00 20.00     0.020 C 
HETATM    2  C2  UNL     1     -32.907  17.524  -1.755  1.00 20.00     0.017 A 
HETATM    3  C3  UNL     1     -35.720  15.381  -3.279  1.00 20.00     0.075 C 
HETATM    4  C4  UNL     1     -33.069  15.709  -3.606  1.00 20.00     0.083 C 
HETATM    5  C5  UNL     1     -33.659  18.181  -2.877  1.00 20.00     0.005 A 
HETATM    6  C6  UNL     1     -33.759  16.675  -2.676  1.00 20.00    -0.026 A 
HETATM    7  S8  UNL     1     -34.362  14.529  -4.114  1.00 20.00    -0.168 SA
ENDROOT
BRANCH   5   8
HETATM    8  C7  UNL     1     -32.909  18.803  -4.005  1.00 20.00     0.090 C 
HETATM    9 BR9  UNL     1     -34.073  19.032  -5.554  1.00 20.00    -0.096 Br
ENDBRANCH   5   8
TORSDOF 1
ENDMDL
MODEL 7
REMARK VINA RESULT:      -3.4      1.839      2.517
REMARK  1 active torsions:
REMARK  status: ('A' for Active; 'I' for Inactive)
REMARK    1  A    between atoms: C5_5  and  C7_7 
ROOT
HETATM    1  C1  UNL     1     -36.638  15.028  -5.090  1.00 20.00     0.020 C 
HETATM    2  C2  UNL     1     -34.666  13.848  -3.890  1.00 20.00     0.017 A 
HETATM    3  C3  UNL     1     -36.832  16.165  -6.074  1.00 20.00     0.075 C 
HETATM    4  C4  UNL     1     -34.396  15.025  -6.188  1.00 20.00     0.083 C 
HETATM    5  C5  UNL     1     -34.546  15.309  -3.565  1.00 20.00     0.005 A 
HETATM    6  C6  UNL     1     -35.152  14.874  -4.893  1.00 20.00    -0.026 A 
HETATM    7  S8  UNL     1     -35.541  15.893  -7.311  1.00 20.00    -0.168 SA
ENDROOT
BRANCH   5   8
HETATM    8  C7  UNL     1     -33.198  15.933  -3.450  1.00 20.00     0.090 C 
HETATM    9 BR9  UNL     1     -33.223  17.375  -2.135  1.00 20.00    -0.096 Br
ENDBRANCH   5   8
TORSDOF 1
ENDMDL
MODEL 8
REMARK VINA RESULT:      -3.3      3.282      4.322
REMARK  1 active torsions:
REMARK  status: ('A' for Active; 'I' for Inactive)
REMARK    1  A    between atoms: C5_5  and  C7_7 
ROOT
HETATM    1  C1  UNL     1     -35.212  17.020  -0.737  1.00 20.00     0.020 C 
HETATM    2  C2  UNL     1     -35.727  15.931  -3.032  1.00 20.00     0.017 A 
HETATM    3  C3  UNL     1     -34.184  17.968  -0.153  1.00 20.00     0.075 C 
HETATM    4  C4  UNL     1     -34.503  18.210  -2.814  1.00 20.00     0.083 C 
HETATM    5  C5  UNL     1     -34.305  15.577  -2.706  1.00 20.00     0.005 A 
HETATM    6  C6  UNL     1     -34.895  16.888  -2.205  1.00 20.00    -0.026 A 
HETATM    7  S8  UNL     1     -34.026  19.263  -1.405  1.00 20.00    -0.168 SA
ENDROOT
BRANCH   5   8
HETATM    8  C7  UNL     1     -33.292  15.503  -3.796  1.00 20.00     0.090 C 
HETATM    9 BR9  UNL     1     -34.153  15.111  -5.502  1.00 20.00    -0.096 Br
ENDBRANCH   5   8
TORSDOF 1
ENDMDL
MODEL 9
REMARK VINA RESULT:      -3.2      3.009      3.670
REMARK  1 active torsions:
REMARK  status: ('A' for Active; 'I' for Inactive)
REMARK    1  A    between atoms: C5_5  and  C7_7 
ROOT
HETATM    1  C1  UNL     1     -33.159  16.735  -3.090  1.00 20.00     0.020 C 
HETATM    2  C2  UNL     1     -32.219  19.009  -2.274  1.00 20.00     0.017 A 
HETATM    3  C3  UNL     1     -34.226  15.747  -2.664  1.00 20.00     0.075 C 
HETATM    4  C4  UNL     1     -34.659  18.259  -1.801  1.00 20.00     0.083 C 
HETATM    5  C5  UNL     1     -32.116  18.067  -1.110  1.00 20.00     0.005 A 
HETATM    6  C6  UNL     1     -33.234  17.895  -2.129  1.00 20.00    -0.026 A 
HETATM    7  S8  UNL     1     -35.642  16.790  -2.246  1.00 20.00    -0.168 SA
ENDROOT
BRANCH   5   8
HETATM    8  C7  UNL     1     -32.345  18.571   0.274  1.00 20.00     0.090 C 
HETATM    9 BR9  UNL     1     -30.658  18.686   1.247  1.00 20.00    -0.096 Br
ENDBRANCH   5   8
TORSDOF 1
ENDMDL
