MODEL 1
REMARK VINA RESULT:      -4.3      0.000      0.000
REMARK  1 active torsions:
REMARK  status: ('A' for Active; 'I' for Inactive)
REMARK    1  A    between atoms: C6_6  and  C11_11 
ROOT
HETATM    1  C1  UNL     1     -36.442  17.472  -4.011  1.00 20.00     0.002 C 
HETATM    2  C2  UNL     1     -36.909  16.021  -3.907  1.00 20.00     0.010 C 
HETATM    3  C3  UNL     1     -34.966  17.671  -3.649  1.00 20.00     0.009 C 
HETATM    4  C4  UNL     1     -36.023  13.665  -4.510  1.00 20.00     0.016 A 
HETATM    5  C5  UNL     1     -34.714  15.236  -2.915  1.00 20.00     0.018 C 
HETATM    6  C6  UNL     1     -35.251  14.610  -5.387  1.00 20.00     0.005 A 
HETATM    7  C7  UNL     1     -35.745  15.071  -4.022  1.00 20.00    -0.035 A 
HETATM    8  C8  UNL     1     -34.460  16.724  -2.537  1.00 20.00    -0.047 C 
HETATM    9  C9  UNL     1     -32.947  16.948  -2.351  1.00 20.00     0.015 C 
HETATM   10  C10 UNL     1     -35.150  17.059  -1.200  1.00 20.00     0.015 C 
ENDROOT
BRANCH   6  11
HETATM   11  C11 UNL     1     -35.838  15.095  -6.668  1.00 20.00     0.090 C 
HETATM   12 BR12 UNL     1     -34.712  16.483  -7.452  1.00 20.00    -0.096 Br
ENDBRANCH   6  11
TORSDOF 1
ENDMDL
MODEL 2
REMARK VINA RESULT:      -4.2      1.398      1.864
REMARK  1 active torsions:
REMARK  status: ('A' for Active; 'I' for Inactive)
REMARK    1  A    between atoms: C6_6  and  C11_11 
ROOT
HETATM    1  C1  UNL     1     -35.832  16.871  -2.613  1.00 20.00     0.002 C 
HETATM    2  C2  UNL     1     -35.126  15.518  -2.678  1.00 20.00     0.010 C 
HETATM    3  C3  UNL     1     -34.929  18.054  -2.981  1.00 20.00     0.009 C 
HETATM    4  C4  UNL     1     -33.457  14.288  -4.229  1.00 20.00     0.016 A 
HETATM    5  C5  UNL     1     -32.862  16.561  -3.130  1.00 20.00     0.018 C 
HETATM    6  C6  UNL     1     -34.082  15.351  -5.089  1.00 20.00     0.005 A 
HETATM    7  C7  UNL     1     -33.928  15.578  -3.591  1.00 20.00    -0.035 A 
HETATM    8  C8  UNL     1     -33.456  17.876  -2.551  1.00 20.00    -0.047 C 
HETATM    9  C9  UNL     1     -32.641  19.074  -3.077  1.00 20.00     0.015 C 
HETATM   10  C10 UNL     1     -33.349  17.877  -1.013  1.00 20.00     0.015 C 
ENDROOT
BRANCH   6  11
HETATM   11  C11 UNL     1     -35.400  15.110  -5.742  1.00 20.00     0.090 C 
HETATM   12 BR12 UNL     1     -36.105  16.770  -6.486  1.00 20.00    -0.096 Br
ENDBRANCH   6  11
TORSDOF 1
ENDMDL
MODEL 3
REMARK VINA RESULT:      -4.1      2.449      4.394
REMARK  1 active torsions:
REMARK  status: ('A' for Active; 'I' for Inactive)
REMARK    1  A    between atoms: C6_6  and  C11_11 
ROOT
HETATM    1  C1  UNL     1     -36.160  17.304  -4.746  1.00 20.00     0.002 C 
HETATM    2  C2  UNL     1     -34.693  17.509  -4.372  1.00 20.00     0.010 C 
HETATM    3  C3  UNL     1     -36.643  15.860  -4.574  1.00 20.00     0.009 C 
HETATM    4  C4  UNL     1     -33.054  16.752  -2.517  1.00 20.00     0.016 A 
HETATM    5  C5  UNL     1     -34.291  15.033  -4.016  1.00 20.00     0.018 C 
HETATM    6  C6  UNL     1     -34.424  16.580  -1.924  1.00 20.00     0.005 A 
HETATM    7  C7  UNL     1     -34.223  16.434  -3.426  1.00 20.00    -0.035 A 
HETATM    8  C8  UNL     1     -35.563  14.798  -4.879  1.00 20.00    -0.047 C 
HETATM    9  C9  UNL     1     -36.140  13.404  -4.561  1.00 20.00     0.015 C 
HETATM   10  C10 UNL     1     -35.202  14.823  -6.378  1.00 20.00     0.015 C 
ENDROOT
BRANCH   6  11
HETATM   11  C11 UNL     1     -35.126  17.743  -1.309  1.00 20.00     0.090 C 
HETATM   12 BR12 UNL     1     -35.514  17.389   0.570  1.00 20.00    -0.096 Br
ENDBRANCH   6  11
TORSDOF 1
ENDMDL
MODEL 4
REMARK VINA RESULT:      -4.1      2.178      3.294
REMARK  1 active torsions:
REMARK  status: ('A' for Active; 'I' for Inactive)
REMARK    1  A    between atoms: C6_6  and  C11_11 
ROOT
HETATM    1  C1  UNL     1     -35.965  13.882  -4.503  1.00 20.00     0.002 C 
HETATM    2  C2  UNL     1     -35.896  14.447  -5.921  1.00 20.00     0.010 C 
HETATM    3  C3  UNL     1     -35.254  14.750  -3.460  1.00 20.00     0.009 C 
HETATM    4  C4  UNL     1     -36.114  16.746  -7.091  1.00 20.00     0.016 A 
HETATM    5  C5  UNL     1     -34.336  16.326  -5.249  1.00 20.00     0.018 C 
HETATM    6  C6  UNL     1     -36.821  16.907  -5.775  1.00 20.00     0.005 A 
HETATM    7  C7  UNL     1     -35.656  15.934  -5.897  1.00 20.00    -0.035 A 
HETATM    8  C8  UNL     1     -33.996  15.470  -3.996  1.00 20.00    -0.047 C 
HETATM    9  C9  UNL     1     -33.447  16.391  -2.888  1.00 20.00     0.015 C 
HETATM   10  C10 UNL     1     -32.899  14.442  -4.334  1.00 20.00     0.015 C 
ENDROOT
BRANCH   6  11
HETATM   11  C11 UNL     1     -38.236  16.462  -5.624  1.00 20.00     0.090 C 
HETATM   12 BR12 UNL     1     -38.801  16.606  -3.762  1.00 20.00    -0.096 Br
ENDBRANCH   6  11
TORSDOF 1
ENDMDL
MODEL 5
REMARK VINA RESULT:      -4.1      1.508      3.881
REMARK  1 active torsions:
REMARK  status: ('A' for Active; 'I' for Inactive)
REMARK    1  A    between atoms: C6_6  and  C11_11 
ROOT
HETATM    1  C1  UNL     1     -33.768  15.159  -5.463  1.00 20.00     0.002 C 
HETATM    2  C2  UNL     1     -33.311  15.254  -4.009  1.00 20.00     0.010 C 
HETATM    3  C3  UNL     1     -35.267  15.410  -5.654  1.00 20.00     0.009 C 
HETATM    4  C4  UNL     1     -33.733  16.768  -1.951  1.00 20.00     0.016 A 
HETATM    5  C5  UNL     1     -35.673  15.516  -3.134  1.00 20.00     0.018 C 
HETATM    6  C6  UNL     1     -34.116  17.605  -3.140  1.00 20.00     0.005 A 
HETATM    7  C7  UNL     1     -34.266  16.090  -3.197  1.00 20.00    -0.035 A 
HETATM    8  C8  UNL     1     -36.142  14.904  -4.485  1.00 20.00    -0.047 C 
HETATM    9  C9  UNL     1     -37.603  15.317  -4.749  1.00 20.00     0.015 C 
HETATM   10  C10 UNL     1     -36.097  13.365  -4.417  1.00 20.00     0.015 C 
ENDROOT
BRANCH   6  11
HETATM   11  C11 UNL     1     -33.071  18.345  -3.903  1.00 20.00     0.090 C 
HETATM   12 BR12 UNL     1     -33.812  19.049  -5.566  1.00 20.00    -0.096 Br
ENDBRANCH   6  11
TORSDOF 1
ENDMDL
MODEL 6
REMARK VINA RESULT:      -4.0      2.675      4.616
REMARK  1 active torsions:
REMARK  status: ('A' for Active; 'I' for Inactive)
REMARK    1  A    between atoms: C6_6  and  C11_11 
ROOT
HETATM    1  C1  UNL     1     -35.736  17.746  -3.888  1.00 20.00     0.002 C 
HETATM    2  C2  UNL     1     -34.346  18.331  -3.644  1.00 20.00     0.010 C 
HETATM    3  C3  UNL     1     -35.800  16.224  -3.718  1.00 20.00     0.009 C 
HETATM    4  C4  UNL     1     -32.394  18.027  -1.970  1.00 20.00     0.016 A 
HETATM    5  C5  UNL     1     -33.271  16.051  -3.403  1.00 20.00     0.018 C 
HETATM    6  C6  UNL     1     -33.607  17.494  -1.260  1.00 20.00     0.005 A 
HETATM    7  C7  UNL     1     -33.520  17.416  -2.778  1.00 20.00    -0.035 A 
HETATM    8  C8  UNL     1     -34.513  15.490  -4.153  1.00 20.00    -0.047 C 
HETATM    9  C9  UNL     1     -34.667  13.991  -3.827  1.00 20.00     0.015 C 
HETATM   10  C10 UNL     1     -34.318  15.618  -5.677  1.00 20.00     0.015 C 
ENDROOT
BRANCH   6  11
HETATM   11  C11 UNL     1     -34.529  18.424  -0.548  1.00 20.00     0.090 C 
HETATM   12 BR12 UNL     1     -35.704  17.432   0.653  1.00 20.00    -0.096 Br
ENDBRANCH   6  11
TORSDOF 1
ENDMDL
MODEL 7
REMARK VINA RESULT:      -4.0      2.300      4.320
REMARK  1 active torsions:
REMARK  status: ('A' for Active; 'I' for Inactive)
REMARK    1  A    between atoms: C6_6  and  C11_11 
ROOT
HETATM    1  C1  UNL     1     -33.639  15.138  -4.778  1.00 20.00     0.002 C 
HETATM    2  C2  UNL     1     -33.787  15.198  -3.259  1.00 20.00     0.010 C 
HETATM    3  C3  UNL     1     -34.862  15.665  -5.536  1.00 20.00     0.009 C 
HETATM    4  C4  UNL     1     -34.694  16.839  -1.474  1.00 20.00     0.016 A 
HETATM    5  C5  UNL     1     -36.206  15.940  -3.381  1.00 20.00     0.018 C 
HETATM    6  C6  UNL     1     -34.406  17.690  -2.680  1.00 20.00     0.005 A 
HETATM    7  C7  UNL     1     -34.807  16.231  -2.857  1.00 20.00    -0.035 A 
HETATM    8  C8  UNL     1     -36.207  15.380  -4.832  1.00 20.00    -0.047 C 
HETATM    9  C9  UNL     1     -37.337  16.055  -5.635  1.00 20.00     0.015 C 
HETATM   10  C10 UNL     1     -36.487  13.864  -4.817  1.00 20.00     0.015 C 
ENDROOT
BRANCH   6  11
HETATM   11  C11 UNL     1     -33.025  18.188  -2.935  1.00 20.00     0.090 C 
HETATM   12 BR12 UNL     1     -32.051  18.385  -1.256  1.00 20.00    -0.096 Br
ENDBRANCH   6  11
TORSDOF 1
ENDMDL
MODEL 8
REMARK VINA RESULT:      -3.9      2.085      4.048
REMARK  1 active torsions:
REMARK  status: ('A' for Active; 'I' for Inactive)
REMARK    1  A    between atoms: C6_6  and  C11_11 
ROOT
HETATM    1  C1  UNL     1     -34.060  17.581  -4.698  1.00 20.00     0.002 C 
HETATM    2  C2  UNL     1     -33.573  17.753  -3.261  1.00 20.00     0.010 C 
HETATM    3  C3  UNL     1     -34.956  16.354  -4.900  1.00 20.00     0.009 C 
HETATM    4  C4  UNL     1     -34.532  17.552  -0.864  1.00 20.00     0.016 A 
HETATM    5  C5  UNL     1     -34.563  15.546  -2.509  1.00 20.00     0.018 C 
HETATM    6  C6  UNL     1     -35.729  17.749  -1.750  1.00 20.00     0.005 A 
HETATM    7  C7  UNL     1     -34.490  17.050  -2.292  1.00 20.00    -0.035 A 
HETATM    8  C8  UNL     1     -34.578  15.148  -4.012  1.00 20.00    -0.047 C 
HETATM    9  C9  UNL     1     -35.617  14.031  -4.230  1.00 20.00     0.015 C 
HETATM   10  C10 UNL     1     -33.202  14.592  -4.430  1.00 20.00     0.015 C 
ENDROOT
BRANCH   6  11
HETATM   11  C11 UNL     1     -36.135  19.121  -2.169  1.00 20.00     0.090 C 
HETATM   12 BR12 UNL     1     -37.485  19.033  -3.575  1.00 20.00    -0.096 Br
ENDBRANCH   6  11
TORSDOF 1
ENDMDL
MODEL 9
REMARK VINA RESULT:      -3.8      1.902      2.815
REMARK  1 active torsions:
REMARK  status: ('A' for Active; 'I' for Inactive)
REMARK    1  A    between atoms: C6_6  and  C11_11 
ROOT
HETATM    1  C1  UNL     1     -34.490  15.618  -2.597  1.00 20.00     0.002 C 
HETATM    2  C2  UNL     1     -33.753  15.125  -3.842  1.00 20.00     0.010 C 
HETATM    3  C3  UNL     1     -35.134  16.997  -2.770  1.00 20.00     0.009 C 
HETATM    4  C4  UNL     1     -34.114  15.085  -6.405  1.00 20.00     0.016 A 
HETATM    5  C5  UNL     1     -34.079  17.313  -5.076  1.00 20.00     0.018 C 
HETATM    6  C6  UNL     1     -35.488  15.250  -5.818  1.00 20.00     0.005 A 
HETATM    7  C7  UNL     1     -34.275  15.804  -5.082  1.00 20.00    -0.035 A 
HETATM    8  C8  UNL     1     -34.333  17.954  -3.681  1.00 20.00    -0.047 C 
HETATM    9  C9  UNL     1     -35.140  19.254  -3.861  1.00 20.00     0.015 C 
HETATM   10  C10 UNL     1     -32.993  18.324  -3.014  1.00 20.00     0.015 C 
ENDROOT
BRANCH   6  11
HETATM   11  C11 UNL     1     -36.249  14.059  -5.345  1.00 20.00     0.090 C 
HETATM   12 BR12 UNL     1     -37.808  14.613  -4.311  1.00 20.00    -0.096 Br
ENDBRANCH   6  11
TORSDOF 1
ENDMDL
