MODEL 1
REMARK VINA RESULT:      -3.7      0.000      0.000
REMARK  4 active torsions:
REMARK  status: ('A' for Active; 'I' for Inactive)
REMARK    1  A    between atoms: C4_4  and  C6_6 
REMARK    2  A    between atoms: C5_5  and  C8_8 
REMARK    3  A    between atoms: C6_6  and  C9_9 
REMARK    4  A    between atoms: C9_9  and  O10_10 
ROOT
HETATM    1  C3  UNL     1     -33.758  14.598  -4.381  1.00 20.00     0.019 A 
HETATM    2  C5  UNL     1     -35.120  14.221  -3.874  1.00 20.00     0.011 A 
HETATM    3  C6  UNL     1     -34.621  15.655  -3.711  1.00 20.00    -0.010 A 
ENDROOT
BRANCH   3   4
HETATM    4  C4  UNL     1     -34.265  16.166  -2.306  1.00 20.00    -0.004 A 
HETATM    5  C1  UNL     1     -33.170  17.167  -2.060  1.00 20.00     0.006 A 
HETATM    6  C2  UNL     1     -34.606  17.553  -1.836  1.00 20.00     0.006 A 
ENDBRANCH   3   4
BRANCH   3   7
HETATM    7  C9  UNL     1     -35.190  16.729  -4.605  1.00 20.00     0.177 C 
BRANCH   7   8
HETATM    8  O10 UNL     1     -34.191  17.151  -5.523  1.00 20.00    -0.395 OA
HETATM    9  C7  UNL     1     -33.987  18.557  -5.461  1.00 20.00     0.201 C 
ENDBRANCH   7   8
ENDBRANCH   3   7
BRANCH   2  10
HETATM   10  C8  UNL     1     -36.203  13.843  -4.827  1.00 20.00     0.120 C 
HETATM   11 CL11 UNL     1     -37.804  14.345  -4.219  1.00 20.00    -0.130 Cl
ENDBRANCH   2  10
TORSDOF 4
ENDMDL
MODEL 2
REMARK VINA RESULT:      -3.7      2.606      4.143
REMARK  4 active torsions:
REMARK  status: ('A' for Active; 'I' for Inactive)
REMARK    1  A    between atoms: C4_4  and  C6_6 
REMARK    2  A    between atoms: C5_5  and  C8_8 
REMARK    3  A    between atoms: C6_6  and  C9_9 
REMARK    4  A    between atoms: C9_9  and  O10_10 
ROOT
HETATM    1  C3  UNL     1     -33.443  14.407  -4.263  1.00 20.00     0.019 A 
HETATM    2  C5  UNL     1     -34.260  15.614  -3.900  1.00 20.00     0.011 A 
HETATM    3  C6  UNL     1     -34.833  14.570  -4.858  1.00 20.00    -0.010 A 
ENDROOT
BRANCH   3   4
HETATM    4  C4  UNL     1     -35.001  14.933  -6.341  1.00 20.00    -0.004 A 
HETATM    5  C1  UNL     1     -34.732  16.313  -6.875  1.00 20.00     0.006 A 
HETATM    6  C2  UNL     1     -33.831  15.171  -7.256  1.00 20.00     0.006 A 
ENDBRANCH   3   4
BRANCH   3   7
HETATM    7  C9  UNL     1     -35.898  13.628  -4.353  1.00 20.00     0.177 C 
BRANCH   7   8
HETATM    8  O10 UNL     1     -37.120  13.904  -5.023  1.00 20.00    -0.395 OA
HETATM    9  C7  UNL     1     -37.990  14.691  -4.219  1.00 20.00     0.201 C 
ENDBRANCH   7   8
ENDBRANCH   3   7
BRANCH   2  10
HETATM   10  C8  UNL     1     -34.759  15.796  -2.507  1.00 20.00     0.120 C 
HETATM   11 CL11 UNL     1     -33.835  17.058  -1.648  1.00 20.00    -0.130 Cl
ENDBRANCH   2  10
TORSDOF 4
ENDMDL
MODEL 3
REMARK VINA RESULT:      -3.7      2.871      4.259
REMARK  4 active torsions:
REMARK  status: ('A' for Active; 'I' for Inactive)
REMARK    1  A    between atoms: C4_4  and  C6_6 
REMARK    2  A    between atoms: C5_5  and  C8_8 
REMARK    3  A    between atoms: C6_6  and  C9_9 
REMARK    4  A    between atoms: C9_9  and  O10_10 
ROOT
HETATM    1  C3  UNL     1     -34.343  16.766  -1.835  1.00 20.00     0.019 A 
HETATM    2  C5  UNL     1     -32.899  17.103  -2.073  1.00 20.00     0.011 A 
HETATM    3  C6  UNL     1     -33.765  16.615  -3.233  1.00 20.00    -0.010 A 
ENDROOT
BRANCH   3   4
HETATM    4  C4  UNL     1     -33.511  15.217  -3.817  1.00 20.00    -0.004 A 
HETATM    5  C1  UNL     1     -34.608  14.205  -4.006  1.00 20.00     0.006 A 
HETATM    6  C2  UNL     1     -33.943  14.826  -5.204  1.00 20.00     0.006 A 
ENDBRANCH   3   4
BRANCH   3   7
HETATM    7  C9  UNL     1     -34.225  17.615  -4.266  1.00 20.00     0.177 C 
BRANCH   7   8
HETATM    8  O10 UNL     1     -35.604  17.891  -4.065  1.00 20.00    -0.395 OA
HETATM    9  C7  UNL     1     -36.365  17.625  -5.237  1.00 20.00     0.201 C 
ENDBRANCH   7   8
ENDBRANCH   3   7
BRANCH   2  10
HETATM   10  C8  UNL     1     -32.422  18.510  -1.953  1.00 20.00     0.120 C 
HETATM   11 CL11 UNL     1     -31.286  18.695  -0.588  1.00 20.00    -0.130 Cl
ENDBRANCH   2  10
TORSDOF 4
ENDMDL
MODEL 4
REMARK VINA RESULT:      -3.6     16.268     18.067
REMARK  4 active torsions:
REMARK  status: ('A' for Active; 'I' for Inactive)
REMARK    1  A    between atoms: C4_4  and  C6_6 
REMARK    2  A    between atoms: C5_5  and  C8_8 
REMARK    3  A    between atoms: C6_6  and  C9_9 
REMARK    4  A    between atoms: C9_9  and  O10_10 
ROOT
HETATM    1  C3  UNL     1     -22.484  18.054  11.359  1.00 20.00     0.019 A 
HETATM    2  C5  UNL     1     -22.137  17.346  10.081  1.00 20.00     0.011 A 
HETATM    3  C6  UNL     1     -23.586  17.741  10.359  1.00 20.00    -0.010 A 
ENDROOT
BRANCH   3   4
HETATM    4  C4  UNL     1     -24.615  16.640  10.662  1.00 20.00    -0.004 A 
HETATM    5  C1  UNL     1     -24.438  15.652  11.782  1.00 20.00     0.006 A 
HETATM    6  C2  UNL     1     -25.525  16.687  11.859  1.00 20.00     0.006 A 
ENDBRANCH   3   4
BRANCH   3   7
HETATM    7  C9  UNL     1     -24.175  18.914   9.614  1.00 20.00     0.177 C 
BRANCH   7   8
HETATM    8  O10 UNL     1     -24.999  18.432   8.562  1.00 20.00    -0.395 OA
HETATM    9  C7  UNL     1     -24.709  19.086   7.332  1.00 20.00     0.201 C 
ENDBRANCH   7   8
ENDBRANCH   3   7
BRANCH   2  10
HETATM   10  C8  UNL     1     -21.298  18.019   9.048  1.00 20.00     0.120 C 
HETATM   11 CL11 UNL     1     -21.536  17.282   7.440  1.00 20.00    -0.130 Cl
ENDBRANCH   2  10
TORSDOF 4
ENDMDL
MODEL 5
REMARK VINA RESULT:      -3.6      2.605      4.098
REMARK  4 active torsions:
REMARK  status: ('A' for Active; 'I' for Inactive)
REMARK    1  A    between atoms: C4_4  and  C6_6 
REMARK    2  A    between atoms: C5_5  and  C8_8 
REMARK    3  A    between atoms: C6_6  and  C9_9 
REMARK    4  A    between atoms: C9_9  and  O10_10 
ROOT
HETATM    1  C3  UNL     1     -34.791  15.901  -2.222  1.00 20.00     0.019 A 
HETATM    2  C5  UNL     1     -33.543  16.178  -3.011  1.00 20.00     0.011 A 
HETATM    3  C6  UNL     1     -34.847  15.861  -3.741  1.00 20.00    -0.010 A 
ENDROOT
BRANCH   3   4
HETATM    4  C4  UNL     1     -34.984  14.517  -4.474  1.00 20.00    -0.004 A 
HETATM    5  C1  UNL     1     -36.260  13.721  -4.477  1.00 20.00     0.006 A 
HETATM    6  C2  UNL     1     -35.771  14.363  -5.746  1.00 20.00     0.006 A 
ENDBRANCH   3   4
BRANCH   3   7
HETATM    7  C9  UNL     1     -35.593  16.984  -4.419  1.00 20.00     0.177 C 
BRANCH   7   8
HETATM    8  O10 UNL     1     -36.773  17.273  -3.682  1.00 20.00    -0.395 OA
HETATM    9  C7  UNL     1     -37.936  17.150  -4.492  1.00 20.00     0.201 C 
ENDBRANCH   7   8
ENDBRANCH   3   7
BRANCH   2  10
HETATM   10  C8  UNL     1     -32.930  17.538  -3.001  1.00 20.00     0.120 C 
HETATM   11 CL11 UNL     1     -32.258  17.932  -1.395  1.00 20.00    -0.130 Cl
ENDBRANCH   2  10
TORSDOF 4
ENDMDL
MODEL 6
REMARK VINA RESULT:      -3.6      1.357      1.672
REMARK  4 active torsions:
REMARK  status: ('A' for Active; 'I' for Inactive)
REMARK    1  A    between atoms: C4_4  and  C6_6 
REMARK    2  A    between atoms: C5_5  and  C8_8 
REMARK    3  A    between atoms: C6_6  and  C9_9 
REMARK    4  A    between atoms: C9_9  and  O10_10 
ROOT
HETATM    1  C3  UNL     1     -33.307  16.166  -3.107  1.00 20.00     0.019 A 
HETATM    2  C5  UNL     1     -34.360  15.106  -3.264  1.00 20.00     0.011 A 
HETATM    3  C6  UNL     1     -34.743  16.480  -2.716  1.00 20.00    -0.010 A 
ENDROOT
BRANCH   3   4
HETATM    4  C4  UNL     1     -35.129  16.611  -1.234  1.00 20.00    -0.004 A 
HETATM    5  C1  UNL     1     -34.574  17.689  -0.344  1.00 20.00     0.006 A 
HETATM    6  C2  UNL     1     -36.028  17.703  -0.724  1.00 20.00     0.006 A 
ENDBRANCH   3   4
BRANCH   3   7
HETATM    7  C9  UNL     1     -35.492  17.436  -3.611  1.00 20.00     0.177 C 
BRANCH   7   8
HETATM    8  O10 UNL     1     -34.619  18.483  -4.011  1.00 20.00    -0.395 OA
HETATM    9  C7  UNL     1     -34.698  18.722  -5.411  1.00 20.00     0.201 C 
ENDBRANCH   7   8
ENDBRANCH   3   7
BRANCH   2  10
HETATM   10  C8  UNL     1     -34.761  14.635  -4.620  1.00 20.00     0.120 C 
HETATM   11 CL11 UNL     1     -36.179  13.553  -4.536  1.00 20.00    -0.130 Cl
ENDBRANCH   2  10
TORSDOF 4
ENDMDL
MODEL 7
REMARK VINA RESULT:      -3.6      1.530      1.935
REMARK  4 active torsions:
REMARK  status: ('A' for Active; 'I' for Inactive)
REMARK    1  A    between atoms: C4_4  and  C6_6 
REMARK    2  A    between atoms: C5_5  and  C8_8 
REMARK    3  A    between atoms: C6_6  and  C9_9 
REMARK    4  A    between atoms: C9_9  and  O10_10 
ROOT
HETATM    1  C3  UNL     1     -33.186  15.931  -3.292  1.00 20.00     0.019 A 
HETATM    2  C5  UNL     1     -34.510  15.727  -2.613  1.00 20.00     0.011 A 
HETATM    3  C6  UNL     1     -33.873  17.116  -2.631  1.00 20.00    -0.010 A 
ENDROOT
BRANCH   3   4
HETATM    4  C4  UNL     1     -33.319  17.699  -1.322  1.00 20.00    -0.004 A 
HETATM    5  C1  UNL     1     -31.925  18.252  -1.206  1.00 20.00     0.006 A 
HETATM    6  C2  UNL     1     -33.109  19.174  -1.115  1.00 20.00     0.006 A 
ENDBRANCH   3   4
BRANCH   3   7
HETATM    7  C9  UNL     1     -34.444  18.165  -3.553  1.00 20.00     0.177 C 
BRANCH   7   8
HETATM    8  O10 UNL     1     -33.528  18.404  -4.612  1.00 20.00    -0.395 OA
HETATM    9  C7  UNL     1     -34.188  18.452  -5.871  1.00 20.00     0.201 C 
ENDBRANCH   7   8
ENDBRANCH   3   7
BRANCH   2  10
HETATM   10  C8  UNL     1     -35.722  15.382  -3.411  1.00 20.00     0.120 C 
HETATM   11 CL11 UNL     1     -35.560  13.773  -4.168  1.00 20.00    -0.130 Cl
ENDBRANCH   2  10
TORSDOF 4
ENDMDL
MODEL 8
REMARK VINA RESULT:      -3.5      1.782      2.144
REMARK  4 active torsions:
REMARK  status: ('A' for Active; 'I' for Inactive)
REMARK    1  A    between atoms: C4_4  and  C6_6 
REMARK    2  A    between atoms: C5_5  and  C8_8 
REMARK    3  A    between atoms: C6_6  and  C9_9 
REMARK    4  A    between atoms: C9_9  and  O10_10 
ROOT
HETATM    1  C3  UNL     1     -36.027  13.550  -4.472  1.00 20.00     0.019 A 
HETATM    2  C5  UNL     1     -36.785  14.741  -3.961  1.00 20.00     0.011 A 
HETATM    3  C6  UNL     1     -35.310  14.884  -4.335  1.00 20.00    -0.010 A 
ENDROOT
BRANCH   3   4
HETATM    4  C4  UNL     1     -34.275  15.094  -3.219  1.00 20.00    -0.004 A 
HETATM    5  C1  UNL     1     -33.232  16.176  -3.274  1.00 20.00     0.006 A 
HETATM    6  C2  UNL     1     -34.340  16.249  -2.259  1.00 20.00     0.006 A 
ENDBRANCH   3   4
BRANCH   3   7
HETATM    7  C9  UNL     1     -34.952  15.592  -5.618  1.00 20.00     0.177 C 
BRANCH   7   8
HETATM    8  O10 UNL     1     -34.165  14.727  -6.425  1.00 20.00    -0.395 OA
HETATM    9  C7  UNL     1     -33.868  15.316  -7.685  1.00 20.00     0.201 C 
ENDBRANCH   7   8
ENDBRANCH   3   7
BRANCH   2  10
HETATM   10  C8  UNL     1     -37.887  15.338  -4.769  1.00 20.00     0.120 C 
HETATM   11 CL11 UNL     1     -39.413  15.389  -3.843  1.00 20.00    -0.130 Cl
ENDBRANCH   2  10
TORSDOF 4
ENDMDL
MODEL 9
REMARK VINA RESULT:      -3.4      1.635      2.220
REMARK  4 active torsions:
REMARK  status: ('A' for Active; 'I' for Inactive)
REMARK    1  A    between atoms: C4_4  and  C6_6 
REMARK    2  A    between atoms: C5_5  and  C8_8 
REMARK    3  A    between atoms: C6_6  and  C9_9 
REMARK    4  A    between atoms: C9_9  and  O10_10 
ROOT
HETATM    1  C3  UNL     1     -34.191  16.299  -4.622  1.00 20.00     0.019 A 
HETATM    2  C5  UNL     1     -33.932  15.008  -3.898  1.00 20.00     0.011 A 
HETATM    3  C6  UNL     1     -34.177  16.289  -3.102  1.00 20.00    -0.010 A 
ENDROOT
BRANCH   3   4
HETATM    4  C4  UNL     1     -33.006  16.926  -2.336  1.00 20.00    -0.004 A 
HETATM    5  C1  UNL     1     -32.614  18.367  -2.508  1.00 20.00     0.006 A 
HETATM    6  C2  UNL     1     -33.209  17.900  -1.209  1.00 20.00     0.006 A 
ENDBRANCH   3   4
BRANCH   3   7
HETATM    7  C9  UNL     1     -35.506  16.473  -2.412  1.00 20.00     0.177 C 
BRANCH   7   8
HETATM    8  O10 UNL     1     -36.246  17.481  -3.087  1.00 20.00    -0.395 OA
HETATM    9  C7  UNL     1     -37.569  17.050  -3.378  1.00 20.00     0.201 C 
ENDBRANCH   7   8
ENDBRANCH   3   7
BRANCH   2  10
HETATM   10  C8  UNL     1     -34.920  13.894  -3.964  1.00 20.00     0.120 C 
HETATM   11 CL11 UNL     1     -36.043  14.106  -5.336  1.00 20.00    -0.130 Cl
ENDBRANCH   2  10
TORSDOF 4
ENDMDL
