MODEL 1
REMARK VINA RESULT:      -4.7      0.000      0.000
REMARK  2 active torsions:
REMARK  status: ('A' for Active; 'I' for Inactive)
REMARK    1  A    between atoms: C5_5  and  C8_8 
REMARK    2  A    between atoms: C9_9  and  C10_10 
ROOT
HETATM    1  C1  UNL     1     -33.022  16.596  -2.847  1.00 20.00     0.009 A 
HETATM    2  C2  UNL     1     -35.145  16.124  -1.792  1.00 20.00     0.009 A 
HETATM    3  C3  UNL     1     -32.803  17.634  -1.943  1.00 20.00     0.024 A 
HETATM    4  C4  UNL     1     -34.925  17.163  -0.888  1.00 20.00     0.024 A 
HETATM    5  C5  UNL     1     -34.193  15.840  -2.772  1.00 20.00    -0.053 A 
HETATM    6  C6  UNL     1     -33.754  17.918  -0.963  1.00 20.00     0.034 A 
HETATM    7 CL11 UNL     1     -33.484  19.200   0.153  1.00 20.00    -0.084 Cl
ENDROOT
BRANCH   5   8
HETATM    8  C8  UNL     1     -34.427  14.730  -3.738  1.00 20.00     0.024 A 
HETATM    9  C7  UNL     1     -33.661  14.719  -5.039  1.00 20.00     0.016 A 
HETATM   10  C9  UNL     1     -35.137  14.977  -5.051  1.00 20.00     0.008 A 
BRANCH  10  11
HETATM   11  C10 UNL     1     -35.659  16.316  -5.448  1.00 20.00     0.119 C 
HETATM   12 CL12 UNL     1     -34.423  17.255  -6.332  1.00 20.00    -0.130 Cl
ENDBRANCH  10  11
ENDBRANCH   5   8
TORSDOF 2
ENDMDL
MODEL 2
REMARK VINA RESULT:      -4.7      0.036      1.395
REMARK  2 active torsions:
REMARK  status: ('A' for Active; 'I' for Inactive)
REMARK    1  A    between atoms: C5_5  and  C8_8 
REMARK    2  A    between atoms: C9_9  and  C10_10 
ROOT
HETATM    1  C1  UNL     1     -35.155  16.119  -1.814  1.00 20.00     0.009 A 
HETATM    2  C2  UNL     1     -33.033  16.582  -2.874  1.00 20.00     0.009 A 
HETATM    3  C3  UNL     1     -34.926  17.151  -0.904  1.00 20.00     0.024 A 
HETATM    4  C4  UNL     1     -32.804  17.613  -1.964  1.00 20.00     0.024 A 
HETATM    5  C5  UNL     1     -34.209  15.834  -2.799  1.00 20.00    -0.053 A 
HETATM    6  C6  UNL     1     -33.751  17.899  -0.980  1.00 20.00     0.034 A 
HETATM    7 CL11 UNL     1     -33.467  19.172   0.144  1.00 20.00    -0.084 Cl
ENDROOT
BRANCH   5   8
HETATM    8  C8  UNL     1     -34.454  14.731  -3.771  1.00 20.00     0.024 A 
HETATM    9  C7  UNL     1     -33.695  14.724  -5.075  1.00 20.00     0.016 A 
HETATM   10  C9  UNL     1     -35.171  14.989  -5.078  1.00 20.00     0.008 A 
BRANCH  10  11
HETATM   11  C10 UNL     1     -35.687  16.334  -5.465  1.00 20.00     0.119 C 
HETATM   12 CL12 UNL     1     -34.436  17.288  -6.308  1.00 20.00    -0.130 Cl
ENDBRANCH  10  11
ENDBRANCH   5   8
TORSDOF 2
ENDMDL
MODEL 3
REMARK VINA RESULT:      -4.6      1.095      1.772
REMARK  2 active torsions:
REMARK  status: ('A' for Active; 'I' for Inactive)
REMARK    1  A    between atoms: C5_5  and  C8_8 
REMARK    2  A    between atoms: C9_9  and  C10_10 
ROOT
HETATM    1  C1  UNL     1     -35.165  15.885  -2.084  1.00 20.00     0.009 A 
HETATM    2  C2  UNL     1     -33.016  16.446  -3.038  1.00 20.00     0.009 A 
HETATM    3  C3  UNL     1     -35.014  16.905  -1.145  1.00 20.00     0.024 A 
HETATM    4  C4  UNL     1     -32.866  17.466  -2.099  1.00 20.00     0.024 A 
HETATM    5  C5  UNL     1     -34.166  15.655  -3.031  1.00 20.00    -0.053 A 
HETATM    6  C6  UNL     1     -33.865  17.696  -1.153  1.00 20.00     0.034 A 
HETATM    7 CL11 UNL     1     -33.679  18.955   0.006  1.00 20.00    -0.084 Cl
ENDROOT
BRANCH   5   8
HETATM    8  C8  UNL     1     -34.327  14.565  -4.034  1.00 20.00     0.024 A 
HETATM    9  C7  UNL     1     -33.663  14.707  -5.382  1.00 20.00     0.016 A 
HETATM   10  C9  UNL     1     -35.157  14.770  -5.282  1.00 20.00     0.008 A 
BRANCH  10  11
HETATM   11  C10 UNL     1     -35.872  16.045  -5.576  1.00 20.00     0.119 C 
HETATM   12 CL12 UNL     1     -37.530  16.023  -4.914  1.00 20.00    -0.130 Cl
ENDBRANCH  10  11
ENDBRANCH   5   8
TORSDOF 2
ENDMDL
MODEL 4
REMARK VINA RESULT:      -4.5      1.397      2.115
REMARK  2 active torsions:
REMARK  status: ('A' for Active; 'I' for Inactive)
REMARK    1  A    between atoms: C5_5  and  C8_8 
REMARK    2  A    between atoms: C9_9  and  C10_10 
ROOT
HETATM    1  C1  UNL     1     -35.339  16.105  -2.047  1.00 20.00     0.009 A 
HETATM    2  C2  UNL     1     -33.783  15.534  -3.806  1.00 20.00     0.009 A 
HETATM    3  C3  UNL     1     -34.406  16.991  -1.509  1.00 20.00     0.024 A 
HETATM    4  C4  UNL     1     -32.850  16.420  -3.267  1.00 20.00     0.024 A 
HETATM    5  C5  UNL     1     -35.028  15.376  -3.196  1.00 20.00    -0.053 A 
HETATM    6  C6  UNL     1     -33.162  17.149  -2.119  1.00 20.00     0.034 A 
HETATM    7 CL11 UNL     1     -32.010  18.242  -1.455  1.00 20.00    -0.084 Cl
ENDROOT
BRANCH   5   8
HETATM    8  C8  UNL     1     -36.025  14.429  -3.770  1.00 20.00     0.024 A 
HETATM    9  C7  UNL     1     -35.968  14.113  -5.245  1.00 20.00     0.016 A 
HETATM   10  C9  UNL     1     -37.113  14.914  -4.703  1.00 20.00     0.008 A 
BRANCH  10  11
HETATM   11  C10 UNL     1     -37.269  16.347  -5.086  1.00 20.00     0.119 C 
HETATM   12 CL12 UNL     1     -36.181  16.778  -6.434  1.00 20.00    -0.130 Cl
ENDBRANCH  10  11
ENDBRANCH   5   8
TORSDOF 2
ENDMDL
MODEL 5
REMARK VINA RESULT:      -4.4      1.954      4.179
REMARK  2 active torsions:
REMARK  status: ('A' for Active; 'I' for Inactive)
REMARK    1  A    between atoms: C5_5  and  C8_8 
REMARK    2  A    between atoms: C9_9  and  C10_10 
ROOT
HETATM    1  C1  UNL     1     -32.979  15.583  -3.604  1.00 20.00     0.009 A 
HETATM    2  C2  UNL     1     -34.898  16.255  -2.299  1.00 20.00     0.009 A 
HETATM    3  C3  UNL     1     -33.748  14.603  -4.231  1.00 20.00     0.024 A 
HETATM    4  C4  UNL     1     -35.667  15.274  -2.926  1.00 20.00     0.024 A 
HETATM    5  C5  UNL     1     -33.554  16.410  -2.637  1.00 20.00    -0.053 A 
HETATM    6  C6  UNL     1     -35.092  14.449  -3.892  1.00 20.00     0.034 A 
HETATM    7 CL11 UNL     1     -36.041  13.239  -4.665  1.00 20.00    -0.084 Cl
ENDROOT
BRANCH   5   8
HETATM    8  C8  UNL     1     -32.732  17.456  -1.968  1.00 20.00     0.024 A 
HETATM    9  C7  UNL     1     -33.392  18.746  -1.547  1.00 20.00     0.016 A 
HETATM   10  C9  UNL     1     -32.400  18.754  -2.670  1.00 20.00     0.008 A 
BRANCH  10  11
HETATM   11  C10 UNL     1     -32.847  19.058  -4.060  1.00 20.00     0.119 C 
HETATM   12 CL12 UNL     1     -34.620  19.255  -4.140  1.00 20.00    -0.130 Cl
ENDBRANCH  10  11
ENDBRANCH   5   8
TORSDOF 2
ENDMDL
MODEL 6
REMARK VINA RESULT:      -4.3      2.063      5.600
REMARK  2 active torsions:
REMARK  status: ('A' for Active; 'I' for Inactive)
REMARK    1  A    between atoms: C5_5  and  C8_8 
REMARK    2  A    between atoms: C9_9  and  C10_10 
ROOT
HETATM    1  C1  UNL     1     -35.050  17.285  -1.191  1.00 20.00     0.009 A 
HETATM    2  C2  UNL     1     -32.850  17.452  -2.176  1.00 20.00     0.009 A 
HETATM    3  C3  UNL     1     -35.307  16.148  -1.957  1.00 20.00     0.024 A 
HETATM    4  C4  UNL     1     -33.107  16.315  -2.942  1.00 20.00     0.024 A 
HETATM    5  C5  UNL     1     -33.821  17.938  -1.301  1.00 20.00    -0.053 A 
HETATM    6  C6  UNL     1     -34.335  15.662  -2.831  1.00 20.00     0.034 A 
HETATM    7 CL11 UNL     1     -34.652  14.259  -3.777  1.00 20.00    -0.084 Cl
ENDROOT
BRANCH   5   8
HETATM    8  C8  UNL     1     -33.547  19.153  -0.483  1.00 20.00     0.024 A 
HETATM    9  C7  UNL     1     -32.241  19.251   0.267  1.00 20.00     0.016 A 
HETATM   10  C9  UNL     1     -33.522  19.086   1.028  1.00 20.00     0.008 A 
BRANCH  10  11
HETATM   11  C10 UNL     1     -33.784  17.829   1.785  1.00 20.00     0.119 C 
HETATM   12 CL12 UNL     1     -32.572  17.585   3.073  1.00 20.00    -0.130 Cl
ENDBRANCH  10  11
ENDBRANCH   5   8
TORSDOF 2
ENDMDL
MODEL 7
REMARK VINA RESULT:      -4.2      2.610      3.969
REMARK  2 active torsions:
REMARK  status: ('A' for Active; 'I' for Inactive)
REMARK    1  A    between atoms: C5_5  and  C8_8 
REMARK    2  A    between atoms: C9_9  and  C10_10 
ROOT
HETATM    1  C1  UNL     1     -33.628  18.636  -0.146  1.00 20.00     0.009 A 
HETATM    2  C2  UNL     1     -31.241  18.377  -0.422  1.00 20.00     0.009 A 
HETATM    3  C3  UNL     1     -33.486  18.473   1.232  1.00 20.00     0.024 A 
HETATM    4  C4  UNL     1     -31.100  18.214   0.956  1.00 20.00     0.024 A 
HETATM    5  C5  UNL     1     -32.505  18.588  -0.973  1.00 20.00    -0.053 A 
HETATM    6  C6  UNL     1     -32.222  18.263   1.783  1.00 20.00     0.034 A 
HETATM    7 CL11 UNL     1     -32.048  18.061   3.484  1.00 20.00    -0.084 Cl
ENDROOT
BRANCH   5   8
HETATM    8  C8  UNL     1     -32.656  18.762  -2.445  1.00 20.00     0.024 A 
HETATM    9  C7  UNL     1     -34.031  18.645  -3.058  1.00 20.00     0.016 A 
HETATM   10  C9  UNL     1     -33.003  17.590  -3.337  1.00 20.00     0.008 A 
BRANCH  10  11
HETATM   11  C10 UNL     1     -33.192  16.206  -2.815  1.00 20.00     0.119 C 
HETATM   12 CL12 UNL     1     -34.862  15.957  -2.234  1.00 20.00    -0.130 Cl
ENDBRANCH  10  11
ENDBRANCH   5   8
TORSDOF 2
ENDMDL
MODEL 8
REMARK VINA RESULT:      -4.2     13.068     15.559
REMARK  2 active torsions:
REMARK  status: ('A' for Active; 'I' for Inactive)
REMARK    1  A    between atoms: C5_5  and  C8_8 
REMARK    2  A    between atoms: C9_9  and  C10_10 
ROOT
HETATM    1  C1  UNL     1     -24.309  18.912   7.071  1.00 20.00     0.009 A 
HETATM    2  C2  UNL     1     -25.724  19.184   9.011  1.00 20.00     0.009 A 
HETATM    3  C3  UNL     1     -25.428  18.991   6.243  1.00 20.00     0.024 A 
HETATM    4  C4  UNL     1     -26.843  19.262   8.182  1.00 20.00     0.024 A 
HETATM    5  C5  UNL     1     -24.456  19.008   8.455  1.00 20.00    -0.053 A 
HETATM    6  C6  UNL     1     -26.695  19.167   6.799  1.00 20.00     0.034 A 
HETATM    7 CL11 UNL     1     -28.077  19.263   5.777  1.00 20.00    -0.084 Cl
ENDROOT
BRANCH   5   8
HETATM    8  C8  UNL     1     -23.260  18.924   9.339  1.00 20.00     0.024 A 
HETATM    9  C7  UNL     1     -22.118  18.021   8.940  1.00 20.00     0.016 A 
HETATM   10  C9  UNL     1     -22.961  17.668  10.129  1.00 20.00     0.008 A 
BRANCH  10  11
HETATM   11  C10 UNL     1     -23.839  16.463  10.091  1.00 20.00     0.119 C 
HETATM   12 CL12 UNL     1     -24.867  16.366  11.548  1.00 20.00    -0.130 Cl
ENDBRANCH  10  11
ENDBRANCH   5   8
TORSDOF 2
ENDMDL
MODEL 9
REMARK VINA RESULT:      -4.1      1.299      4.647
REMARK  2 active torsions:
REMARK  status: ('A' for Active; 'I' for Inactive)
REMARK    1  A    between atoms: C5_5  and  C8_8 
REMARK    2  A    between atoms: C9_9  and  C10_10 
ROOT
HETATM    1  C1  UNL     1     -33.710  15.371  -3.119  1.00 20.00     0.009 A 
HETATM    2  C2  UNL     1     -35.714  16.522  -3.826  1.00 20.00     0.009 A 
HETATM    3  C3  UNL     1     -33.426  15.049  -4.446  1.00 20.00     0.024 A 
HETATM    4  C4  UNL     1     -35.429  16.200  -5.153  1.00 20.00     0.024 A 
HETATM    5  C5  UNL     1     -34.854  16.108  -2.809  1.00 20.00    -0.053 A 
HETATM    6  C6  UNL     1     -34.285  15.464  -5.463  1.00 20.00     0.034 A 
HETATM    7 CL11 UNL     1     -33.935  15.066  -7.101  1.00 20.00    -0.084 Cl
ENDROOT
BRANCH   5   8
HETATM    8  C8  UNL     1     -35.157  16.451  -1.391  1.00 20.00     0.024 A 
HETATM    9  C7  UNL     1     -36.010  17.662  -1.098  1.00 20.00     0.016 A 
HETATM   10  C9  UNL     1     -34.554  17.676  -0.739  1.00 20.00     0.008 A 
BRANCH  10  11
HETATM   11  C10 UNL     1     -33.619  18.592  -1.452  1.00 20.00     0.119 C 
HETATM   12 CL12 UNL     1     -31.925  18.059  -1.265  1.00 20.00    -0.130 Cl
ENDBRANCH  10  11
ENDBRANCH   5   8
TORSDOF 2
ENDMDL
