MODEL 1
REMARK VINA RESULT:      -4.1      0.000      0.000
REMARK  1 active torsions:
REMARK  status: ('A' for Active; 'I' for Inactive)
REMARK    1  A    between atoms: C5_5  and  C7_7 
ROOT
HETATM    1  C1  UNL     1     -34.105   4.594   3.835  1.00 20.00     0.002 C 
HETATM    2  C2  UNL     1     -33.318   4.970   2.567  1.00 20.00     0.010 C 
HETATM    3  C3  UNL     1     -34.444   6.084   4.007  1.00 20.00     0.010 C 
HETATM    4  C4  UNL     1     -32.000   7.033   3.597  1.00 20.00     0.016 A 
HETATM    5  C5  UNL     1     -32.866   7.606   2.502  1.00 20.00     0.005 A 
HETATM    6  C6  UNL     1     -33.247   6.324   3.166  1.00 20.00    -0.036 A 
ENDROOT
BRANCH   5   7
HETATM    7  C7  UNL     1     -32.373   7.628   1.095  1.00 20.00     0.090 C 
HETATM    8 BR8  UNL     1     -33.201   9.091   0.104  1.00 20.00    -0.096 Br
ENDBRANCH   5   7
TORSDOF 1
ENDMDL
MODEL 2
REMARK VINA RESULT:      -3.9     10.938     11.765
REMARK  1 active torsions:
REMARK  status: ('A' for Active; 'I' for Inactive)
REMARK    1  A    between atoms: C5_5  and  C7_7 
ROOT
HETATM    1  C1  UNL     1     -34.856  15.277  -3.182  1.00 20.00     0.002 C 
HETATM    2  C2  UNL     1     -34.817  16.183  -1.938  1.00 20.00     0.010 C 
HETATM    3  C3  UNL     1     -33.378  15.627  -3.422  1.00 20.00     0.010 C 
HETATM    4  C4  UNL     1     -33.595  18.249  -3.074  1.00 20.00     0.016 A 
HETATM    5  C5  UNL     1     -32.654  17.755  -2.002  1.00 20.00     0.005 A 
HETATM    6  C6  UNL     1     -33.660  16.829  -2.602  1.00 20.00    -0.036 A 
ENDROOT
BRANCH   5   7
HETATM    7  C7  UNL     1     -32.797  18.244  -0.601  1.00 20.00     0.090 C 
HETATM    8 BR8  UNL     1     -31.045  18.442   0.235  1.00 20.00    -0.096 Br
ENDBRANCH   5   7
TORSDOF 1
ENDMDL
MODEL 3
REMARK VINA RESULT:      -3.8      1.342      2.301
REMARK  1 active torsions:
REMARK  status: ('A' for Active; 'I' for Inactive)
REMARK    1  A    between atoms: C5_5  and  C7_7 
ROOT
HETATM    1  C1  UNL     1     -34.855   5.386   6.147  1.00 20.00     0.002 C 
HETATM    2  C2  UNL     1     -34.000   6.537   5.589  1.00 20.00     0.010 C 
HETATM    3  C3  UNL     1     -34.387   4.528   4.960  1.00 20.00     0.010 C 
HETATM    4  C4  UNL     1     -34.788   6.337   3.061  1.00 20.00     0.016 A 
HETATM    5  C5  UNL     1     -33.309   6.036   3.053  1.00 20.00     0.005 A 
HETATM    6  C6  UNL     1     -34.112   5.823   4.295  1.00 20.00    -0.036 A 
ENDROOT
BRANCH   5   7
HETATM    7  C7  UNL     1     -32.322   7.148   2.956  1.00 20.00     0.090 C 
HETATM    8 BR8  UNL     1     -32.441   8.017   1.213  1.00 20.00    -0.096 Br
ENDBRANCH   5   7
TORSDOF 1
ENDMDL
MODEL 4
REMARK VINA RESULT:      -3.8      9.372     10.126
REMARK  1 active torsions:
REMARK  status: ('A' for Active; 'I' for Inactive)
REMARK    1  A    between atoms: C5_5  and  C7_7 
ROOT
HETATM    1  C1  UNL     1     -41.515   8.264   0.641  1.00 20.00     0.002 C 
HETATM    2  C2  UNL     1     -42.330   6.965   0.763  1.00 20.00     0.010 C 
HETATM    3  C3  UNL     1     -41.525   8.069  -0.885  1.00 20.00     0.010 C 
HETATM    4  C4  UNL     1     -40.866   5.499  -0.897  1.00 20.00     0.016 A 
HETATM    5  C5  UNL     1     -42.234   5.588  -1.529  1.00 20.00     0.005 A 
HETATM    6  C6  UNL     1     -41.777   6.642  -0.574  1.00 20.00    -0.036 A 
ENDROOT
BRANCH   5   7
HETATM    7  C7  UNL     1     -43.295   4.613  -1.150  1.00 20.00     0.090 C 
HETATM    8 BR8  UNL     1     -43.408   3.179  -2.468  1.00 20.00    -0.096 Br
ENDBRANCH   5   7
TORSDOF 1
ENDMDL
MODEL 5
REMARK VINA RESULT:      -3.7     15.669     16.768
REMARK  1 active torsions:
REMARK  status: ('A' for Active; 'I' for Inactive)
REMARK    1  A    between atoms: C5_5  and  C7_7 
ROOT
HETATM    1  C1  UNL     1     -25.663  16.784  12.327  1.00 20.00     0.002 C 
HETATM    2  C2  UNL     1     -24.635  16.330  11.276  1.00 20.00     0.010 C 
HETATM    3  C3  UNL     1     -25.090  18.206  12.200  1.00 20.00     0.010 C 
HETATM    4  C4  UNL     1     -22.524  17.546  12.331  1.00 20.00     0.016 A 
HETATM    5  C5  UNL     1     -22.728  18.183  10.979  1.00 20.00     0.005 A 
HETATM    6  C6  UNL     1     -23.874  17.534  11.684  1.00 20.00    -0.036 A 
ENDROOT
BRANCH   5   7
HETATM    7  C7  UNL     1     -22.124  17.566   9.764  1.00 20.00     0.090 C 
HETATM    8 BR8  UNL     1     -23.122  18.079   8.168  1.00 20.00    -0.096 Br
ENDBRANCH   5   7
TORSDOF 1
ENDMDL
MODEL 6
REMARK VINA RESULT:      -3.7     10.468     11.451
REMARK  1 active torsions:
REMARK  status: ('A' for Active; 'I' for Inactive)
REMARK    1  A    between atoms: C5_5  and  C7_7 
ROOT
HETATM    1  C1  UNL     1     -34.868  16.300  -1.837  1.00 20.00     0.002 C 
HETATM    2  C2  UNL     1     -35.643  15.932  -3.115  1.00 20.00     0.010 C 
HETATM    3  C3  UNL     1     -33.579  16.295  -2.676  1.00 20.00     0.010 C 
HETATM    4  C4  UNL     1     -34.016  14.005  -3.945  1.00 20.00     0.016 A 
HETATM    5  C5  UNL     1     -33.959  15.074  -5.008  1.00 20.00     0.005 A 
HETATM    6  C6  UNL     1     -34.340  15.428  -3.608  1.00 20.00    -0.036 A 
ENDROOT
BRANCH   5   7
HETATM    7  C7  UNL     1     -34.966  15.088  -6.107  1.00 20.00     0.090 C 
HETATM    8 BR8  UNL     1     -34.111  15.499  -7.812  1.00 20.00    -0.096 Br
ENDBRANCH   5   7
TORSDOF 1
ENDMDL
MODEL 7
REMARK VINA RESULT:      -3.7     10.638     11.369
REMARK  1 active torsions:
REMARK  status: ('A' for Active; 'I' for Inactive)
REMARK    1  A    between atoms: C5_5  and  C7_7 
ROOT
HETATM    1  C1  UNL     1     -33.524  17.015  -2.376  1.00 20.00     0.002 C 
HETATM    2  C2  UNL     1     -34.472  15.804  -2.332  1.00 20.00     0.010 C 
HETATM    3  C3  UNL     1     -33.700  17.034  -3.904  1.00 20.00     0.010 C 
HETATM    4  C4  UNL     1     -33.353  14.435  -4.313  1.00 20.00     0.016 A 
HETATM    5  C5  UNL     1     -34.753  14.753  -4.776  1.00 20.00     0.005 A 
HETATM    6  C6  UNL     1     -34.089  15.612  -3.750  1.00 20.00    -0.036 A 
ENDROOT
BRANCH   5   7
HETATM    7  C7  UNL     1     -35.882  13.852  -4.411  1.00 20.00     0.090 C 
HETATM    8 BR8  UNL     1     -37.564  14.842  -4.378  1.00 20.00    -0.096 Br
ENDBRANCH   5   7
TORSDOF 1
ENDMDL
MODEL 8
REMARK VINA RESULT:      -3.6     15.969     17.003
REMARK  1 active torsions:
REMARK  status: ('A' for Active; 'I' for Inactive)
REMARK    1  A    between atoms: C5_5  and  C7_7 
ROOT
HETATM    1  C1  UNL     1     -22.712  17.848   8.569  1.00 20.00     0.002 C 
HETATM    2  C2  UNL     1     -23.508  18.754   9.524  1.00 20.00     0.010 C 
HETATM    3  C3  UNL     1     -23.102  16.653   9.455  1.00 20.00     0.010 C 
HETATM    4  C4  UNL     1     -22.538  17.774  11.793  1.00 20.00     0.016 A 
HETATM    5  C5  UNL     1     -24.016  17.469  11.815  1.00 20.00     0.005 A 
HETATM    6  C6  UNL     1     -23.310  17.669  10.514  1.00 20.00    -0.036 A 
ENDROOT
BRANCH   5   7
HETATM    7  C7  UNL     1     -24.980  18.482  12.331  1.00 20.00     0.090 C 
HETATM    8 BR8  UNL     1     -26.794  17.763  12.332  1.00 20.00    -0.096 Br
ENDBRANCH   5   7
TORSDOF 1
ENDMDL
MODEL 9
REMARK VINA RESULT:      -3.6     10.663     11.517
REMARK  1 active torsions:
REMARK  status: ('A' for Active; 'I' for Inactive)
REMARK    1  A    between atoms: C5_5  and  C7_7 
ROOT
HETATM    1  C1  UNL     1     -34.076  15.035  -5.581  1.00 20.00     0.002 C 
HETATM    2  C2  UNL     1     -34.871  16.139  -4.862  1.00 20.00     0.010 C 
HETATM    3  C3  UNL     1     -33.862  14.366  -4.213  1.00 20.00     0.010 C 
HETATM    4  C4  UNL     1     -33.149  16.548  -2.883  1.00 20.00     0.016 A 
HETATM    5  C5  UNL     1     -34.413  16.047  -2.227  1.00 20.00     0.005 A 
HETATM    6  C6  UNL     1     -34.124  15.713  -3.654  1.00 20.00    -0.036 A 
ENDROOT
BRANCH   5   7
HETATM    7  C7  UNL     1     -35.495  17.004  -1.865  1.00 20.00     0.090 C 
HETATM    8 BR8  UNL     1     -35.515  17.316   0.062  1.00 20.00    -0.096 Br
ENDBRANCH   5   7
TORSDOF 1
ENDMDL
