MODEL 1
REMARK VINA RESULT:      -4.5      0.000      0.000
REMARK  2 active torsions:
REMARK  status: ('A' for Active; 'I' for Inactive)
REMARK    1  A    between atoms: C6_6  and  C7_7 
REMARK    2  A    between atoms: C8_8  and  C9_9 
ROOT
HETATM    1  C1  UNL     1     -33.252   6.893   5.100  1.00 20.00     0.031 C 
HETATM    2  C2  UNL     1     -34.266   5.091   3.680  1.00 20.00     0.031 C 
HETATM    3  C4  UNL     1     -34.430   6.711   6.049  1.00 20.00     0.168 C 
HETATM    4  C5  UNL     1     -35.388   5.009   4.708  1.00 20.00     0.168 C 
HETATM    5  C6  UNL     1     -33.638   6.490   3.673  1.00 20.00    -0.006 C 
HETATM    6  O10 UNL     1     -34.913   5.369   6.005  1.00 20.00    -0.391 OA
ENDROOT
BRANCH   5   7
HETATM    7  C7  UNL     1     -32.432   6.547   2.739  1.00 20.00    -0.005 A 
HETATM    8  C3  UNL     1     -31.428   7.649   2.888  1.00 20.00     0.011 A 
HETATM    9  C8  UNL     1     -32.306   7.591   1.665  1.00 20.00     0.004 A 
BRANCH   9  10
HETATM   10  C9  UNL     1     -33.337   8.640   1.430  1.00 20.00     0.119 C 
HETATM   11 CL11 UNL     1     -33.570   8.939  -0.314  1.00 20.00    -0.130 Cl
ENDBRANCH   9  10
ENDBRANCH   5   7
TORSDOF 2
ENDMDL
MODEL 2
REMARK VINA RESULT:      -4.3     11.356     12.506
REMARK  2 active torsions:
REMARK  status: ('A' for Active; 'I' for Inactive)
REMARK    1  A    between atoms: C6_6  and  C7_7 
REMARK    2  A    between atoms: C8_8  and  C9_9 
ROOT
HETATM    1  C1  UNL     1     -35.194  14.312  -3.808  1.00 20.00     0.031 C 
HETATM    2  C2  UNL     1     -34.322  15.426  -5.879  1.00 20.00     0.031 C 
HETATM    3  C4  UNL     1     -36.354  13.803  -4.655  1.00 20.00     0.168 C 
HETATM    4  C5  UNL     1     -35.531  14.855  -6.611  1.00 20.00     0.168 C 
HETATM    5  C6  UNL     1     -34.629  15.612  -4.389  1.00 20.00    -0.006 C 
HETATM    6  O10 UNL     1     -35.952  13.629  -6.013  1.00 20.00    -0.391 OA
ENDROOT
BRANCH   5   7
HETATM    7  C7  UNL     1     -33.387  16.063  -3.624  1.00 20.00    -0.005 A 
HETATM    8  C3  UNL     1     -33.532  16.668  -2.260  1.00 20.00     0.011 A 
HETATM    9  C8  UNL     1     -33.067  17.517  -3.413  1.00 20.00     0.004 A 
BRANCH   9  10
HETATM   10  C9  UNL     1     -33.926  18.619  -3.930  1.00 20.00     0.119 C 
HETATM   11 CL11 UNL     1     -33.517  19.020  -5.620  1.00 20.00    -0.130 Cl
ENDBRANCH   9  10
ENDBRANCH   5   7
TORSDOF 2
ENDMDL
MODEL 3
REMARK VINA RESULT:      -4.3     11.267     11.937
REMARK  2 active torsions:
REMARK  status: ('A' for Active; 'I' for Inactive)
REMARK    1  A    between atoms: C6_6  and  C7_7 
REMARK    2  A    between atoms: C8_8  and  C9_9 
ROOT
HETATM    1  C1  UNL     1     -32.911  16.784  -2.693  1.00 20.00     0.031 C 
HETATM    2  C2  UNL     1     -35.112  16.241  -1.620  1.00 20.00     0.031 C 
HETATM    3  C4  UNL     1     -32.921  18.081  -1.894  1.00 20.00     0.168 C 
HETATM    4  C5  UNL     1     -35.000  17.569  -0.881  1.00 20.00     0.168 C 
HETATM    5  C6  UNL     1     -34.340  16.291  -2.944  1.00 20.00    -0.006 C 
HETATM    6  O10 UNL     1     -33.631  17.915  -0.668  1.00 20.00    -0.391 OA
ENDROOT
BRANCH   5   7
HETATM    7  C7  UNL     1     -34.339  14.929  -3.632  1.00 20.00    -0.005 A 
HETATM    8  C3  UNL     1     -33.124  14.475  -4.383  1.00 20.00     0.011 A 
HETATM    9  C8  UNL     1     -34.394  14.793  -5.129  1.00 20.00     0.004 A 
BRANCH   9  10
HETATM   10  C9  UNL     1     -34.453  15.965  -6.046  1.00 20.00     0.119 C 
HETATM   11 CL11 UNL     1     -33.957  15.516  -7.701  1.00 20.00    -0.130 Cl
ENDBRANCH   9  10
ENDBRANCH   5   7
TORSDOF 2
ENDMDL
MODEL 4
REMARK VINA RESULT:      -4.2     11.496     12.274
REMARK  2 active torsions:
REMARK  status: ('A' for Active; 'I' for Inactive)
REMARK    1  A    between atoms: C6_6  and  C7_7 
REMARK    2  A    between atoms: C8_8  and  C9_9 
ROOT
HETATM    1  C1  UNL     1     -36.010  14.903  -3.767  1.00 20.00     0.031 C 
HETATM    2  C2  UNL     1     -33.684  15.222  -4.650  1.00 20.00     0.031 C 
HETATM    3  C4  UNL     1     -36.439  14.613  -5.200  1.00 20.00     0.168 C 
HETATM    4  C5  UNL     1     -34.243  14.915  -6.035  1.00 20.00     0.168 C 
HETATM    5  C6  UNL     1     -34.774  15.808  -3.744  1.00 20.00    -0.006 C 
HETATM    6  O10 UNL     1     -35.366  14.038  -5.943  1.00 20.00    -0.391 OA
ENDROOT
BRANCH   5   7
HETATM    7  C7  UNL     1     -34.260  16.001  -2.320  1.00 20.00    -0.005 A 
HETATM    8  C3  UNL     1     -35.141  16.643  -1.291  1.00 20.00     0.011 A 
HETATM    9  C8  UNL     1     -33.909  17.359  -1.779  1.00 20.00     0.004 A 
BRANCH   9  10
HETATM   10  C9  UNL     1     -34.033  18.608  -2.581  1.00 20.00     0.119 C 
HETATM   11 CL11 UNL     1     -32.691  18.764  -3.747  1.00 20.00    -0.130 Cl
ENDBRANCH   9  10
ENDBRANCH   5   7
TORSDOF 2
ENDMDL
MODEL 5
REMARK VINA RESULT:      -4.2     10.977     11.940
REMARK  2 active torsions:
REMARK  status: ('A' for Active; 'I' for Inactive)
REMARK    1  A    between atoms: C6_6  and  C7_7 
REMARK    2  A    between atoms: C8_8  and  C9_9 
ROOT
HETATM    1  C1  UNL     1     -36.522  15.925  -3.394  1.00 20.00     0.031 C 
HETATM    2  C2  UNL     1     -35.110  13.892  -3.800  1.00 20.00     0.031 C 
HETATM    3  C4  UNL     1     -37.527  15.337  -4.378  1.00 20.00     0.168 C 
HETATM    4  C5  UNL     1     -36.193  13.418  -4.762  1.00 20.00     0.168 C 
HETATM    5  C6  UNL     1     -35.107  15.422  -3.700  1.00 20.00    -0.006 C 
HETATM    6  O10 UNL     1     -37.472  13.911  -4.366  1.00 20.00    -0.391 OA
ENDROOT
BRANCH   5   7
HETATM    7  C7  UNL     1     -34.113  15.902  -2.646  1.00 20.00    -0.005 A 
HETATM    8  C3  UNL     1     -34.533  16.933  -1.642  1.00 20.00     0.011 A 
HETATM    9  C8  UNL     1     -33.508  17.278  -2.691  1.00 20.00     0.004 A 
BRANCH   9  10
HETATM   10  C9  UNL     1     -33.827  18.268  -3.756  1.00 20.00     0.119 C 
HETATM   11 CL11 UNL     1     -32.401  19.262  -4.164  1.00 20.00    -0.130 Cl
ENDBRANCH   9  10
ENDBRANCH   5   7
TORSDOF 2
ENDMDL
MODEL 6
REMARK VINA RESULT:      -4.1     11.355     12.144
REMARK  2 active torsions:
REMARK  status: ('A' for Active; 'I' for Inactive)
REMARK    1  A    between atoms: C6_6  and  C7_7 
REMARK    2  A    between atoms: C8_8  and  C9_9 
ROOT
HETATM    1  C1  UNL     1     -36.236  15.422  -3.875  1.00 20.00     0.031 C 
HETATM    2  C2  UNL     1     -33.757  15.051  -3.765  1.00 20.00     0.031 C 
HETATM    3  C4  UNL     1     -36.143  15.125  -5.367  1.00 20.00     0.168 C 
HETATM    4  C5  UNL     1     -33.803  14.776  -5.264  1.00 20.00     0.168 C 
HETATM    5  C6  UNL     1     -34.907  15.976  -3.349  1.00 20.00    -0.006 C 
HETATM    6  O10 UNL     1     -35.067  14.229  -5.639  1.00 20.00    -0.391 OA
ENDROOT
BRANCH   5   7
HETATM    7  C7  UNL     1     -34.947  16.157  -1.834  1.00 20.00    -0.005 A 
HETATM    8  C3  UNL     1     -35.669  17.330  -1.243  1.00 20.00     0.011 A 
HETATM    9  C8  UNL     1     -34.169  17.241  -1.142  1.00 20.00     0.004 A 
BRANCH   9  10
HETATM   10  C9  UNL     1     -33.307  18.212  -1.871  1.00 20.00     0.119 C 
HETATM   11 CL11 UNL     1     -31.719  18.392  -1.077  1.00 20.00    -0.130 Cl
ENDBRANCH   9  10
ENDBRANCH   5   7
TORSDOF 2
ENDMDL
MODEL 7
REMARK VINA RESULT:      -4.1     11.110     11.793
REMARK  2 active torsions:
REMARK  status: ('A' for Active; 'I' for Inactive)
REMARK    1  A    between atoms: C6_6  and  C7_7 
REMARK    2  A    between atoms: C8_8  and  C9_9 
ROOT
HETATM    1  C1  UNL     1     -32.889  16.802  -2.693  1.00 20.00     0.031 C 
HETATM    2  C2  UNL     1     -35.077  16.222  -1.613  1.00 20.00     0.031 C 
HETATM    3  C4  UNL     1     -32.951  18.128  -1.944  1.00 20.00     0.168 C 
HETATM    4  C5  UNL     1     -35.017  17.580  -0.925  1.00 20.00     0.168 C 
HETATM    5  C6  UNL     1     -34.297  16.249  -2.933  1.00 20.00    -0.006 C 
HETATM    6  O10 UNL     1     -33.664  17.983  -0.717  1.00 20.00    -0.391 OA
ENDROOT
BRANCH   5   7
HETATM    7  C7  UNL     1     -34.243  14.863  -3.569  1.00 20.00    -0.005 A 
HETATM    8  C3  UNL     1     -33.884  14.721  -5.018  1.00 20.00     0.011 A 
HETATM    9  C8  UNL     1     -35.280  14.398  -4.554  1.00 20.00     0.004 A 
BRANCH   9  10
HETATM   10  C9  UNL     1     -36.429  15.244  -4.980  1.00 20.00     0.119 C 
HETATM   11 CL11 UNL     1     -37.960  14.662  -4.269  1.00 20.00    -0.130 Cl
ENDBRANCH   9  10
ENDBRANCH   5   7
TORSDOF 2
ENDMDL
MODEL 8
REMARK VINA RESULT:      -4.1     10.861     11.716
REMARK  2 active torsions:
REMARK  status: ('A' for Active; 'I' for Inactive)
REMARK    1  A    between atoms: C6_6  and  C7_7 
REMARK    2  A    between atoms: C8_8  and  C9_9 
ROOT
HETATM    1  C1  UNL     1     -34.804  14.461  -3.985  1.00 20.00     0.031 C 
HETATM    2  C2  UNL     1     -36.882  15.867  -3.980  1.00 20.00     0.031 C 
HETATM    3  C4  UNL     1     -35.700  13.264  -4.278  1.00 20.00     0.168 C 
HETATM    4  C5  UNL     1     -37.662  14.591  -4.271  1.00 20.00     0.168 C 
HETATM    5  C6  UNL     1     -35.581  15.548  -3.234  1.00 20.00    -0.006 C 
HETATM    6  O10 UNL     1     -36.861  13.664  -5.004  1.00 20.00    -0.391 OA
ENDROOT
BRANCH   5   7
HETATM    7  C7  UNL     1     -34.731  16.803  -3.048  1.00 20.00    -0.005 A 
HETATM    8  C3  UNL     1     -33.444  16.723  -2.285  1.00 20.00     0.011 A 
HETATM    9  C8  UNL     1     -34.609  17.491  -1.717  1.00 20.00     0.004 A 
BRANCH   9  10
HETATM   10  C9  UNL     1     -35.301  17.009  -0.489  1.00 20.00     0.119 C 
HETATM   11 CL11 UNL     1     -34.614  17.759   0.977  1.00 20.00    -0.130 Cl
ENDBRANCH   9  10
ENDBRANCH   5   7
TORSDOF 2
ENDMDL
MODEL 9
REMARK VINA RESULT:      -4.0     11.071     11.793
REMARK  2 active torsions:
REMARK  status: ('A' for Active; 'I' for Inactive)
REMARK    1  A    between atoms: C6_6  and  C7_7 
REMARK    2  A    between atoms: C8_8  and  C9_9 
ROOT
HETATM    1  C1  UNL     1     -33.088  15.637  -3.761  1.00 20.00     0.031 C 
HETATM    2  C2  UNL     1     -35.577  15.733  -3.463  1.00 20.00     0.031 C 
HETATM    3  C4  UNL     1     -33.280  14.233  -4.322  1.00 20.00     0.168 C 
HETATM    4  C5  UNL     1     -35.630  14.323  -4.040  1.00 20.00     0.168 C 
HETATM    5  C6  UNL     1     -34.222  15.993  -2.794  1.00 20.00    -0.006 C 
HETATM    6  O10 UNL     1     -34.553  14.110  -4.953  1.00 20.00    -0.391 OA
ENDROOT
BRANCH   5   7
HETATM    7  C7  UNL     1     -34.110  17.441  -2.324  1.00 20.00    -0.005 A 
HETATM    8  C3  UNL     1     -33.204  17.785  -1.180  1.00 20.00     0.011 A 
HETATM    9  C8  UNL     1     -34.697  17.902  -1.019  1.00 20.00     0.004 A 
BRANCH   9  10
HETATM   10  C9  UNL     1     -35.427  16.992  -0.093  1.00 20.00     0.119 C 
HETATM   11 CL11 UNL     1     -35.712  17.770   1.488  1.00 20.00    -0.130 Cl
ENDBRANCH   9  10
ENDBRANCH   5   7
TORSDOF 2
ENDMDL
