MODEL 1
REMARK VINA RESULT:      -4.1      0.000      0.000
REMARK  1 active torsions:
REMARK  status: ('A' for Active; 'I' for Inactive)
REMARK    1  A    between atoms: C4_4  and  C8_8 
ROOT
HETATM    1  C1  UNL     1     -33.489  14.419  -4.301  1.00 20.00     0.017 A 
HETATM    2  C2  UNL     1     -33.893  16.161  -2.413  1.00 20.00     0.025 C 
HETATM    3  C3  UNL     1     -34.517  16.766  -4.747  1.00 20.00     0.084 C 
HETATM    4  C4  UNL     1     -34.937  14.312  -3.911  1.00 20.00     0.009 A 
HETATM    5  C5  UNL     1     -32.969  17.356  -2.608  1.00 20.00     0.044 C 
HETATM    6  C6  UNL     1     -34.221  15.643  -3.789  1.00 20.00    -0.026 A 
HETATM    7  C7  UNL     1     -32.911  18.262  -1.392  1.00 20.00     0.021 C 
HETATM    8  S9  UNL     1     -33.666  18.219  -4.051  1.00 20.00    -0.164 SA
ENDROOT
BRANCH   4   9
HETATM    9  C8  UNL     1     -35.972  14.059  -4.954  1.00 20.00     0.120 C 
HETATM   10 CL10 UNL     1     -37.611  14.404  -4.335  1.00 20.00    -0.130 Cl
ENDBRANCH   4   9
TORSDOF 1
ENDMDL
MODEL 2
REMARK VINA RESULT:      -3.9      2.924      4.557
REMARK  1 active torsions:
REMARK  status: ('A' for Active; 'I' for Inactive)
REMARK    1  A    between atoms: C4_4  and  C8_8 
ROOT
HETATM    1  C1  UNL     1     -34.804  16.913  -1.431  1.00 20.00     0.017 A 
HETATM    2  C2  UNL     1     -34.743  15.048  -3.242  1.00 20.00     0.025 C 
HETATM    3  C3  UNL     1     -35.067  17.408  -3.970  1.00 20.00     0.084 C 
HETATM    4  C4  UNL     1     -33.411  16.899  -1.996  1.00 20.00     0.009 A 
HETATM    5  C5  UNL     1     -36.115  14.915  -3.890  1.00 20.00     0.044 C 
HETATM    6  C6  UNL     1     -34.583  16.499  -2.872  1.00 20.00    -0.026 A 
HETATM    7  C7  UNL     1     -36.255  13.653  -4.722  1.00 20.00     0.021 C 
HETATM    8  S9  UNL     1     -36.262  16.410  -4.916  1.00 20.00    -0.164 SA
ENDROOT
BRANCH   4   9
HETATM    9  C8  UNL     1     -32.674  18.180  -2.192  1.00 20.00     0.120 C 
HETATM   10 CL10 UNL     1     -31.453  18.426  -0.912  1.00 20.00    -0.130 Cl
ENDBRANCH   4   9
TORSDOF 1
ENDMDL
MODEL 3
REMARK VINA RESULT:      -3.9      1.342      1.793
REMARK  1 active torsions:
REMARK  status: ('A' for Active; 'I' for Inactive)
REMARK    1  A    between atoms: C4_4  and  C8_8 
ROOT
HETATM    1  C1  UNL     1     -34.680  16.182  -4.543  1.00 20.00     0.017 A 
HETATM    2  C2  UNL     1     -32.830  16.697  -2.790  1.00 20.00     0.025 C 
HETATM    3  C3  UNL     1     -35.104  16.089  -1.979  1.00 20.00     0.084 C 
HETATM    4  C4  UNL     1     -34.132  14.859  -4.085  1.00 20.00     0.009 A 
HETATM    5  C5  UNL     1     -33.170  17.980  -2.043  1.00 20.00     0.044 C 
HETATM    6  C6  UNL     1     -34.140  16.040  -3.134  1.00 20.00    -0.026 A 
HETATM    7  C7  UNL     1     -32.004  18.521  -1.236  1.00 20.00     0.021 C 
HETATM    8  S9  UNL     1     -34.561  17.507  -0.970  1.00 20.00    -0.164 SA
ENDROOT
BRANCH   4   9
HETATM    9  C8  UNL     1     -35.045  13.694  -3.913  1.00 20.00     0.120 C 
HETATM   10 CL10 UNL     1     -36.588  13.948  -4.776  1.00 20.00    -0.130 Cl
ENDBRANCH   4   9
TORSDOF 1
ENDMDL
MODEL 4
REMARK VINA RESULT:      -3.8      1.968      2.005
REMARK  1 active torsions:
REMARK  status: ('A' for Active; 'I' for Inactive)
REMARK    1  A    between atoms: C4_4  and  C8_8 
ROOT
HETATM    1  C1  UNL     1     -33.384  14.870  -4.188  1.00 20.00     0.017 A 
HETATM    2  C2  UNL     1     -34.969  15.790  -2.344  1.00 20.00     0.025 C 
HETATM    3  C3  UNL     1     -34.479  17.225  -4.319  1.00 20.00     0.084 C 
HETATM    4  C4  UNL     1     -34.791  14.640  -4.667  1.00 20.00     0.009 A 
HETATM    5  C5  UNL     1     -34.306  16.963  -1.632  1.00 20.00     0.044 C 
HETATM    6  C6  UNL     1     -34.485  15.824  -3.769  1.00 20.00    -0.026 A 
HETATM    7  C7  UNL     1     -35.015  17.352  -0.348  1.00 20.00     0.021 C 
HETATM    8  S9  UNL     1     -34.359  18.306  -2.858  1.00 20.00    -0.164 SA
ENDROOT
BRANCH   4   9
HETATM    9  C8  UNL     1     -35.121  14.804  -6.111  1.00 20.00     0.120 C 
HETATM   10 CL10 UNL     1     -33.643  14.969  -7.099  1.00 20.00    -0.130 Cl
ENDBRANCH   4   9
TORSDOF 1
ENDMDL
MODEL 5
REMARK VINA RESULT:      -3.7      2.002      2.231
REMARK  1 active torsions:
REMARK  status: ('A' for Active; 'I' for Inactive)
REMARK    1  A    between atoms: C4_4  and  C8_8 
ROOT
HETATM    1  C1  UNL     1     -33.362  16.203  -3.112  1.00 20.00     0.017 A 
HETATM    2  C2  UNL     1     -35.144  16.535  -1.248  1.00 20.00     0.025 C 
HETATM    3  C3  UNL     1     -35.642  17.379  -3.537  1.00 20.00     0.084 C 
HETATM    4  C4  UNL     1     -34.370  15.097  -3.269  1.00 20.00     0.009 A 
HETATM    5  C5  UNL     1     -35.289  18.018  -0.932  1.00 20.00     0.044 C 
HETATM    6  C6  UNL     1     -34.805  16.439  -2.711  1.00 20.00    -0.026 A 
HETATM    7  C7  UNL     1     -36.063  18.277   0.348  1.00 20.00     0.021 C 
HETATM    8  S9  UNL     1     -36.155  18.693  -2.383  1.00 20.00    -0.164 SA
ENDROOT
BRANCH   4   9
HETATM    9  C8  UNL     1     -34.764  14.638  -4.631  1.00 20.00     0.120 C 
HETATM   10 CL10 UNL     1     -36.184  13.557  -4.564  1.00 20.00    -0.130 Cl
ENDBRANCH   4   9
TORSDOF 1
ENDMDL
MODEL 6
REMARK VINA RESULT:      -3.7      2.557      3.809
REMARK  1 active torsions:
REMARK  status: ('A' for Active; 'I' for Inactive)
REMARK    1  A    between atoms: C4_4  and  C8_8 
ROOT
HETATM    1  C1  UNL     1     -33.211  18.298  -2.874  1.00 20.00     0.017 A 
HETATM    2  C2  UNL     1     -31.598  17.978  -0.861  1.00 20.00     0.025 C 
HETATM    3  C3  UNL     1     -34.052  17.895  -0.447  1.00 20.00     0.084 C 
HETATM    4  C4  UNL     1     -33.093  16.817  -2.641  1.00 20.00     0.009 A 
HETATM    5  C5  UNL     1     -31.722  19.160   0.092  1.00 20.00     0.044 C 
HETATM    6  C6  UNL     1     -32.958  17.776  -1.474  1.00 20.00    -0.026 A 
HETATM    7  C7  UNL     1     -30.603  19.214   1.117  1.00 20.00     0.021 C 
HETATM    8  S9  UNL     1     -33.341  18.916   0.885  1.00 20.00    -0.164 SA
ENDROOT
BRANCH   4   9
HETATM    9  C8  UNL     1     -34.284  15.938  -2.814  1.00 20.00     0.120 C 
HETATM   10 CL10 UNL     1     -33.950  14.613  -3.963  1.00 20.00    -0.130 Cl
ENDBRANCH   4   9
TORSDOF 1
ENDMDL
MODEL 7
REMARK VINA RESULT:      -3.6      2.793      4.132
REMARK  1 active torsions:
REMARK  status: ('A' for Active; 'I' for Inactive)
REMARK    1  A    between atoms: C4_4  and  C8_8 
ROOT
HETATM    1  C1  UNL     1     -35.307  15.321  -3.066  1.00 20.00     0.017 A 
HETATM    2  C2  UNL     1     -33.765  15.303  -5.159  1.00 20.00     0.025 C 
HETATM    3  C3  UNL     1     -34.998  17.394  -4.605  1.00 20.00     0.084 C 
HETATM    4  C4  UNL     1     -34.003  15.946  -2.652  1.00 20.00     0.009 A 
HETATM    5  C5  UNL     1     -34.608  15.428  -6.422  1.00 20.00     0.044 C 
HETATM    6  C6  UNL     1     -34.481  16.079  -4.086  1.00 20.00    -0.026 A 
HETATM    7  C7  UNL     1     -33.830  15.110  -7.685  1.00 20.00     0.021 C 
HETATM    8  S9  UNL     1     -35.171  17.158  -6.403  1.00 20.00    -0.164 SA
ENDROOT
BRANCH   4   9
HETATM    9  C8  UNL     1     -33.997  17.099  -1.707  1.00 20.00     0.120 C 
HETATM   10 CL10 UNL     1     -32.373  17.831  -1.591  1.00 20.00    -0.130 Cl
ENDBRANCH   4   9
TORSDOF 1
ENDMDL
MODEL 8
REMARK VINA RESULT:      -3.6      2.934      4.604
REMARK  1 active torsions:
REMARK  status: ('A' for Active; 'I' for Inactive)
REMARK    1  A    between atoms: C4_4  and  C8_8 
ROOT
HETATM    1  C1  UNL     1     -34.763  18.099  -2.644  1.00 20.00     0.017 A 
HETATM    2  C2  UNL     1     -35.362  15.570  -2.700  1.00 20.00     0.025 C 
HETATM    3  C3  UNL     1     -33.018  16.252  -3.194  1.00 20.00     0.084 C 
HETATM    4  C4  UNL     1     -34.346  17.523  -1.319  1.00 20.00     0.009 A 
HETATM    5  C5  UNL     1     -35.253  15.046  -4.127  1.00 20.00     0.044 C 
HETATM    6  C6  UNL     1     -34.324  16.651  -2.560  1.00 20.00    -0.026 A 
HETATM    7  C7  UNL     1     -35.885  13.677  -4.303  1.00 20.00     0.021 C 
HETATM    8  S9  UNL     1     -33.462  15.001  -4.442  1.00 20.00    -0.164 SA
ENDROOT
BRANCH   4   9
HETATM    9  C8  UNL     1     -33.097  17.999  -0.660  1.00 20.00     0.120 C 
HETATM   10 CL10 UNL     1     -33.363  18.317   1.077  1.00 20.00    -0.130 Cl
ENDBRANCH   4   9
TORSDOF 1
ENDMDL
MODEL 9
REMARK VINA RESULT:      -3.6      3.243      5.130
REMARK  1 active torsions:
REMARK  status: ('A' for Active; 'I' for Inactive)
REMARK    1  A    between atoms: C4_4  and  C8_8 
ROOT
HETATM    1  C1  UNL     1     -34.846  18.857  -0.962  1.00 20.00     0.017 A 
HETATM    2  C2  UNL     1     -35.081  16.345  -1.590  1.00 20.00     0.025 C 
HETATM    3  C3  UNL     1     -32.874  17.453  -1.911  1.00 20.00     0.084 C 
HETATM    4  C4  UNL     1     -34.312  18.065   0.199  1.00 20.00     0.009 A 
HETATM    5  C5  UNL     1     -34.943  16.176  -3.098  1.00 20.00     0.044 C 
HETATM    6  C6  UNL     1     -34.203  17.507  -1.207  1.00 20.00    -0.026 A 
HETATM    7  C7  UNL     1     -35.379  14.804  -3.580  1.00 20.00     0.021 C 
HETATM    8  S9  UNL     1     -33.174  16.462  -3.411  1.00 20.00    -0.164 SA
ENDROOT
BRANCH   4   9
HETATM    9  C8  UNL     1     -33.124  18.558   0.953  1.00 20.00     0.120 C 
HETATM   10 CL10 UNL     1     -33.024  17.805   2.569  1.00 20.00    -0.130 Cl
ENDBRANCH   4   9
TORSDOF 1
ENDMDL
