MODEL 1
REMARK VINA RESULT:      -4.4      0.000      0.000
REMARK  2 active torsions:
REMARK  status: ('A' for Active; 'I' for Inactive)
REMARK    1  A    between atoms: C2_2  and  C7_7 
REMARK    2  A    between atoms: C3_3  and  C8_8 
ROOT
HETATM    1  C1  UNL     1     -31.728   6.942   3.080  1.00 20.00     0.016 A 
HETATM    2  C2  UNL     1     -32.627   7.210   1.907  1.00 20.00     0.009 A 
HETATM    3  C3  UNL     1     -33.062   6.218   2.985  1.00 20.00    -0.036 A 
HETATM    4  C4  UNL     1     -33.044   4.756   2.623  1.00 20.00     0.016 C 
ENDROOT
BRANCH   3   5
HETATM    5  C8  UNL     1     -34.143   6.593   3.962  1.00 20.00    -0.014 C 
HETATM    6  C5  UNL     1     -35.122   5.431   4.184  1.00 20.00     0.010 C 
HETATM    7  C6  UNL     1     -33.552   7.038   5.307  1.00 20.00     0.010 C 
ENDBRANCH   3   5
BRANCH   2   8
HETATM    8  C7  UNL     1     -33.265   8.546   1.738  1.00 20.00     0.120 C 
HETATM    9 CL9  UNL     1     -33.277   9.044   0.024  1.00 20.00    -0.130 Cl
ENDBRANCH   2   8
TORSDOF 2
ENDMDL
MODEL 2
REMARK VINA RESULT:      -3.7     10.655     11.608
REMARK  2 active torsions:
REMARK  status: ('A' for Active; 'I' for Inactive)
REMARK    1  A    between atoms: C2_2  and  C7_7 
REMARK    2  A    between atoms: C3_3  and  C8_8 
ROOT
HETATM    1  C1  UNL     1     -35.660  14.296  -3.855  1.00 20.00     0.016 A 
HETATM    2  C2  UNL     1     -36.220  15.613  -4.311  1.00 20.00     0.009 A 
HETATM    3  C3  UNL     1     -34.997  15.585  -3.395  1.00 20.00    -0.036 A 
HETATM    4  C4  UNL     1     -35.199  16.009  -1.965  1.00 20.00     0.016 C 
ENDROOT
BRANCH   3   5
HETATM    5  C8  UNL     1     -33.636  15.916  -3.946  1.00 20.00    -0.014 C 
HETATM    6  C5  UNL     1     -32.828  16.771  -2.958  1.00 20.00     0.010 C 
HETATM    7  C6  UNL     1     -32.850  14.646  -4.297  1.00 20.00     0.010 C 
ENDBRANCH   3   5
BRANCH   2   8
HETATM    8  C7  UNL     1     -36.142  16.006  -5.746  1.00 20.00     0.120 C 
HETATM    9 CL9  UNL     1     -35.723  14.610  -6.777  1.00 20.00    -0.130 Cl
ENDBRANCH   2   8
TORSDOF 2
ENDMDL
MODEL 3
REMARK VINA RESULT:      -3.7     10.225     11.347
REMARK  2 active torsions:
REMARK  status: ('A' for Active; 'I' for Inactive)
REMARK    1  A    between atoms: C2_2  and  C7_7 
REMARK    2  A    between atoms: C3_3  and  C8_8 
ROOT
HETATM    1  C1  UNL     1     -34.260  16.402  -4.510  1.00 20.00     0.016 A 
HETATM    2  C2  UNL     1     -33.839  15.112  -3.865  1.00 20.00     0.009 A 
HETATM    3  C3  UNL     1     -34.159  16.327  -2.995  1.00 20.00    -0.036 A 
HETATM    4  C4  UNL     1     -33.000  17.023  -2.332  1.00 20.00     0.016 C 
ENDROOT
BRANCH   3   5
HETATM    5  C8  UNL     1     -35.435  16.366  -2.196  1.00 20.00    -0.014 C 
HETATM    6  C5  UNL     1     -35.189  16.903  -0.779  1.00 20.00     0.010 C 
HETATM    7  C6  UNL     1     -36.505  17.214  -2.894  1.00 20.00     0.010 C 
ENDBRANCH   3   5
BRANCH   2   8
HETATM    8  C7  UNL     1     -34.722  13.914  -3.931  1.00 20.00     0.120 C 
HETATM    9 CL9  UNL     1     -35.974  14.103  -5.189  1.00 20.00    -0.130 Cl
ENDBRANCH   2   8
TORSDOF 2
ENDMDL
MODEL 4
REMARK VINA RESULT:      -3.6     10.415     11.848
REMARK  2 active torsions:
REMARK  status: ('A' for Active; 'I' for Inactive)
REMARK    1  A    between atoms: C2_2  and  C7_7 
REMARK    2  A    between atoms: C3_3  and  C8_8 
ROOT
HETATM    1  C1  UNL     1     -35.090  16.025  -2.261  1.00 20.00     0.016 A 
HETATM    2  C2  UNL     1     -33.646  16.159  -2.654  1.00 20.00     0.009 A 
HETATM    3  C3  UNL     1     -34.648  15.561  -3.640  1.00 20.00    -0.036 A 
HETATM    4  C4  UNL     1     -34.566  14.079  -3.891  1.00 20.00     0.016 C 
ENDROOT
BRANCH   3   5
HETATM    5  C8  UNL     1     -35.097  16.360  -4.834  1.00 20.00    -0.014 C 
HETATM    6  C5  UNL     1     -34.680  15.682  -6.148  1.00 20.00     0.010 C 
HETATM    7  C6  UNL     1     -36.616  16.577  -4.822  1.00 20.00     0.010 C 
ENDBRANCH   3   5
BRANCH   2   8
HETATM    8  C7  UNL     1     -33.039  17.507  -2.840  1.00 20.00     0.120 C 
HETATM    9 CL9  UNL     1     -32.143  18.019  -1.384  1.00 20.00    -0.130 Cl
ENDBRANCH   2   8
TORSDOF 2
ENDMDL
MODEL 5
REMARK VINA RESULT:      -3.5     10.602     11.841
REMARK  2 active torsions:
REMARK  status: ('A' for Active; 'I' for Inactive)
REMARK    1  A    between atoms: C2_2  and  C7_7 
REMARK    2  A    between atoms: C3_3  and  C8_8 
ROOT
HETATM    1  C1  UNL     1     -35.622  15.676  -2.997  1.00 20.00     0.016 A 
HETATM    2  C2  UNL     1     -34.310  15.033  -3.345  1.00 20.00     0.009 A 
HETATM    3  C3  UNL     1     -35.473  14.966  -4.334  1.00 20.00    -0.036 A 
HETATM    4  C4  UNL     1     -36.156  13.635  -4.503  1.00 20.00     0.016 C 
ENDROOT
BRANCH   3   5
HETATM    5  C8  UNL     1     -35.448  15.806  -5.583  1.00 20.00    -0.014 C 
HETATM    6  C5  UNL     1     -35.545  14.933  -6.843  1.00 20.00     0.010 C 
HETATM    7  C6  UNL     1     -36.579  16.842  -5.582  1.00 20.00     0.010 C 
ENDBRANCH   3   5
BRANCH   2   8
HETATM    8  C7  UNL     1     -33.100  15.872  -3.580  1.00 20.00     0.120 C 
HETATM    9 CL9  UNL     1     -32.934  17.131  -2.326  1.00 20.00    -0.130 Cl
ENDBRANCH   2   8
TORSDOF 2
ENDMDL
MODEL 6
REMARK VINA RESULT:      -3.5      8.915      9.820
REMARK  2 active torsions:
REMARK  status: ('A' for Active; 'I' for Inactive)
REMARK    1  A    between atoms: C2_2  and  C7_7 
REMARK    2  A    between atoms: C3_3  and  C8_8 
ROOT
HETATM    1  C1  UNL     1     -41.203   6.999   0.328  1.00 20.00     0.016 A 
HETATM    2  C2  UNL     1     -41.570   7.390  -1.075  1.00 20.00     0.009 A 
HETATM    3  C3  UNL     1     -41.727   5.938  -0.626  1.00 20.00    -0.036 A 
HETATM    4  C4  UNL     1     -40.744   4.938  -1.175  1.00 20.00     0.016 C 
ENDROOT
BRANCH   3   5
HETATM    5  C8  UNL     1     -43.098   5.371  -0.372  1.00 20.00    -0.014 C 
HETATM    6  C5  UNL     1     -43.416   4.224  -1.342  1.00 20.00     0.010 C 
HETATM    7  C6  UNL     1     -43.242   4.882   1.075  1.00 20.00     0.010 C 
ENDBRANCH   3   5
BRANCH   2   8
HETATM    8  C7  UNL     1     -42.735   8.285  -1.325  1.00 20.00     0.120 C 
HETATM    9 CL9  UNL     1     -43.417   8.901   0.205  1.00 20.00    -0.130 Cl
ENDBRANCH   2   8
TORSDOF 2
ENDMDL
MODEL 7
REMARK VINA RESULT:      -3.5     10.527     11.779
REMARK  2 active torsions:
REMARK  status: ('A' for Active; 'I' for Inactive)
REMARK    1  A    between atoms: C2_2  and  C7_7 
REMARK    2  A    between atoms: C3_3  and  C8_8 
ROOT
HETATM    1  C1  UNL     1     -33.331  16.248  -3.091  1.00 20.00     0.016 A 
HETATM    2  C2  UNL     1     -34.320  15.124  -3.220  1.00 20.00     0.009 A 
HETATM    3  C3  UNL     1     -34.786  16.493  -2.726  1.00 20.00    -0.036 A 
HETATM    4  C4  UNL     1     -35.134  16.615  -1.265  1.00 20.00     0.016 C 
ENDROOT
BRANCH   3   5
HETATM    5  C8  UNL     1     -35.604  17.381  -3.626  1.00 20.00    -0.014 C 
HETATM    6  C5  UNL     1     -37.050  17.503  -3.125  1.00 20.00     0.010 C 
HETATM    7  C6  UNL     1     -34.978  18.776  -3.752  1.00 20.00     0.010 C 
ENDBRANCH   3   5
BRANCH   2   8
HETATM    8  C7  UNL     1     -34.679  14.589  -4.563  1.00 20.00     0.120 C 
HETATM    9 CL9  UNL     1     -36.158  13.592  -4.487  1.00 20.00    -0.130 Cl
ENDBRANCH   2   8
TORSDOF 2
ENDMDL
MODEL 8
REMARK VINA RESULT:      -3.5      1.255      2.358
REMARK  2 active torsions:
REMARK  status: ('A' for Active; 'I' for Inactive)
REMARK    1  A    between atoms: C2_2  and  C7_7 
REMARK    2  A    between atoms: C3_3  and  C8_8 
ROOT
HETATM    1  C1  UNL     1     -33.629   4.588   3.009  1.00 20.00     0.016 A 
HETATM    2  C2  UNL     1     -33.662   6.056   2.690  1.00 20.00     0.009 A 
HETATM    3  C3  UNL     1     -34.396   5.531   3.923  1.00 20.00    -0.036 A 
HETATM    4  C4  UNL     1     -35.900   5.497   3.866  1.00 20.00     0.016 C 
ENDROOT
BRANCH   3   5
HETATM    5  C8  UNL     1     -33.841   5.793   5.298  1.00 20.00    -0.014 C 
HETATM    6  C5  UNL     1     -34.009   7.266   5.696  1.00 20.00     0.010 C 
HETATM    7  C6  UNL     1     -34.502   4.892   6.349  1.00 20.00     0.010 C 
ENDBRANCH   3   5
BRANCH   2   8
HETATM    8  C7  UNL     1     -32.420   6.873   2.779  1.00 20.00     0.120 C 
HETATM    9 CL9  UNL     1     -32.337   8.070   1.457  1.00 20.00    -0.130 Cl
ENDBRANCH   2   8
TORSDOF 2
ENDMDL
MODEL 9
REMARK VINA RESULT:      -3.5     10.950     12.317
REMARK  2 active torsions:
REMARK  status: ('A' for Active; 'I' for Inactive)
REMARK    1  A    between atoms: C2_2  and  C7_7 
REMARK    2  A    between atoms: C3_3  and  C8_8 
ROOT
HETATM    1  C1  UNL     1     -32.485  18.851  -2.623  1.00 20.00     0.016 A 
HETATM    2  C2  UNL     1     -33.232  19.012  -1.330  1.00 20.00     0.009 A 
HETATM    3  C3  UNL     1     -33.799  18.111  -2.426  1.00 20.00    -0.036 A 
HETATM    4  C4  UNL     1     -35.007  18.613  -3.172  1.00 20.00     0.016 C 
ENDROOT
BRANCH   3   5
HETATM    5  C8  UNL     1     -33.753  16.615  -2.271  1.00 20.00    -0.014 C 
HETATM    6  C5  UNL     1     -35.156  16.034  -2.049  1.00 20.00     0.010 C 
HETATM    7  C6  UNL     1     -33.100  15.946  -3.488  1.00 20.00     0.010 C 
ENDBRANCH   3   5
BRANCH   2   8
HETATM    8  C7  UNL     1     -32.663  18.475  -0.061  1.00 20.00     0.120 C 
HETATM    9 CL9  UNL     1     -30.903  18.216  -0.202  1.00 20.00    -0.130 Cl
ENDBRANCH   2   8
TORSDOF 2
ENDMDL
