MODEL 1
REMARK VINA RESULT:      -4.0      0.000      0.000
REMARK  3 active torsions:
REMARK  status: ('A' for Active; 'I' for Inactive)
REMARK    1  A    between atoms: C2_2  and  C6_6 
REMARK    2  A    between atoms: C3_3  and  C7_7 
REMARK    3  A    between atoms: C6_6  and  O8_8 
ROOT
HETATM    1  C1  UNL     1     -21.966  17.326   9.375  1.00 20.00     0.017 A 
HETATM    2  C2  UNL     1     -22.860  18.532   9.436  1.00 20.00     0.018 A 
HETATM    3  C3  UNL     1     -23.008  17.431  10.478  1.00 20.00    -0.038 A 
HETATM    4  C4  UNL     1     -22.528  17.736  11.872  1.00 20.00     0.015 C 
ENDROOT
BRANCH   2   5
HETATM    5  C6  UNL     1     -23.874  18.770   8.370  1.00 20.00     0.169 C 
BRANCH   5   6
HETATM    6  O8  UNL     1     -23.318  18.462   7.092  1.00 20.00    -0.400 OA
HETATM    7  H22 UNL     1     -24.064  18.391   6.478  1.00 20.00     0.209 HD
ENDBRANCH   5   6
ENDBRANCH   2   5
BRANCH   3   8
HETATM    8  C7  UNL     1     -24.187  16.497  10.427  1.00 20.00     0.005 C 
HETATM    9  C5  UNL     1     -24.468  15.857  11.756  1.00 20.00     0.006 C 
ENDBRANCH   3   8
TORSDOF 3
ENDMDL
MODEL 2
REMARK VINA RESULT:      -3.9     15.656     17.186
REMARK  3 active torsions:
REMARK  status: ('A' for Active; 'I' for Inactive)
REMARK    1  A    between atoms: C2_2  and  C6_6 
REMARK    2  A    between atoms: C3_3  and  C7_7 
REMARK    3  A    between atoms: C6_6  and  O8_8 
ROOT
HETATM    1  C1  UNL     1     -34.825  16.257  -4.285  1.00 20.00     0.017 A 
HETATM    2  C2  UNL     1     -34.207  14.981  -3.786  1.00 20.00     0.018 A 
HETATM    3  C3  UNL     1     -34.194  16.221  -2.901  1.00 20.00    -0.038 A 
HETATM    4  C4  UNL     1     -35.114  16.224  -1.709  1.00 20.00     0.015 C 
ENDROOT
BRANCH   2   5
HETATM    5  C6  UNL     1     -32.976  14.440  -4.429  1.00 20.00     0.169 C 
BRANCH   5   6
HETATM    6  O8  UNL     1     -33.104  14.498  -5.850  1.00 20.00    -0.400 OA
HETATM    7  H22 UNL     1     -34.043  14.649  -6.034  1.00 20.00     0.209 HD
ENDBRANCH   5   6
ENDBRANCH   2   5
BRANCH   3   8
HETATM    8  C7  UNL     1     -32.913  16.983  -2.689  1.00 20.00     0.005 C 
HETATM    9  C5  UNL     1     -32.946  17.821  -1.443  1.00 20.00     0.006 C 
ENDBRANCH   3   8
TORSDOF 3
ENDMDL
MODEL 3
REMARK VINA RESULT:      -3.9     16.704     18.142
REMARK  3 active torsions:
REMARK  status: ('A' for Active; 'I' for Inactive)
REMARK    1  A    between atoms: C2_2  and  C6_6 
REMARK    2  A    between atoms: C3_3  and  C7_7 
REMARK    3  A    between atoms: C6_6  and  O8_8 
ROOT
HETATM    1  C1  UNL     1     -33.676  14.535  -4.148  1.00 20.00     0.017 A 
HETATM    2  C2  UNL     1     -35.035  14.816  -4.725  1.00 20.00     0.018 A 
HETATM    3  C3  UNL     1     -34.431  15.781  -3.713  1.00 20.00    -0.038 A 
HETATM    4  C4  UNL     1     -33.954  17.111  -4.233  1.00 20.00     0.015 C 
ENDROOT
BRANCH   2   5
HETATM    5  C6  UNL     1     -36.187  13.928  -4.400  1.00 20.00     0.169 C 
BRANCH   5   6
HETATM    6  O8  UNL     1     -35.780  12.561  -4.464  1.00 20.00    -0.400 OA
HETATM    7  H22 UNL     1     -34.875  12.528  -4.123  1.00 20.00     0.209 HD
ENDBRANCH   5   6
ENDBRANCH   2   5
BRANCH   3   8
HETATM    8  C7  UNL     1     -34.964  15.829  -2.305  1.00 20.00     0.005 C 
HETATM    9  C5  UNL     1     -34.432  17.001  -1.532  1.00 20.00     0.006 C 
ENDBRANCH   3   8
TORSDOF 3
ENDMDL
MODEL 4
REMARK VINA RESULT:      -3.9     16.229     17.723
REMARK  3 active torsions:
REMARK  status: ('A' for Active; 'I' for Inactive)
REMARK    1  A    between atoms: C2_2  and  C6_6 
REMARK    2  A    between atoms: C3_3  and  C7_7 
REMARK    3  A    between atoms: C6_6  and  O8_8 
ROOT
HETATM    1  C1  UNL     1     -35.769  16.207  -3.883  1.00 20.00     0.017 A 
HETATM    2  C2  UNL     1     -35.539  14.840  -3.302  1.00 20.00     0.018 A 
HETATM    3  C3  UNL     1     -34.793  16.038  -2.729  1.00 20.00    -0.038 A 
HETATM    4  C4  UNL     1     -35.219  16.527  -1.370  1.00 20.00     0.015 C 
ENDROOT
BRANCH   2   5
HETATM    5  C6  UNL     1     -34.864  13.784  -4.109  1.00 20.00     0.169 C 
BRANCH   5   6
HETATM    6  O8  UNL     1     -35.794  12.751  -4.433  1.00 20.00    -0.400 OA
HETATM    7  H22 UNL     1     -35.298  12.080  -4.924  1.00 20.00     0.209 HD
ENDBRANCH   5   6
ENDBRANCH   2   5
BRANCH   3   8
HETATM    8  C7  UNL     1     -33.325  16.219  -3.013  1.00 20.00     0.005 C 
HETATM    9  C5  UNL     1     -32.749  17.412  -2.306  1.00 20.00     0.006 C 
ENDBRANCH   3   8
TORSDOF 3
ENDMDL
MODEL 5
REMARK VINA RESULT:      -3.9     22.541     23.466
REMARK  3 active torsions:
REMARK  status: ('A' for Active; 'I' for Inactive)
REMARK    1  A    between atoms: C2_2  and  C6_6 
REMARK    2  A    between atoms: C3_3  and  C7_7 
REMARK    3  A    between atoms: C6_6  and  O8_8 
ROOT
HETATM    1  C1  UNL     1     -42.130   7.847  -1.549  1.00 20.00     0.017 A 
HETATM    2  C2  UNL     1     -41.238   8.165  -0.382  1.00 20.00     0.018 A 
HETATM    3  C3  UNL     1     -41.856   6.778  -0.503  1.00 20.00    -0.038 A 
HETATM    4  C4  UNL     1     -40.936   5.646  -0.876  1.00 20.00     0.015 C 
ENDROOT
BRANCH   2   5
HETATM    5  C6  UNL     1     -41.672   9.151   0.648  1.00 20.00     0.169 C 
BRANCH   5   6
HETATM    6  O8  UNL     1     -41.067  10.419   0.392  1.00 20.00    -0.400 OA
HETATM    7  H22 UNL     1     -41.259  10.974   1.162  1.00 20.00     0.209 HD
ENDBRANCH   5   6
ENDBRANCH   2   5
BRANCH   3   8
HETATM    8  C7  UNL     1     -42.986   6.374   0.406  1.00 20.00     0.005 C 
HETATM    9  C5  UNL     1     -42.703   5.092   1.136  1.00 20.00     0.006 C 
ENDBRANCH   3   8
TORSDOF 3
ENDMDL
MODEL 6
REMARK VINA RESULT:      -3.9     16.907     18.308
REMARK  3 active torsions:
REMARK  status: ('A' for Active; 'I' for Inactive)
REMARK    1  A    between atoms: C2_2  and  C6_6 
REMARK    2  A    between atoms: C3_3  and  C7_7 
REMARK    3  A    between atoms: C6_6  and  O8_8 
ROOT
HETATM    1  C1  UNL     1     -34.784  13.919  -3.801  1.00 20.00     0.017 A 
HETATM    2  C2  UNL     1     -35.546  14.970  -4.556  1.00 20.00     0.018 A 
HETATM    3  C3  UNL     1     -34.592  15.385  -3.443  1.00 20.00    -0.038 A 
HETATM    4  C4  UNL     1     -33.303  16.046  -3.855  1.00 20.00     0.015 C 
ENDROOT
BRANCH   2   5
HETATM    5  C6  UNL     1     -37.027  15.068  -4.421  1.00 20.00     0.169 C 
BRANCH   5   6
HETATM    6  O8  UNL     1     -37.603  13.761  -4.428  1.00 20.00    -0.400 OA
HETATM    7  H22 UNL     1     -37.129  13.256  -5.105  1.00 20.00     0.209 HD
ENDBRANCH   5   6
ENDBRANCH   2   5
BRANCH   3   8
HETATM    8  C7  UNL     1     -35.135  15.867  -2.125  1.00 20.00     0.005 C 
HETATM    9  C5  UNL     1     -34.362  17.034  -1.581  1.00 20.00     0.006 C 
ENDBRANCH   3   8
TORSDOF 3
ENDMDL
MODEL 7
REMARK VINA RESULT:      -3.7     22.891     23.911
REMARK  3 active torsions:
REMARK  status: ('A' for Active; 'I' for Inactive)
REMARK    1  A    between atoms: C2_2  and  C6_6 
REMARK    2  A    between atoms: C3_3  and  C7_7 
REMARK    3  A    between atoms: C6_6  and  O8_8 
ROOT
HETATM    1  C1  UNL     1     -41.083   5.812  -0.734  1.00 20.00     0.017 A 
HETATM    2  C2  UNL     1     -42.525   5.827  -0.311  1.00 20.00     0.018 A 
HETATM    3  C3  UNL     1     -41.782   7.143  -0.504  1.00 20.00    -0.038 A 
HETATM    4  C4  UNL     1     -42.145   7.965  -1.712  1.00 20.00     0.015 C 
ENDROOT
BRANCH   2   5
HETATM    5  C6  UNL     1     -42.919   5.317   1.032  1.00 20.00     0.169 C 
BRANCH   5   6
HETATM    6  O8  UNL     1     -41.889   4.477   1.555  1.00 20.00    -0.400 OA
HETATM    7  H22 UNL     1     -41.291   5.055   2.052  1.00 20.00     0.209 HD
ENDBRANCH   5   6
ENDBRANCH   2   5
BRANCH   3   8
HETATM    8  C7  UNL     1     -41.370   7.960   0.692  1.00 20.00     0.005 C 
HETATM    9  C5  UNL     1     -41.350   9.432   0.399  1.00 20.00     0.006 C 
ENDBRANCH   3   8
TORSDOF 3
ENDMDL
MODEL 8
REMARK VINA RESULT:      -3.7     22.811     23.753
REMARK  3 active torsions:
REMARK  status: ('A' for Active; 'I' for Inactive)
REMARK    1  A    between atoms: C2_2  and  C6_6 
REMARK    2  A    between atoms: C3_3  and  C7_7 
REMARK    3  A    between atoms: C6_6  and  O8_8 
ROOT
HETATM    1  C1  UNL     1     -41.067   6.699   0.324  1.00 20.00     0.017 A 
HETATM    2  C2  UNL     1     -41.695   8.013   0.693  1.00 20.00     0.018 A 
HETATM    3  C3  UNL     1     -42.581   6.835   0.306  1.00 20.00    -0.038 A 
HETATM    4  C4  UNL     1     -43.361   6.171   1.410  1.00 20.00     0.015 C 
ENDROOT
BRANCH   2   5
HETATM    5  C6  UNL     1     -41.516   9.205  -0.184  1.00 20.00     0.169 C 
BRANCH   5   6
HETATM    6  O8  UNL     1     -41.157  10.339   0.605  1.00 20.00    -0.400 OA
HETATM    7  H22 UNL     1     -40.426  10.774   0.143  1.00 20.00     0.209 HD
ENDBRANCH   5   6
ENDBRANCH   2   5
BRANCH   3   8
HETATM    8  C7  UNL     1     -43.276   6.820  -1.029  1.00 20.00     0.005 C 
HETATM    9  C5  UNL     1     -43.367   5.439  -1.612  1.00 20.00     0.006 C 
ENDBRANCH   3   8
TORSDOF 3
ENDMDL
MODEL 9
REMARK VINA RESULT:      -3.7     17.390     18.748
REMARK  3 active torsions:
REMARK  status: ('A' for Active; 'I' for Inactive)
REMARK    1  A    between atoms: C2_2  and  C6_6 
REMARK    2  A    between atoms: C3_3  and  C7_7 
REMARK    3  A    between atoms: C6_6  and  O8_8 
ROOT
HETATM    1  C1  UNL     1     -34.684  13.891  -3.907  1.00 20.00     0.017 A 
HETATM    2  C2  UNL     1     -34.024  15.055  -4.592  1.00 20.00     0.018 A 
HETATM    3  C3  UNL     1     -35.170  15.303  -3.619  1.00 20.00    -0.038 A 
HETATM    4  C4  UNL     1     -34.819  15.910  -2.286  1.00 20.00     0.015 C 
ENDROOT
BRANCH   2   5
HETATM    5  C6  UNL     1     -34.166  15.240  -6.063  1.00 20.00     0.169 C 
BRANCH   5   6
HETATM    6  O8  UNL     1     -33.146  14.509  -6.746  1.00 20.00    -0.400 OA
HETATM    7  H22 UNL     1     -32.705  15.139  -7.335  1.00 20.00     0.209 HD
ENDBRANCH   5   6
ENDBRANCH   2   5
BRANCH   3   8
HETATM    8  C7  UNL     1     -36.526  15.703  -4.137  1.00 20.00     0.005 C 
HETATM    9  C5  UNL     1     -37.459  14.534  -4.259  1.00 20.00     0.006 C 
ENDBRANCH   3   8
TORSDOF 3
ENDMDL
