MODEL 1
REMARK VINA RESULT:      -4.2      0.000      0.000
REMARK  1 active torsions:
REMARK  status: ('A' for Active; 'I' for Inactive)
REMARK    1  A    between atoms: C4_4  and  C10_10 
ROOT
HETATM    1  C1  UNL     1     -35.748  13.965  -4.198  1.00 20.00     0.007 C 
HETATM    2  C2  UNL     1     -34.394  14.496  -3.727  1.00 20.00     0.009 C 
HETATM    3  C3  UNL     1     -35.154  16.850  -4.326  1.00 20.00     0.013 C 
HETATM    4  C4  UNL     1     -36.378  14.820  -5.307  1.00 20.00     0.003 C 
HETATM    5  C5  UNL     1     -36.475  16.307  -4.904  1.00 20.00    -0.013 C 
HETATM    6  C6  UNL     1     -34.435  15.971  -3.273  1.00 20.00    -0.047 C 
HETATM    7  C7  UNL     1     -37.676  16.563  -3.987  1.00 20.00     0.010 C 
HETATM    8  C8  UNL     1     -35.094  16.088  -1.886  1.00 20.00     0.015 C 
HETATM    9  C9  UNL     1     -32.984  16.481  -3.125  1.00 20.00     0.015 C 
ENDROOT
BRANCH   4  10
HETATM   10  C10 UNL     1     -35.614  14.656  -6.628  1.00 20.00     0.119 C 
HETATM   11 CL11 UNL     1     -36.247  15.784  -7.838  1.00 20.00    -0.130 Cl
ENDBRANCH   4  10
TORSDOF 1
ENDMDL
MODEL 2
REMARK VINA RESULT:      -4.1      1.646      3.040
REMARK  1 active torsions:
REMARK  status: ('A' for Active; 'I' for Inactive)
REMARK    1  A    between atoms: C4_4  and  C10_10 
ROOT
HETATM    1  C1  UNL     1     -34.797  17.370  -4.843  1.00 20.00     0.007 C 
HETATM    2  C2  UNL     1     -35.039  17.894  -3.428  1.00 20.00     0.009 C 
HETATM    3  C3  UNL     1     -34.714  15.531  -2.540  1.00 20.00     0.013 C 
HETATM    4  C4  UNL     1     -35.227  15.907  -5.026  1.00 20.00     0.003 C 
HETATM    5  C5  UNL     1     -34.580  14.981  -3.974  1.00 20.00    -0.013 C 
HETATM    6  C6  UNL     1     -34.383  17.029  -2.330  1.00 20.00    -0.047 C 
HETATM    7  C7  UNL     1     -33.135  14.631  -4.345  1.00 20.00     0.010 C 
HETATM    8  C8  UNL     1     -32.863  17.277  -2.287  1.00 20.00     0.015 C 
HETATM    9  C9  UNL     1     -34.948  17.462  -0.959  1.00 20.00     0.015 C 
ENDROOT
BRANCH   4  10
HETATM   10  C10 UNL     1     -36.755  15.777  -5.010  1.00 20.00     0.119 C 
HETATM   11 CL11 UNL     1     -37.220  14.160  -4.458  1.00 20.00    -0.130 Cl
ENDBRANCH   4  10
TORSDOF 1
ENDMDL
MODEL 3
REMARK VINA RESULT:      -4.1      1.871      2.819
REMARK  1 active torsions:
REMARK  status: ('A' for Active; 'I' for Inactive)
REMARK    1  A    between atoms: C4_4  and  C10_10 
ROOT
HETATM    1  C1  UNL     1     -35.340  16.468  -5.780  1.00 20.00     0.007 C 
HETATM    2  C2  UNL     1     -34.276  16.978  -4.808  1.00 20.00     0.009 C 
HETATM    3  C3  UNL     1     -35.238  15.452  -3.013  1.00 20.00     0.013 C 
HETATM    4  C4  UNL     1     -36.639  16.042  -5.081  1.00 20.00     0.003 C 
HETATM    5  C5  UNL     1     -36.379  15.018  -3.955  1.00 20.00    -0.013 C 
HETATM    6  C6  UNL     1     -33.944  15.981  -3.678  1.00 20.00    -0.047 C 
HETATM    7  C7  UNL     1     -36.185  13.605  -4.514  1.00 20.00     0.010 C 
HETATM    8  C8  UNL     1     -33.068  14.832  -4.215  1.00 20.00     0.015 C 
HETATM    9  C9  UNL     1     -33.111  16.714  -2.603  1.00 20.00     0.015 C 
ENDROOT
BRANCH   4  10
HETATM   10  C10 UNL     1     -37.403  17.262  -4.551  1.00 20.00     0.119 C 
HETATM   11 CL11 UNL     1     -38.738  16.737  -3.512  1.00 20.00    -0.130 Cl
ENDBRANCH   4  10
TORSDOF 1
ENDMDL
MODEL 4
REMARK VINA RESULT:      -4.0      2.745      4.308
REMARK  1 active torsions:
REMARK  status: ('A' for Active; 'I' for Inactive)
REMARK    1  A    between atoms: C4_4  and  C10_10 
ROOT
HETATM    1  C1  UNL     1     -34.803  16.180  -1.934  1.00 20.00     0.007 C 
HETATM    2  C2  UNL     1     -36.010  16.799  -2.641  1.00 20.00     0.009 C 
HETATM    3  C3  UNL     1     -34.853  16.408  -4.874  1.00 20.00     0.013 C 
HETATM    4  C4  UNL     1     -33.488  16.381  -2.701  1.00 20.00     0.003 C 
HETATM    5  C5  UNL     1     -33.590  15.887  -4.160  1.00 20.00    -0.013 C 
HETATM    6  C6  UNL     1     -36.188  16.313  -4.095  1.00 20.00    -0.047 C 
HETATM    7  C7  UNL     1     -33.441  14.364  -4.249  1.00 20.00     0.010 C 
HETATM    8  C8  UNL     1     -36.762  14.883  -4.117  1.00 20.00     0.015 C 
HETATM    9  C9  UNL     1     -37.223  17.222  -4.794  1.00 20.00     0.015 C 
ENDROOT
BRANCH   4  10
HETATM   10  C10 UNL     1     -33.038  17.847  -2.646  1.00 20.00     0.119 C 
HETATM   11 CL11 UNL     1     -31.980  18.104  -1.250  1.00 20.00    -0.130 Cl
ENDBRANCH   4  10
TORSDOF 1
ENDMDL
MODEL 5
REMARK VINA RESULT:      -4.0      2.363      4.066
REMARK  1 active torsions:
REMARK  status: ('A' for Active; 'I' for Inactive)
REMARK    1  A    between atoms: C4_4  and  C10_10 
ROOT
HETATM    1  C1  UNL     1     -36.096  14.742  -3.671  1.00 20.00     0.007 C 
HETATM    2  C2  UNL     1     -36.635  15.707  -4.727  1.00 20.00     0.009 C 
HETATM    3  C3  UNL     1     -34.274  16.594  -5.066  1.00 20.00     0.013 C 
HETATM    4  C4  UNL     1     -34.857  15.279  -2.940  1.00 20.00     0.003 C 
HETATM    5  C5  UNL     1     -33.745  15.703  -3.925  1.00 20.00    -0.013 C 
HETATM    6  C6  UNL     1     -35.578  16.138  -5.765  1.00 20.00    -0.047 C 
HETATM    7  C7  UNL     1     -32.954  14.493  -4.433  1.00 20.00     0.010 C 
HETATM    8  C8  UNL     1     -35.318  15.000  -6.771  1.00 20.00     0.015 C 
HETATM    9  C9  UNL     1     -36.138  17.331  -6.572  1.00 20.00     0.015 C 
ENDROOT
BRANCH   4  10
HETATM   10  C10 UNL     1     -35.230  16.434  -2.002  1.00 20.00     0.119 C 
HETATM   11 CL11 UNL     1     -33.773  17.319  -1.520  1.00 20.00    -0.130 Cl
ENDBRANCH   4  10
TORSDOF 1
ENDMDL
MODEL 6
REMARK VINA RESULT:      -3.9      1.272      2.780
REMARK  1 active torsions:
REMARK  status: ('A' for Active; 'I' for Inactive)
REMARK    1  A    between atoms: C4_4  and  C10_10 
ROOT
HETATM    1  C1  UNL     1     -34.670  17.186  -5.040  1.00 20.00     0.007 C 
HETATM    2  C2  UNL     1     -35.094  17.654  -3.648  1.00 20.00     0.009 C 
HETATM    3  C3  UNL     1     -34.773  15.278  -2.794  1.00 20.00     0.013 C 
HETATM    4  C4  UNL     1     -35.015  15.714  -5.312  1.00 20.00     0.003 C 
HETATM    5  C5  UNL     1     -34.454  14.780  -4.217  1.00 20.00    -0.013 C 
HETATM    6  C6  UNL     1     -34.532  16.780  -2.507  1.00 20.00    -0.047 C 
HETATM    7  C7  UNL     1     -32.963  14.498  -4.430  1.00 20.00     0.010 C 
HETATM    8  C8  UNL     1     -33.038  17.085  -2.282  1.00 20.00     0.015 C 
HETATM    9  C9  UNL     1     -35.267  17.147  -1.198  1.00 20.00     0.015 C 
ENDROOT
BRANCH   4  10
HETATM   10  C10 UNL     1     -36.529  15.524  -5.475  1.00 20.00     0.119 C 
HETATM   11 CL11 UNL     1     -37.111  16.467  -6.856  1.00 20.00    -0.130 Cl
ENDBRANCH   4  10
TORSDOF 1
ENDMDL
MODEL 7
REMARK VINA RESULT:      -3.8      2.605      4.098
REMARK  1 active torsions:
REMARK  status: ('A' for Active; 'I' for Inactive)
REMARK    1  A    between atoms: C4_4  and  C10_10 
ROOT
HETATM    1  C1  UNL     1     -33.327  15.778  -3.409  1.00 20.00     0.007 C 
HETATM    2  C2  UNL     1     -34.200  14.572  -3.756  1.00 20.00     0.009 C 
HETATM    3  C3  UNL     1     -36.079  16.164  -4.397  1.00 20.00     0.013 C 
HETATM    4  C4  UNL     1     -34.139  16.992  -2.934  1.00 20.00     0.003 C 
HETATM    5  C5  UNL     1     -35.243  17.377  -3.943  1.00 20.00    -0.013 C 
HETATM    6  C6  UNL     1     -35.301  14.885  -4.792  1.00 20.00    -0.047 C 
HETATM    7  C7  UNL     1     -34.674  18.182  -5.117  1.00 20.00     0.010 C 
HETATM    8  C8  UNL     1     -34.694  14.999  -6.203  1.00 20.00     0.015 C 
HETATM    9  C9  UNL     1     -36.296  13.704  -4.825  1.00 20.00     0.015 C 
ENDROOT
BRANCH   4  10
HETATM   10  C10 UNL     1     -34.729  16.748  -1.539  1.00 20.00     0.119 C 
HETATM   11 CL11 UNL     1     -34.048  17.903  -0.382  1.00 20.00    -0.130 Cl
ENDBRANCH   4  10
TORSDOF 1
ENDMDL
MODEL 8
REMARK VINA RESULT:      -3.7      2.910      4.121
REMARK  1 active torsions:
REMARK  status: ('A' for Active; 'I' for Inactive)
REMARK    1  A    between atoms: C4_4  and  C10_10 
ROOT
HETATM    1  C1  UNL     1     -35.134  17.872  -4.371  1.00 20.00     0.007 C 
HETATM    2  C2  UNL     1     -34.411  16.653  -4.945  1.00 20.00     0.009 C 
HETATM    3  C3  UNL     1     -33.631  16.058  -2.597  1.00 20.00     0.013 C 
HETATM    4  C4  UNL     1     -34.461  18.432  -3.109  1.00 20.00     0.003 C 
HETATM    5  C5  UNL     1     -34.264  17.345  -2.031  1.00 20.00    -0.013 C 
HETATM    6  C6  UNL     1     -34.218  15.513  -3.922  1.00 20.00    -0.047 C 
HETATM    7  C7  UNL     1     -35.560  17.080  -1.256  1.00 20.00     0.010 C 
HETATM    8  C8  UNL     1     -35.544  14.764  -3.695  1.00 20.00     0.015 C 
HETATM    9  C9  UNL     1     -33.219  14.490  -4.509  1.00 20.00     0.015 C 
ENDROOT
BRANCH   4  10
HETATM   10  C10 UNL     1     -33.131  19.115  -3.453  1.00 20.00     0.119 C 
HETATM   11 CL11 UNL     1     -32.133  19.262  -1.997  1.00 20.00    -0.130 Cl
ENDBRANCH   4  10
TORSDOF 1
ENDMDL
MODEL 9
REMARK VINA RESULT:      -3.7      1.813      2.732
REMARK  1 active torsions:
REMARK  status: ('A' for Active; 'I' for Inactive)
REMARK    1  A    between atoms: C4_4  and  C10_10 
ROOT
HETATM    1  C1  UNL     1     -33.847  14.693  -4.363  1.00 20.00     0.007 C 
HETATM    2  C2  UNL     1     -33.897  15.771  -5.445  1.00 20.00     0.009 C 
HETATM    3  C3  UNL     1     -35.726  16.953  -4.129  1.00 20.00     0.013 C 
HETATM    4  C4  UNL     1     -35.195  14.487  -3.655  1.00 20.00     0.003 C 
HETATM    5  C5  UNL     1     -35.758  15.811  -3.094  1.00 20.00    -0.013 C 
HETATM    6  C6  UNL     1     -34.417  17.132  -4.935  1.00 20.00    -0.047 C 
HETATM    7  C7  UNL     1     -35.089  16.190  -1.768  1.00 20.00     0.010 C 
HETATM    8  C8  UNL     1     -33.331  17.847  -4.108  1.00 20.00     0.015 C 
HETATM    9  C9  UNL     1     -34.718  18.032  -6.154  1.00 20.00     0.015 C 
ENDROOT
BRANCH   4  10
HETATM   10  C10 UNL     1     -36.207  13.808  -4.586  1.00 20.00     0.119 C 
HETATM   11 CL11 UNL     1     -37.843  14.379  -4.221  1.00 20.00    -0.130 Cl
ENDBRANCH   4  10
TORSDOF 1
ENDMDL
