MODEL 1
REMARK VINA RESULT:      -4.5      0.000      0.000
REMARK  1 active torsions:
REMARK  status: ('A' for Active; 'I' for Inactive)
REMARK    1  A    between atoms: C6_6  and  C8_8 
ROOT
HETATM    1  C1  UNL     1     -35.358  16.371  -4.779  1.00 20.00     0.036 C 
HETATM    2  C2  UNL     1     -34.739  14.060  -4.005  1.00 20.00     0.036 C 
HETATM    3  C3  UNL     1     -34.998  15.953  -2.234  1.00 20.00     0.016 A 
HETATM    4  C4  UNL     1     -36.705  15.786  -5.195  1.00 20.00     0.168 C 
HETATM    5  C5  UNL     1     -36.124  13.614  -4.463  1.00 20.00     0.168 C 
HETATM    6  C6  UNL     1     -33.619  16.075  -2.824  1.00 20.00     0.005 A 
HETATM    7  C7  UNL     1     -34.759  15.535  -3.669  1.00 20.00    -0.032 A 
HETATM    8  O9  UNL     1     -36.563  14.412  -5.566  1.00 20.00    -0.391 OA
ENDROOT
BRANCH   6   9
HETATM    9  C8  UNL     1     -33.015  17.418  -3.055  1.00 20.00     0.090 C 
HETATM   10 BR10 UNL     1     -32.352  18.165  -1.378  1.00 20.00    -0.096 Br
ENDBRANCH   6   9
TORSDOF 1
ENDMDL
MODEL 2
REMARK VINA RESULT:      -4.5     16.409     17.901
REMARK  1 active torsions:
REMARK  status: ('A' for Active; 'I' for Inactive)
REMARK    1  A    between atoms: C6_6  and  C8_8 
ROOT
HETATM    1  C1  UNL     1     -24.337  18.871   9.292  1.00 20.00     0.036 C 
HETATM    2  C2  UNL     1     -22.121  17.740   9.663  1.00 20.00     0.036 C 
HETATM    3  C3  UNL     1     -24.267  16.669  10.679  1.00 20.00     0.016 A 
HETATM    4  C4  UNL     1     -24.172  18.535   7.812  1.00 20.00     0.168 C 
HETATM    5  C5  UNL     1     -22.092  17.467   8.163  1.00 20.00     0.168 C 
HETATM    6  C6  UNL     1     -23.819  17.754  11.619  1.00 20.00     0.005 A 
HETATM    7  C7  UNL     1     -23.553  17.885  10.130  1.00 20.00    -0.032 A 
HETATM    8  O9  UNL     1     -22.788  18.498   7.456  1.00 20.00    -0.391 OA
ENDROOT
BRANCH   6   9
HETATM    9  C8  UNL     1     -24.822  18.595  12.332  1.00 20.00     0.090 C 
HETATM   10 BR10 UNL     1     -26.568  17.720  12.331  1.00 20.00    -0.096 Br
ENDBRANCH   6   9
TORSDOF 1
ENDMDL
MODEL 3
REMARK VINA RESULT:      -4.3     11.454     12.346
REMARK  1 active torsions:
REMARK  status: ('A' for Active; 'I' for Inactive)
REMARK    1  A    between atoms: C6_6  and  C8_8 
ROOT
HETATM    1  C1  UNL     1     -33.291   7.124   4.737  1.00 20.00     0.036 C 
HETATM    2  C2  UNL     1     -35.081   5.656   3.756  1.00 20.00     0.036 C 
HETATM    3  C3  UNL     1     -32.638   5.416   2.884  1.00 20.00     0.016 A 
HETATM    4  C4  UNL     1     -33.508   6.378   6.050  1.00 20.00     0.168 C 
HETATM    5  C5  UNL     1     -35.187   4.994   5.126  1.00 20.00     0.168 C 
HETATM    6  C6  UNL     1     -33.261   6.580   2.161  1.00 20.00     0.005 A 
HETATM    7  C7  UNL     1     -33.699   6.245   3.576  1.00 20.00    -0.032 A 
HETATM    8  O9  UNL     1     -34.862   5.931   6.156  1.00 20.00    -0.391 OA
ENDROOT
BRANCH   6   9
HETATM    9  C8  UNL     1     -32.449   7.787   1.837  1.00 20.00     0.090 C 
HETATM   10 BR10 UNL     1     -33.132   8.657   0.229  1.00 20.00    -0.096 Br
ENDBRANCH   6   9
TORSDOF 1
ENDMDL
MODEL 4
REMARK VINA RESULT:      -4.2      1.101      1.797
REMARK  1 active torsions:
REMARK  status: ('A' for Active; 'I' for Inactive)
REMARK    1  A    between atoms: C6_6  and  C8_8 
ROOT
HETATM    1  C1  UNL     1     -35.669  14.805  -3.630  1.00 20.00     0.036 C 
HETATM    2  C2  UNL     1     -34.917  15.911  -5.760  1.00 20.00     0.036 C 
HETATM    3  C3  UNL     1     -33.117  15.071  -4.074  1.00 20.00     0.016 A 
HETATM    4  C4  UNL     1     -36.213  13.676  -4.500  1.00 20.00     0.168 C 
HETATM    5  C5  UNL     1     -35.500  14.713  -6.502  1.00 20.00     0.168 C 
HETATM    6  C6  UNL     1     -33.588  16.417  -3.594  1.00 20.00     0.005 A 
HETATM    7  C7  UNL     1     -34.540  15.508  -4.351  1.00 20.00    -0.032 A 
HETATM    8  O9  UNL     1     -36.611  14.175  -5.780  1.00 20.00    -0.391 OA
ENDROOT
BRANCH   6   9
HETATM    9  C8  UNL     1     -33.728  16.691  -2.136  1.00 20.00     0.090 C 
HETATM   10 BR10 UNL     1     -32.434  18.038  -1.568  1.00 20.00    -0.096 Br
ENDBRANCH   6   9
TORSDOF 1
ENDMDL
MODEL 5
REMARK VINA RESULT:      -4.1     17.714     18.585
REMARK  1 active torsions:
REMARK  status: ('A' for Active; 'I' for Inactive)
REMARK    1  A    between atoms: C6_6  and  C8_8 
ROOT
HETATM    1  C1  UNL     1     -24.638  18.359  10.116  1.00 20.00     0.036 C 
HETATM    2  C2  UNL     1     -23.458  18.195  12.331  1.00 20.00     0.036 C 
HETATM    3  C3  UNL     1     -25.571  16.729  11.918  1.00 20.00     0.016 A 
HETATM    4  C4  UNL     1     -23.384  17.750   9.493  1.00 20.00     0.168 C 
HETATM    5  C5  UNL     1     -22.278  17.591  11.577  1.00 20.00     0.168 C 
HETATM    6  C6  UNL     1     -26.047  18.097  12.325  1.00 20.00     0.005 A 
HETATM    7  C7  UNL     1     -24.740  17.944  11.567  1.00 20.00    -0.032 A 
HETATM    8  O9  UNL     1     -22.223  18.111  10.245  1.00 20.00    -0.391 OA
ENDROOT
BRANCH   6   9
HETATM    9  C8  UNL     1     -27.268  18.684  11.706  1.00 20.00     0.090 C 
HETATM   10 BR10 UNL     1     -28.861  17.720  12.293  1.00 20.00    -0.096 Br
ENDBRANCH   6   9
TORSDOF 1
ENDMDL
MODEL 6
REMARK VINA RESULT:      -4.1      1.526      2.145
REMARK  1 active torsions:
REMARK  status: ('A' for Active; 'I' for Inactive)
REMARK    1  A    between atoms: C6_6  and  C8_8 
ROOT
HETATM    1  C1  UNL     1     -32.930  15.587  -3.621  1.00 20.00     0.036 C 
HETATM    2  C2  UNL     1     -35.221  15.490  -2.589  1.00 20.00     0.036 C 
HETATM    3  C3  UNL     1     -34.308  17.786  -3.414  1.00 20.00     0.016 A 
HETATM    4  C4  UNL     1     -33.496  14.749  -4.765  1.00 20.00     0.168 C 
HETATM    5  C5  UNL     1     -35.651  14.663  -3.796  1.00 20.00     0.168 C 
HETATM    6  C6  UNL     1     -33.731  17.539  -2.047  1.00 20.00     0.005 A 
HETATM    7  C7  UNL     1     -34.044  16.367  -2.960  1.00 20.00    -0.032 A 
HETATM    8  O9  UNL     1     -34.547  13.902  -4.294  1.00 20.00    -0.391 OA
ENDROOT
BRANCH   6   9
HETATM    9  C8  UNL     1     -32.337  17.959  -1.730  1.00 20.00     0.090 C 
HETATM   10 BR10 UNL     1     -32.214  18.579   0.117  1.00 20.00    -0.096 Br
ENDBRANCH   6   9
TORSDOF 1
ENDMDL
MODEL 7
REMARK VINA RESULT:      -3.9      3.149      4.428
REMARK  1 active torsions:
REMARK  status: ('A' for Active; 'I' for Inactive)
REMARK    1  A    between atoms: C6_6  and  C8_8 
ROOT
HETATM    1  C1  UNL     1     -35.080  16.141  -1.731  1.00 20.00     0.036 C 
HETATM    2  C2  UNL     1     -32.875  17.136  -2.418  1.00 20.00     0.036 C 
HETATM    3  C3  UNL     1     -34.613  16.533  -4.262  1.00 20.00     0.016 A 
HETATM    4  C4  UNL     1     -35.388  17.480  -1.067  1.00 20.00     0.168 C 
HETATM    5  C5  UNL     1     -33.317  18.417  -1.718  1.00 20.00     0.168 C 
HETATM    6  C6  UNL     1     -33.879  15.268  -3.906  1.00 20.00     0.005 A 
HETATM    7  C7  UNL     1     -34.088  16.345  -2.855  1.00 20.00    -0.032 A 
HETATM    8  O9  UNL     1     -34.184  18.109  -0.622  1.00 20.00    -0.391 OA
ENDROOT
BRANCH   6   9
HETATM    9  C8  UNL     1     -34.599  13.964  -3.873  1.00 20.00     0.090 C 
HETATM   10 BR10 UNL     1     -36.304  14.102  -4.813  1.00 20.00    -0.096 Br
ENDBRANCH   6   9
TORSDOF 1
ENDMDL
MODEL 8
REMARK VINA RESULT:      -3.9      1.639      1.749
REMARK  1 active torsions:
REMARK  status: ('A' for Active; 'I' for Inactive)
REMARK    1  A    between atoms: C6_6  and  C8_8 
ROOT
HETATM    1  C1  UNL     1     -34.379  17.452  -4.364  1.00 20.00     0.036 C 
HETATM    2  C2  UNL     1     -33.319  15.197  -4.024  1.00 20.00     0.036 C 
HETATM    3  C3  UNL     1     -35.077  16.037  -2.294  1.00 20.00     0.016 A 
HETATM    4  C4  UNL     1     -35.035  16.868  -5.613  1.00 20.00     0.168 C 
HETATM    5  C5  UNL     1     -34.042  14.747  -5.289  1.00 20.00     0.168 C 
HETATM    6  C6  UNL     1     -33.756  16.661  -1.932  1.00 20.00     0.005 A 
HETATM    7  C7  UNL     1     -34.071  16.343  -3.383  1.00 20.00    -0.032 A 
HETATM    8  O9  UNL     1     -34.210  15.850  -6.184  1.00 20.00    -0.391 OA
ENDROOT
BRANCH   6   9
HETATM    9  C8  UNL     1     -33.701  18.056  -1.410  1.00 20.00     0.090 C 
HETATM   10 BR10 UNL     1     -31.878  18.516  -0.887  1.00 20.00    -0.096 Br
ENDBRANCH   6   9
TORSDOF 1
ENDMDL
MODEL 9
REMARK VINA RESULT:      -3.9      1.085      2.015
REMARK  1 active torsions:
REMARK  status: ('A' for Active; 'I' for Inactive)
REMARK    1  A    between atoms: C6_6  and  C8_8 
ROOT
HETATM    1  C1  UNL     1     -35.118  14.389  -3.829  1.00 20.00     0.036 C 
HETATM    2  C2  UNL     1     -36.918  16.142  -3.740  1.00 20.00     0.036 C 
HETATM    3  C3  UNL     1     -34.755  16.627  -5.107  1.00 20.00     0.016 A 
HETATM    4  C4  UNL     1     -36.108  13.525  -4.606  1.00 20.00     0.168 C 
HETATM    5  C5  UNL     1     -37.798  15.176  -4.526  1.00 20.00     0.168 C 
HETATM    6  C6  UNL     1     -34.451  16.930  -3.665  1.00 20.00     0.005 A 
HETATM    7  C7  UNL     1     -35.459  15.850  -4.016  1.00 20.00    -0.032 A 
HETATM    8  O9  UNL     1     -37.450  13.824  -4.216  1.00 20.00    -0.391 OA
ENDROOT
BRANCH   6   9
HETATM    9  C8  UNL     1     -33.109  16.621  -3.096  1.00 20.00     0.090 C 
HETATM   10 BR10 UNL     1     -32.678  17.861  -1.652  1.00 20.00    -0.096 Br
ENDBRANCH   6   9
TORSDOF 1
ENDMDL
