MODEL 1
REMARK VINA RESULT:      -4.7      0.000      0.000
REMARK  1 active torsions:
REMARK  status: ('A' for Active; 'I' for Inactive)
REMARK    1  A    between atoms: C5_5  and  C10_10 
ROOT
HETATM    1  C1  UNL     1     -33.122   5.188   2.687  1.00 20.00     0.011 C 
HETATM    2  C2  UNL     1     -33.820   4.418   3.810  1.00 20.00     0.009 C 
HETATM    3  C3  UNL     1     -31.559   7.227   3.183  1.00 20.00     0.016 A 
HETATM    4  C4  UNL     1     -33.733   6.711   4.532  1.00 20.00     0.018 C 
HETATM    5  C5  UNL     1     -32.696   7.778   2.371  1.00 20.00     0.005 A 
HETATM    6  C6  UNL     1     -32.920   6.569   3.262  1.00 20.00    -0.035 A 
HETATM    7  C7  UNL     1     -34.665   5.478   4.540  1.00 20.00    -0.047 C 
HETATM    8  C8  UNL     1     -35.967   5.772   3.777  1.00 20.00     0.015 C 
HETATM    9  C9  UNL     1     -35.002   5.036   5.964  1.00 20.00     0.015 C 
ENDROOT
BRANCH   5  10
HETATM   10  C10 UNL     1     -32.665   7.674   0.885  1.00 20.00     0.090 C 
HETATM   11 BR11 UNL     1     -33.359   9.308   0.073  1.00 20.00    -0.096 Br
ENDBRANCH   5  10
TORSDOF 1
ENDMDL
MODEL 2
REMARK VINA RESULT:      -4.6     11.234     12.230
REMARK  1 active torsions:
REMARK  status: ('A' for Active; 'I' for Inactive)
REMARK    1  A    between atoms: C5_5  and  C10_10 
ROOT
HETATM    1  C1  UNL     1     -35.261  15.398  -2.957  1.00 20.00     0.011 C 
HETATM    2  C2  UNL     1     -34.977  16.237  -1.709  1.00 20.00     0.009 C 
HETATM    3  C3  UNL     1     -33.340  14.243  -4.306  1.00 20.00     0.016 A 
HETATM    4  C4  UNL     1     -33.112  16.591  -3.187  1.00 20.00     0.018 C 
HETATM    5  C5  UNL     1     -33.969  15.223  -5.255  1.00 20.00     0.005 A 
HETATM    6  C6  UNL     1     -33.989  15.498  -3.763  1.00 20.00    -0.035 A 
HETATM    7  C7  UNL     1     -34.027  17.346  -2.197  1.00 20.00    -0.047 C 
HETATM    8  C8  UNL     1     -34.801  18.466  -2.913  1.00 20.00     0.015 C 
HETATM    9  C9  UNL     1     -33.229  17.944  -1.037  1.00 20.00     0.015 C 
ENDROOT
BRANCH   5  10
HETATM   10  C10 UNL     1     -35.196  14.841  -6.010  1.00 20.00     0.090 C 
HETATM   11 BR11 UNL     1     -36.128  16.433  -6.645  1.00 20.00    -0.096 Br
ENDBRANCH   5  10
TORSDOF 1
ENDMDL
MODEL 3
REMARK VINA RESULT:      -4.5      9.188     10.110
REMARK  1 active torsions:
REMARK  status: ('A' for Active; 'I' for Inactive)
REMARK    1  A    between atoms: C5_5  and  C10_10 
ROOT
HETATM    1  C1  UNL     1     -42.521   5.941   0.446  1.00 20.00     0.011 C 
HETATM    2  C2  UNL     1     -42.258   7.309   1.080  1.00 20.00     0.009 C 
HETATM    3  C3  UNL     1     -40.797   4.821  -1.171  1.00 20.00     0.016 A 
HETATM    4  C4  UNL     1     -41.262   7.389  -1.108  1.00 20.00     0.018 C 
HETATM    5  C5  UNL     1     -42.035   5.043  -1.991  1.00 20.00     0.005 A 
HETATM    6  C6  UNL     1     -41.721   5.971  -0.833  1.00 20.00    -0.035 A 
HETATM    7  C7  UNL     1     -42.066   8.259  -0.116  1.00 20.00    -0.047 C 
HETATM    8  C8  UNL     1     -43.417   8.672  -0.722  1.00 20.00     0.015 C 
HETATM    9  C9  UNL     1     -41.289   9.513   0.290  1.00 20.00     0.015 C 
ENDROOT
BRANCH   5  10
HETATM   10  C10 UNL     1     -43.148   4.053  -1.936  1.00 20.00     0.090 C 
HETATM   11 BR11 UNL     1     -42.794   2.561  -3.143  1.00 20.00    -0.096 Br
ENDBRANCH   5  10
TORSDOF 1
ENDMDL
MODEL 4
REMARK VINA RESULT:      -4.3     11.169     12.121
REMARK  1 active torsions:
REMARK  status: ('A' for Active; 'I' for Inactive)
REMARK    1  A    between atoms: C5_5  and  C10_10 
ROOT
HETATM    1  C1  UNL     1     -33.316  15.571  -3.445  1.00 20.00     0.011 C 
HETATM    2  C2  UNL     1     -33.977  14.345  -4.079  1.00 20.00     0.009 C 
HETATM    3  C3  UNL     1     -34.410  16.836  -1.433  1.00 20.00     0.016 A 
HETATM    4  C4  UNL     1     -35.775  15.789  -3.396  1.00 20.00     0.018 C 
HETATM    5  C5  UNL     1     -34.359  17.832  -2.556  1.00 20.00     0.005 A 
HETATM    6  C6  UNL     1     -34.472  16.350  -2.865  1.00 20.00    -0.035 A 
HETATM    7  C7  UNL     1     -35.355  14.846  -4.546  1.00 20.00    -0.047 C 
HETATM    8  C8  UNL     1     -35.248  15.616  -5.873  1.00 20.00     0.015 C 
HETATM    9  C9  UNL     1     -36.340  13.688  -4.712  1.00 20.00     0.015 C 
ENDROOT
BRANCH   5  10
HETATM   10  C10 UNL     1     -33.109  18.603  -2.807  1.00 20.00     0.090 C 
HETATM   11 BR11 UNL     1     -31.970  18.590  -1.223  1.00 20.00    -0.096 Br
ENDBRANCH   5  10
TORSDOF 1
ENDMDL
MODEL 5
REMARK VINA RESULT:      -4.2     11.358     12.905
REMARK  1 active torsions:
REMARK  status: ('A' for Active; 'I' for Inactive)
REMARK    1  A    between atoms: C5_5  and  C10_10 
ROOT
HETATM    1  C1  UNL     1     -34.812  17.335  -4.625  1.00 20.00     0.011 C 
HETATM    2  C2  UNL     1     -34.625  17.035  -6.114  1.00 20.00     0.009 C 
HETATM    3  C3  UNL     1     -33.054  16.587  -2.838  1.00 20.00     0.016 A 
HETATM    4  C4  UNL     1     -33.681  15.163  -4.934  1.00 20.00     0.018 C 
HETATM    5  C5  UNL     1     -34.320  15.861  -2.488  1.00 20.00     0.005 A 
HETATM    6  C6  UNL     1     -34.042  16.239  -3.931  1.00 20.00    -0.035 A 
HETATM    7  C7  UNL     1     -34.519  15.500  -6.188  1.00 20.00    -0.047 C 
HETATM    8  C8  UNL     1     -35.906  14.842  -6.113  1.00 20.00     0.015 C 
HETATM    9  C9  UNL     1     -33.816  15.054  -7.471  1.00 20.00     0.015 C 
ENDROOT
BRANCH   5  10
HETATM   10  C10 UNL     1     -35.366  16.545  -1.675  1.00 20.00     0.090 C 
HETATM   11 BR11 UNL     1     -34.548  17.817  -0.442  1.00 20.00    -0.096 Br
ENDBRANCH   5  10
TORSDOF 1
ENDMDL
MODEL 6
REMARK VINA RESULT:      -4.1     10.963     12.530
REMARK  1 active torsions:
REMARK  status: ('A' for Active; 'I' for Inactive)
REMARK    1  A    between atoms: C5_5  and  C10_10 
ROOT
HETATM    1  C1  UNL     1     -35.525  16.387  -3.555  1.00 20.00     0.011 C 
HETATM    2  C2  UNL     1     -35.105  17.291  -2.394  1.00 20.00     0.009 C 
HETATM    3  C3  UNL     1     -34.456  14.027  -3.917  1.00 20.00     0.016 A 
HETATM    4  C4  UNL     1     -33.123  16.101  -3.058  1.00 20.00     0.018 C 
HETATM    5  C5  UNL     1     -34.094  14.826  -5.135  1.00 20.00     0.005 A 
HETATM    6  C6  UNL     1     -34.309  15.530  -3.808  1.00 20.00    -0.035 A 
HETATM    7  C7  UNL     1     -33.592  17.498  -2.591  1.00 20.00    -0.047 C 
HETATM    8  C8  UNL     1     -33.311  18.558  -3.668  1.00 20.00     0.015 C 
HETATM    9  C9  UNL     1     -32.913  17.911  -1.284  1.00 20.00     0.015 C 
ENDROOT
BRANCH   5  10
HETATM   10  C10 UNL     1     -35.063  14.940  -6.262  1.00 20.00     0.090 C 
HETATM   11 BR11 UNL     1     -34.224  15.806  -7.797  1.00 20.00    -0.096 Br
ENDBRANCH   5  10
TORSDOF 1
ENDMDL
MODEL 7
REMARK VINA RESULT:      -4.1     11.275     12.448
REMARK  1 active torsions:
REMARK  status: ('A' for Active; 'I' for Inactive)
REMARK    1  A    between atoms: C5_5  and  C10_10 
ROOT
HETATM    1  C1  UNL     1     -36.028  16.913  -4.378  1.00 20.00     0.011 C 
HETATM    2  C2  UNL     1     -35.594  17.744  -3.168  1.00 20.00     0.009 C 
HETATM    3  C3  UNL     1     -36.832  14.436  -4.129  1.00 20.00     0.016 A 
HETATM    4  C4  UNL     1     -34.916  15.484  -2.699  1.00 20.00     0.018 C 
HETATM    5  C5  UNL     1     -35.596  14.376  -4.978  1.00 20.00     0.005 A 
HETATM    6  C6  UNL     1     -35.758  15.488  -3.959  1.00 20.00    -0.035 A 
HETATM    7  C7  UNL     1     -34.435  16.945  -2.545  1.00 20.00    -0.047 C 
HETATM    8  C8  UNL     1     -33.124  17.173  -3.316  1.00 20.00     0.015 C 
HETATM    9  C9  UNL     1     -34.230  17.317  -1.076  1.00 20.00     0.015 C 
ENDROOT
BRANCH   5  10
HETATM   10  C10 UNL     1     -35.690  14.622  -6.445  1.00 20.00     0.090 C 
HETATM   11 BR11 UNL     1     -33.967  15.206  -7.151  1.00 20.00    -0.096 Br
ENDBRANCH   5  10
TORSDOF 1
ENDMDL
MODEL 8
REMARK VINA RESULT:      -4.1     11.154     12.561
REMARK  1 active torsions:
REMARK  status: ('A' for Active; 'I' for Inactive)
REMARK    1  A    between atoms: C5_5  and  C10_10 
ROOT
HETATM    1  C1  UNL     1     -34.677  18.010  -3.311  1.00 20.00     0.011 C 
HETATM    2  C2  UNL     1     -34.782  17.094  -4.532  1.00 20.00     0.009 C 
HETATM    3  C3  UNL     1     -32.388  18.479  -2.134  1.00 20.00     0.016 A 
HETATM    4  C4  UNL     1     -33.043  16.166  -3.153  1.00 20.00     0.018 C 
HETATM    5  C5  UNL     1     -33.239  17.793  -1.104  1.00 20.00     0.005 A 
HETATM    6  C6  UNL     1     -33.458  17.505  -2.578  1.00 20.00    -0.035 A 
HETATM    7  C7  UNL     1     -34.227  15.741  -4.050  1.00 20.00    -0.047 C 
HETATM    8  C8  UNL     1     -35.278  14.967  -3.238  1.00 20.00     0.015 C 
HETATM    9  C9  UNL     1     -33.762  14.881  -5.226  1.00 20.00     0.015 C 
ENDROOT
BRANCH   5  10
HETATM   10  C10 UNL     1     -34.209  18.585  -0.296  1.00 20.00     0.090 C 
HETATM   11 BR11 UNL     1     -35.493  17.404   0.578  1.00 20.00    -0.096 Br
ENDBRANCH   5  10
TORSDOF 1
ENDMDL
MODEL 9
REMARK VINA RESULT:      -4.0     11.281     12.329
REMARK  1 active torsions:
REMARK  status: ('A' for Active; 'I' for Inactive)
REMARK    1  A    between atoms: C5_5  and  C10_10 
ROOT
HETATM    1  C1  UNL     1     -35.045  17.420  -3.858  1.00 20.00     0.011 C 
HETATM    2  C2  UNL     1     -35.061  18.346  -2.640  1.00 20.00     0.009 C 
HETATM    3  C3  UNL     1     -36.077  15.017  -3.772  1.00 20.00     0.016 A 
HETATM    4  C4  UNL     1     -34.805  16.116  -1.775  1.00 20.00     0.018 C 
HETATM    5  C5  UNL     1     -34.614  14.819  -4.047  1.00 20.00     0.005 A 
HETATM    6  C6  UNL     1     -35.077  16.033  -3.263  1.00 20.00    -0.035 A 
HETATM    7  C7  UNL     1     -34.310  17.562  -1.548  1.00 20.00    -0.047 C 
HETATM    8  C8  UNL     1     -32.788  17.656  -1.742  1.00 20.00     0.015 C 
HETATM    9  C9  UNL     1     -34.675  18.069  -0.151  1.00 20.00     0.015 C 
ENDROOT
BRANCH   5  10
HETATM   10  C10 UNL     1     -34.100  14.923  -5.443  1.00 20.00     0.090 C 
HETATM   11 BR11 UNL     1     -35.573  14.831  -6.719  1.00 20.00    -0.096 Br
ENDBRANCH   5  10
TORSDOF 1
ENDMDL
