MODEL 1
REMARK VINA RESULT:      -4.6      0.000      0.000
REMARK  2 active torsions:
REMARK  status: ('A' for Active; 'I' for Inactive)
REMARK    1  A    between atoms: C7_7  and  C10_10 
REMARK    2  A    between atoms: C7_7  and  C11_11 
ROOT
HETATM    1  C1  UNL     1     -36.136  16.499  -3.087  1.00 20.00     0.140 C 
HETATM    2  C2  UNL     1     -33.090  16.930  -3.281  1.00 20.00     0.001 C 
HETATM    3  C3  UNL     1     -33.825  16.903  -1.949  1.00 20.00     0.013 C 
HETATM    4  C4  UNL     1     -33.201  15.494  -3.780  1.00 20.00     0.007 C 
HETATM    5  C5  UNL     1     -35.001  15.969  -2.189  1.00 20.00     0.061 C 
HETATM    6  C6  UNL     1     -34.595  15.021  -3.352  1.00 20.00     0.013 C 
HETATM    7  C7  UNL     1     -35.899  15.400  -4.160  1.00 20.00     0.025 C 
HETATM    8  O12 UNL     1     -36.915  17.424  -2.987  1.00 20.00    -0.297 OA
ENDROOT
BRANCH   7   9
HETATM    9  C10 UNL     1     -36.964  14.302  -4.129  1.00 20.00     0.013 C 
HETATM   10  C8  UNL     1     -38.323  14.847  -4.414  1.00 20.00     0.006 C 
ENDBRANCH   7   9
BRANCH   7  11
HETATM   11  C11 UNL     1     -35.712  15.939  -5.574  1.00 20.00     0.013 C 
HETATM   12  C9  UNL     1     -35.570  14.836  -6.573  1.00 20.00     0.006 C 
ENDBRANCH   7  11
TORSDOF 2
ENDMDL
MODEL 2
REMARK VINA RESULT:      -4.4      1.831      3.772
REMARK  2 active torsions:
REMARK  status: ('A' for Active; 'I' for Inactive)
REMARK    1  A    between atoms: C7_7  and  C10_10 
REMARK    2  A    between atoms: C7_7  and  C11_11 
ROOT
HETATM    1  C1  UNL     1     -34.923  14.204  -4.158  1.00 20.00     0.140 C 
HETATM    2  C2  UNL     1     -34.405  15.540  -6.887  1.00 20.00     0.001 C 
HETATM    3  C3  UNL     1     -35.582  14.606  -6.649  1.00 20.00     0.013 C 
HETATM    4  C4  UNL     1     -34.738  16.760  -6.039  1.00 20.00     0.007 C 
HETATM    5  C5  UNL     1     -35.917  14.794  -5.177  1.00 20.00     0.061 C 
HETATM    6  C6  UNL     1     -35.409  16.208  -4.776  1.00 20.00     0.013 C 
HETATM    7  C7  UNL     1     -34.578  15.604  -3.575  1.00 20.00     0.025 C 
HETATM    8  O12 UNL     1     -34.555  13.075  -3.910  1.00 20.00    -0.297 OA
ENDROOT
BRANCH   7   9
HETATM    9  C10 UNL     1     -35.225  15.854  -2.212  1.00 20.00     0.013 C 
HETATM   10  C8  UNL     1     -36.038  17.105  -2.211  1.00 20.00     0.006 C 
ENDBRANCH   7   9
BRANCH   7  11
HETATM   11  C11 UNL     1     -33.085  15.911  -3.536  1.00 20.00     0.013 C 
HETATM   12  C9  UNL     1     -32.769  16.999  -2.559  1.00 20.00     0.006 C 
ENDBRANCH   7  11
TORSDOF 2
ENDMDL
MODEL 3
REMARK VINA RESULT:      -4.4      1.077      1.282
REMARK  2 active torsions:
REMARK  status: ('A' for Active; 'I' for Inactive)
REMARK    1  A    between atoms: C7_7  and  C10_10 
REMARK    2  A    between atoms: C7_7  and  C11_11 
ROOT
HETATM    1  C1  UNL     1     -35.945  16.297  -3.030  1.00 20.00     0.140 C 
HETATM    2  C2  UNL     1     -33.515  18.139  -2.581  1.00 20.00     0.001 C 
HETATM    3  C3  UNL     1     -34.450  17.735  -1.451  1.00 20.00     0.013 C 
HETATM    4  C4  UNL     1     -32.813  16.837  -2.948  1.00 20.00     0.007 C 
HETATM    5  C5  UNL     1     -34.951  16.357  -1.854  1.00 20.00     0.061 C 
HETATM    6  C6  UNL     1     -33.879  15.744  -2.798  1.00 20.00     0.013 C 
HETATM    7  C7  UNL     1     -34.967  15.468  -3.910  1.00 20.00     0.025 C 
HETATM    8  O12 UNL     1     -37.065  16.732  -3.199  1.00 20.00    -0.297 OA
ENDROOT
BRANCH   7   9
HETATM    9  C10 UNL     1     -35.363  13.994  -4.008  1.00 20.00     0.013 C 
HETATM   10  C8  UNL     1     -36.666  13.821  -4.714  1.00 20.00     0.006 C 
ENDBRANCH   7   9
BRANCH   7  11
HETATM   11  C11 UNL     1     -34.717  16.060  -5.292  1.00 20.00     0.013 C 
HETATM   12  C9  UNL     1     -33.969  15.113  -6.174  1.00 20.00     0.006 C 
ENDBRANCH   7  11
TORSDOF 2
ENDMDL
MODEL 4
REMARK VINA RESULT:      -4.3      1.584      4.088
REMARK  2 active torsions:
REMARK  status: ('A' for Active; 'I' for Inactive)
REMARK    1  A    between atoms: C7_7  and  C10_10 
REMARK    2  A    between atoms: C7_7  and  C11_11 
ROOT
HETATM    1  C1  UNL     1     -34.339  16.708  -5.020  1.00 20.00     0.140 C 
HETATM    2  C2  UNL     1     -36.363  14.398  -5.267  1.00 20.00     0.001 C 
HETATM    3  C3  UNL     1     -35.284  14.649  -6.310  1.00 20.00     0.013 C 
HETATM    4  C4  UNL     1     -35.578  13.950  -4.040  1.00 20.00     0.007 C 
HETATM    5  C5  UNL     1     -34.139  15.265  -5.522  1.00 20.00     0.061 C 
HETATM    6  C6  UNL     1     -34.294  14.788  -4.051  1.00 20.00     0.013 C 
HETATM    7  C7  UNL     1     -34.255  16.278  -3.528  1.00 20.00     0.025 C 
HETATM    8  O12 UNL     1     -34.498  17.771  -5.581  1.00 20.00    -0.297 OA
ENDROOT
BRANCH   7   9
HETATM    9  C10 UNL     1     -32.921  16.651  -2.878  1.00 20.00     0.013 C 
HETATM   10  C8  UNL     1     -32.774  18.129  -2.735  1.00 20.00     0.006 C 
ENDBRANCH   7   9
BRANCH   7  11
HETATM   11  C11 UNL     1     -35.428  16.750  -2.677  1.00 20.00     0.013 C 
HETATM   12  C9  UNL     1     -35.183  16.523  -1.220  1.00 20.00     0.006 C 
ENDBRANCH   7  11
TORSDOF 2
ENDMDL
MODEL 5
REMARK VINA RESULT:      -4.3      1.988      3.972
REMARK  2 active torsions:
REMARK  status: ('A' for Active; 'I' for Inactive)
REMARK    1  A    between atoms: C7_7  and  C10_10 
REMARK    2  A    between atoms: C7_7  and  C11_11 
ROOT
HETATM    1  C1  UNL     1     -34.061  14.925  -4.922  1.00 20.00     0.140 C 
HETATM    2  C2  UNL     1     -37.115  14.622  -4.646  1.00 20.00     0.001 C 
HETATM    3  C3  UNL     1     -36.165  13.440  -4.516  1.00 20.00     0.013 C 
HETATM    4  C4  UNL     1     -36.807  15.466  -3.416  1.00 20.00     0.007 C 
HETATM    5  C5  UNL     1     -34.887  14.048  -3.961  1.00 20.00     0.061 C 
HETATM    6  C6  UNL     1     -35.293  15.347  -3.209  1.00 20.00     0.013 C 
HETATM    7  C7  UNL     1     -34.258  16.196  -4.048  1.00 20.00     0.025 C 
HETATM    8  O12 UNL     1     -33.480  14.702  -5.963  1.00 20.00    -0.297 OA
ENDROOT
BRANCH   7   9
HETATM    9  C10 UNL     1     -33.004  16.568  -3.253  1.00 20.00     0.013 C 
HETATM   10  C8  UNL     1     -33.348  17.260  -1.977  1.00 20.00     0.006 C 
ENDBRANCH   7   9
BRANCH   7  11
HETATM   11  C11 UNL     1     -34.798  17.400  -4.811  1.00 20.00     0.013 C 
HETATM   12  C9  UNL     1     -33.717  18.379  -5.139  1.00 20.00     0.006 C 
ENDBRANCH   7  11
TORSDOF 2
ENDMDL
MODEL 6
REMARK VINA RESULT:      -4.2      1.725      2.484
REMARK  2 active torsions:
REMARK  status: ('A' for Active; 'I' for Inactive)
REMARK    1  A    between atoms: C7_7  and  C10_10 
REMARK    2  A    between atoms: C7_7  and  C11_11 
ROOT
HETATM    1  C1  UNL     1     -35.807  16.465  -2.981  1.00 20.00     0.140 C 
HETATM    2  C2  UNL     1     -34.178  18.447  -1.274  1.00 20.00     0.001 C 
HETATM    3  C3  UNL     1     -35.128  17.431  -0.657  1.00 20.00     0.013 C 
HETATM    4  C4  UNL     1     -33.058  17.588  -1.848  1.00 20.00     0.007 C 
HETATM    5  C5  UNL     1     -35.103  16.260  -1.626  1.00 20.00     0.061 C 
HETATM    6  C6  UNL     1     -33.746  16.325  -2.381  1.00 20.00     0.013 C 
HETATM    7  C7  UNL     1     -34.483  16.292  -3.778  1.00 20.00     0.025 C 
HETATM    8  O12 UNL     1     -36.958  16.678  -3.298  1.00 20.00    -0.297 OA
ENDROOT
BRANCH   7   9
HETATM    9  C10 UNL     1     -34.385  14.935  -4.476  1.00 20.00     0.013 C 
HETATM   10  C8  UNL     1     -32.986  14.416  -4.473  1.00 20.00     0.006 C 
ENDBRANCH   7   9
BRANCH   7  11
HETATM   11  C11 UNL     1     -34.188  17.429  -4.750  1.00 20.00     0.013 C 
HETATM   12  C9  UNL     1     -34.611  17.090  -6.143  1.00 20.00     0.006 C 
ENDBRANCH   7  11
TORSDOF 2
ENDMDL
MODEL 7
REMARK VINA RESULT:      -4.2      1.835      3.762
REMARK  2 active torsions:
REMARK  status: ('A' for Active; 'I' for Inactive)
REMARK    1  A    between atoms: C7_7  and  C10_10 
REMARK    2  A    between atoms: C7_7  and  C11_11 
ROOT
HETATM    1  C1  UNL     1     -33.499  17.183  -3.433  1.00 20.00     0.140 C 
HETATM    2  C2  UNL     1     -34.957  14.969  -5.006  1.00 20.00     0.001 C 
HETATM    3  C3  UNL     1     -33.459  14.929  -4.744  1.00 20.00     0.013 C 
HETATM    4  C4  UNL     1     -35.568  14.777  -3.623  1.00 20.00     0.007 C 
HETATM    5  C5  UNL     1     -33.292  15.656  -3.419  1.00 20.00     0.061 C 
HETATM    6  C6  UNL     1     -34.643  15.532  -2.661  1.00 20.00     0.013 C 
HETATM    7  C7  UNL     1     -34.720  17.099  -2.474  1.00 20.00     0.025 C 
HETATM    8  O12 UNL     1     -32.924  18.097  -3.985  1.00 20.00    -0.297 OA
ENDROOT
BRANCH   7   9
HETATM    9  C10 UNL     1     -34.386  17.550  -1.051  1.00 20.00     0.013 C 
HETATM   10  C8  UNL     1     -35.424  17.104  -0.076  1.00 20.00     0.006 C 
ENDBRANCH   7   9
BRANCH   7  11
HETATM   11  C11 UNL     1     -35.969  17.804  -2.992  1.00 20.00     0.013 C 
HETATM   12  C9  UNL     1     -35.957  19.263  -2.667  1.00 20.00     0.006 C 
ENDBRANCH   7  11
TORSDOF 2
ENDMDL
MODEL 8
REMARK VINA RESULT:      -4.1      1.716      3.732
REMARK  2 active torsions:
REMARK  status: ('A' for Active; 'I' for Inactive)
REMARK    1  A    between atoms: C7_7  and  C10_10 
REMARK    2  A    between atoms: C7_7  and  C11_11 
ROOT
HETATM    1  C1  UNL     1     -36.640  14.711  -4.184  1.00 20.00     0.140 C 
HETATM    2  C2  UNL     1     -37.325  16.725  -6.414  1.00 20.00     0.001 C 
HETATM    3  C3  UNL     1     -38.377  16.180  -5.458  1.00 20.00     0.013 C 
HETATM    4  C4  UNL     1     -36.442  17.588  -5.521  1.00 20.00     0.007 C 
HETATM    5  C5  UNL     1     -37.609  15.909  -4.174  1.00 20.00     0.061 C 
HETATM    6  C6  UNL     1     -36.368  16.845  -4.181  1.00 20.00     0.013 C 
HETATM    7  C7  UNL     1     -35.400  15.619  -3.950  1.00 20.00     0.025 C 
HETATM    8  O12 UNL     1     -36.794  13.515  -4.322  1.00 20.00    -0.297 OA
ENDROOT
BRANCH   7   9
HETATM    9  C10 UNL     1     -34.868  15.537  -2.518  1.00 20.00     0.013 C 
HETATM   10  C8  UNL     1     -34.098  16.760  -2.147  1.00 20.00     0.006 C 
ENDBRANCH   7   9
BRANCH   7  11
HETATM   11  C11 UNL     1     -34.278  15.414  -4.962  1.00 20.00     0.013 C 
HETATM   12  C9  UNL     1     -33.241  14.464  -4.455  1.00 20.00     0.006 C 
ENDBRANCH   7  11
TORSDOF 2
ENDMDL
MODEL 9
REMARK VINA RESULT:      -4.0      1.280      3.933
REMARK  2 active torsions:
REMARK  status: ('A' for Active; 'I' for Inactive)
REMARK    1  A    between atoms: C7_7  and  C10_10 
REMARK    2  A    between atoms: C7_7  and  C11_11 
ROOT
HETATM    1  C1  UNL     1     -35.878  16.947  -4.014  1.00 20.00     0.140 C 
HETATM    2  C2  UNL     1     -35.848  13.884  -4.354  1.00 20.00     0.001 C 
HETATM    3  C3  UNL     1     -36.004  14.833  -5.534  1.00 20.00     0.013 C 
HETATM    4  C4  UNL     1     -34.419  14.126  -3.887  1.00 20.00     0.007 C 
HETATM    5  C5  UNL     1     -35.240  16.079  -5.115  1.00 20.00     0.061 C 
HETATM    6  C6  UNL     1     -34.178  15.629  -4.073  1.00 20.00     0.013 C 
HETATM    7  C7  UNL     1     -34.697  16.701  -3.034  1.00 20.00     0.025 C 
HETATM    8  O12 UNL     1     -36.910  17.581  -3.946  1.00 20.00    -0.297 OA
ENDROOT
BRANCH   7   9
HETATM    9  C10 UNL     1     -33.769  17.911  -2.908  1.00 20.00     0.013 C 
HETATM   10  C8  UNL     1     -32.579  17.605  -2.062  1.00 20.00     0.006 C 
ENDBRANCH   7   9
BRANCH   7  11
HETATM   11  C11 UNL     1     -35.122  16.193  -1.661  1.00 20.00     0.013 C 
HETATM   12  C9  UNL     1     -35.600  17.305  -0.783  1.00 20.00     0.006 C 
ENDBRANCH   7  11
TORSDOF 2
ENDMDL
