MODEL 1
REMARK VINA RESULT:      -4.4      0.000      0.000
REMARK  0 active torsions:
REMARK  status: ('A' for Active; 'I' for Inactive)
ROOT
HETATM    1  C1  UNL     1     -25.429  16.936  12.291  1.00 20.00     0.006 C 
HETATM    2  C2  UNL     1     -24.597  18.157  11.864  1.00 20.00     0.038 C 
HETATM    3  C3  UNL     1     -24.355  16.050  11.635  1.00 20.00     0.038 C 
HETATM    4  C4  UNL     1     -23.264  19.263   8.994  1.00 20.00     0.046 C 
HETATM    5  C5  UNL     1     -22.463  17.404  10.524  1.00 20.00     0.058 C 
HETATM    6  C6  UNL     1     -24.574  18.524   8.727  1.00 20.00     0.170 C 
HETATM    7  C7  UNL     1     -22.123  18.307   9.330  1.00 20.00     0.087 C 
HETATM    8  C8  UNL     1     -23.976  17.267  10.738  1.00 20.00     0.062 C 
HETATM    9  O9  UNL     1     -24.667  17.306   9.465  1.00 20.00    -0.380 OA
HETATM   10 CL10 UNL     1     -21.727  17.305   7.892  1.00 20.00    -0.125 Cl
ENDROOT
TORSDOF 0
ENDMDL
MODEL 2
REMARK VINA RESULT:      -4.1     17.298     18.715
REMARK  0 active torsions:
REMARK  status: ('A' for Active; 'I' for Inactive)
ROOT
HETATM    1  C1  UNL     1     -32.966  16.653  -2.926  1.00 20.00     0.006 C 
HETATM    2  C2  UNL     1     -33.239  15.502  -3.910  1.00 20.00     0.038 C 
HETATM    3  C3  UNL     1     -34.295  16.299  -2.236  1.00 20.00     0.038 C 
HETATM    4  C4  UNL     1     -35.786  14.600  -5.893  1.00 20.00     0.046 C 
HETATM    5  C5  UNL     1     -35.547  14.356  -3.378  1.00 20.00     0.058 C 
HETATM    6  C6  UNL     1     -35.702  16.121  -5.788  1.00 20.00     0.170 C 
HETATM    7  C7  UNL     1     -36.353  13.967  -4.626  1.00 20.00     0.087 C 
HETATM    8  C8  UNL     1     -34.760  15.659  -3.579  1.00 20.00     0.062 C 
HETATM    9  O9  UNL     1     -35.493  16.559  -4.445  1.00 20.00    -0.380 OA
HETATM   10 CL10 UNL     1     -38.073  14.445  -4.423  1.00 20.00    -0.125 Cl
ENDROOT
TORSDOF 0
ENDMDL
MODEL 3
REMARK VINA RESULT:      -4.0     17.147     18.657
REMARK  0 active torsions:
REMARK  status: ('A' for Active; 'I' for Inactive)
ROOT
HETATM    1  C1  UNL     1     -35.587  14.737  -6.944  1.00 20.00     0.006 C 
HETATM    2  C2  UNL     1     -35.888  14.514  -5.452  1.00 20.00     0.038 C 
HETATM    3  C3  UNL     1     -34.148  15.101  -6.538  1.00 20.00     0.038 C 
HETATM    4  C4  UNL     1     -35.509  16.296  -2.638  1.00 20.00     0.046 C 
HETATM    5  C5  UNL     1     -33.766  15.040  -3.989  1.00 20.00     0.058 C 
HETATM    6  C6  UNL     1     -35.809  17.217  -3.820  1.00 20.00     0.170 C 
HETATM    7  C7  UNL     1     -34.079  15.766  -2.673  1.00 20.00     0.087 C 
HETATM    8  C8  UNL     1     -34.697  15.476  -5.128  1.00 20.00     0.062 C 
HETATM    9  O9  UNL     1     -35.051  16.873  -4.979  1.00 20.00    -0.380 OA
HETATM   10 CL10 UNL     1     -32.922  17.119  -2.425  1.00 20.00    -0.125 Cl
ENDROOT
TORSDOF 0
ENDMDL
MODEL 4
REMARK VINA RESULT:      -3.9     23.161     23.917
REMARK  0 active torsions:
REMARK  status: ('A' for Active; 'I' for Inactive)
ROOT
HETATM    1  C1  UNL     1     -43.417   4.257   1.003  1.00 20.00     0.006 C 
HETATM    2  C2  UNL     1     -43.417   5.114  -0.274  1.00 20.00     0.038 C 
HETATM    3  C3  UNL     1     -43.403   5.566   1.810  1.00 20.00     0.038 C 
HETATM    4  C4  UNL     1     -41.544   7.620  -1.478  1.00 20.00     0.046 C 
HETATM    5  C5  UNL     1     -43.328   7.673   0.326  1.00 20.00     0.058 C 
HETATM    6  C6  UNL     1     -40.689   6.661  -0.651  1.00 20.00     0.170 C 
HETATM    7  C7  UNL     1     -42.428   8.502  -0.602  1.00 20.00     0.087 C 
HETATM    8  C8  UNL     1     -42.772   6.263   0.567  1.00 20.00     0.062 C 
HETATM    9  O9  UNL     1     -41.323   6.290   0.572  1.00 20.00    -0.380 OA
HETATM   10 CL10 UNL     1     -41.405   9.618   0.366  1.00 20.00    -0.125 Cl
ENDROOT
TORSDOF 0
ENDMDL
MODEL 5
REMARK VINA RESULT:      -3.9     16.906     18.308
REMARK  0 active torsions:
REMARK  status: ('A' for Active; 'I' for Inactive)
ROOT
HETATM    1  C1  UNL     1     -34.838  16.582  -1.414  1.00 20.00     0.006 C 
HETATM    2  C2  UNL     1     -35.784  16.631  -2.626  1.00 20.00     0.038 C 
HETATM    3  C3  UNL     1     -33.662  16.643  -2.405  1.00 20.00     0.038 C 
HETATM    4  C4  UNL     1     -36.113  14.904  -5.480  1.00 20.00     0.046 C 
HETATM    5  C5  UNL     1     -34.414  16.688  -4.871  1.00 20.00     0.058 C 
HETATM    6  C6  UNL     1     -35.612  13.996  -4.359  1.00 20.00     0.170 C 
HETATM    7  C7  UNL     1     -35.021  15.837  -5.995  1.00 20.00     0.087 C 
HETATM    8  C8  UNL     1     -34.614  16.052  -3.488  1.00 20.00     0.062 C 
HETATM    9  O9  UNL     1     -34.576  14.607  -3.591  1.00 20.00    -0.380 OA
HETATM   10 CL10 UNL     1     -33.736  14.879  -6.807  1.00 20.00    -0.125 Cl
ENDROOT
TORSDOF 0
ENDMDL
MODEL 6
REMARK VINA RESULT:      -3.8     17.086     18.543
REMARK  0 active torsions:
REMARK  status: ('A' for Active; 'I' for Inactive)
ROOT
HETATM    1  C1  UNL     1     -33.674  16.798  -1.991  1.00 20.00     0.006 C 
HETATM    2  C2  UNL     1     -35.073  16.218  -2.261  1.00 20.00     0.038 C 
HETATM    3  C3  UNL     1     -33.590  17.133  -3.491  1.00 20.00     0.038 C 
HETATM    4  C4  UNL     1     -36.369  13.978  -4.392  1.00 20.00     0.046 C 
HETATM    5  C5  UNL     1     -35.668  16.380  -4.818  1.00 20.00     0.058 C 
HETATM    6  C6  UNL     1     -34.940  13.593  -4.013  1.00 20.00     0.170 C 
HETATM    7  C7  UNL     1     -36.408  15.151  -5.366  1.00 20.00     0.087 C 
HETATM    8  C8  UNL     1     -34.634  16.005  -3.747  1.00 20.00     0.062 C 
HETATM    9  O9  UNL     1     -34.053  14.711  -4.043  1.00 20.00    -0.380 OA
HETATM   10 CL10 UNL     1     -35.700  14.657  -6.942  1.00 20.00    -0.125 Cl
ENDROOT
TORSDOF 0
ENDMDL
MODEL 7
REMARK VINA RESULT:      -3.8     23.433     24.290
REMARK  0 active torsions:
REMARK  status: ('A' for Active; 'I' for Inactive)
ROOT
HETATM    1  C1  UNL     1     -41.544   9.059   0.529  1.00 20.00     0.006 C 
HETATM    2  C2  UNL     1     -42.800   8.171   0.548  1.00 20.00     0.038 C 
HETATM    3  C3  UNL     1     -41.167   8.395  -0.806  1.00 20.00     0.038 C 
HETATM    4  C4  UNL     1     -43.417   4.889   0.258  1.00 20.00     0.046 C 
HETATM    5  C5  UNL     1     -42.841   6.579  -1.546  1.00 20.00     0.058 C 
HETATM    6  C6  UNL     1     -42.077   5.123   0.952  1.00 20.00     0.170 C 
HETATM    7  C7  UNL     1     -43.342   5.160  -1.242  1.00 20.00     0.087 C 
HETATM    8  C8  UNL     1     -42.035   7.172  -0.382  1.00 20.00     0.062 C 
HETATM    9  O9  UNL     1     -41.300   6.128   0.301  1.00 20.00    -0.380 OA
HETATM   10 CL10 UNL     1     -42.273   3.947  -2.026  1.00 20.00    -0.125 Cl
ENDROOT
TORSDOF 0
ENDMDL
MODEL 8
REMARK VINA RESULT:      -3.7     17.728     19.308
REMARK  0 active torsions:
REMARK  status: ('A' for Active; 'I' for Inactive)
ROOT
HETATM    1  C1  UNL     1     -34.589  16.168  -7.838  1.00 20.00     0.006 C 
HETATM    2  C2  UNL     1     -34.000  15.133  -6.864  1.00 20.00     0.038 C 
HETATM    3  C3  UNL     1     -34.623  17.163  -6.665  1.00 20.00     0.038 C 
HETATM    4  C4  UNL     1     -34.853  13.912  -3.861  1.00 20.00     0.046 C 
HETATM    5  C5  UNL     1     -33.799  16.145  -4.445  1.00 20.00     0.058 C 
HETATM    6  C6  UNL     1     -36.101  14.250  -4.676  1.00 20.00     0.170 C 
HETATM    7  C7  UNL     1     -34.163  15.162  -3.323  1.00 20.00     0.087 C 
HETATM    8  C8  UNL     1     -34.660  15.941  -5.699  1.00 20.00     0.062 C 
HETATM    9  O9  UNL     1     -35.994  15.516  -5.326  1.00 20.00    -0.380 OA
HETATM   10 CL10 UNL     1     -35.219  15.969  -2.114  1.00 20.00    -0.125 Cl
ENDROOT
TORSDOF 0
ENDMDL
MODEL 9
REMARK VINA RESULT:      -3.7     16.639     18.081
REMARK  0 active torsions:
REMARK  status: ('A' for Active; 'I' for Inactive)
ROOT
HETATM    1  C1  UNL     1     -36.168  13.651  -4.496  1.00 20.00     0.006 C 
HETATM    2  C2  UNL     1     -34.779  14.094  -4.005  1.00 20.00     0.038 C 
HETATM    3  C3  UNL     1     -36.308  15.032  -5.159  1.00 20.00     0.038 C 
HETATM    4  C4  UNL     1     -33.562  16.721  -2.315  1.00 20.00     0.046 C 
HETATM    5  C5  UNL     1     -34.281  16.569  -4.744  1.00 20.00     0.058 C 
HETATM    6  C6  UNL     1     -34.976  16.387  -1.841  1.00 20.00     0.170 C 
HETATM    7  C7  UNL     1     -33.560  17.407  -3.677  1.00 20.00     0.087 C 
HETATM    8  C8  UNL     1     -35.273  15.573  -4.128  1.00 20.00     0.062 C 
HETATM    9  O9  UNL     1     -35.864  16.132  -2.929  1.00 20.00    -0.380 OA
HETATM   10 CL10 UNL     1     -34.327  19.027  -3.544  1.00 20.00    -0.125 Cl
ENDROOT
TORSDOF 0
ENDMDL
