MODEL 1
REMARK VINA RESULT:      -4.6      0.000      0.000
REMARK  2 active torsions:
REMARK  status: ('A' for Active; 'I' for Inactive)
REMARK    1  A    between atoms: C2_2  and  C6_6 
REMARK    2  A    between atoms: C7_7  and  C10_10 
ROOT
HETATM    1  C1  UNL     1     -32.184  18.092  -1.006  1.00 20.00     0.022 A 
HETATM    2  C2  UNL     1     -33.537  17.701  -1.221  1.00 20.00    -0.040 A 
HETATM    3  C3  UNL     1     -31.976  18.551   0.275  1.00 20.00    -0.020 A 
HETATM    4  C4  UNL     1     -34.311  17.876  -0.094  1.00 20.00    -0.014 A 
HETATM    5  C8  UNL     1     -30.721  19.045   0.883  1.00 20.00     0.056 C 
HETATM    6  C9  UNL     1     -35.752  17.593   0.097  1.00 20.00     0.057 C 
HETATM    7  S11 UNL     1     -33.407  18.509   1.214  1.00 20.00    -0.100 SA
ENDROOT
BRANCH   2   8
HETATM    8  C6  UNL     1     -34.051  17.159  -2.534  1.00 20.00     0.025 A 
HETATM    9  C5  UNL     1     -33.208  16.200  -3.347  1.00 20.00     0.016 A 
HETATM   10  C7  UNL     1     -34.439  15.699  -2.650  1.00 20.00     0.008 A 
BRANCH  10  11
HETATM   11  C10 UNL     1     -35.638  15.305  -3.441  1.00 20.00     0.119 C 
HETATM   12 CL12 UNL     1     -35.451  13.669  -4.130  1.00 20.00    -0.130 Cl
ENDBRANCH  10  11
ENDBRANCH   2   8
TORSDOF 2
ENDMDL
MODEL 2
REMARK VINA RESULT:      -4.5      3.185      5.165
REMARK  2 active torsions:
REMARK  status: ('A' for Active; 'I' for Inactive)
REMARK    1  A    between atoms: C2_2  and  C6_6 
REMARK    2  A    between atoms: C7_7  and  C10_10 
ROOT
HETATM    1  C1  UNL     1     -35.176  16.082  -1.943  1.00 20.00     0.022 A 
HETATM    2  C2  UNL     1     -34.431  17.166  -1.396  1.00 20.00    -0.040 A 
HETATM    3  C3  UNL     1     -34.523  15.487  -2.999  1.00 20.00    -0.020 A 
HETATM    4  C4  UNL     1     -33.236  17.356  -2.054  1.00 20.00    -0.014 A 
HETATM    5  C8  UNL     1     -34.964  14.342  -3.825  1.00 20.00     0.056 C 
HETATM    6  C9  UNL     1     -32.183  18.366  -1.798  1.00 20.00     0.057 C 
HETATM    7  S11 UNL     1     -33.017  16.232  -3.327  1.00 20.00    -0.100 SA
ENDROOT
BRANCH   2   8
HETATM    8  C6  UNL     1     -34.905  18.001  -0.229  1.00 20.00     0.025 A 
HETATM    9  C5  UNL     1     -36.184  17.643   0.496  1.00 20.00     0.016 A 
HETATM   10  C7  UNL     1     -34.862  17.433   1.175  1.00 20.00     0.008 A 
BRANCH  10  11
HETATM   11  C10 UNL     1     -34.463  18.299   2.319  1.00 20.00     0.119 C 
HETATM   12 CL12 UNL     1     -32.892  17.790   2.999  1.00 20.00    -0.130 Cl
ENDBRANCH  10  11
ENDBRANCH   2   8
TORSDOF 2
ENDMDL
MODEL 3
REMARK VINA RESULT:      -4.4      1.684      2.210
REMARK  2 active torsions:
REMARK  status: ('A' for Active; 'I' for Inactive)
REMARK    1  A    between atoms: C2_2  and  C6_6 
REMARK    2  A    between atoms: C7_7  and  C10_10 
ROOT
HETATM    1  C1  UNL     1     -32.869  16.929  -2.508  1.00 20.00     0.022 A 
HETATM    2  C2  UNL     1     -34.189  16.684  -2.984  1.00 20.00    -0.040 A 
HETATM    3  C3  UNL     1     -32.849  17.851  -1.486  1.00 20.00    -0.020 A 
HETATM    4  C4  UNL     1     -35.129  17.429  -2.306  1.00 20.00    -0.014 A 
HETATM    5  C8  UNL     1     -31.685  18.368  -0.735  1.00 20.00     0.056 C 
HETATM    6  C9  UNL     1     -36.597  17.467  -2.493  1.00 20.00     0.057 C 
HETATM    7  S11 UNL     1     -34.419  18.419  -1.103  1.00 20.00    -0.100 SA
ENDROOT
BRANCH   2   8
HETATM    8  C6  UNL     1     -34.509  15.719  -4.101  1.00 20.00     0.025 A 
HETATM    9  C5  UNL     1     -33.642  14.499  -4.328  1.00 20.00     0.016 A 
HETATM   10  C7  UNL     1     -35.028  14.332  -3.777  1.00 20.00     0.008 A 
BRANCH  10  11
HETATM   11  C10 UNL     1     -36.097  13.720  -4.615  1.00 20.00     0.119 C 
HETATM   12 CL12 UNL     1     -37.695  14.424  -4.241  1.00 20.00    -0.130 Cl
ENDBRANCH  10  11
ENDBRANCH   2   8
TORSDOF 2
ENDMDL
MODEL 4
REMARK VINA RESULT:      -4.3      2.554      3.465
REMARK  2 active torsions:
REMARK  status: ('A' for Active; 'I' for Inactive)
REMARK    1  A    between atoms: C2_2  and  C6_6 
REMARK    2  A    between atoms: C7_7  and  C10_10 
ROOT
HETATM    1  C1  UNL     1     -34.955  16.210  -1.605  1.00 20.00     0.022 A 
HETATM    2  C2  UNL     1     -34.138  16.493  -2.737  1.00 20.00    -0.040 A 
HETATM    3  C3  UNL     1     -35.124  17.313  -0.799  1.00 20.00    -0.020 A 
HETATM    4  C4  UNL     1     -33.715  17.804  -2.754  1.00 20.00    -0.014 A 
HETATM    5  C8  UNL     1     -35.894  17.425   0.459  1.00 20.00     0.056 C 
HETATM    6  C9  UNL     1     -32.860  18.492  -3.748  1.00 20.00     0.057 C 
HETATM    7  S11 UNL     1     -34.300  18.685  -1.408  1.00 20.00    -0.100 SA
ENDROOT
BRANCH   2   8
HETATM    8  C6  UNL     1     -33.786  15.469  -3.791  1.00 20.00     0.025 A 
HETATM    9  C5  UNL     1     -34.604  14.203  -3.929  1.00 20.00     0.016 A 
HETATM   10  C7  UNL     1     -34.697  15.266  -4.984  1.00 20.00     0.008 A 
BRANCH  10  11
HETATM   11  C10 UNL     1     -34.117  15.032  -6.336  1.00 20.00     0.119 C 
HETATM   12 CL12 UNL     1     -34.213  16.501  -7.345  1.00 20.00    -0.130 Cl
ENDBRANCH  10  11
ENDBRANCH   2   8
TORSDOF 2
ENDMDL
MODEL 5
REMARK VINA RESULT:      -4.2      1.061      2.441
REMARK  2 active torsions:
REMARK  status: ('A' for Active; 'I' for Inactive)
REMARK    1  A    between atoms: C2_2  and  C6_6 
REMARK    2  A    between atoms: C7_7  and  C10_10 
ROOT
HETATM    1  C1  UNL     1     -35.425  17.451  -0.079  1.00 20.00     0.022 A 
HETATM    2  C2  UNL     1     -34.406  17.499  -1.073  1.00 20.00    -0.040 A 
HETATM    3  C3  UNL     1     -35.018  18.020   1.107  1.00 20.00    -0.020 A 
HETATM    4  C4  UNL     1     -33.259  18.104  -0.609  1.00 20.00    -0.014 A 
HETATM    5  C8  UNL     1     -35.779  18.163   2.368  1.00 20.00     0.056 C 
HETATM    6  C9  UNL     1     -31.983  18.350  -1.320  1.00 20.00     0.057 C 
HETATM    7  S11 UNL     1     -33.413  18.609   1.020  1.00 20.00    -0.100 SA
ENDROOT
BRANCH   2   8
HETATM    8  C6  UNL     1     -34.575  16.950  -2.470  1.00 20.00     0.025 A 
HETATM    9  C5  UNL     1     -33.672  15.843  -2.970  1.00 20.00     0.016 A 
HETATM   10  C7  UNL     1     -35.112  15.548  -2.672  1.00 20.00     0.008 A 
BRANCH  10  11
HETATM   11  C10 UNL     1     -36.064  15.265  -3.783  1.00 20.00     0.119 C 
HETATM   12 CL12 UNL     1     -35.900  13.585  -4.364  1.00 20.00    -0.130 Cl
ENDBRANCH  10  11
ENDBRANCH   2   8
TORSDOF 2
ENDMDL
MODEL 6
REMARK VINA RESULT:      -4.2      3.799      5.820
REMARK  2 active torsions:
REMARK  status: ('A' for Active; 'I' for Inactive)
REMARK    1  A    between atoms: C2_2  and  C6_6 
REMARK    2  A    between atoms: C7_7  and  C10_10 
ROOT
HETATM    1  C1  UNL     1     -33.793  15.392  -5.319  1.00 20.00     0.022 A 
HETATM    2  C2  UNL     1     -34.772  15.255  -4.292  1.00 20.00    -0.040 A 
HETATM    3  C3  UNL     1     -34.297  15.074  -6.560  1.00 20.00    -0.020 A 
HETATM    4  C4  UNL     1     -35.987  14.838  -4.789  1.00 20.00    -0.014 A 
HETATM    5  C8  UNL     1     -33.603  15.089  -7.866  1.00 20.00     0.056 C 
HETATM    6  C9  UNL     1     -37.250  14.579  -4.061  1.00 20.00     0.057 C 
HETATM    7  S11 UNL     1     -35.944  14.613  -6.486  1.00 20.00    -0.100 SA
ENDROOT
BRANCH   2   8
HETATM    8  C6  UNL     1     -34.498  15.538  -2.834  1.00 20.00     0.025 A 
HETATM    9  C5  UNL     1     -33.422  16.526  -2.436  1.00 20.00     0.016 A 
HETATM   10  C7  UNL     1     -34.866  16.883  -2.241  1.00 20.00     0.008 A 
BRANCH  10  11
HETATM   11  C10 UNL     1     -35.439  16.963  -0.869  1.00 20.00     0.119 C 
HETATM   12 CL12 UNL     1     -34.342  17.831   0.241  1.00 20.00    -0.130 Cl
ENDBRANCH  10  11
ENDBRANCH   2   8
TORSDOF 2
ENDMDL
MODEL 7
REMARK VINA RESULT:      -4.1      2.243      3.039
REMARK  2 active torsions:
REMARK  status: ('A' for Active; 'I' for Inactive)
REMARK    1  A    between atoms: C2_2  and  C6_6 
REMARK    2  A    between atoms: C7_7  and  C10_10 
ROOT
HETATM    1  C1  UNL     1     -32.901  16.772  -2.683  1.00 20.00     0.022 A 
HETATM    2  C2  UNL     1     -33.791  16.826  -3.794  1.00 20.00    -0.040 A 
HETATM    3  C3  UNL     1     -32.684  18.016  -2.134  1.00 20.00    -0.020 A 
HETATM    4  C4  UNL     1     -34.221  18.109  -4.051  1.00 20.00    -0.014 A 
HETATM    5  C8  UNL     1     -31.831  18.377  -0.981  1.00 20.00     0.056 C 
HETATM    6  C9  UNL     1     -35.142  18.587  -5.107  1.00 20.00     0.057 C 
HETATM    7  S11 UNL     1     -33.551  19.242  -2.957  1.00 20.00    -0.100 SA
ENDROOT
BRANCH   2   8
HETATM    8  C6  UNL     1     -34.209  15.611  -4.589  1.00 20.00     0.025 A 
HETATM    9  C5  UNL     1     -33.570  14.266  -4.320  1.00 20.00     0.016 A 
HETATM   10  C7  UNL     1     -34.996  14.502  -3.920  1.00 20.00     0.008 A 
BRANCH  10  11
HETATM   11  C10 UNL     1     -36.101  13.824  -4.653  1.00 20.00     0.119 C 
HETATM   12 CL12 UNL     1     -37.688  14.519  -4.219  1.00 20.00    -0.130 Cl
ENDBRANCH  10  11
ENDBRANCH   2   8
TORSDOF 2
ENDMDL
MODEL 8
REMARK VINA RESULT:      -4.0      3.309      5.702
REMARK  2 active torsions:
REMARK  status: ('A' for Active; 'I' for Inactive)
REMARK    1  A    between atoms: C2_2  and  C6_6 
REMARK    2  A    between atoms: C7_7  and  C10_10 
ROOT
HETATM    1  C1  UNL     1     -36.256  15.739  -3.079  1.00 20.00     0.022 A 
HETATM    2  C2  UNL     1     -34.838  15.614  -3.135  1.00 20.00    -0.040 A 
HETATM    3  C3  UNL     1     -36.880  14.983  -4.046  1.00 20.00    -0.020 A 
HETATM    4  C4  UNL     1     -34.433  14.766  -4.143  1.00 20.00    -0.014 A 
HETATM    5  C8  UNL     1     -38.329  14.847  -4.315  1.00 20.00     0.056 C 
HETATM    6  C9  UNL     1     -33.059  14.371  -4.530  1.00 20.00     0.057 C 
HETATM    7  S11 UNL     1     -35.759  14.127  -5.016  1.00 20.00    -0.100 SA
ENDROOT
BRANCH   2   8
HETATM    8  C6  UNL     1     -33.898  16.330  -2.194  1.00 20.00     0.025 A 
HETATM    9  C5  UNL     1     -33.120  17.540  -2.665  1.00 20.00     0.016 A 
HETATM   10  C7  UNL     1     -34.244  17.716  -1.688  1.00 20.00     0.008 A 
BRANCH  10  11
HETATM   11  C10 UNL     1     -33.957  18.089  -0.275  1.00 20.00     0.119 C 
HETATM   12 CL12 UNL     1     -35.172  17.401   0.837  1.00 20.00    -0.130 Cl
ENDBRANCH  10  11
ENDBRANCH   2   8
TORSDOF 2
ENDMDL
MODEL 9
REMARK VINA RESULT:      -4.0      3.422      5.616
REMARK  2 active torsions:
REMARK  status: ('A' for Active; 'I' for Inactive)
REMARK    1  A    between atoms: C2_2  and  C6_6 
REMARK    2  A    between atoms: C7_7  and  C10_10 
ROOT
HETATM    1  C1  UNL     1     -36.697  16.990  -3.013  1.00 20.00     0.022 A 
HETATM    2  C2  UNL     1     -35.610  16.070  -2.957  1.00 20.00    -0.040 A 
HETATM    3  C3  UNL     1     -37.713  16.540  -3.825  1.00 20.00    -0.020 A 
HETATM    4  C4  UNL     1     -35.838  14.952  -3.729  1.00 20.00    -0.014 A 
HETATM    5  C8  UNL     1     -38.999  17.200  -4.142  1.00 20.00     0.056 C 
HETATM    6  C9  UNL     1     -34.967  13.773  -3.939  1.00 20.00     0.057 C 
HETATM    7  S11 UNL     1     -37.357  15.015  -4.517  1.00 20.00    -0.100 SA
ENDROOT
BRANCH   2   8
HETATM    8  C6  UNL     1     -34.359  16.304  -2.143  1.00 20.00     0.025 A 
HETATM    9  C5  UNL     1     -33.053  16.642  -2.829  1.00 20.00     0.016 A 
HETATM   10  C7  UNL     1     -33.771  17.696  -2.040  1.00 20.00     0.008 A 
BRANCH  10  11
HETATM   11  C10 UNL     1     -33.210  18.177  -0.747  1.00 20.00     0.119 C 
HETATM   12 CL12 UNL     1     -31.425  18.212  -0.789  1.00 20.00    -0.130 Cl
ENDBRANCH  10  11
ENDBRANCH   2   8
TORSDOF 2
ENDMDL
