MODEL 1
REMARK VINA RESULT:      -4.3      0.000      0.000
REMARK  2 active torsions:
REMARK  status: ('A' for Active; 'I' for Inactive)
REMARK    1  A    between atoms: C4_4  and  C6_6 
REMARK    2  A    between atoms: C7_7  and  C8_8 
ROOT
HETATM    1  C1  UNL     1     -36.898  15.789  -4.673  1.00 20.00     0.034 A 
HETATM    2  C2  UNL     1     -37.978  14.965  -4.467  1.00 20.00     0.142 A 
HETATM    3  C3  UNL     1     -36.236  13.662  -4.581  1.00 20.00     0.148 A 
HETATM    4  C4  UNL     1     -35.765  14.943  -4.748  1.00 20.00    -0.029 A 
HETATM    5  O9  UNL     1     -37.584  13.667  -4.408  1.00 20.00    -0.334 OA
ENDROOT
BRANCH   4   6
HETATM    6  C6  UNL     1     -34.303  15.367  -4.973  1.00 20.00     0.026 A 
HETATM    7  C5  UNL     1     -33.206  14.528  -4.355  1.00 20.00     0.016 A 
HETATM    8  C7  UNL     1     -33.472  15.905  -3.824  1.00 20.00     0.005 A 
BRANCH   8   9
HETATM    9  C8  UNL     1     -34.023  16.083  -2.450  1.00 20.00     0.090 C 
HETATM   10 BR10 UNL     1     -33.304  17.702  -1.631  1.00 20.00    -0.096 Br
ENDBRANCH   8   9
ENDBRANCH   4   6
TORSDOF 2
ENDMDL
MODEL 2
REMARK VINA RESULT:      -4.0      2.171      2.906
REMARK  2 active torsions:
REMARK  status: ('A' for Active; 'I' for Inactive)
REMARK    1  A    between atoms: C4_4  and  C6_6 
REMARK    2  A    between atoms: C7_7  and  C8_8 
ROOT
HETATM    1  C1  UNL     1     -35.004  16.073  -5.004  1.00 20.00     0.034 A 
HETATM    2  C2  UNL     1     -34.416  15.399  -6.048  1.00 20.00     0.142 A 
HETATM    3  C3  UNL     1     -33.686  14.449  -4.228  1.00 20.00     0.148 A 
HETATM    4  C4  UNL     1     -34.530  15.456  -3.821  1.00 20.00    -0.029 A 
HETATM    5  O9  UNL     1     -33.612  14.408  -5.584  1.00 20.00    -0.334 OA
ENDROOT
BRANCH   4   6
HETATM    6  C6  UNL     1     -34.883  15.835  -2.372  1.00 20.00     0.026 A 
HETATM    7  C5  UNL     1     -35.490  17.196  -2.111  1.00 20.00     0.016 A 
HETATM    8  C7  UNL     1     -34.095  16.906  -1.642  1.00 20.00     0.005 A 
BRANCH   8   9
HETATM    9  C8  UNL     1     -32.936  17.611  -2.261  1.00 20.00     0.090 C 
HETATM   10 BR10 UNL     1     -31.803  18.399  -0.882  1.00 20.00    -0.096 Br
ENDBRANCH   8   9
ENDBRANCH   4   6
TORSDOF 2
ENDMDL
MODEL 3
REMARK VINA RESULT:      -3.9      1.731      2.421
REMARK  2 active torsions:
REMARK  status: ('A' for Active; 'I' for Inactive)
REMARK    1  A    between atoms: C4_4  and  C6_6 
REMARK    2  A    between atoms: C7_7  and  C8_8 
ROOT
HETATM    1  C1  UNL     1     -35.564  14.612  -3.795  1.00 20.00     0.034 A 
HETATM    2  C2  UNL     1     -36.121  14.018  -4.903  1.00 20.00     0.142 A 
HETATM    3  C3  UNL     1     -34.183  14.785  -5.538  1.00 20.00     0.148 A 
HETATM    4  C4  UNL     1     -34.305  15.111  -4.208  1.00 20.00    -0.029 A 
HETATM    5  O9  UNL     1     -35.286  14.119  -5.969  1.00 20.00    -0.334 OA
ENDROOT
BRANCH   4   6
HETATM    6  C6  UNL     1     -33.280  15.868  -3.344  1.00 20.00     0.026 A 
HETATM    7  C5  UNL     1     -33.785  16.682  -2.173  1.00 20.00     0.016 A 
HETATM    8  C7  UNL     1     -33.218  17.383  -3.372  1.00 20.00     0.005 A 
BRANCH   8   9
HETATM    9  C8  UNL     1     -34.104  18.206  -4.244  1.00 20.00     0.090 C 
HETATM   10 BR10 UNL     1     -35.687  18.782  -3.260  1.00 20.00    -0.096 Br
ENDBRANCH   8   9
ENDBRANCH   4   6
TORSDOF 2
ENDMDL
MODEL 4
REMARK VINA RESULT:      -3.9     11.295     12.724
REMARK  2 active torsions:
REMARK  status: ('A' for Active; 'I' for Inactive)
REMARK    1  A    between atoms: C4_4  and  C6_6 
REMARK    2  A    between atoms: C7_7  and  C8_8 
ROOT
HETATM    1  C1  UNL     1     -41.345   7.866   0.707  1.00 20.00     0.034 A 
HETATM    2  C2  UNL     1     -41.274   9.158   0.243  1.00 20.00     0.142 A 
HETATM    3  C3  UNL     1     -43.386   8.623   0.223  1.00 20.00     0.148 A 
HETATM    4  C4  UNL     1     -42.718   7.518   0.694  1.00 20.00    -0.029 A 
HETATM    5  O9  UNL     1     -42.514   9.628  -0.054  1.00 20.00    -0.334 OA
ENDROOT
BRANCH   4   6
HETATM    6  C6  UNL     1     -43.338   6.175   1.118  1.00 20.00     0.026 A 
HETATM    7  C5  UNL     1     -42.426   4.977   1.273  1.00 20.00     0.016 A 
HETATM    8  C7  UNL     1     -43.409   5.017   0.141  1.00 20.00     0.005 A 
BRANCH   8   9
HETATM    9  C8  UNL     1     -42.926   5.123  -1.265  1.00 20.00     0.090 C 
HETATM   10 BR10 UNL     1     -43.403   3.522  -2.273  1.00 20.00    -0.096 Br
ENDBRANCH   8   9
ENDBRANCH   4   6
TORSDOF 2
ENDMDL
MODEL 5
REMARK VINA RESULT:      -3.9     11.742     12.417
REMARK  2 active torsions:
REMARK  status: ('A' for Active; 'I' for Inactive)
REMARK    1  A    between atoms: C4_4  and  C6_6 
REMARK    2  A    between atoms: C7_7  and  C8_8 
ROOT
HETATM    1  C1  UNL     1     -33.700   6.847   4.840  1.00 20.00     0.034 A 
HETATM    2  C2  UNL     1     -34.082   6.865   6.161  1.00 20.00     0.142 A 
HETATM    3  C3  UNL     1     -34.950   5.060   5.304  1.00 20.00     0.148 A 
HETATM    4  C4  UNL     1     -34.264   5.674   4.283  1.00 20.00    -0.029 A 
HETATM    5  O9  UNL     1     -34.843   5.779   6.452  1.00 20.00    -0.334 OA
ENDROOT
BRANCH   4   6
HETATM    6  C6  UNL     1     -34.138   5.185   2.829  1.00 20.00     0.026 A 
HETATM    7  C5  UNL     1     -32.828   4.571   2.387  1.00 20.00     0.016 A 
HETATM    8  C7  UNL     1     -33.236   5.910   1.848  1.00 20.00     0.005 A 
BRANCH   8   9
HETATM    9  C8  UNL     1     -32.466   7.131   2.219  1.00 20.00     0.090 C 
HETATM   10 BR10 UNL     1     -32.708   8.524   0.874  1.00 20.00    -0.096 Br
ENDBRANCH   8   9
ENDBRANCH   4   6
TORSDOF 2
ENDMDL
MODEL 6
REMARK VINA RESULT:      -3.9     17.361     18.389
REMARK  2 active torsions:
REMARK  status: ('A' for Active; 'I' for Inactive)
REMARK    1  A    between atoms: C4_4  and  C6_6 
REMARK    2  A    between atoms: C7_7  and  C8_8 
ROOT
HETATM    1  C1  UNL     1     -24.449  15.913  10.662  1.00 20.00     0.034 A 
HETATM    2  C2  UNL     1     -24.944  16.261  11.897  1.00 20.00     0.142 A 
HETATM    3  C3  UNL     1     -23.516  17.816  11.357  1.00 20.00     0.148 A 
HETATM    4  C4  UNL     1     -23.521  16.923  10.311  1.00 20.00    -0.029 A 
HETATM    5  O9  UNL     1     -24.382  17.419  12.327  1.00 20.00    -0.334 OA
ENDROOT
BRANCH   4   6
HETATM    6  C6  UNL     1     -22.684  17.006   9.022  1.00 20.00     0.026 A 
HETATM    7  C5  UNL     1     -21.700  18.146   8.875  1.00 20.00     0.016 A 
HETATM    8  C7  UNL     1     -22.928  18.113   8.016  1.00 20.00     0.005 A 
BRANCH   8   9
HETATM    9  C8  UNL     1     -23.994  19.140   8.196  1.00 20.00     0.090 C 
HETATM   10 BR10 UNL     1     -25.203  19.144   6.664  1.00 20.00    -0.096 Br
ENDBRANCH   8   9
ENDBRANCH   4   6
TORSDOF 2
ENDMDL
MODEL 7
REMARK VINA RESULT:      -3.9      1.545      2.064
REMARK  2 active torsions:
REMARK  status: ('A' for Active; 'I' for Inactive)
REMARK    1  A    between atoms: C4_4  and  C6_6 
REMARK    2  A    between atoms: C7_7  and  C8_8 
ROOT
HETATM    1  C1  UNL     1     -36.241  15.050  -4.474  1.00 20.00     0.034 A 
HETATM    2  C2  UNL     1     -36.382  13.690  -4.619  1.00 20.00     0.142 A 
HETATM    3  C3  UNL     1     -34.353  14.014  -3.894  1.00 20.00     0.148 A 
HETATM    4  C4  UNL     1     -34.922  15.261  -4.003  1.00 20.00    -0.029 A 
HETATM    5  O9  UNL     1     -35.237  13.051  -4.267  1.00 20.00    -0.334 OA
ENDROOT
BRANCH   4   6
HETATM    6  C6  UNL     1     -34.257  16.611  -3.681  1.00 20.00     0.026 A 
HETATM    7  C5  UNL     1     -33.100  16.628  -2.706  1.00 20.00     0.016 A 
HETATM    8  C7  UNL     1     -34.412  17.236  -2.307  1.00 20.00     0.005 A 
BRANCH   8   9
HETATM    9  C8  UNL     1     -35.229  16.610  -1.229  1.00 20.00     0.090 C 
HETATM   10 BR10 UNL     1     -35.103  17.655   0.415  1.00 20.00    -0.096 Br
ENDBRANCH   8   9
ENDBRANCH   4   6
TORSDOF 2
ENDMDL
MODEL 8
REMARK VINA RESULT:      -3.9      3.135      4.140
REMARK  2 active torsions:
REMARK  status: ('A' for Active; 'I' for Inactive)
REMARK    1  A    between atoms: C4_4  and  C6_6 
REMARK    2  A    between atoms: C7_7  and  C8_8 
ROOT
HETATM    1  C1  UNL     1     -33.088  16.817  -2.524  1.00 20.00     0.034 A 
HETATM    2  C2  UNL     1     -33.424  17.740  -1.561  1.00 20.00     0.142 A 
HETATM    3  C3  UNL     1     -35.127  16.392  -1.728  1.00 20.00     0.148 A 
HETATM    4  C4  UNL     1     -34.195  15.942  -2.633  1.00 20.00    -0.029 A 
HETATM    5  O9  UNL     1     -34.665  17.487  -1.070  1.00 20.00    -0.334 OA
ENDROOT
BRANCH   4   6
HETATM    6  C6  UNL     1     -34.331  14.732  -3.574  1.00 20.00     0.026 A 
HETATM    7  C5  UNL     1     -33.243  14.490  -4.598  1.00 20.00     0.016 A 
HETATM    8  C7  UNL     1     -34.602  14.933  -5.053  1.00 20.00     0.005 A 
BRANCH   8   9
HETATM    9  C8  UNL     1     -34.785  16.283  -5.658  1.00 20.00     0.090 C 
HETATM   10 BR10 UNL     1     -34.330  16.246  -7.556  1.00 20.00    -0.096 Br
ENDBRANCH   8   9
ENDBRANCH   4   6
TORSDOF 2
ENDMDL
MODEL 9
REMARK VINA RESULT:      -3.8      3.024      4.036
REMARK  2 active torsions:
REMARK  status: ('A' for Active; 'I' for Inactive)
REMARK    1  A    between atoms: C4_4  and  C6_6 
REMARK    2  A    between atoms: C7_7  and  C8_8 
ROOT
HETATM    1  C1  UNL     1     -35.131  16.258  -1.756  1.00 20.00     0.034 A 
HETATM    2  C2  UNL     1     -34.575  17.349  -1.129  1.00 20.00     0.142 A 
HETATM    3  C3  UNL     1     -33.118  16.696  -2.612  1.00 20.00     0.148 A 
HETATM    4  C4  UNL     1     -34.184  15.834  -2.719  1.00 20.00    -0.029 A 
HETATM    5  O9  UNL     1     -33.349  17.623  -1.645  1.00 20.00    -0.334 OA
ENDROOT
BRANCH   4   6
HETATM    6  C6  UNL     1     -34.317  14.647  -3.690  1.00 20.00     0.026 A 
HETATM    7  C5  UNL     1     -33.481  14.652  -4.952  1.00 20.00     0.016 A 
HETATM    8  C7  UNL     1     -34.967  14.832  -5.048  1.00 20.00     0.005 A 
BRANCH   8   9
HETATM    9  C8  UNL     1     -35.534  16.137  -5.495  1.00 20.00     0.090 C 
HETATM   10 BR10 UNL     1     -37.459  16.187  -5.179  1.00 20.00    -0.096 Br
ENDBRANCH   8   9
ENDBRANCH   4   6
TORSDOF 2
ENDMDL
