MODEL 1
REMARK VINA RESULT:      -4.5      0.000      0.000
REMARK  2 active torsions:
REMARK  status: ('A' for Active; 'I' for Inactive)
REMARK    1  A    between atoms: C2_2  and  C6_6 
REMARK    2  A    between atoms: C7_7  and  C10_10 
ROOT
HETATM    1  C1  UNL     1     -35.170  16.120  -1.890  1.00 20.00     0.022 A 
HETATM    2  C2  UNL     1     -34.418  17.201  -1.346  1.00 20.00    -0.040 A 
HETATM    3  C3  UNL     1     -34.535  15.537  -2.963  1.00 20.00    -0.020 A 
HETATM    4  C4  UNL     1     -33.237  17.403  -2.025  1.00 20.00    -0.014 A 
HETATM    5  C8  UNL     1     -34.986  14.398  -3.794  1.00 20.00     0.056 C 
HETATM    6  C9  UNL     1     -32.184  18.413  -1.777  1.00 20.00     0.057 C 
HETATM    7  S11 UNL     1     -33.038  16.292  -3.312  1.00 20.00    -0.100 SA
ENDROOT
BRANCH   2   8
HETATM    8  C6  UNL     1     -34.874  18.024  -0.163  1.00 20.00     0.025 A 
HETATM    9  C5  UNL     1     -35.886  17.461   0.812  1.00 20.00     0.016 A 
HETATM   10  C7  UNL     1     -34.458  17.626   1.239  1.00 20.00     0.004 A 
BRANCH  10  11
HETATM   11  C10 UNL     1     -34.090  18.673   2.233  1.00 20.00     0.090 C 
HETATM   12 BR12 UNL     1     -32.568  18.089   3.308  1.00 20.00    -0.096 Br
ENDBRANCH  10  11
ENDBRANCH   2   8
TORSDOF 2
ENDMDL
MODEL 2
REMARK VINA RESULT:      -4.5      3.370      5.262
REMARK  2 active torsions:
REMARK  status: ('A' for Active; 'I' for Inactive)
REMARK    1  A    between atoms: C2_2  and  C6_6 
REMARK    2  A    between atoms: C7_7  and  C10_10 
ROOT
HETATM    1  C1  UNL     1     -31.995  18.172  -0.706  1.00 20.00     0.022 A 
HETATM    2  C2  UNL     1     -33.372  17.858  -0.900  1.00 20.00    -0.040 A 
HETATM    3  C3  UNL     1     -31.733  18.573   0.584  1.00 20.00    -0.020 A 
HETATM    4  C4  UNL     1     -34.109  18.031   0.251  1.00 20.00    -0.014 A 
HETATM    5  C8  UNL     1     -30.441  18.981   1.178  1.00 20.00     0.056 C 
HETATM    6  C9  UNL     1     -35.556  17.814   0.468  1.00 20.00     0.057 C 
HETATM    7  S11 UNL     1     -33.143  18.570   1.558  1.00 20.00    -0.100 SA
ENDROOT
BRANCH   2   8
HETATM    8  C6  UNL     1     -33.945  17.392  -2.218  1.00 20.00     0.025 A 
HETATM    9  C5  UNL     1     -33.165  16.431  -3.091  1.00 20.00     0.016 A 
HETATM   10  C7  UNL     1     -34.396  15.954  -2.380  1.00 20.00     0.004 A 
BRANCH  10  11
HETATM   11  C10 UNL     1     -35.633  15.643  -3.150  1.00 20.00     0.090 C 
HETATM   12 BR12 UNL     1     -35.371  14.045  -4.242  1.00 20.00    -0.096 Br
ENDBRANCH  10  11
ENDBRANCH   2   8
TORSDOF 2
ENDMDL
MODEL 3
REMARK VINA RESULT:      -4.2      3.565      5.519
REMARK  2 active torsions:
REMARK  status: ('A' for Active; 'I' for Inactive)
REMARK    1  A    between atoms: C2_2  and  C6_6 
REMARK    2  A    between atoms: C7_7  and  C10_10 
ROOT
HETATM    1  C1  UNL     1     -34.935  16.205  -1.617  1.00 20.00     0.022 A 
HETATM    2  C2  UNL     1     -34.134  16.491  -2.760  1.00 20.00    -0.040 A 
HETATM    3  C3  UNL     1     -35.122  17.315  -0.825  1.00 20.00    -0.020 A 
HETATM    4  C4  UNL     1     -33.738  17.810  -2.798  1.00 20.00    -0.014 A 
HETATM    5  C8  UNL     1     -35.885  17.429   0.437  1.00 20.00     0.056 C 
HETATM    6  C9  UNL     1     -32.907  18.502  -3.808  1.00 20.00     0.057 C 
HETATM    7  S11 UNL     1     -34.332  18.697  -1.459  1.00 20.00    -0.100 SA
ENDROOT
BRANCH   2   8
HETATM    8  C6  UNL     1     -33.766  15.461  -3.802  1.00 20.00     0.025 A 
HETATM    9  C5  UNL     1     -34.579  14.191  -3.938  1.00 20.00     0.016 A 
HETATM   10  C7  UNL     1     -34.666  15.244  -5.002  1.00 20.00     0.004 A 
BRANCH  10  11
HETATM   11  C10 UNL     1     -34.073  15.002  -6.347  1.00 20.00     0.090 C 
HETATM   12 BR12 UNL     1     -34.352  16.548  -7.505  1.00 20.00    -0.096 Br
ENDBRANCH  10  11
ENDBRANCH   2   8
TORSDOF 2
ENDMDL
MODEL 4
REMARK VINA RESULT:      -4.1      3.305      5.014
REMARK  2 active torsions:
REMARK  status: ('A' for Active; 'I' for Inactive)
REMARK    1  A    between atoms: C2_2  and  C6_6 
REMARK    2  A    between atoms: C7_7  and  C10_10 
ROOT
HETATM    1  C1  UNL     1     -35.445  17.522  -0.058  1.00 20.00     0.022 A 
HETATM    2  C2  UNL     1     -34.388  17.559  -1.014  1.00 20.00    -0.040 A 
HETATM    3  C3  UNL     1     -35.058  18.032   1.160  1.00 20.00    -0.020 A 
HETATM    4  C4  UNL     1     -33.234  18.097  -0.488  1.00 20.00    -0.014 A 
HETATM    5  C8  UNL     1     -35.857  18.166   2.399  1.00 20.00     0.056 C 
HETATM    6  C9  UNL     1     -31.926  18.311  -1.146  1.00 20.00     0.057 C 
HETATM    7  S11 UNL     1     -33.427  18.554   1.150  1.00 20.00    -0.100 SA
ENDROOT
BRANCH   2   8
HETATM    8  C6  UNL     1     -34.528  17.063  -2.434  1.00 20.00     0.025 A 
HETATM    9  C5  UNL     1     -33.747  15.853  -2.900  1.00 20.00     0.016 A 
HETATM   10  C7  UNL     1     -35.231  15.749  -2.710  1.00 20.00     0.004 A 
BRANCH  10  11
HETATM   11  C10 UNL     1     -36.129  15.617  -3.892  1.00 20.00     0.090 C 
HETATM   12 BR12 UNL     1     -36.132  13.777  -4.544  1.00 20.00    -0.096 Br
ENDBRANCH  10  11
ENDBRANCH   2   8
TORSDOF 2
ENDMDL
MODEL 5
REMARK VINA RESULT:      -4.0      3.607      5.484
REMARK  2 active torsions:
REMARK  status: ('A' for Active; 'I' for Inactive)
REMARK    1  A    between atoms: C2_2  and  C6_6 
REMARK    2  A    between atoms: C7_7  and  C10_10 
ROOT
HETATM    1  C1  UNL     1     -32.852  16.949  -2.408  1.00 20.00     0.022 A 
HETATM    2  C2  UNL     1     -34.135  16.788  -3.008  1.00 20.00    -0.040 A 
HETATM    3  C3  UNL     1     -32.861  17.902  -1.415  1.00 20.00    -0.020 A 
HETATM    4  C4  UNL     1     -35.076  17.625  -2.449  1.00 20.00    -0.014 A 
HETATM    5  C8  UNL     1     -31.740  18.357  -0.564  1.00 20.00     0.056 C 
HETATM    6  C9  UNL     1     -36.510  17.765  -2.784  1.00 20.00     0.057 C 
HETATM    7  S11 UNL     1     -34.412  18.599  -1.208  1.00 20.00    -0.100 SA
ENDROOT
BRANCH   2   8
HETATM    8  C6  UNL     1     -34.418  15.812  -4.125  1.00 20.00     0.025 A 
HETATM    9  C5  UNL     1     -33.594  14.549  -4.261  1.00 20.00     0.016 A 
HETATM   10  C7  UNL     1     -35.021  14.457  -3.811  1.00 20.00     0.004 A 
BRANCH  10  11
HETATM   11  C10 UNL     1     -36.055  13.873  -4.711  1.00 20.00     0.090 C 
HETATM   12 BR12 UNL     1     -37.816  14.604  -4.293  1.00 20.00    -0.096 Br
ENDBRANCH  10  11
ENDBRANCH   2   8
TORSDOF 2
ENDMDL
MODEL 6
REMARK VINA RESULT:      -3.9      3.254      5.388
REMARK  2 active torsions:
REMARK  status: ('A' for Active; 'I' for Inactive)
REMARK    1  A    between atoms: C2_2  and  C6_6 
REMARK    2  A    between atoms: C7_7  and  C10_10 
ROOT
HETATM    1  C1  UNL     1     -33.245  18.136   0.648  1.00 20.00     0.022 A 
HETATM    2  C2  UNL     1     -34.484  17.963  -0.036  1.00 20.00    -0.040 A 
HETATM    3  C3  UNL     1     -33.428  18.433   1.980  1.00 20.00    -0.020 A 
HETATM    4  C4  UNL     1     -35.565  18.133   0.800  1.00 20.00    -0.014 A 
HETATM    5  C8  UNL     1     -32.403  18.683   3.017  1.00 20.00     0.056 C 
HETATM    6  C9  UNL     1     -37.007  18.039   0.484  1.00 20.00     0.057 C 
HETATM    7  S11 UNL     1     -35.087  18.502   2.402  1.00 20.00    -0.100 SA
ENDROOT
BRANCH   2   8
HETATM    8  C6  UNL     1     -34.586  17.631  -1.506  1.00 20.00     0.025 A 
HETATM    9  C5  UNL     1     -33.426  16.972  -2.222  1.00 20.00     0.016 A 
HETATM   10  C7  UNL     1     -34.673  16.185  -1.951  1.00 20.00     0.004 A 
BRANCH  10  11
HETATM   11  C10 UNL     1     -35.575  15.802  -3.073  1.00 20.00     0.090 C 
HETATM   12 BR12 UNL     1     -34.841  14.279  -4.049  1.00 20.00    -0.096 Br
ENDBRANCH  10  11
ENDBRANCH   2   8
TORSDOF 2
ENDMDL
MODEL 7
REMARK VINA RESULT:      -3.9      2.175      3.448
REMARK  2 active torsions:
REMARK  status: ('A' for Active; 'I' for Inactive)
REMARK    1  A    between atoms: C2_2  and  C6_6 
REMARK    2  A    between atoms: C7_7  and  C10_10 
ROOT
HETATM    1  C1  UNL     1     -36.196  15.835  -3.102  1.00 20.00     0.022 A 
HETATM    2  C2  UNL     1     -34.786  15.640  -3.180  1.00 20.00    -0.040 A 
HETATM    3  C3  UNL     1     -36.874  15.083  -4.035  1.00 20.00    -0.020 A 
HETATM    4  C4  UNL     1     -34.441  14.746  -4.169  1.00 20.00    -0.014 A 
HETATM    5  C8  UNL     1     -38.332  15.007  -4.274  1.00 20.00     0.056 C 
HETATM    6  C9  UNL     1     -33.096  14.276  -4.568  1.00 20.00     0.057 C 
HETATM    7  S11 UNL     1     -35.813  14.146  -5.000  1.00 20.00    -0.100 SA
ENDROOT
BRANCH   2   8
HETATM    8  C6  UNL     1     -33.796  16.338  -2.278  1.00 20.00     0.025 A 
HETATM    9  C5  UNL     1     -32.941  17.467  -2.814  1.00 20.00     0.016 A 
HETATM   10  C7  UNL     1     -34.045  17.769  -1.845  1.00 20.00     0.004 A 
BRANCH  10  11
HETATM   11  C10 UNL     1     -33.725  18.194  -0.454  1.00 20.00     0.090 C 
HETATM   12 BR12 UNL     1     -31.838  18.672  -0.303  1.00 20.00    -0.096 Br
ENDBRANCH  10  11
ENDBRANCH   2   8
TORSDOF 2
ENDMDL
MODEL 8
REMARK VINA RESULT:      -3.9      3.507      5.438
REMARK  2 active torsions:
REMARK  status: ('A' for Active; 'I' for Inactive)
REMARK    1  A    between atoms: C2_2  and  C6_6 
REMARK    2  A    between atoms: C7_7  and  C10_10 
ROOT
HETATM    1  C1  UNL     1     -34.761  17.480  -0.332  1.00 20.00     0.022 A 
HETATM    2  C2  UNL     1     -35.395  17.378  -1.605  1.00 20.00    -0.040 A 
HETATM    3  C3  UNL     1     -35.622  17.939   0.639  1.00 20.00    -0.020 A 
HETATM    4  C4  UNL     1     -36.717  17.763  -1.556  1.00 20.00    -0.014 A 
HETATM    5  C8  UNL     1     -35.349  18.180   2.073  1.00 20.00     0.056 C 
HETATM    6  C9  UNL     1     -37.713  17.802  -2.650  1.00 20.00     0.057 C 
HETATM    7  S11 UNL     1     -37.188  18.245   0.017  1.00 20.00    -0.100 SA
ENDROOT
BRANCH   2   8
HETATM    8  C6  UNL     1     -34.690  16.903  -2.854  1.00 20.00     0.025 A 
HETATM    9  C5  UNL     1     -33.271  16.381  -2.776  1.00 20.00     0.016 A 
HETATM   10  C7  UNL     1     -34.397  15.428  -3.042  1.00 20.00     0.004 A 
BRANCH  10  11
HETATM   11  C10 UNL     1     -34.548  14.803  -4.386  1.00 20.00     0.090 C 
HETATM   12 BR12 UNL     1     -36.288  13.929  -4.541  1.00 20.00    -0.096 Br
ENDBRANCH  10  11
ENDBRANCH   2   8
TORSDOF 2
ENDMDL
MODEL 9
REMARK VINA RESULT:      -3.8      2.255      3.385
REMARK  2 active torsions:
REMARK  status: ('A' for Active; 'I' for Inactive)
REMARK    1  A    between atoms: C2_2  and  C6_6 
REMARK    2  A    between atoms: C7_7  and  C10_10 
ROOT
HETATM    1  C1  UNL     1     -36.293  16.349  -4.204  1.00 20.00     0.022 A 
HETATM    2  C2  UNL     1     -35.078  15.837  -3.661  1.00 20.00    -0.040 A 
HETATM    3  C3  UNL     1     -36.427  16.055  -5.542  1.00 20.00    -0.020 A 
HETATM    4  C4  UNL     1     -34.331  15.170  -4.607  1.00 20.00    -0.014 A 
HETATM    5  C8  UNL     1     -37.534  16.407  -6.457  1.00 20.00     0.056 C 
HETATM    6  C9  UNL     1     -33.021  14.499  -4.450  1.00 20.00     0.057 C 
HETATM    7  S11 UNL     1     -35.091  15.163  -6.140  1.00 20.00    -0.100 SA
ENDROOT
BRANCH   2   8
HETATM    8  C6  UNL     1     -34.669  16.012  -2.218  1.00 20.00     0.025 A 
HETATM    9  C5  UNL     1     -33.653  17.067  -1.836  1.00 20.00     0.016 A 
HETATM   10  C7  UNL     1     -35.091  17.252  -1.457  1.00 20.00     0.004 A 
BRANCH  10  11
HETATM   11  C10 UNL     1     -35.510  17.147  -0.031  1.00 20.00     0.090 C 
HETATM   12 BR12 UNL     1     -34.288  18.151   1.115  1.00 20.00    -0.096 Br
ENDBRANCH  10  11
ENDBRANCH   2   8
TORSDOF 2
ENDMDL
