MODEL 1
REMARK VINA RESULT:      -4.5      0.000      0.000
REMARK  1 active torsions:
REMARK  status: ('A' for Active; 'I' for Inactive)
REMARK    1  A    between atoms: C5_5  and  C10_10 
ROOT
HETATM    1  C1  UNL     1     -34.954  13.758  -3.799  1.00 20.00     0.036 C 
HETATM    2  C2  UNL     1     -34.010  16.119  -4.377  1.00 20.00     0.016 A 
HETATM    3  C3  UNL     1     -36.399  15.769  -3.383  1.00 20.00     0.047 C 
HETATM    4  C4  UNL     1     -35.946  13.336  -4.871  1.00 20.00     0.169 C 
HETATM    5  C5  UNL     1     -33.818  15.896  -2.902  1.00 20.00     0.009 A 
HETATM    6  C6  UNL     1     -34.996  15.255  -3.618  1.00 20.00    -0.031 A 
HETATM    7  C7  UNL     1     -37.388  15.221  -4.435  1.00 20.00     0.054 C 
HETATM    8  C8  UNL     1     -38.823  15.468  -3.945  1.00 20.00     0.045 C 
HETATM    9  C9  UNL     1     -37.223  15.906  -5.799  1.00 20.00     0.045 C 
HETATM   10  O11 UNL     1     -37.261  13.794  -4.556  1.00 20.00    -0.381 OA
ENDROOT
BRANCH   5  11
HETATM   11  C10 UNL     1     -33.974  17.028  -1.946  1.00 20.00     0.120 C 
HETATM   12 CL12 UNL     1     -32.397  17.772  -1.561  1.00 20.00    -0.130 Cl
ENDBRANCH   5  11
TORSDOF 1
ENDMDL
MODEL 2
REMARK VINA RESULT:      -4.5      1.505      2.000
REMARK  1 active torsions:
REMARK  status: ('A' for Active; 'I' for Inactive)
REMARK    1  A    between atoms: C5_5  and  C10_10 
ROOT
HETATM    1  C1  UNL     1     -35.642  14.465  -3.735  1.00 20.00     0.036 C 
HETATM    2  C2  UNL     1     -33.120  14.989  -4.139  1.00 20.00     0.016 A 
HETATM    3  C3  UNL     1     -35.034  16.474  -5.114  1.00 20.00     0.047 C 
HETATM    4  C4  UNL     1     -36.236  13.851  -4.993  1.00 20.00     0.169 C 
HETATM    5  C5  UNL     1     -33.592  15.855  -3.004  1.00 20.00     0.009 A 
HETATM    6  C6  UNL     1     -34.562  15.451  -4.104  1.00 20.00    -0.031 A 
HETATM    7  C7  UNL     1     -35.730  15.803  -6.318  1.00 20.00     0.054 C 
HETATM    8  C8  UNL     1     -36.498  16.873  -7.109  1.00 20.00     0.045 C 
HETATM    9  C9  UNL     1     -34.727  15.132  -7.267  1.00 20.00     0.045 C 
HETATM   10  O11 UNL     1     -36.724  14.865  -5.871  1.00 20.00    -0.381 OA
ENDROOT
BRANCH   5  11
HETATM   11  C10 UNL     1     -33.076  17.244  -2.855  1.00 20.00     0.120 C 
HETATM   12 CL12 UNL     1     -33.202  17.803  -1.164  1.00 20.00    -0.130 Cl
ENDBRANCH   5  11
TORSDOF 1
ENDMDL
MODEL 3
REMARK VINA RESULT:      -4.5      1.489      1.872
REMARK  1 active torsions:
REMARK  status: ('A' for Active; 'I' for Inactive)
REMARK    1  A    between atoms: C5_5  and  C10_10 
ROOT
HETATM    1  C1  UNL     1     -33.073  15.234  -3.832  1.00 20.00     0.036 C 
HETATM    2  C2  UNL     1     -33.847  17.692  -3.428  1.00 20.00     0.016 A 
HETATM    3  C3  UNL     1     -35.461  15.654  -3.176  1.00 20.00     0.047 C 
HETATM    4  C4  UNL     1     -33.587  14.761  -5.183  1.00 20.00     0.169 C 
HETATM    5  C5  UNL     1     -33.539  17.082  -2.089  1.00 20.00     0.009 A 
HETATM    6  C6  UNL     1     -34.053  16.206  -3.221  1.00 20.00    -0.031 A 
HETATM    7  C7  UNL     1     -35.892  15.085  -4.544  1.00 20.00     0.054 C 
HETATM    8  C8  UNL     1     -37.152  14.227  -4.353  1.00 20.00     0.045 C 
HETATM    9  C9  UNL     1     -36.215  16.192  -5.558  1.00 20.00     0.045 C 
HETATM   10  O11 UNL     1     -34.890  14.191  -5.060  1.00 20.00    -0.381 OA
ENDROOT
BRANCH   5  11
HETATM   11  C10 UNL     1     -34.365  17.428  -0.899  1.00 20.00     0.120 C 
HETATM   12 CL12 UNL     1     -33.397  18.284   0.334  1.00 20.00    -0.130 Cl
ENDBRANCH   5  11
TORSDOF 1
ENDMDL
MODEL 4
REMARK VINA RESULT:      -4.3      3.290      5.082
REMARK  1 active torsions:
REMARK  status: ('A' for Active; 'I' for Inactive)
REMARK    1  A    between atoms: C5_5  and  C10_10 
ROOT
HETATM    1  C1  UNL     1     -35.209  16.360  -1.442  1.00 20.00     0.036 C 
HETATM    2  C2  UNL     1     -34.907  16.724  -4.006  1.00 20.00     0.016 A 
HETATM    3  C3  UNL     1     -32.893  16.716  -2.345  1.00 20.00     0.047 C 
HETATM    4  C4  UNL     1     -35.074  17.695  -0.725  1.00 20.00     0.169 C 
HETATM    5  C5  UNL     1     -34.619  15.278  -3.711  1.00 20.00     0.009 A 
HETATM    6  C6  UNL     1     -34.323  16.340  -2.663  1.00 20.00    -0.031 A 
HETATM    7  C7  UNL     1     -32.818  18.018  -1.520  1.00 20.00     0.054 C 
HETATM    8  C8  UNL     1     -31.409  18.151  -0.924  1.00 20.00     0.045 C 
HETATM    9  C9  UNL     1     -33.096  19.263  -2.374  1.00 20.00     0.045 C 
HETATM   10  O11 UNL     1     -33.710  17.957  -0.394  1.00 20.00    -0.381 OA
ENDROOT
BRANCH   5  11
HETATM   11  C10 UNL     1     -33.547  14.560  -4.455  1.00 20.00     0.120 C 
HETATM   12 CL12 UNL     1     -33.722  14.785  -6.219  1.00 20.00    -0.130 Cl
ENDBRANCH   5  11
TORSDOF 1
ENDMDL
MODEL 5
REMARK VINA RESULT:      -4.3      1.756      1.940
REMARK  1 active torsions:
REMARK  status: ('A' for Active; 'I' for Inactive)
REMARK    1  A    between atoms: C5_5  and  C10_10 
ROOT
HETATM    1  C1  UNL     1     -35.738  14.256  -3.988  1.00 20.00     0.036 C 
HETATM    2  C2  UNL     1     -33.567  15.671  -3.692  1.00 20.00     0.016 A 
HETATM    3  C3  UNL     1     -35.842  16.728  -4.417  1.00 20.00     0.047 C 
HETATM    4  C4  UNL     1     -36.002  14.044  -5.470  1.00 20.00     0.169 C 
HETATM    5  C5  UNL     1     -34.380  15.809  -2.434  1.00 20.00     0.009 A 
HETATM    6  C6  UNL     1     -35.078  15.595  -3.769  1.00 20.00    -0.031 A 
HETATM    7  C7  UNL     1     -36.182  16.413  -5.890  1.00 20.00     0.054 C 
HETATM    8  C8  UNL     1     -37.248  17.405  -6.378  1.00 20.00     0.045 C 
HETATM    9  C9  UNL     1     -34.957  16.536  -6.807  1.00 20.00     0.045 C 
HETATM   10  O11 UNL     1     -36.783  15.112  -6.005  1.00 20.00    -0.381 OA
ENDROOT
BRANCH   5  11
HETATM   11  C10 UNL     1     -34.418  17.107  -1.705  1.00 20.00     0.120 C 
HETATM   12 CL12 UNL     1     -35.429  16.995  -0.237  1.00 20.00    -0.130 Cl
ENDBRANCH   5  11
TORSDOF 1
ENDMDL
MODEL 6
REMARK VINA RESULT:      -4.3      2.663      4.176
REMARK  1 active torsions:
REMARK  status: ('A' for Active; 'I' for Inactive)
REMARK    1  A    between atoms: C5_5  and  C10_10 
ROOT
HETATM    1  C1  UNL     1     -33.857  18.966  -3.305  1.00 20.00     0.036 C 
HETATM    2  C2  UNL     1     -33.801  18.267  -0.793  1.00 20.00     0.016 A 
HETATM    3  C3  UNL     1     -32.837  16.755  -2.691  1.00 20.00     0.047 C 
HETATM    4  C4  UNL     1     -34.959  18.196  -4.017  1.00 20.00     0.169 C 
HETATM    5  C5  UNL     1     -32.456  18.843  -1.139  1.00 20.00     0.009 A 
HETATM    6  C6  UNL     1     -33.268  18.120  -2.203  1.00 20.00    -0.031 A 
HETATM    7  C7  UNL     1     -33.953  16.064  -3.503  1.00 20.00     0.054 C 
HETATM    8  C8  UNL     1     -33.350  14.875  -4.267  1.00 20.00     0.045 C 
HETATM    9  C9  UNL     1     -35.080  15.534  -2.606  1.00 20.00     0.045 C 
HETATM   10  O11 UNL     1     -34.469  16.950  -4.511  1.00 20.00    -0.381 OA
ENDROOT
BRANCH   5  11
HETATM   11  C10 UNL     1     -31.219  18.269  -0.541  1.00 20.00     0.120 C 
HETATM   12 CL12 UNL     1     -31.313  18.244   1.242  1.00 20.00    -0.130 Cl
ENDBRANCH   5  11
TORSDOF 1
ENDMDL
MODEL 7
REMARK VINA RESULT:      -4.2      1.728      2.913
REMARK  1 active torsions:
REMARK  status: ('A' for Active; 'I' for Inactive)
REMARK    1  A    between atoms: C5_5  and  C10_10 
ROOT
HETATM    1  C1  UNL     1     -36.767  14.851  -3.870  1.00 20.00     0.036 C 
HETATM    2  C2  UNL     1     -35.087  16.009  -2.244  1.00 20.00     0.016 A 
HETATM    3  C3  UNL     1     -34.898  16.221  -4.840  1.00 20.00     0.047 C 
HETATM    4  C4  UNL     1     -36.109  13.624  -4.482  1.00 20.00     0.169 C 
HETATM    5  C5  UNL     1     -36.111  17.032  -2.652  1.00 20.00     0.009 A 
HETATM    6  C6  UNL     1     -35.729  15.917  -3.613  1.00 20.00    -0.031 A 
HETATM    7  C7  UNL     1     -34.348  14.932  -5.487  1.00 20.00     0.054 C 
HETATM    8  C8  UNL     1     -33.837  15.262  -6.898  1.00 20.00     0.045 C 
HETATM    9  C9  UNL     1     -33.185  14.332  -4.685  1.00 20.00     0.045 C 
HETATM   10  O11 UNL     1     -35.399  13.969  -5.671  1.00 20.00    -0.381 OA
ENDROOT
BRANCH   5  11
HETATM   11  C10 UNL     1     -35.709  18.451  -2.864  1.00 20.00     0.120 C 
HETATM   12 CL12 UNL     1     -34.175  18.820  -2.028  1.00 20.00    -0.130 Cl
ENDBRANCH   5  11
TORSDOF 1
ENDMDL
MODEL 8
REMARK VINA RESULT:      -4.1      3.280      4.575
REMARK  1 active torsions:
REMARK  status: ('A' for Active; 'I' for Inactive)
REMARK    1  A    between atoms: C5_5  and  C10_10 
ROOT
HETATM    1  C1  UNL     1     -34.908  17.863  -3.949  1.00 20.00     0.036 C 
HETATM    2  C2  UNL     1     -33.052  16.083  -3.517  1.00 20.00     0.016 A 
HETATM    3  C3  UNL     1     -35.113  16.371  -1.940  1.00 20.00     0.047 C 
HETATM    4  C4  UNL     1     -34.718  19.031  -2.993  1.00 20.00     0.169 C 
HETATM    5  C5  UNL     1     -34.199  15.393  -4.202  1.00 20.00     0.009 A 
HETATM    6  C6  UNL     1     -34.465  16.581  -3.290  1.00 20.00    -0.031 A 
HETATM    7  C7  UNL     1     -34.989  17.627  -1.049  1.00 20.00     0.054 C 
HETATM    8  C8  UNL     1     -35.959  17.496   0.134  1.00 20.00     0.045 C 
HETATM    9  C9  UNL     1     -33.570  17.803  -0.490  1.00 20.00     0.045 C 
HETATM   10  O11 UNL     1     -35.409  18.800  -1.766  1.00 20.00    -0.381 OA
ENDROOT
BRANCH   5  11
HETATM   11  C10 UNL     1     -34.563  13.997  -3.833  1.00 20.00     0.120 C 
HETATM   12 CL12 UNL     1     -36.182  13.565  -4.452  1.00 20.00    -0.130 Cl
ENDBRANCH   5  11
TORSDOF 1
ENDMDL
MODEL 9
REMARK VINA RESULT:      -4.1      2.444      3.611
REMARK  1 active torsions:
REMARK  status: ('A' for Active; 'I' for Inactive)
REMARK    1  A    between atoms: C5_5  and  C10_10 
ROOT
HETATM    1  C1  UNL     1     -32.990  17.252  -2.242  1.00 20.00     0.036 C 
HETATM    2  C2  UNL     1     -35.170  18.501  -1.543  1.00 20.00     0.016 A 
HETATM    3  C3  UNL     1     -35.134  15.952  -2.104  1.00 20.00     0.047 C 
HETATM    4  C4  UNL     1     -33.008  17.013  -3.744  1.00 20.00     0.169 C 
HETATM    5  C5  UNL     1     -34.622  17.815  -0.322  1.00 20.00     0.009 A 
HETATM    6  C6  UNL     1     -34.397  17.208  -1.698  1.00 20.00    -0.031 A 
HETATM    7  C7  UNL     1     -35.025  15.695  -3.623  1.00 20.00     0.054 C 
HETATM    8  C8  UNL     1     -35.463  14.252  -3.917  1.00 20.00     0.045 C 
HETATM    9  C9  UNL     1     -35.919  16.642  -4.436  1.00 20.00     0.045 C 
HETATM   10  O11 UNL     1     -33.657  15.781  -4.055  1.00 20.00    -0.381 OA
ENDROOT
BRANCH   5  11
HETATM   11  C10 UNL     1     -35.547  17.218   0.681  1.00 20.00     0.120 C 
HETATM   12 CL12 UNL     1     -37.168  17.963   0.591  1.00 20.00    -0.130 Cl
ENDBRANCH   5  11
TORSDOF 1
ENDMDL
