MODEL 1
REMARK VINA RESULT:      -4.4      0.000      0.000
REMARK  2 active torsions:
REMARK  status: ('A' for Active; 'I' for Inactive)
REMARK    1  A    between atoms: C4_4  and  C7_7 
REMARK    2  A    between atoms: C6_6  and  C9_9 
ROOT
HETATM    1  C5  UNL     1     -34.099  18.705  -1.952  1.00 20.00     0.021 A 
HETATM    2  C6  UNL     1     -33.055  18.007  -1.131  1.00 20.00     0.009 A 
HETATM    3  C7  UNL     1     -34.344  17.273  -1.501  1.00 20.00    -0.012 A 
HETATM    4  C8  UNL     1     -35.403  17.024  -0.465  1.00 20.00     0.021 C 
ENDROOT
BRANCH   3   5
HETATM    5  C4  UNL     1     -34.201  16.167  -2.584  1.00 20.00    -0.043 A 
HETATM    6  C1  UNL     1     -35.220  15.221  -2.895  1.00 20.00     0.015 A 
HETATM    7  C2  UNL     1     -34.833  14.353  -3.893  1.00 20.00     0.050 A 
HETATM    8  S10 UNL     1     -33.247  14.680  -4.451  1.00 20.00    -0.113 SA
HETATM    9  C3  UNL     1     -33.073  15.986  -3.356  1.00 20.00     0.057 A 
ENDBRANCH   3   5
BRANCH   2  10
HETATM   10  C9  UNL     1     -32.762  18.463   0.257  1.00 20.00     0.090 C 
HETATM   11 BR11 UNL     1     -30.845  18.376   0.614  1.00 20.00    -0.096 Br
ENDBRANCH   2  10
TORSDOF 2
ENDMDL
MODEL 2
REMARK VINA RESULT:      -4.4      3.347      4.856
REMARK  2 active torsions:
REMARK  status: ('A' for Active; 'I' for Inactive)
REMARK    1  A    between atoms: C4_4  and  C7_7 
REMARK    2  A    between atoms: C6_6  and  C9_9 
ROOT
HETATM    1  C5  UNL     1     -35.114  16.284  -1.868  1.00 20.00     0.021 A 
HETATM    2  C6  UNL     1     -33.874  15.942  -2.640  1.00 20.00     0.009 A 
HETATM    3  C7  UNL     1     -34.139  17.393  -2.238  1.00 20.00    -0.012 A 
HETATM    4  C8  UNL     1     -34.566  18.403  -3.265  1.00 20.00     0.021 C 
ENDROOT
BRANCH   3   5
HETATM    5  C4  UNL     1     -33.247  17.947  -1.091  1.00 20.00    -0.043 A 
HETATM    6  C1  UNL     1     -31.862  18.249  -1.235  1.00 20.00     0.015 A 
HETATM    7  C2  UNL     1     -31.312  18.725  -0.065  1.00 20.00     0.050 A 
HETATM    8  S10 UNL     1     -32.463  18.806   1.201  1.00 20.00    -0.113 SA
HETATM    9  C3  UNL     1     -33.703  18.203   0.184  1.00 20.00     0.057 A 
ENDBRANCH   3   5
BRANCH   2  10
HETATM   10  C9  UNL     1     -33.972  15.470  -4.050  1.00 20.00     0.090 C 
HETATM   11 BR11 UNL     1     -35.443  14.202  -4.244  1.00 20.00    -0.096 Br
ENDBRANCH   2  10
TORSDOF 2
ENDMDL
MODEL 3
REMARK VINA RESULT:      -4.4      3.258      4.717
REMARK  2 active torsions:
REMARK  status: ('A' for Active; 'I' for Inactive)
REMARK    1  A    between atoms: C4_4  and  C7_7 
REMARK    2  A    between atoms: C6_6  and  C9_9 
ROOT
HETATM    1  C5  UNL     1     -35.149  16.255  -1.908  1.00 20.00     0.021 A 
HETATM    2  C6  UNL     1     -33.911  15.888  -2.672  1.00 20.00     0.009 A 
HETATM    3  C7  UNL     1     -34.158  17.346  -2.285  1.00 20.00    -0.012 A 
HETATM    4  C8  UNL     1     -34.566  18.352  -3.324  1.00 20.00     0.021 C 
ENDROOT
BRANCH   3   5
HETATM    5  C4  UNL     1     -33.262  17.899  -1.140  1.00 20.00    -0.043 A 
HETATM    6  C1  UNL     1     -33.723  18.136   0.187  1.00 20.00     0.015 A 
HETATM    7  C2  UNL     1     -32.726  18.627   1.001  1.00 20.00     0.050 A 
HETATM    8  S10 UNL     1     -31.241  18.802   0.165  1.00 20.00    -0.113 SA
HETATM    9  C3  UNL     1     -31.930  18.219  -1.291  1.00 20.00     0.057 A 
ENDBRANCH   3   5
BRANCH   2  10
HETATM   10  C9  UNL     1     -34.011  15.403  -4.077  1.00 20.00     0.090 C 
HETATM   11 BR11 UNL     1     -35.500  14.155  -4.264  1.00 20.00    -0.096 Br
ENDBRANCH   2  10
TORSDOF 2
ENDMDL
MODEL 4
REMARK VINA RESULT:      -4.4      3.481      5.138
REMARK  2 active torsions:
REMARK  status: ('A' for Active; 'I' for Inactive)
REMARK    1  A    between atoms: C4_4  and  C7_7 
REMARK    2  A    between atoms: C6_6  and  C9_9 
ROOT
HETATM    1  C5  UNL     1     -33.040  14.452  -4.503  1.00 20.00     0.021 A 
HETATM    2  C6  UNL     1     -33.849  15.434  -5.299  1.00 20.00     0.009 A 
HETATM    3  C7  UNL     1     -34.360  14.958  -3.939  1.00 20.00    -0.012 A 
HETATM    4  C8  UNL     1     -35.513  13.997  -3.853  1.00 20.00     0.021 C 
ENDROOT
BRANCH   3   5
HETATM    5  C4  UNL     1     -34.273  15.997  -2.786  1.00 20.00    -0.043 A 
HETATM    6  C1  UNL     1     -33.134  16.818  -2.539  1.00 20.00     0.015 A 
HETATM    7  C2  UNL     1     -33.321  17.649  -1.456  1.00 20.00     0.050 A 
HETATM    8  S10 UNL     1     -34.864  17.438  -0.742  1.00 20.00    -0.113 SA
HETATM    9  C3  UNL     1     -35.286  16.232  -1.883  1.00 20.00     0.057 A 
ENDBRANCH   3   5
BRANCH   2  10
HETATM   10  C9  UNL     1     -34.481  15.021  -6.584  1.00 20.00     0.090 C 
HETATM   11 BR11 UNL     1     -35.901  16.265  -7.077  1.00 20.00    -0.096 Br
ENDBRANCH   2  10
TORSDOF 2
ENDMDL
MODEL 5
REMARK VINA RESULT:      -4.2      1.856      2.633
REMARK  2 active torsions:
REMARK  status: ('A' for Active; 'I' for Inactive)
REMARK    1  A    between atoms: C4_4  and  C7_7 
REMARK    2  A    between atoms: C6_6  and  C9_9 
ROOT
HETATM    1  C5  UNL     1     -33.061  16.419  -2.931  1.00 20.00     0.021 A 
HETATM    2  C6  UNL     1     -34.027  16.862  -1.872  1.00 20.00     0.009 A 
HETATM    3  C7  UNL     1     -34.447  16.893  -3.342  1.00 20.00    -0.012 A 
HETATM    4  C8  UNL     1     -34.566  18.200  -4.074  1.00 20.00     0.021 C 
ENDROOT
BRANCH   3   5
HETATM    5  C4  UNL     1     -35.459  15.794  -3.775  1.00 20.00    -0.043 A 
HETATM    6  C1  UNL     1     -35.088  14.462  -4.118  1.00 20.00     0.015 A 
HETATM    7  C2  UNL     1     -36.178  13.694  -4.465  1.00 20.00     0.050 A 
HETATM    8  S10 UNL     1     -37.642  14.580  -4.378  1.00 20.00    -0.113 SA
HETATM    9  C3  UNL     1     -36.818  15.995  -3.874  1.00 20.00     0.057 A 
ENDBRANCH   3   5
BRANCH   2  10
HETATM   10  C9  UNL     1     -33.765  18.101  -1.087  1.00 20.00     0.090 C 
HETATM   11 BR11 UNL     1     -31.846  18.368  -0.852  1.00 20.00    -0.096 Br
ENDBRANCH   2  10
TORSDOF 2
ENDMDL
MODEL 6
REMARK VINA RESULT:      -4.2      3.414      4.812
REMARK  2 active torsions:
REMARK  status: ('A' for Active; 'I' for Inactive)
REMARK    1  A    between atoms: C4_4  and  C7_7 
REMARK    2  A    between atoms: C6_6  and  C9_9 
ROOT
HETATM    1  C5  UNL     1     -32.978  15.944  -3.386  1.00 20.00     0.021 A 
HETATM    2  C6  UNL     1     -33.758  17.088  -3.964  1.00 20.00     0.009 A 
HETATM    3  C7  UNL     1     -33.966  16.691  -2.502  1.00 20.00    -0.012 A 
HETATM    4  C8  UNL     1     -35.220  15.981  -2.076  1.00 20.00     0.021 C 
ENDROOT
BRANCH   3   5
HETATM    5  C4  UNL     1     -33.363  17.663  -1.449  1.00 20.00    -0.043 A 
HETATM    6  C1  UNL     1     -31.992  18.052  -1.419  1.00 20.00     0.015 A 
HETATM    7  C2  UNL     1     -31.723  18.921  -0.383  1.00 20.00     0.050 A 
HETATM    8  S10 UNL     1     -33.120  19.263   0.547  1.00 20.00    -0.113 SA
HETATM    9  C3  UNL     1     -34.090  18.248  -0.435  1.00 20.00     0.057 A 
ENDBRANCH   3   5
BRANCH   2  10
HETATM   10  C9  UNL     1     -34.785  16.842  -5.016  1.00 20.00     0.090 C 
HETATM   11 BR11 UNL     1     -34.357  15.226  -6.022  1.00 20.00    -0.096 Br
ENDBRANCH   2  10
TORSDOF 2
ENDMDL
MODEL 7
REMARK VINA RESULT:      -4.1      3.494      4.854
REMARK  2 active torsions:
REMARK  status: ('A' for Active; 'I' for Inactive)
REMARK    1  A    between atoms: C4_4  and  C7_7 
REMARK    2  A    between atoms: C6_6  and  C9_9 
ROOT
HETATM    1  C5  UNL     1     -35.569  16.953  -3.228  1.00 20.00     0.021 A 
HETATM    2  C6  UNL     1     -35.128  15.620  -2.700  1.00 20.00     0.009 A 
HETATM    3  C7  UNL     1     -34.289  16.865  -2.410  1.00 20.00    -0.012 A 
HETATM    4  C8  UNL     1     -32.979  17.082  -3.112  1.00 20.00     0.021 C 
ENDROOT
BRANCH   3   5
HETATM    5  C4  UNL     1     -34.358  17.397  -0.951  1.00 20.00    -0.043 A 
HETATM    6  C1  UNL     1     -35.437  17.135  -0.058  1.00 20.00     0.015 A 
HETATM    7  C2  UNL     1     -35.246  17.725   1.173  1.00 20.00     0.050 A 
HETATM    8  S10 UNL     1     -33.770  18.591   1.248  1.00 20.00    -0.113 SA
HETATM    9  C3  UNL     1     -33.383  18.178  -0.369  1.00 20.00     0.057 A 
ENDBRANCH   3   5
BRANCH   2  10
HETATM   10  C9  UNL     1     -34.679  14.551  -3.637  1.00 20.00     0.090 C 
HETATM   11 BR11 UNL     1     -36.203  13.811  -4.607  1.00 20.00    -0.096 Br
ENDBRANCH   2  10
TORSDOF 2
ENDMDL
MODEL 8
REMARK VINA RESULT:      -4.1      1.945      2.602
REMARK  2 active torsions:
REMARK  status: ('A' for Active; 'I' for Inactive)
REMARK    1  A    between atoms: C4_4  and  C7_7 
REMARK    2  A    between atoms: C6_6  and  C9_9 
ROOT
HETATM    1  C5  UNL     1     -35.077  16.274  -1.484  1.00 20.00     0.021 A 
HETATM    2  C6  UNL     1     -35.312  17.519  -2.289  1.00 20.00     0.009 A 
HETATM    3  C7  UNL     1     -34.413  16.414  -2.846  1.00 20.00    -0.012 A 
HETATM    4  C8  UNL     1     -32.922  16.597  -2.896  1.00 20.00     0.021 C 
ENDROOT
BRANCH   3   5
HETATM    5  C4  UNL     1     -35.019  15.574  -4.006  1.00 20.00    -0.043 A 
HETATM    6  C1  UNL     1     -35.839  14.426  -3.812  1.00 20.00     0.015 A 
HETATM    7  C2  UNL     1     -36.242  13.870  -5.007  1.00 20.00     0.050 A 
HETATM    8  S10 UNL     1     -35.630  14.732  -6.355  1.00 20.00    -0.113 SA
HETATM    9  C3  UNL     1     -34.824  15.853  -5.341  1.00 20.00     0.057 A 
ENDBRANCH   3   5
BRANCH   2  10
HETATM   10  C9  UNL     1     -34.777  18.829  -1.822  1.00 20.00     0.090 C 
HETATM   11 BR11 UNL     1     -34.352  18.752   0.082  1.00 20.00    -0.096 Br
ENDBRANCH   2  10
TORSDOF 2
ENDMDL
MODEL 9
REMARK VINA RESULT:      -4.0      1.554      2.059
REMARK  2 active torsions:
REMARK  status: ('A' for Active; 'I' for Inactive)
REMARK    1  A    between atoms: C4_4  and  C7_7 
REMARK    2  A    between atoms: C6_6  and  C9_9 
ROOT
HETATM    1  C5  UNL     1     -32.716  17.779  -1.598  1.00 20.00     0.021 A 
HETATM    2  C6  UNL     1     -33.950  17.482  -0.797  1.00 20.00     0.009 A 
HETATM    3  C7  UNL     1     -34.043  17.588  -2.319  1.00 20.00    -0.012 A 
HETATM    4  C8  UNL     1     -34.683  18.786  -2.962  1.00 20.00     0.021 C 
ENDROOT
BRANCH   3   5
HETATM    5  C4  UNL     1     -34.237  16.244  -3.076  1.00 20.00    -0.043 A 
HETATM    6  C1  UNL     1     -33.190  15.553  -3.752  1.00 20.00     0.015 A 
HETATM    7  C2  UNL     1     -33.633  14.388  -4.339  1.00 20.00     0.050 A 
HETATM    8  S10 UNL     1     -35.307  14.132  -4.076  1.00 20.00    -0.113 SA
HETATM    9  C3  UNL     1     -35.441  15.582  -3.174  1.00 20.00     0.057 A 
ENDBRANCH   3   5
BRANCH   2  10
HETATM   10  C9  UNL     1     -34.520  18.514   0.115  1.00 20.00     0.090 C 
HETATM   11 BR11 UNL     1     -33.940  18.197   1.951  1.00 20.00    -0.096 Br
ENDBRANCH   2  10
TORSDOF 2
ENDMDL
