MODEL 1
REMARK VINA RESULT:      -3.9      0.000      0.000
REMARK  4 active torsions:
REMARK  status: ('A' for Active; 'I' for Inactive)
REMARK    1  A    between atoms: C2_2  and  C6_6 
REMARK    2  A    between atoms: C3_3  and  C7_7 
REMARK    3  A    between atoms: C3_3  and  C8_8 
REMARK    4  A    between atoms: C8_8  and  O9_9 
ROOT
HETATM    1  C1  UNL     1     -23.758  16.773   9.854  1.00 20.00     0.018 A 
HETATM    2  C2  UNL     1     -22.687  17.719  10.317  1.00 20.00     0.011 A 
HETATM    3  C3  UNL     1     -24.148  18.141  10.391  1.00 20.00    -0.014 A 
ENDROOT
BRANCH   3   4
HETATM    4  C7  UNL     1     -24.776  18.206  11.760  1.00 20.00     0.007 C 
HETATM    5  C4  UNL     1     -26.063  18.980  11.762  1.00 20.00     0.006 C 
ENDBRANCH   3   4
BRANCH   3   6
HETATM    6  C8  UNL     1     -24.692  19.154   9.420  1.00 20.00     0.176 C 
BRANCH   6   7
HETATM    7  O9  UNL     1     -25.147  18.485   8.249  1.00 20.00    -0.395 OA
HETATM    8  C5  UNL     1     -24.803  19.204   7.072  1.00 20.00     0.201 C 
ENDBRANCH   6   7
ENDBRANCH   3   6
BRANCH   2   9
HETATM    9  C6  UNL     1     -21.729  18.308   9.339  1.00 20.00     0.120 C 
HETATM   10 CL10 UNL     1     -21.709  17.381   7.814  1.00 20.00    -0.130 Cl
ENDBRANCH   2   9
TORSDOF 4
ENDMDL
MODEL 2
REMARK VINA RESULT:      -3.6     16.181     17.574
REMARK  4 active torsions:
REMARK  status: ('A' for Active; 'I' for Inactive)
REMARK    1  A    between atoms: C2_2  and  C6_6 
REMARK    2  A    between atoms: C3_3  and  C7_7 
REMARK    3  A    between atoms: C3_3  and  C8_8 
REMARK    4  A    between atoms: C8_8  and  O9_9 
ROOT
HETATM    1  C1  UNL     1     -33.260  16.018  -3.307  1.00 20.00     0.018 A 
HETATM    2  C2  UNL     1     -34.363  15.986  -2.288  1.00 20.00     0.011 A 
HETATM    3  C3  UNL     1     -34.634  15.508  -3.709  1.00 20.00    -0.014 A 
ENDROOT
BRANCH   3   4
HETATM    4  C7  UNL     1     -34.803  14.025  -3.915  1.00 20.00     0.007 C 
HETATM    5  C4  UNL     1     -36.121  13.681  -4.545  1.00 20.00     0.006 C 
ENDBRANCH   3   4
BRANCH   3   6
HETATM    6  C8  UNL     1     -35.455  16.353  -4.646  1.00 20.00     0.176 C 
BRANCH   6   7
HETATM    7  O9  UNL     1     -34.594  16.992  -5.581  1.00 20.00    -0.395 OA
HETATM    8  C5  UNL     1     -34.638  16.354  -6.850  1.00 20.00     0.201 C 
ENDBRANCH   6   7
ENDBRANCH   3   6
BRANCH   2   9
HETATM    9  C6  UNL     1     -34.925  17.257  -1.747  1.00 20.00     0.120 C 
HETATM   10 CL10 UNL     1     -35.446  17.062  -0.050  1.00 20.00    -0.130 Cl
ENDBRANCH   2   9
TORSDOF 4
ENDMDL
MODEL 3
REMARK VINA RESULT:      -3.5     16.651     18.203
REMARK  4 active torsions:
REMARK  status: ('A' for Active; 'I' for Inactive)
REMARK    1  A    between atoms: C2_2  and  C6_6 
REMARK    2  A    between atoms: C3_3  and  C7_7 
REMARK    3  A    between atoms: C3_3  and  C8_8 
REMARK    4  A    between atoms: C8_8  and  O9_9 
ROOT
HETATM    1  C1  UNL     1     -34.386  13.854  -3.973  1.00 20.00     0.018 A 
HETATM    2  C2  UNL     1     -33.958  14.960  -4.895  1.00 20.00     0.011 A 
HETATM    3  C3  UNL     1     -34.813  15.283  -3.677  1.00 20.00    -0.014 A 
ENDROOT
BRANCH   3   4
HETATM    4  C7  UNL     1     -34.139  15.996  -2.533  1.00 20.00     0.007 C 
HETATM    5  C4  UNL     1     -35.119  16.488  -1.508  1.00 20.00     0.006 C 
ENDBRANCH   3   4
BRANCH   3   6
HETATM    6  C8  UNL     1     -36.266  15.637  -3.847  1.00 20.00     0.176 C 
BRANCH   6   7
HETATM    7  O9  UNL     1     -37.050  14.451  -3.777  1.00 20.00    -0.395 OA
HETATM    8  C5  UNL     1     -38.362  14.665  -4.277  1.00 20.00     0.201 C 
ENDBRANCH   6   7
ENDBRANCH   3   6
BRANCH   2   9
HETATM    9  C6  UNL     1     -34.486  15.026  -6.287  1.00 20.00     0.120 C 
HETATM   10 CL10 UNL     1     -34.323  16.671  -6.963  1.00 20.00    -0.130 Cl
ENDBRANCH   2   9
TORSDOF 4
ENDMDL
MODEL 4
REMARK VINA RESULT:      -3.5     16.390     18.011
REMARK  4 active torsions:
REMARK  status: ('A' for Active; 'I' for Inactive)
REMARK    1  A    between atoms: C2_2  and  C6_6 
REMARK    2  A    between atoms: C3_3  and  C7_7 
REMARK    3  A    between atoms: C3_3  and  C8_8 
REMARK    4  A    between atoms: C8_8  and  O9_9 
ROOT
HETATM    1  C1  UNL     1     -32.916  14.715  -4.322  1.00 20.00     0.018 A 
HETATM    2  C2  UNL     1     -33.604  15.643  -3.362  1.00 20.00     0.011 A 
HETATM    3  C3  UNL     1     -34.405  14.978  -4.473  1.00 20.00    -0.014 A 
ENDROOT
BRANCH   3   4
HETATM    4  C7  UNL     1     -35.358  13.882  -4.072  1.00 20.00     0.007 C 
HETATM    5  C4  UNL     1     -36.789  14.231  -4.364  1.00 20.00     0.006 C 
ENDBRANCH   3   4
BRANCH   3   6
HETATM    6  C8  UNL     1     -34.864  15.783  -5.659  1.00 20.00     0.176 C 
BRANCH   6   7
HETATM    7  O9  UNL     1     -34.474  15.120  -6.857  1.00 20.00    -0.395 OA
HETATM    8  C5  UNL     1     -35.527  15.105  -7.810  1.00 20.00     0.201 C 
ENDBRANCH   6   7
ENDBRANCH   3   6
BRANCH   2   9
HETATM    9  C6  UNL     1     -33.284  17.099  -3.364  1.00 20.00     0.120 C 
HETATM   10 CL10 UNL     1     -32.586  17.609  -1.801  1.00 20.00    -0.130 Cl
ENDBRANCH   2   9
TORSDOF 4
ENDMDL
MODEL 5
REMARK VINA RESULT:      -3.4      2.182      3.166
REMARK  4 active torsions:
REMARK  status: ('A' for Active; 'I' for Inactive)
REMARK    1  A    between atoms: C2_2  and  C6_6 
REMARK    2  A    between atoms: C3_3  and  C7_7 
REMARK    3  A    between atoms: C3_3  and  C8_8 
REMARK    4  A    between atoms: C8_8  and  O9_9 
ROOT
HETATM    1  C1  UNL     1     -25.036  17.515  10.771  1.00 20.00     0.018 A 
HETATM    2  C2  UNL     1     -23.842  18.147  11.427  1.00 20.00     0.011 A 
HETATM    3  C3  UNL     1     -23.858  17.955   9.916  1.00 20.00    -0.014 A 
ENDROOT
BRANCH   3   4
HETATM    4  C7  UNL     1     -24.026  19.189   9.069  1.00 20.00     0.007 C 
HETATM    5  C4  UNL     1     -24.926  18.956   7.889  1.00 20.00     0.006 C 
ENDBRANCH   3   4
BRANCH   3   6
HETATM    6  C8  UNL     1     -23.007  16.888   9.282  1.00 20.00     0.176 C 
BRANCH   6   7
HETATM    7  O9  UNL     1     -21.733  17.434   8.957  1.00 20.00    -0.395 OA
HETATM    8  C5  UNL     1     -21.426  17.255   7.582  1.00 20.00     0.201 C 
ENDBRANCH   6   7
ENDBRANCH   3   6
BRANCH   2   9
HETATM    9  C6  UNL     1     -22.967  17.346  12.329  1.00 20.00     0.120 C 
HETATM   10 CL10 UNL     1     -21.295  17.973  12.332  1.00 20.00    -0.130 Cl
ENDBRANCH   2   9
TORSDOF 4
ENDMDL
MODEL 6
REMARK VINA RESULT:      -3.4     15.835     17.065
REMARK  4 active torsions:
REMARK  status: ('A' for Active; 'I' for Inactive)
REMARK    1  A    between atoms: C2_2  and  C6_6 
REMARK    2  A    between atoms: C3_3  and  C7_7 
REMARK    3  A    between atoms: C3_3  and  C8_8 
REMARK    4  A    between atoms: C8_8  and  O9_9 
ROOT
HETATM    1  C1  UNL     1     -33.513  16.705  -2.440  1.00 20.00     0.018 A 
HETATM    2  C2  UNL     1     -34.765  16.275  -1.732  1.00 20.00     0.011 A 
HETATM    3  C3  UNL     1     -34.648  16.083  -3.238  1.00 20.00    -0.014 A 
ENDROOT
BRANCH   3   4
HETATM    4  C7  UNL     1     -34.466  14.674  -3.739  1.00 20.00     0.007 C 
HETATM    5  C4  UNL     1     -33.144  14.475  -4.423  1.00 20.00     0.006 C 
ENDBRANCH   3   4
BRANCH   3   6
HETATM    6  C8  UNL     1     -35.423  16.971  -4.175  1.00 20.00     0.176 C 
BRANCH   6   7
HETATM    7  O9  UNL     1     -34.515  17.772  -4.922  1.00 20.00    -0.395 OA
HETATM    8  C5  UNL     1     -34.545  17.443  -6.304  1.00 20.00     0.201 C 
ENDBRANCH   6   7
ENDBRANCH   3   6
BRANCH   2   9
HETATM    9  C6  UNL     1     -35.670  17.289  -1.119  1.00 20.00     0.120 C 
HETATM   10 CL10 UNL     1     -35.646  17.184   0.663  1.00 20.00    -0.130 Cl
ENDBRANCH   2   9
TORSDOF 4
ENDMDL
MODEL 7
REMARK VINA RESULT:      -3.3     15.974     17.933
REMARK  4 active torsions:
REMARK  status: ('A' for Active; 'I' for Inactive)
REMARK    1  A    between atoms: C2_2  and  C6_6 
REMARK    2  A    between atoms: C3_3  and  C7_7 
REMARK    3  A    between atoms: C3_3  and  C8_8 
REMARK    4  A    between atoms: C8_8  and  O9_9 
ROOT
HETATM    1  C1  UNL     1     -35.461  15.734  -2.727  1.00 20.00     0.018 A 
HETATM    2  C2  UNL     1     -34.943  14.573  -3.526  1.00 20.00     0.011 A 
HETATM    3  C3  UNL     1     -34.362  15.963  -3.752  1.00 20.00    -0.014 A 
ENDROOT
BRANCH   3   4
HETATM    4  C7  UNL     1     -32.966  16.215  -3.243  1.00 20.00     0.007 C 
HETATM    5  C4  UNL     1     -32.910  17.356  -2.268  1.00 20.00     0.006 C 
ENDBRANCH   3   4
BRANCH   3   6
HETATM    6  C8  UNL     1     -34.707  16.731  -4.999  1.00 20.00     0.176 C 
BRANCH   6   7
HETATM    7  O9  UNL     1     -35.694  17.709  -4.692  1.00 20.00    -0.395 OA
HETATM    8  C5  UNL     1     -36.742  17.709  -5.651  1.00 20.00     0.201 C 
ENDBRANCH   6   7
ENDBRANCH   3   6
BRANCH   2   9
HETATM    9  C6  UNL     1     -35.818  13.896  -4.525  1.00 20.00     0.120 C 
HETATM   10 CL10 UNL     1     -37.527  14.369  -4.312  1.00 20.00    -0.130 Cl
ENDBRANCH   2   9
TORSDOF 4
ENDMDL
MODEL 8
REMARK VINA RESULT:      -3.3     14.782     16.768
REMARK  4 active torsions:
REMARK  status: ('A' for Active; 'I' for Inactive)
REMARK    1  A    between atoms: C2_2  and  C6_6 
REMARK    2  A    between atoms: C3_3  and  C7_7 
REMARK    3  A    between atoms: C3_3  and  C8_8 
REMARK    4  A    between atoms: C8_8  and  O9_9 
ROOT
HETATM    1  C1  UNL     1     -33.795  17.379  -4.011  1.00 20.00     0.018 A 
HETATM    2  C2  UNL     1     -32.904  17.039  -2.851  1.00 20.00     0.011 A 
HETATM    3  C3  UNL     1     -33.850  15.984  -3.408  1.00 20.00    -0.014 A 
ENDROOT
BRANCH   3   4
HETATM    4  C7  UNL     1     -33.235  14.854  -4.192  1.00 20.00     0.007 C 
HETATM    5  C4  UNL     1     -33.718  14.813  -5.613  1.00 20.00     0.006 C 
ENDBRANCH   3   4
BRANCH   3   6
HETATM    6  C8  UNL     1     -35.084  15.594  -2.639  1.00 20.00     0.176 C 
BRANCH   6   7
HETATM    7  O9  UNL     1     -36.236  16.075  -3.322  1.00 20.00    -0.395 OA
HETATM    8  C5  UNL     1     -36.952  15.017  -3.944  1.00 20.00     0.201 C 
ENDBRANCH   6   7
ENDBRANCH   3   6
BRANCH   2   9
HETATM    9  C6  UNL     1     -33.114  17.686  -1.525  1.00 20.00     0.120 C 
HETATM   10 CL10 UNL     1     -31.568  18.240  -0.823  1.00 20.00    -0.130 Cl
ENDBRANCH   2   9
TORSDOF 4
ENDMDL
MODEL 9
REMARK VINA RESULT:      -3.3     14.360     16.195
REMARK  4 active torsions:
REMARK  status: ('A' for Active; 'I' for Inactive)
REMARK    1  A    between atoms: C2_2  and  C6_6 
REMARK    2  A    between atoms: C3_3  and  C7_7 
REMARK    3  A    between atoms: C3_3  and  C8_8 
REMARK    4  A    between atoms: C8_8  and  O9_9 
ROOT
HETATM    1  C1  UNL     1     -33.568  17.641  -3.719  1.00 20.00     0.018 A 
HETATM    2  C2  UNL     1     -32.768  17.163  -2.542  1.00 20.00     0.011 A 
HETATM    3  C3  UNL     1     -33.925  16.319  -3.059  1.00 20.00    -0.014 A 
ENDROOT
BRANCH   3   4
HETATM    4  C7  UNL     1     -33.577  15.049  -3.792  1.00 20.00     0.007 C 
HETATM    5  C4  UNL     1     -34.765  14.150  -3.976  1.00 20.00     0.006 C 
ENDBRANCH   3   4
BRANCH   3   6
HETATM    6  C8  UNL     1     -35.211  16.243  -2.280  1.00 20.00     0.176 C 
BRANCH   6   7
HETATM    7  O9  UNL     1     -36.135  17.191  -2.802  1.00 20.00    -0.395 OA
HETATM    8  C5  UNL     1     -36.697  17.992  -1.772  1.00 20.00     0.201 C 
ENDBRANCH   6   7
ENDBRANCH   3   6
BRANCH   2   9
HETATM    9  C6  UNL     1     -32.825  17.896  -1.246  1.00 20.00     0.120 C 
HETATM   10 CL10 UNL     1     -31.186  18.217  -0.612  1.00 20.00    -0.130 Cl
ENDBRANCH   2   9
TORSDOF 4
ENDMDL
