MODEL 1
REMARK VINA RESULT:      -3.9      0.000      0.000
REMARK  2 active torsions:
REMARK  status: ('A' for Active; 'I' for Inactive)
REMARK    1  A    between atoms: C4_4  and  C9_9 
REMARK    2  A    between atoms: C5_5  and  C6_6 
ROOT
HETATM    1  C3  UNL     1     -34.304  15.149  -6.631  1.00 20.00     0.017 A 
HETATM    2  C4  UNL     1     -35.627  15.214  -5.922  1.00 20.00     0.009 A 
HETATM    3  C6  UNL     1     -34.436  15.990  -5.373  1.00 20.00    -0.032 A 
HETATM    4  C8  UNL     1     -34.482  17.487  -5.567  1.00 20.00     0.016 C 
ENDROOT
BRANCH   3   5
HETATM    5  C5  UNL     1     -33.716  15.570  -4.084  1.00 20.00    -0.036 A 
HETATM    6  C1  UNL     1     -33.367  16.602  -3.037  1.00 20.00     0.011 A 
HETATM    7  C2  UNL     1     -34.447  15.594  -2.762  1.00 20.00     0.011 A 
HETATM    8  C7  UNL     1     -32.723  14.452  -4.283  1.00 20.00     0.016 C 
ENDBRANCH   3   5
BRANCH   2   9
HETATM    9  C9  UNL     1     -36.169  14.008  -5.235  1.00 20.00     0.120 C 
HETATM   10 CL10 UNL     1     -37.624  14.407  -4.278  1.00 20.00    -0.130 Cl
ENDBRANCH   2   9
TORSDOF 2
ENDMDL
MODEL 2
REMARK VINA RESULT:      -3.9      1.188      2.275
REMARK  2 active torsions:
REMARK  status: ('A' for Active; 'I' for Inactive)
REMARK    1  A    between atoms: C4_4  and  C9_9 
REMARK    2  A    between atoms: C5_5  and  C6_6 
ROOT
HETATM    1  C3  UNL     1     -35.304  13.940  -4.017  1.00 20.00     0.017 A 
HETATM    2  C4  UNL     1     -35.202  14.847  -5.210  1.00 20.00     0.009 A 
HETATM    3  C6  UNL     1     -34.187  14.967  -4.082  1.00 20.00    -0.032 A 
HETATM    4  C8  UNL     1     -32.804  14.438  -4.383  1.00 20.00     0.016 C 
ENDROOT
BRANCH   3   5
HETATM    5  C5  UNL     1     -34.178  16.161  -3.117  1.00 20.00    -0.036 A 
HETATM    6  C1  UNL     1     -32.887  16.882  -2.809  1.00 20.00     0.011 A 
HETATM    7  C2  UNL     1     -33.941  17.559  -3.639  1.00 20.00     0.011 A 
HETATM    8  C7  UNL     1     -35.161  16.027  -1.981  1.00 20.00     0.016 C 
ENDBRANCH   3   5
BRANCH   2   9
HETATM    9  C9  UNL     1     -36.242  15.886  -5.452  1.00 20.00     0.120 C 
HETATM   10 CL10 UNL     1     -37.753  15.504  -4.580  1.00 20.00    -0.130 Cl
ENDBRANCH   2   9
TORSDOF 2
ENDMDL
MODEL 3
REMARK VINA RESULT:      -3.7      1.010      1.032
REMARK  2 active torsions:
REMARK  status: ('A' for Active; 'I' for Inactive)
REMARK    1  A    between atoms: C4_4  and  C9_9 
REMARK    2  A    between atoms: C5_5  and  C6_6 
ROOT
HETATM    1  C3  UNL     1     -35.017  15.812  -6.121  1.00 20.00     0.017 A 
HETATM    2  C4  UNL     1     -36.062  16.268  -5.143  1.00 20.00     0.009 A 
HETATM    3  C6  UNL     1     -34.601  16.628  -4.910  1.00 20.00    -0.032 A 
HETATM    4  C8  UNL     1     -34.230  18.071  -5.166  1.00 20.00     0.016 C 
ENDROOT
BRANCH   3   5
HETATM    5  C5  UNL     1     -33.771  15.983  -3.791  1.00 20.00    -0.036 A 
HETATM    6  C1  UNL     1     -33.075  16.845  -2.764  1.00 20.00     0.011 A 
HETATM    7  C2  UNL     1     -34.263  16.018  -2.362  1.00 20.00     0.011 A 
HETATM    8  C7  UNL     1     -33.046  14.732  -4.221  1.00 20.00     0.016 C 
ENDBRANCH   3   5
BRANCH   2   9
HETATM    9  C9  UNL     1     -36.777  15.275  -4.293  1.00 20.00     0.120 C 
HETATM   10 CL10 UNL     1     -36.395  13.603  -4.791  1.00 20.00    -0.130 Cl
ENDBRANCH   2   9
TORSDOF 2
ENDMDL
MODEL 4
REMARK VINA RESULT:      -3.7     17.994     19.296
REMARK  2 active torsions:
REMARK  status: ('A' for Active; 'I' for Inactive)
REMARK    1  A    between atoms: C4_4  and  C9_9 
REMARK    2  A    between atoms: C5_5  and  C6_6 
ROOT
HETATM    1  C3  UNL     1     -23.845  16.514   9.913  1.00 20.00     0.017 A 
HETATM    2  C4  UNL     1     -23.062  16.930  11.126  1.00 20.00     0.009 A 
HETATM    3  C6  UNL     1     -24.583  17.002  11.148  1.00 20.00    -0.032 A 
HETATM    4  C8  UNL     1     -25.278  15.946  11.976  1.00 20.00     0.016 C 
ENDROOT
BRANCH   3   5
HETATM    5  C5  UNL     1     -25.336  18.338  11.120  1.00 20.00    -0.036 A 
HETATM    6  C1  UNL     1     -26.580  18.530  11.956  1.00 20.00     0.011 A 
HETATM    7  C2  UNL     1     -25.314  19.249  12.326  1.00 20.00     0.011 A 
HETATM    8  C7  UNL     1     -25.323  19.012   9.770  1.00 20.00     0.016 C 
ENDBRANCH   3   5
BRANCH   2   9
HETATM    9  C9  UNL     1     -22.214  18.154  11.085  1.00 20.00     0.120 C 
HETATM   10 CL10 UNL     1     -21.588  18.454   9.439  1.00 20.00    -0.130 Cl
ENDBRANCH   2   9
TORSDOF 2
ENDMDL
MODEL 5
REMARK VINA RESULT:      -3.7      2.153      3.755
REMARK  2 active torsions:
REMARK  status: ('A' for Active; 'I' for Inactive)
REMARK    1  A    between atoms: C4_4  and  C9_9 
REMARK    2  A    between atoms: C5_5  and  C6_6 
ROOT
HETATM    1  C3  UNL     1     -33.511  16.916  -3.642  1.00 20.00     0.017 A 
HETATM    2  C4  UNL     1     -33.970  16.033  -2.516  1.00 20.00     0.009 A 
HETATM    3  C6  UNL     1     -34.127  15.563  -3.956  1.00 20.00    -0.032 A 
HETATM    4  C8  UNL     1     -33.175  14.478  -4.400  1.00 20.00     0.016 C 
ENDROOT
BRANCH   3   5
HETATM    5  C5  UNL     1     -35.499  15.480  -4.640  1.00 20.00    -0.036 A 
HETATM    6  C1  UNL     1     -35.887  14.245  -5.419  1.00 20.00     0.011 A 
HETATM    7  C2  UNL     1     -36.558  14.542  -4.108  1.00 20.00     0.011 A 
HETATM    8  C7  UNL     1     -35.983  16.800  -5.187  1.00 20.00     0.016 C 
ENDBRANCH   3   5
BRANCH   2   9
HETATM    9  C9  UNL     1     -35.139  16.431  -1.682  1.00 20.00     0.120 C 
HETATM   10 CL10 UNL     1     -34.647  17.525  -0.359  1.00 20.00    -0.130 Cl
ENDBRANCH   2   9
TORSDOF 2
ENDMDL
MODEL 6
REMARK VINA RESULT:      -3.7      1.824      3.429
REMARK  2 active torsions:
REMARK  status: ('A' for Active; 'I' for Inactive)
REMARK    1  A    between atoms: C4_4  and  C9_9 
REMARK    2  A    between atoms: C5_5  and  C6_6 
ROOT
HETATM    1  C3  UNL     1     -32.960  17.054  -2.861  1.00 20.00     0.017 A 
HETATM    2  C4  UNL     1     -34.114  17.691  -3.583  1.00 20.00     0.009 A 
HETATM    3  C6  UNL     1     -34.236  16.259  -3.078  1.00 20.00    -0.032 A 
HETATM    4  C8  UNL     1     -35.119  16.062  -1.868  1.00 20.00     0.016 C 
ENDROOT
BRANCH   3   5
HETATM    5  C5  UNL     1     -34.245  15.057  -4.033  1.00 20.00    -0.036 A 
HETATM    6  C1  UNL     1     -35.334  14.015  -3.936  1.00 20.00     0.011 A 
HETATM    7  C2  UNL     1     -35.299  14.949  -5.111  1.00 20.00     0.011 A 
HETATM    8  C7  UNL     1     -32.867  14.558  -4.389  1.00 20.00     0.016 C 
ENDBRANCH   3   5
BRANCH   2   9
HETATM    9  C9  UNL     1     -34.005  18.011  -5.034  1.00 20.00     0.120 C 
HETATM   10 CL10 UNL     1     -35.579  18.527  -5.702  1.00 20.00    -0.130 Cl
ENDBRANCH   2   9
TORSDOF 2
ENDMDL
MODEL 7
REMARK VINA RESULT:      -3.6      1.484      1.656
REMARK  2 active torsions:
REMARK  status: ('A' for Active; 'I' for Inactive)
REMARK    1  A    between atoms: C4_4  and  C9_9 
REMARK    2  A    between atoms: C5_5  and  C6_6 
ROOT
HETATM    1  C3  UNL     1     -36.204  15.679  -5.855  1.00 20.00     0.017 A 
HETATM    2  C4  UNL     1     -36.818  16.677  -4.915  1.00 20.00     0.009 A 
HETATM    3  C6  UNL     1     -35.334  16.353  -4.808  1.00 20.00    -0.032 A 
HETATM    4  C8  UNL     1     -34.390  17.423  -5.306  1.00 20.00     0.016 C 
ENDROOT
BRANCH   3   5
HETATM    5  C5  UNL     1     -34.760  15.540  -3.640  1.00 20.00    -0.036 A 
HETATM    6  C1  UNL     1     -33.608  16.082  -2.827  1.00 20.00     0.011 A 
HETATM    7  C2  UNL     1     -34.977  15.997  -2.215  1.00 20.00     0.011 A 
HETATM    8  C7  UNL     1     -34.773  14.050  -3.876  1.00 20.00     0.016 C 
ENDBRANCH   3   5
BRANCH   2   9
HETATM    9  C9  UNL     1     -37.800  16.233  -3.887  1.00 20.00     0.120 C 
HETATM   10 CL10 UNL     1     -38.417  14.595  -4.247  1.00 20.00    -0.130 Cl
ENDBRANCH   2   9
TORSDOF 2
ENDMDL
MODEL 8
REMARK VINA RESULT:      -3.6      2.020      2.922
REMARK  2 active torsions:
REMARK  status: ('A' for Active; 'I' for Inactive)
REMARK    1  A    between atoms: C4_4  and  C9_9 
REMARK    2  A    between atoms: C5_5  and  C6_6 
ROOT
HETATM    1  C3  UNL     1     -36.404  15.817  -6.275  1.00 20.00     0.017 A 
HETATM    2  C4  UNL     1     -35.356  14.745  -6.374  1.00 20.00     0.009 A 
HETATM    3  C6  UNL     1     -35.837  15.206  -5.005  1.00 20.00    -0.032 A 
HETATM    4  C8  UNL     1     -36.734  14.241  -4.265  1.00 20.00     0.016 C 
ENDROOT
BRANCH   3   5
HETATM    5  C5  UNL     1     -34.955  16.046  -4.071  1.00 20.00    -0.036 A 
HETATM    6  C1  UNL     1     -34.819  15.674  -2.613  1.00 20.00     0.011 A 
HETATM    7  C2  UNL     1     -33.655  15.483  -3.543  1.00 20.00     0.011 A 
HETATM    8  C7  UNL     1     -34.968  17.520  -4.391  1.00 20.00     0.016 C 
ENDBRANCH   3   5
BRANCH   2   9
HETATM    9  C9  UNL     1     -33.995  15.074  -6.886  1.00 20.00     0.120 C 
HETATM   10 CL10 UNL     1     -34.027  16.531  -7.918  1.00 20.00    -0.130 Cl
ENDBRANCH   2   9
TORSDOF 2
ENDMDL
MODEL 9
REMARK VINA RESULT:      -3.5      1.975      2.664
REMARK  2 active torsions:
REMARK  status: ('A' for Active; 'I' for Inactive)
REMARK    1  A    between atoms: C4_4  and  C9_9 
REMARK    2  A    between atoms: C5_5  and  C6_6 
ROOT
HETATM    1  C3  UNL     1     -36.619  16.073  -5.094  1.00 20.00     0.017 A 
HETATM    2  C4  UNL     1     -35.815  15.466  -6.209  1.00 20.00     0.009 A 
HETATM    3  C6  UNL     1     -35.596  14.995  -4.778  1.00 20.00    -0.032 A 
HETATM    4  C8  UNL     1     -36.142  13.626  -4.446  1.00 20.00     0.016 C 
ENDROOT
BRANCH   3   5
HETATM    5  C5  UNL     1     -34.325  15.344  -3.991  1.00 20.00    -0.036 A 
HETATM    6  C1  UNL     1     -34.033  16.777  -3.611  1.00 20.00     0.011 A 
HETATM    7  C2  UNL     1     -34.420  15.788  -2.549  1.00 20.00     0.011 A 
HETATM    8  C7  UNL     1     -33.136  14.489  -4.354  1.00 20.00     0.016 C 
ENDBRANCH   3   5
BRANCH   2   9
HETATM    9  C9  UNL     1     -34.805  16.286  -6.935  1.00 20.00     0.120 C 
HETATM   10 CL10 UNL     1     -33.723  15.259  -7.918  1.00 20.00    -0.130 Cl
ENDBRANCH   2   9
TORSDOF 2
ENDMDL
