MODEL 1
REMARK VINA RESULT:      -4.8      0.000      0.000
REMARK  1 active torsions:
REMARK  status: ('A' for Active; 'I' for Inactive)
REMARK    1  A    between atoms: C1_1  and  C5_5 
ROOT
HETATM    1  C2  UNL     1     -36.244  16.163  -3.062  1.00 20.00     0.013 C 
HETATM    2  C3  UNL     1     -34.927  15.404  -2.911  1.00 20.00     0.009 C 
HETATM    3  C4  UNL     1     -34.527  16.342  -5.263  1.00 20.00     0.013 C 
HETATM    4  C5  UNL     1     -36.884  15.933  -4.439  1.00 20.00     0.059 C 
HETATM    5  C6  UNL     1     -35.856  15.630  -5.551  1.00 20.00    -0.007 C 
HETATM    6  C7  UNL     1     -33.867  15.853  -3.948  1.00 20.00    -0.047 C 
HETATM    7  C9  UNL     1     -36.400  16.043  -6.920  1.00 20.00     0.011 C 
HETATM    8  C10 UNL     1     -33.016  16.998  -3.366  1.00 20.00     0.015 C 
HETATM    9  C11 UNL     1     -32.929  14.665  -4.240  1.00 20.00     0.015 C 
ENDROOT
BRANCH   4  10
HETATM   10  C1  UNL     1     -37.861  14.797  -4.339  1.00 20.00     0.127 C 
HETATM   11  C8  UNL     1     -39.297  15.161  -4.074  1.00 20.00     0.091 C 
HETATM   12  O12 UNL     1     -37.505  13.627  -4.468  1.00 20.00    -0.298 OA
ENDBRANCH   4  10
TORSDOF 1
ENDMDL
MODEL 2
REMARK VINA RESULT:      -4.6      1.822      2.730
REMARK  1 active torsions:
REMARK  status: ('A' for Active; 'I' for Inactive)
REMARK    1  A    between atoms: C1_1  and  C5_5 
ROOT
HETATM    1  C2  UNL     1     -35.833  14.771  -3.847  1.00 20.00     0.013 C 
HETATM    2  C3  UNL     1     -34.556  15.102  -3.077  1.00 20.00     0.009 C 
HETATM    3  C4  UNL     1     -35.267  17.502  -3.628  1.00 20.00     0.013 C 
HETATM    4  C5  UNL     1     -35.952  15.592  -5.140  1.00 20.00     0.059 C 
HETATM    5  C6  UNL     1     -35.242  16.962  -5.064  1.00 20.00    -0.007 C 
HETATM    6  C7  UNL     1     -34.500  16.587  -2.638  1.00 20.00    -0.047 C 
HETATM    7  C9  UNL     1     -35.890  17.962  -6.025  1.00 20.00     0.011 C 
HETATM    8  C10 UNL     1     -35.121  16.744  -1.237  1.00 20.00     0.015 C 
HETATM    9  C11 UNL     1     -33.024  17.022  -2.556  1.00 20.00     0.015 C 
ENDROOT
BRANCH   4  10
HETATM   10  C1  UNL     1     -35.380  14.795  -6.276  1.00 20.00     0.127 C 
HETATM   11  C8  UNL     1     -33.947  15.073  -6.644  1.00 20.00     0.091 C 
HETATM   12  O12 UNL     1     -36.049  13.956  -6.877  1.00 20.00    -0.298 OA
ENDBRANCH   4  10
TORSDOF 1
ENDMDL
MODEL 3
REMARK VINA RESULT:      -4.6      1.773      2.924
REMARK  1 active torsions:
REMARK  status: ('A' for Active; 'I' for Inactive)
REMARK    1  A    between atoms: C1_1  and  C5_5 
ROOT
HETATM    1  C2  UNL     1     -35.474  16.939  -4.984  1.00 20.00     0.013 C 
HETATM    2  C3  UNL     1     -35.879  17.111  -3.521  1.00 20.00     0.009 C 
HETATM    3  C4  UNL     1     -33.469  16.328  -3.131  1.00 20.00     0.013 C 
HETATM    4  C5  UNL     1     -34.715  15.625  -5.218  1.00 20.00     0.059 C 
HETATM    5  C6  UNL     1     -33.937  15.136  -3.977  1.00 20.00    -0.007 C 
HETATM    6  C7  UNL     1     -34.654  17.158  -2.573  1.00 20.00    -0.047 C 
HETATM    7  C9  UNL     1     -32.744  14.271  -4.390  1.00 20.00     0.011 C 
HETATM    8  C10 UNL     1     -34.191  18.615  -2.385  1.00 20.00     0.015 C 
HETATM    9  C11 UNL     1     -35.076  16.612  -1.195  1.00 20.00     0.015 C 
ENDROOT
BRANCH   4  10
HETATM   10  C1  UNL     1     -35.692  14.567  -5.644  1.00 20.00     0.127 C 
HETATM   11  C8  UNL     1     -36.281  13.712  -4.554  1.00 20.00     0.091 C 
HETATM   12  O12 UNL     1     -35.998  14.408  -6.824  1.00 20.00    -0.298 OA
ENDBRANCH   4  10
TORSDOF 1
ENDMDL
MODEL 4
REMARK VINA RESULT:      -4.5     18.250     19.797
REMARK  1 active torsions:
REMARK  status: ('A' for Active; 'I' for Inactive)
REMARK    1  A    between atoms: C1_1  and  C5_5 
ROOT
HETATM    1  C2  UNL     1     -24.232  18.721   9.524  1.00 20.00     0.013 C 
HETATM    2  C3  UNL     1     -25.375  17.936  10.165  1.00 20.00     0.009 C 
HETATM    3  C4  UNL     1     -23.962  18.288  12.274  1.00 20.00     0.013 C 
HETATM    4  C5  UNL     1     -22.858  18.225   9.998  1.00 20.00     0.059 C 
HETATM    5  C6  UNL     1     -22.883  17.613  11.416  1.00 20.00    -0.007 C 
HETATM    6  C7  UNL     1     -25.389  18.070  11.708  1.00 20.00    -0.047 C 
HETATM    7  C9  UNL     1     -21.512  17.737  12.084  1.00 20.00     0.011 C 
HETATM    8  C10 UNL     1     -26.272  19.263  12.123  1.00 20.00     0.015 C 
HETATM    9  C11 UNL     1     -26.004  16.791  12.309  1.00 20.00     0.015 C 
ENDROOT
BRANCH   4  10
HETATM   10  C1  UNL     1     -22.346  17.205   9.023  1.00 20.00     0.127 C 
HETATM   11  C8  UNL     1     -21.296  17.667   8.049  1.00 20.00     0.091 C 
HETATM   12  O12 UNL     1     -22.763  16.048   9.021  1.00 20.00    -0.298 OA
ENDBRANCH   4  10
TORSDOF 1
ENDMDL
MODEL 5
REMARK VINA RESULT:      -4.5      1.655      3.271
REMARK  1 active torsions:
REMARK  status: ('A' for Active; 'I' for Inactive)
REMARK    1  A    between atoms: C1_1  and  C5_5 
ROOT
HETATM    1  C2  UNL     1     -34.898  14.968  -6.379  1.00 20.00     0.013 C 
HETATM    2  C3  UNL     1     -35.694  16.222  -6.736  1.00 20.00     0.009 C 
HETATM    3  C4  UNL     1     -34.394  17.183  -4.746  1.00 20.00     0.013 C 
HETATM    4  C5  UNL     1     -34.891  14.705  -4.865  1.00 20.00     0.059 C 
HETATM    5  C6  UNL     1     -35.028  15.990  -4.019  1.00 20.00    -0.007 C 
HETATM    6  C7  UNL     1     -35.101  17.500  -6.090  1.00 20.00    -0.047 C 
HETATM    7  C9  UNL     1     -34.390  15.801  -2.641  1.00 20.00     0.011 C 
HETATM    8  C10 UNL     1     -34.079  18.145  -7.045  1.00 20.00     0.015 C 
HETATM    9  C11 UNL     1     -36.241  18.511  -5.860  1.00 20.00     0.015 C 
ENDROOT
BRANCH   4  10
HETATM   10  C1  UNL     1     -36.012  13.764  -4.530  1.00 20.00     0.127 C 
HETATM   11  C8  UNL     1     -37.362  14.380  -4.282  1.00 20.00     0.091 C 
HETATM   12  O12 UNL     1     -35.836  12.549  -4.462  1.00 20.00    -0.298 OA
ENDBRANCH   4  10
TORSDOF 1
ENDMDL
MODEL 6
REMARK VINA RESULT:      -4.4      1.416      2.547
REMARK  1 active torsions:
REMARK  status: ('A' for Active; 'I' for Inactive)
REMARK    1  A    between atoms: C1_1  and  C5_5 
ROOT
HETATM    1  C2  UNL     1     -34.405  15.083  -3.132  1.00 20.00     0.013 C 
HETATM    2  C3  UNL     1     -33.619  16.209  -3.801  1.00 20.00     0.009 C 
HETATM    3  C4  UNL     1     -35.791  17.502  -3.368  1.00 20.00     0.013 C 
HETATM    4  C5  UNL     1     -35.842  14.990  -3.667  1.00 20.00     0.059 C 
HETATM    5  C6  UNL     1     -36.400  16.341  -4.166  1.00 20.00    -0.007 C 
HETATM    6  C7  UNL     1     -34.253  17.600  -3.548  1.00 20.00    -0.047 C 
HETATM    7  C9  UNL     1     -37.927  16.366  -4.068  1.00 20.00     0.011 C 
HETATM    8  C10 UNL     1     -33.647  18.231  -2.280  1.00 20.00     0.015 C 
HETATM    9  C11 UNL     1     -33.921  18.518  -4.740  1.00 20.00     0.015 C 
ENDROOT
BRANCH   4  10
HETATM   10  C1  UNL     1     -35.881  13.990  -4.786  1.00 20.00     0.127 C 
HETATM   11  C8  UNL     1     -35.741  14.531  -6.183  1.00 20.00     0.091 C 
HETATM   12  O12 UNL     1     -36.019  12.786  -4.572  1.00 20.00    -0.298 OA
ENDBRANCH   4  10
TORSDOF 1
ENDMDL
MODEL 7
REMARK VINA RESULT:      -4.4      1.951      3.092
REMARK  1 active torsions:
REMARK  status: ('A' for Active; 'I' for Inactive)
REMARK    1  A    between atoms: C1_1  and  C5_5 
ROOT
HETATM    1  C2  UNL     1     -34.860  15.893  -2.209  1.00 20.00     0.013 C 
HETATM    2  C3  UNL     1     -33.713  16.899  -2.123  1.00 20.00     0.009 C 
HETATM    3  C4  UNL     1     -35.024  18.018  -4.021  1.00 20.00     0.013 C 
HETATM    4  C5  UNL     1     -35.187  15.519  -3.663  1.00 20.00     0.059 C 
HETATM    5  C6  UNL     1     -34.858  16.639  -4.673  1.00 20.00    -0.007 C 
HETATM    6  C7  UNL     1     -34.046  18.233  -2.836  1.00 20.00    -0.047 C 
HETATM    7  C9  UNL     1     -35.743  16.524  -5.917  1.00 20.00     0.011 C 
HETATM    8  C10 UNL     1     -34.689  19.216  -1.839  1.00 20.00     0.015 C 
HETATM    9  C11 UNL     1     -32.735  18.862  -3.345  1.00 20.00     0.015 C 
ENDROOT
BRANCH   4  10
HETATM   10  C1  UNL     1     -34.426  14.277  -4.028  1.00 20.00     0.127 C 
HETATM   11  C8  UNL     1     -32.988  14.458  -4.431  1.00 20.00     0.091 C 
HETATM   12  O12 UNL     1     -34.953  13.166  -3.999  1.00 20.00    -0.298 OA
ENDBRANCH   4  10
TORSDOF 1
ENDMDL
MODEL 8
REMARK VINA RESULT:      -4.4      2.094      4.369
REMARK  1 active torsions:
REMARK  status: ('A' for Active; 'I' for Inactive)
REMARK    1  A    between atoms: C1_1  and  C5_5 
ROOT
HETATM    1  C2  UNL     1     -35.447  16.271  -2.416  1.00 20.00     0.013 C 
HETATM    2  C3  UNL     1     -36.322  16.548  -3.637  1.00 20.00     0.009 C 
HETATM    3  C4  UNL     1     -35.084  14.496  -4.548  1.00 20.00     0.013 C 
HETATM    4  C5  UNL     1     -33.992  15.975  -2.809  1.00 20.00     0.059 C 
HETATM    5  C6  UNL     1     -33.851  15.346  -4.212  1.00 20.00    -0.007 C 
HETATM    6  C7  UNL     1     -36.385  15.338  -4.603  1.00 20.00    -0.047 C 
HETATM    7  C9  UNL     1     -32.577  14.503  -4.304  1.00 20.00     0.011 C 
HETATM    8  C10 UNL     1     -37.575  14.432  -4.231  1.00 20.00     0.015 C 
HETATM    9  C11 UNL     1     -36.614  15.860  -6.034  1.00 20.00     0.015 C 
ENDROOT
BRANCH   4  10
HETATM   10  C1  UNL     1     -33.202  17.250  -2.751  1.00 20.00     0.127 C 
HETATM   11  C8  UNL     1     -32.821  17.749  -1.383  1.00 20.00     0.091 C 
HETATM   12  O12 UNL     1     -32.881  17.858  -3.771  1.00 20.00    -0.298 OA
ENDBRANCH   4  10
TORSDOF 1
ENDMDL
MODEL 9
REMARK VINA RESULT:      -4.4     16.037     18.372
REMARK  1 active torsions:
REMARK  status: ('A' for Active; 'I' for Inactive)
REMARK    1  A    between atoms: C1_1  and  C5_5 
ROOT
HETATM    1  C2  UNL     1     -24.236  19.258   9.469  1.00 20.00     0.013 C 
HETATM    2  C3  UNL     1     -24.837  18.047  10.180  1.00 20.00     0.009 C 
HETATM    3  C4  UNL     1     -22.470  17.121   9.847  1.00 20.00     0.013 C 
HETATM    4  C5  UNL     1     -23.399  18.848   8.248  1.00 20.00     0.059 C 
HETATM    5  C6  UNL     1     -22.772  17.443   8.377  1.00 20.00    -0.007 C 
HETATM    6  C7  UNL     1     -23.752  17.081  10.719  1.00 20.00    -0.047 C 
HETATM    7  C9  UNL     1     -21.501  17.336   7.533  1.00 20.00     0.011 C 
HETATM    8  C10 UNL     1     -23.379  17.465  12.163  1.00 20.00     0.015 C 
HETATM    9  C11 UNL     1     -24.330  15.653  10.741  1.00 20.00     0.015 C 
ENDROOT
BRANCH   4  10
HETATM   10  C1  UNL     1     -24.266  18.898   7.024  1.00 20.00     0.127 C 
HETATM   11  C8  UNL     1     -25.743  18.694   7.232  1.00 20.00     0.091 C 
HETATM   12  O12 UNL     1     -23.795  19.097   5.906  1.00 20.00    -0.298 OA
ENDBRANCH   4  10
TORSDOF 1
ENDMDL
