MODEL 1
REMARK VINA RESULT:      -4.2      0.000      0.000
REMARK  1 active torsions:
REMARK  status: ('A' for Active; 'I' for Inactive)
REMARK    1  A    between atoms: C6_6  and  C8_8 
ROOT
HETATM    1  C1  UNL     1     -25.018  16.044  12.171  1.00 20.00     0.011 C 
HETATM    2  C2  UNL     1     -24.298  16.205  10.833  1.00 20.00     0.011 C 
HETATM    3  C3  UNL     1     -22.544  18.103  11.147  1.00 20.00     0.017 A 
HETATM    4  C4  UNL     1     -26.275  16.899  12.279  1.00 20.00     0.074 C 
HETATM    5  C5  UNL     1     -25.020  18.622  10.540  1.00 20.00     0.083 C 
HETATM    6  C6  UNL     1     -22.703  17.931   9.661  1.00 20.00     0.009 A 
HETATM    7  C7  UNL     1     -23.876  17.639  10.589  1.00 20.00    -0.027 A 
HETATM    8  S9  UNL     1     -25.891  18.668  12.127  1.00 20.00    -0.168 SA
ENDROOT
BRANCH   6   9
HETATM    9  C8  UNL     1     -21.949  16.865   8.943  1.00 20.00     0.120 C 
HETATM   10 CL10 UNL     1     -21.647  17.321   7.243  1.00 20.00    -0.130 Cl
ENDBRANCH   6   9
TORSDOF 1
ENDMDL
MODEL 2
REMARK VINA RESULT:      -4.0      3.248      4.559
REMARK  1 active torsions:
REMARK  status: ('A' for Active; 'I' for Inactive)
REMARK    1  A    between atoms: C6_6  and  C8_8 
ROOT
HETATM    1  C1  UNL     1     -23.811  19.263   8.815  1.00 20.00     0.011 C 
HETATM    2  C2  UNL     1     -24.983  18.792   9.676  1.00 20.00     0.011 C 
HETATM    3  C3  UNL     1     -24.038  18.370  12.065  1.00 20.00     0.017 A 
HETATM    4  C4  UNL     1     -23.098  18.120   8.102  1.00 20.00     0.074 C 
HETATM    5  C5  UNL     1     -23.914  16.551  10.209  1.00 20.00     0.083 C 
HETATM    6  C6  UNL     1     -25.365  17.665  12.017  1.00 20.00     0.009 A 
HETATM    7  C7  UNL     1     -24.539  17.815  10.745  1.00 20.00    -0.027 A 
HETATM    8  S9  UNL     1     -22.403  16.929   9.284  1.00 20.00    -0.168 SA
ENDROOT
BRANCH   6   9
HETATM    9  C8  UNL     1     -26.627  18.419  12.261  1.00 20.00     0.120 C 
HETATM   10 CL10 UNL     1     -28.035  17.323  12.326  1.00 20.00    -0.130 Cl
ENDBRANCH   6   9
TORSDOF 1
ENDMDL
MODEL 3
REMARK VINA RESULT:      -4.0     17.327     17.867
REMARK  1 active torsions:
REMARK  status: ('A' for Active; 'I' for Inactive)
REMARK    1  A    between atoms: C6_6  and  C8_8 
ROOT
HETATM    1  C1  UNL     1     -34.977  13.638  -3.935  1.00 20.00     0.011 C 
HETATM    2  C2  UNL     1     -34.162  14.925  -3.808  1.00 20.00     0.011 C 
HETATM    3  C3  UNL     1     -35.108  16.214  -1.753  1.00 20.00     0.017 A 
HETATM    4  C4  UNL     1     -36.187  13.786  -4.850  1.00 20.00     0.074 C 
HETATM    5  C5  UNL     1     -36.181  16.436  -4.112  1.00 20.00     0.083 C 
HETATM    6  C6  UNL     1     -34.306  17.217  -2.534  1.00 20.00     0.009 A 
HETATM    7  C7  UNL     1     -34.994  16.066  -3.258  1.00 20.00    -0.027 A 
HETATM    8  S9  UNL     1     -37.338  15.048  -4.233  1.00 20.00    -0.168 SA
ENDROOT
BRANCH   6   9
HETATM    9  C8  UNL     1     -32.829  17.301  -2.358  1.00 20.00     0.120 C 
HETATM   10 CL10 UNL     1     -32.404  18.132  -0.836  1.00 20.00    -0.130 Cl
ENDBRANCH   6   9
TORSDOF 1
ENDMDL
MODEL 4
REMARK VINA RESULT:      -4.0     16.289     16.886
REMARK  1 active torsions:
REMARK  status: ('A' for Active; 'I' for Inactive)
REMARK    1  A    between atoms: C6_6  and  C8_8 
ROOT
HETATM    1  C1  UNL     1     -35.916  15.692  -3.080  1.00 20.00     0.011 C 
HETATM    2  C2  UNL     1     -34.787  16.141  -2.153  1.00 20.00     0.011 C 
HETATM    3  C3  UNL     1     -33.483  18.012  -3.408  1.00 20.00     0.017 A 
HETATM    4  C4  UNL     1     -35.522  14.524  -3.977  1.00 20.00     0.074 C 
HETATM    5  C5  UNL     1     -32.955  15.494  -3.788  1.00 20.00     0.083 C 
HETATM    6  C6  UNL     1     -32.579  17.556  -2.296  1.00 20.00     0.009 A 
HETATM    7  C7  UNL     1     -33.560  16.576  -2.928  1.00 20.00    -0.027 A 
HETATM    8  S9  UNL     1     -34.128  14.956  -5.059  1.00 20.00    -0.168 SA
ENDROOT
BRANCH   6   9
HETATM    9  C8  UNL     1     -32.746  18.100  -0.919  1.00 20.00     0.120 C 
HETATM   10 CL10 UNL     1     -31.168  18.305  -0.109  1.00 20.00    -0.130 Cl
ENDBRANCH   6   9
TORSDOF 1
ENDMDL
MODEL 5
REMARK VINA RESULT:      -3.9     16.850     17.493
REMARK  1 active torsions:
REMARK  status: ('A' for Active; 'I' for Inactive)
REMARK    1  A    between atoms: C6_6  and  C8_8 
ROOT
HETATM    1  C1  UNL     1     -33.355  14.660  -4.269  1.00 20.00     0.011 C 
HETATM    2  C2  UNL     1     -33.091  15.942  -3.481  1.00 20.00     0.011 C 
HETATM    3  C3  UNL     1     -35.060  16.211  -1.800  1.00 20.00     0.017 A 
HETATM    4  C4  UNL     1     -34.141  14.900  -5.553  1.00 20.00     0.074 C 
HETATM    5  C5  UNL     1     -35.236  17.062  -4.253  1.00 20.00     0.083 C 
HETATM    6  C6  UNL     1     -34.394  17.558  -1.873  1.00 20.00     0.009 A 
HETATM    7  C7  UNL     1     -34.378  16.636  -3.087  1.00 20.00    -0.027 A 
HETATM    8  S9  UNL     1     -35.772  15.621  -5.211  1.00 20.00    -0.168 SA
ENDROOT
BRANCH   6   9
HETATM    9  C8  UNL     1     -33.184  17.844  -1.052  1.00 20.00     0.120 C 
HETATM   10 CL10 UNL     1     -32.181  19.117  -1.799  1.00 20.00    -0.130 Cl
ENDBRANCH   6   9
TORSDOF 1
ENDMDL
MODEL 6
REMARK VINA RESULT:      -3.8     16.975     17.534
REMARK  1 active torsions:
REMARK  status: ('A' for Active; 'I' for Inactive)
REMARK    1  A    between atoms: C6_6  and  C8_8 
ROOT
HETATM    1  C1  UNL     1     -34.743  17.296  -0.858  1.00 20.00     0.011 C 
HETATM    2  C2  UNL     1     -35.132  16.248  -1.901  1.00 20.00     0.011 C 
HETATM    3  C3  UNL     1     -33.062  15.918  -3.444  1.00 20.00     0.017 A 
HETATM    4  C4  UNL     1     -35.096  18.718  -1.281  1.00 20.00     0.074 C 
HETATM    5  C5  UNL     1     -34.785  17.822  -3.863  1.00 20.00     0.083 C 
HETATM    6  C6  UNL     1     -34.229  15.331  -4.190  1.00 20.00     0.009 A 
HETATM    7  C7  UNL     1     -34.448  16.495  -3.230  1.00 20.00    -0.027 A 
HETATM    8  S9  UNL     1     -34.236  19.190  -2.810  1.00 20.00    -0.168 SA
ENDROOT
BRANCH   6   9
HETATM    9  C8  UNL     1     -34.684  13.942  -3.902  1.00 20.00     0.120 C 
HETATM   10 CL10 UNL     1     -36.318  13.647  -4.557  1.00 20.00    -0.130 Cl
ENDBRANCH   6   9
TORSDOF 1
ENDMDL
MODEL 7
REMARK VINA RESULT:      -3.8     16.402     17.064
REMARK  1 active torsions:
REMARK  status: ('A' for Active; 'I' for Inactive)
REMARK    1  A    between atoms: C6_6  and  C8_8 
ROOT
HETATM    1  C1  UNL     1     -32.721  18.103  -2.305  1.00 20.00     0.011 C 
HETATM    2  C2  UNL     1     -33.075  16.642  -2.581  1.00 20.00     0.011 C 
HETATM    3  C3  UNL     1     -35.415  16.638  -3.722  1.00 20.00     0.017 A 
HETATM    4  C4  UNL     1     -33.162  18.574  -0.924  1.00 20.00     0.074 C 
HETATM    5  C5  UNL     1     -35.162  16.696  -1.134  1.00 20.00     0.083 C 
HETATM    6  C6  UNL     1     -35.187  15.230  -3.247  1.00 20.00     0.009 A 
HETATM    7  C7  UNL     1     -34.568  16.397  -2.488  1.00 20.00    -0.027 A 
HETATM    8  S9  UNL     1     -34.963  18.449  -0.722  1.00 20.00    -0.168 SA
ENDROOT
BRANCH   6   9
HETATM    9  C8  UNL     1     -34.387  14.279  -4.070  1.00 20.00     0.120 C 
HETATM   10 CL10 UNL     1     -34.151  14.897  -5.728  1.00 20.00    -0.130 Cl
ENDBRANCH   6   9
TORSDOF 1
ENDMDL
MODEL 8
REMARK VINA RESULT:      -3.7     17.965     18.667
REMARK  1 active torsions:
REMARK  status: ('A' for Active; 'I' for Inactive)
REMARK    1  A    between atoms: C6_6  and  C8_8 
ROOT
HETATM    1  C1  UNL     1     -34.456  17.787  -5.926  1.00 20.00     0.011 C 
HETATM    2  C2  UNL     1     -35.071  17.354  -4.595  1.00 20.00     0.011 C 
HETATM    3  C3  UNL     1     -33.293  15.887  -3.387  1.00 20.00     0.017 A 
HETATM    4  C4  UNL     1     -34.775  16.831  -7.070  1.00 20.00     0.074 C 
HETATM    5  C5  UNL     1     -34.931  14.878  -5.139  1.00 20.00     0.083 C 
HETATM    6  C6  UNL     1     -34.598  15.606  -2.694  1.00 20.00     0.009 A 
HETATM    7  C7  UNL     1     -34.588  15.983  -4.171  1.00 20.00    -0.027 A 
HETATM    8  S9  UNL     1     -34.136  15.163  -6.741  1.00 20.00    -0.168 SA
ENDROOT
BRANCH   6   9
HETATM    9  C8  UNL     1     -35.093  16.518  -1.625  1.00 20.00     0.120 C 
HETATM   10 CL10 UNL     1     -33.810  17.633  -1.080  1.00 20.00    -0.130 Cl
ENDBRANCH   6   9
TORSDOF 1
ENDMDL
MODEL 9
REMARK VINA RESULT:      -3.7     15.669     16.315
REMARK  1 active torsions:
REMARK  status: ('A' for Active; 'I' for Inactive)
REMARK    1  A    between atoms: C6_6  and  C8_8 
ROOT
HETATM    1  C1  UNL     1     -33.777   4.304   3.574  1.00 20.00     0.011 C 
HETATM    2  C2  UNL     1     -33.695   5.457   2.574  1.00 20.00     0.011 C 
HETATM    3  C3  UNL     1     -31.768   7.013   3.377  1.00 20.00     0.017 A 
HETATM    4  C4  UNL     1     -34.752   4.572   4.715  1.00 20.00     0.074 C 
HETATM    5  C5  UNL     1     -34.182   7.234   4.322  1.00 20.00     0.083 C 
HETATM    6  C6  UNL     1     -32.575   7.826   2.402  1.00 20.00     0.009 A 
HETATM    7  C7  UNL     1     -33.255   6.747   3.237  1.00 20.00    -0.027 A 
HETATM    8  S9  UNL     1     -34.266   6.035   5.677  1.00 20.00    -0.168 SA
ENDROOT
BRANCH   6   9
HETATM    9  C8  UNL     1     -32.339   7.695   0.937  1.00 20.00     0.120 C 
HETATM   10 CL10 UNL     1     -33.304   8.883   0.017  1.00 20.00    -0.130 Cl
ENDBRANCH   6   9
TORSDOF 1
ENDMDL
