MODEL 1
REMARK VINA RESULT:      -4.1      0.000      0.000
REMARK  2 active torsions:
REMARK  status: ('A' for Active; 'I' for Inactive)
REMARK    1  A    between atoms: C4_4  and  C8_8 
REMARK    2  A    between atoms: C8_8  and  O9_9 
ROOT
HETATM    1  C1  UNL     1     -34.114  16.807  -4.276  1.00 20.00     0.018 A 
HETATM    2  C2  UNL     1     -35.030  16.114  -1.939  1.00 20.00     0.025 C 
HETATM    3  C3  UNL     1     -32.917  17.453  -2.059  1.00 20.00     0.084 C 
HETATM    4  C4  UNL     1     -33.295  15.622  -3.853  1.00 20.00     0.019 A 
HETATM    5  C5  UNL     1     -35.402  17.280  -1.029  1.00 20.00     0.044 C 
HETATM    6  C6  UNL     1     -33.872  16.554  -2.801  1.00 20.00    -0.025 A 
HETATM    7  C7  UNL     1     -36.249  18.335  -1.730  1.00 20.00     0.021 C 
HETATM    8  S10 UNL     1     -33.794  17.977  -0.556  1.00 20.00    -0.164 SA
ENDROOT
BRANCH   4   9
HETATM    9  C8  UNL     1     -33.811  14.241  -4.064  1.00 20.00     0.169 C 
BRANCH   9  10
HETATM   10  O9  UNL     1     -32.763  13.398  -4.542  1.00 20.00    -0.400 OA
HETATM   11  H24 UNL     1     -32.943  13.241  -5.481  1.00 20.00     0.209 HD
ENDBRANCH   9  10
ENDBRANCH   4   9
TORSDOF 2
ENDMDL
MODEL 2
REMARK VINA RESULT:      -4.1     15.883     16.907
REMARK  2 active torsions:
REMARK  status: ('A' for Active; 'I' for Inactive)
REMARK    1  A    between atoms: C4_4  and  C8_8 
REMARK    2  A    between atoms: C8_8  and  O9_9 
ROOT
HETATM    1  C1  UNL     1     -24.259  18.572  12.054  1.00 20.00     0.018 A 
HETATM    2  C2  UNL     1     -23.902  16.823  10.158  1.00 20.00     0.025 C 
HETATM    3  C3  UNL     1     -24.721  19.111   9.552  1.00 20.00     0.084 C 
HETATM    4  C4  UNL     1     -25.624  18.038  11.731  1.00 20.00     0.019 A 
HETATM    5  C5  UNL     1     -22.856  17.214   9.119  1.00 20.00     0.044 C 
HETATM    6  C6  UNL     1     -24.559  18.089  10.648  1.00 20.00    -0.025 A 
HETATM    7  C7  UNL     1     -21.558  17.714   9.740  1.00 20.00     0.021 C 
HETATM    8  S10 UNL     1     -23.662  18.546   8.187  1.00 20.00    -0.164 SA
ENDROOT
BRANCH   4   9
HETATM    9  C8  UNL     1     -26.089  16.757  12.332  1.00 20.00     0.169 C 
BRANCH   9  10
HETATM   10  O9  UNL     1     -27.496  16.613  12.141  1.00 20.00    -0.400 OA
HETATM   11  H24 UNL     1     -27.661  16.751  11.196  1.00 20.00     0.209 HD
ENDBRANCH   9  10
ENDBRANCH   4   9
TORSDOF 2
ENDMDL
MODEL 3
REMARK VINA RESULT:      -4.1     10.704     11.606
REMARK  2 active torsions:
REMARK  status: ('A' for Active; 'I' for Inactive)
REMARK    1  A    between atoms: C4_4  and  C8_8 
REMARK    2  A    between atoms: C8_8  and  O9_9 
ROOT
HETATM    1  C1  UNL     1     -31.798   7.346   3.142  1.00 20.00     0.018 A 
HETATM    2  C2  UNL     1     -34.357   7.046   3.516  1.00 20.00     0.025 C 
HETATM    3  C3  UNL     1     -33.000   5.064   2.809  1.00 20.00     0.084 C 
HETATM    4  C4  UNL     1     -32.413   7.365   1.774  1.00 20.00     0.019 A 
HETATM    5  C5  UNL     1     -34.729   6.061   4.620  1.00 20.00     0.044 C 
HETATM    6  C6  UNL     1     -33.073   6.567   2.886  1.00 20.00    -0.025 A 
HETATM    7  C7  UNL     1     -33.946   6.287   5.907  1.00 20.00     0.021 C 
HETATM    8  S10 UNL     1     -34.312   4.446   3.904  1.00 20.00    -0.164 SA
ENDROOT
BRANCH   4   9
HETATM    9  C8  UNL     1     -33.005   8.622   1.236  1.00 20.00     0.169 C 
BRANCH   9  10
HETATM   10  O9  UNL     1     -33.241   8.488  -0.165  1.00 20.00    -0.400 OA
HETATM   11  H24 UNL     1     -33.661   9.313  -0.453  1.00 20.00     0.209 HD
ENDBRANCH   9  10
ENDBRANCH   4   9
TORSDOF 2
ENDMDL
MODEL 4
REMARK VINA RESULT:      -4.1      1.681      2.514
REMARK  2 active torsions:
REMARK  status: ('A' for Active; 'I' for Inactive)
REMARK    1  A    between atoms: C4_4  and  C8_8 
REMARK    2  A    between atoms: C8_8  and  O9_9 
ROOT
HETATM    1  C1  UNL     1     -33.093  14.793  -4.097  1.00 20.00     0.018 A 
HETATM    2  C2  UNL     1     -34.010  17.230  -4.021  1.00 20.00     0.025 C 
HETATM    3  C3  UNL     1     -35.100  15.485  -2.593  1.00 20.00     0.084 C 
HETATM    4  C4  UNL     1     -34.318  14.794  -4.965  1.00 20.00     0.019 A 
HETATM    5  C5  UNL     1     -33.914  17.904  -2.656  1.00 20.00     0.044 C 
HETATM    6  C6  UNL     1     -34.225  15.755  -3.790  1.00 20.00    -0.025 A 
HETATM    7  C7  UNL     1     -32.543  17.746  -2.009  1.00 20.00     0.021 C 
HETATM    8  S10 UNL     1     -35.177  17.050  -1.672  1.00 20.00    -0.164 SA
ENDROOT
BRANCH   4   9
HETATM    9  C8  UNL     1     -34.233  15.255  -6.379  1.00 20.00     0.169 C 
BRANCH   9  10
HETATM   10  O9  UNL     1     -33.181  14.565  -7.052  1.00 20.00    -0.400 OA
HETATM   11  H24 UNL     1     -33.576  13.766  -7.433  1.00 20.00     0.209 HD
ENDBRANCH   9  10
ENDBRANCH   4   9
TORSDOF 2
ENDMDL
MODEL 5
REMARK VINA RESULT:      -4.0     16.061     16.808
REMARK  2 active torsions:
REMARK  status: ('A' for Active; 'I' for Inactive)
REMARK    1  A    between atoms: C4_4  and  C8_8 
REMARK    2  A    between atoms: C8_8  and  O9_9 
ROOT
HETATM    1  C1  UNL     1     -22.194  17.941  10.681  1.00 20.00     0.018 A 
HETATM    2  C2  UNL     1     -24.718  18.174  10.081  1.00 20.00     0.025 C 
HETATM    3  C3  UNL     1     -23.964  16.164  11.371  1.00 20.00     0.084 C 
HETATM    4  C4  UNL     1     -22.414  17.049   9.493  1.00 20.00     0.019 A 
HETATM    5  C5  UNL     1     -25.653  18.263  11.283  1.00 20.00     0.044 C 
HETATM    6  C6  UNL     1     -23.552  17.299  10.470  1.00 20.00    -0.025 A 
HETATM    7  C7  UNL     1     -25.179  19.261  12.332  1.00 20.00     0.021 C 
HETATM    8  S10 UNL     1     -25.632  16.580  11.961  1.00 20.00    -0.164 SA
ENDROOT
BRANCH   4   9
HETATM    9  C8  UNL     1     -22.405  17.618   8.117  1.00 20.00     0.169 C 
BRANCH   9  10
HETATM   10  O9  UNL     1     -21.606  16.805   7.259  1.00 20.00    -0.400 OA
HETATM   11  H24 UNL     1     -20.690  16.907   7.558  1.00 20.00     0.209 HD
ENDBRANCH   9  10
ENDBRANCH   4   9
TORSDOF 2
ENDMDL
MODEL 6
REMARK VINA RESULT:      -4.0      1.720      2.449
REMARK  2 active torsions:
REMARK  status: ('A' for Active; 'I' for Inactive)
REMARK    1  A    between atoms: C4_4  and  C8_8 
REMARK    2  A    between atoms: C8_8  and  O9_9 
ROOT
HETATM    1  C1  UNL     1     -33.509  15.118  -3.999  1.00 20.00     0.018 A 
HETATM    2  C2  UNL     1     -35.246  17.042  -4.248  1.00 20.00     0.025 C 
HETATM    3  C3  UNL     1     -34.328  16.531  -1.974  1.00 20.00     0.084 C 
HETATM    4  C4  UNL     1     -34.822  14.540  -3.557  1.00 20.00     0.019 A 
HETATM    5  C5  UNL     1     -34.729  18.422  -3.853  1.00 20.00     0.044 C 
HETATM    6  C6  UNL     1     -34.552  16.025  -3.376  1.00 20.00    -0.025 A 
HETATM    7  C7  UNL     1     -33.369  18.744  -4.459  1.00 20.00     0.021 C 
HETATM    8  S10 UNL     1     -34.605  18.326  -2.045  1.00 20.00    -0.164 SA
ENDROOT
BRANCH   4   9
HETATM    9  C8  UNL     1     -35.789  14.023  -4.564  1.00 20.00     0.169 C 
BRANCH   9  10
HETATM   10  O9  UNL     1     -35.835  12.598  -4.508  1.00 20.00    -0.400 OA
HETATM   11  H24 UNL     1     -35.362  12.339  -3.703  1.00 20.00     0.209 HD
ENDBRANCH   9  10
ENDBRANCH   4   9
TORSDOF 2
ENDMDL
MODEL 7
REMARK VINA RESULT:      -4.0      1.558      2.134
REMARK  2 active torsions:
REMARK  status: ('A' for Active; 'I' for Inactive)
REMARK    1  A    between atoms: C4_4  and  C8_8 
REMARK    2  A    between atoms: C8_8  and  O9_9 
ROOT
HETATM    1  C1  UNL     1     -35.001  15.444  -2.668  1.00 20.00     0.018 A 
HETATM    2  C2  UNL     1     -32.914  17.000  -2.667  1.00 20.00     0.025 C 
HETATM    3  C3  UNL     1     -35.028  17.818  -3.730  1.00 20.00     0.084 C 
HETATM    4  C4  UNL     1     -34.403  15.322  -4.040  1.00 20.00     0.019 A 
HETATM    5  C5  UNL     1     -33.099  18.314  -1.915  1.00 20.00     0.044 C 
HETATM    6  C6  UNL     1     -34.247  16.618  -3.261  1.00 20.00    -0.025 A 
HETATM    7  C7  UNL     1     -33.724  18.129  -0.538  1.00 20.00     0.021 C 
HETATM    8  S10 UNL     1     -34.213  19.263  -2.989  1.00 20.00    -0.164 SA
ENDROOT
BRANCH   4   9
HETATM    9  C8  UNL     1     -33.263  14.395  -4.280  1.00 20.00     0.169 C 
BRANCH   9  10
HETATM   10  O9  UNL     1     -32.921  14.394  -5.666  1.00 20.00    -0.400 OA
HETATM   11  H24 UNL     1     -32.017  14.048  -5.725  1.00 20.00     0.209 HD
ENDBRANCH   9  10
ENDBRANCH   4   9
TORSDOF 2
ENDMDL
MODEL 8
REMARK VINA RESULT:      -4.0      2.446      2.858
REMARK  2 active torsions:
REMARK  status: ('A' for Active; 'I' for Inactive)
REMARK    1  A    between atoms: C4_4  and  C8_8 
REMARK    2  A    between atoms: C8_8  and  O9_9 
ROOT
HETATM    1  C1  UNL     1     -36.798  16.336  -3.870  1.00 20.00     0.018 A 
HETATM    2  C2  UNL     1     -34.509  15.527  -2.928  1.00 20.00     0.025 C 
HETATM    3  C3  UNL     1     -34.533  17.367  -4.627  1.00 20.00     0.084 C 
HETATM    4  C4  UNL     1     -36.226  15.427  -4.918  1.00 20.00     0.019 A 
HETATM    5  C5  UNL     1     -33.715  16.592  -2.179  1.00 20.00     0.044 C 
HETATM    6  C6  UNL     1     -35.293  16.218  -4.016  1.00 20.00    -0.025 A 
HETATM    7  C7  UNL     1     -34.557  17.356  -1.164  1.00 20.00     0.021 C 
HETATM    8  S10 UNL     1     -33.152  17.706  -3.496  1.00 20.00    -0.164 SA
ENDROOT
BRANCH   4   9
HETATM    9  C8  UNL     1     -36.388  13.951  -4.799  1.00 20.00     0.169 C 
BRANCH   9  10
HETATM   10  O9  UNL     1     -37.725  13.638  -4.412  1.00 20.00    -0.400 OA
HETATM   11  H24 UNL     1     -37.890  14.112  -3.582  1.00 20.00     0.209 HD
ENDBRANCH   9  10
ENDBRANCH   4   9
TORSDOF 2
ENDMDL
MODEL 9
REMARK VINA RESULT:      -3.9     14.821     16.017
REMARK  2 active torsions:
REMARK  status: ('A' for Active; 'I' for Inactive)
REMARK    1  A    between atoms: C4_4  and  C8_8 
REMARK    2  A    between atoms: C8_8  and  O9_9 
ROOT
HETATM    1  C1  UNL     1     -22.642  18.797   8.929  1.00 20.00     0.018 A 
HETATM    2  C2  UNL     1     -24.994  18.504  10.007  1.00 20.00     0.025 C 
HETATM    3  C3  UNL     1     -23.563  16.478   9.665  1.00 20.00     0.084 C 
HETATM    4  C4  UNL     1     -23.536  18.305   7.828  1.00 20.00     0.019 A 
HETATM    5  C5  UNL     1     -24.980  17.946  11.426  1.00 20.00     0.044 C 
HETATM    6  C6  UNL     1     -23.823  17.908   9.266  1.00 20.00    -0.025 A 
HETATM    7  C7  UNL     1     -23.975  18.648  12.332  1.00 20.00     0.021 C 
HETATM    8  S10 UNL     1     -24.509  16.208  11.193  1.00 20.00    -0.164 SA
ENDROOT
BRANCH   4   9
HETATM    9  C8  UNL     1     -24.396  19.262   7.078  1.00 20.00     0.169 C 
BRANCH   9  10
HETATM   10  O9  UNL     1     -24.045  19.251   5.695  1.00 20.00    -0.400 OA
HETATM   11  H24 UNL     1     -24.215  18.352   5.374  1.00 20.00     0.209 HD
ENDBRANCH   9  10
ENDBRANCH   4   9
TORSDOF 2
ENDMDL
