MODEL 1
REMARK VINA RESULT:      -5.2      0.000      0.000
REMARK  3 active torsions:
REMARK  status: ('A' for Active; 'I' for Inactive)
REMARK    1  A    between atoms: C2_2  and  C5_5 
REMARK    2  A    between atoms: C3_3  and  C6_6 
REMARK    3  A    between atoms: C5_5  and  C7_7 
ROOT
HETATM    1  C1  UNL     1     -33.190   4.719   2.298  1.00 20.00     0.011 A 
HETATM    2  C2  UNL     1     -33.534   5.270   3.656  1.00 20.00    -0.009 A 
HETATM    3  C3  UNL     1     -33.488   6.185   2.461  1.00 20.00     0.004 A 
ENDROOT
BRANCH   2   4
HETATM    4  C5  UNL     1     -34.839   4.935   4.292  1.00 20.00     0.005 C 
BRANCH   4   5
HETATM    5  C7  UNL     1     -34.882   5.312   5.784  1.00 20.00    -0.004 C 
HETATM    6  C4  UNL     1     -34.116   6.591   6.084  1.00 20.00     0.005 C 
ENDBRANCH   4   5
ENDBRANCH   2   4
BRANCH   3   7
HETATM    7  C6  UNL     1     -32.396   7.190   2.332  1.00 20.00     0.119 C 
HETATM    8 CL8  UNL     1     -32.682   8.281   0.947  1.00 20.00    -0.130 Cl
ENDBRANCH   3   7
TORSDOF 3
ENDMDL
MODEL 2
REMARK VINA RESULT:      -4.8      1.016      1.833
REMARK  3 active torsions:
REMARK  status: ('A' for Active; 'I' for Inactive)
REMARK    1  A    between atoms: C2_2  and  C5_5 
REMARK    2  A    between atoms: C3_3  and  C6_6 
REMARK    3  A    between atoms: C5_5  and  C7_7 
ROOT
HETATM    1  C1  UNL     1     -31.924   7.266   3.333  1.00 20.00     0.011 A 
HETATM    2  C2  UNL     1     -33.344   6.817   3.111  1.00 20.00    -0.009 A 
HETATM    3  C3  UNL     1     -32.522   7.319   1.953  1.00 20.00     0.004 A 
ENDROOT
BRANCH   2   4
HETATM    4  C5  UNL     1     -33.697   5.373   3.207  1.00 20.00     0.005 C 
BRANCH   4   5
HETATM    5  C7  UNL     1     -34.899   5.121   4.135  1.00 20.00    -0.004 C 
HETATM    6  C4  UNL     1     -34.646   5.596   5.558  1.00 20.00     0.005 C 
ENDBRANCH   4   5
ENDBRANCH   2   4
BRANCH   3   7
HETATM    7  C6  UNL     1     -32.840   8.633   1.325  1.00 20.00     0.119 C 
HETATM    8 CL8  UNL     1     -33.380   8.428  -0.365  1.00 20.00    -0.130 Cl
ENDBRANCH   3   7
TORSDOF 3
ENDMDL
MODEL 3
REMARK VINA RESULT:      -4.7      2.517      4.327
REMARK  3 active torsions:
REMARK  status: ('A' for Active; 'I' for Inactive)
REMARK    1  A    between atoms: C2_2  and  C5_5 
REMARK    2  A    between atoms: C3_3  and  C6_6 
REMARK    3  A    between atoms: C5_5  and  C7_7 
ROOT
HETATM    1  C1  UNL     1     -33.242   4.842   2.460  1.00 20.00     0.011 A 
HETATM    2  C2  UNL     1     -33.519   6.322   2.457  1.00 20.00    -0.009 A 
HETATM    3  C3  UNL     1     -33.655   5.533   3.732  1.00 20.00     0.004 A 
ENDROOT
BRANCH   2   4
HETATM    4  C5  UNL     1     -32.401   7.293   2.294  1.00 20.00     0.005 C 
BRANCH   4   5
HETATM    5  C7  UNL     1     -32.295   7.834   0.857  1.00 20.00    -0.004 C 
HETATM    6  C4  UNL     1     -32.975   9.184   0.691  1.00 20.00     0.005 C 
ENDBRANCH   4   5
ENDBRANCH   2   4
BRANCH   3   7
HETATM    7  C6  UNL     1     -35.003   5.283   4.316  1.00 20.00     0.119 C 
HETATM    8 CL8  UNL     1     -34.941   5.263   6.101  1.00 20.00    -0.130 Cl
ENDBRANCH   3   7
TORSDOF 3
ENDMDL
MODEL 4
REMARK VINA RESULT:      -4.2      2.638      4.373
REMARK  3 active torsions:
REMARK  status: ('A' for Active; 'I' for Inactive)
REMARK    1  A    between atoms: C2_2  and  C5_5 
REMARK    2  A    between atoms: C3_3  and  C6_6 
REMARK    3  A    between atoms: C5_5  and  C7_7 
ROOT
HETATM    1  C1  UNL     1     -33.541   6.971   4.145  1.00 20.00     0.011 A 
HETATM    2  C2  UNL     1     -33.030   6.051   3.068  1.00 20.00    -0.009 A 
HETATM    3  C3  UNL     1     -34.419   5.865   3.621  1.00 20.00     0.004 A 
ENDROOT
BRANCH   2   4
HETATM    4  C5  UNL     1     -32.839   6.556   1.680  1.00 20.00     0.005 C 
BRANCH   4   5
HETATM    5  C7  UNL     1     -32.468   8.050   1.642  1.00 20.00    -0.004 C 
HETATM    6  C4  UNL     1     -32.928   8.733   0.363  1.00 20.00     0.005 C 
ENDBRANCH   4   5
ENDBRANCH   2   4
BRANCH   3   7
HETATM    7  C6  UNL     1     -34.730   4.687   4.478  1.00 20.00     0.119 C 
HETATM    8 CL8  UNL     1     -34.769   5.136   6.206  1.00 20.00    -0.130 Cl
ENDBRANCH   3   7
TORSDOF 3
ENDMDL
MODEL 5
REMARK VINA RESULT:      -3.9      2.120      3.739
REMARK  3 active torsions:
REMARK  status: ('A' for Active; 'I' for Inactive)
REMARK    1  A    between atoms: C2_2  and  C5_5 
REMARK    2  A    between atoms: C3_3  and  C6_6 
REMARK    3  A    between atoms: C5_5  and  C7_7 
ROOT
HETATM    1  C1  UNL     1     -35.716   5.077   3.997  1.00 20.00     0.011 A 
HETATM    2  C2  UNL     1     -34.382   5.721   3.728  1.00 20.00    -0.009 A 
HETATM    3  C3  UNL     1     -34.597   4.933   4.993  1.00 20.00     0.004 A 
ENDROOT
BRANCH   2   4
HETATM    4  C5  UNL     1     -33.496   5.188   2.656  1.00 20.00     0.005 C 
BRANCH   4   5
HETATM    5  C7  UNL     1     -32.590   6.273   2.046  1.00 20.00    -0.004 C 
HETATM    6  C4  UNL     1     -32.160   7.315   3.067  1.00 20.00     0.005 C 
ENDBRANCH   4   5
ENDBRANCH   2   4
BRANCH   3   7
HETATM    7  C6  UNL     1     -34.669   5.633   6.307  1.00 20.00     0.119 C 
HETATM    8 CL8  UNL     1     -33.754   7.167   6.273  1.00 20.00    -0.130 Cl
ENDBRANCH   3   7
TORSDOF 3
ENDMDL
MODEL 6
REMARK VINA RESULT:      -3.6     11.593     12.468
REMARK  3 active torsions:
REMARK  status: ('A' for Active; 'I' for Inactive)
REMARK    1  A    between atoms: C2_2  and  C5_5 
REMARK    2  A    between atoms: C3_3  and  C6_6 
REMARK    3  A    between atoms: C5_5  and  C7_7 
ROOT
HETATM    1  C1  UNL     1     -33.287  15.894  -3.377  1.00 20.00     0.011 A 
HETATM    2  C2  UNL     1     -34.022  17.006  -2.676  1.00 20.00    -0.009 A 
HETATM    3  C3  UNL     1     -34.591  15.611  -2.679  1.00 20.00     0.004 A 
ENDROOT
BRANCH   2   4
HETATM    4  C5  UNL     1     -33.476  17.588  -1.418  1.00 20.00     0.005 C 
BRANCH   4   5
HETATM    5  C7  UNL     1     -32.156  18.347  -1.644  1.00 20.00    -0.004 C 
HETATM    6  C4  UNL     1     -31.250  18.318  -0.424  1.00 20.00     0.005 C 
ENDBRANCH   4   5
ENDBRANCH   2   4
BRANCH   3   7
HETATM    7  C6  UNL     1     -35.814  15.305  -3.472  1.00 20.00     0.119 C 
HETATM    8 CL8  UNL     1     -35.695  13.703  -4.252  1.00 20.00    -0.130 Cl
ENDBRANCH   3   7
TORSDOF 3
ENDMDL
MODEL 7
REMARK VINA RESULT:      -3.6      2.132      2.772
REMARK  3 active torsions:
REMARK  status: ('A' for Active; 'I' for Inactive)
REMARK    1  A    between atoms: C2_2  and  C5_5 
REMARK    2  A    between atoms: C3_3  and  C6_6 
REMARK    3  A    between atoms: C5_5  and  C7_7 
ROOT
HETATM    1  C1  UNL     1     -32.760   7.258   2.514  1.00 20.00     0.011 A 
HETATM    2  C2  UNL     1     -33.536   6.837   3.733  1.00 20.00    -0.009 A 
HETATM    3  C3  UNL     1     -32.671   5.839   3.010  1.00 20.00     0.004 A 
ENDROOT
BRANCH   2   4
HETATM    4  C5  UNL     1     -33.140   7.332   5.081  1.00 20.00     0.005 C 
BRANCH   4   5
HETATM    5  C7  UNL     1     -34.102   6.863   6.187  1.00 20.00    -0.004 C 
HETATM    6  C4  UNL     1     -34.723   5.508   5.885  1.00 20.00     0.005 C 
ENDBRANCH   4   5
ENDBRANCH   2   4
BRANCH   3   7
HETATM    7  C6  UNL     1     -33.297   4.734   2.231  1.00 20.00     0.119 C 
HETATM    8 CL8  UNL     1     -33.941   3.466   3.311  1.00 20.00    -0.130 Cl
ENDBRANCH   3   7
TORSDOF 3
ENDMDL
MODEL 8
REMARK VINA RESULT:      -3.6      9.454     10.034
REMARK  3 active torsions:
REMARK  status: ('A' for Active; 'I' for Inactive)
REMARK    1  A    between atoms: C2_2  and  C5_5 
REMARK    2  A    between atoms: C3_3  and  C6_6 
REMARK    3  A    between atoms: C5_5  and  C7_7 
ROOT
HETATM    1  C1  UNL     1     -40.823   5.364  -0.991  1.00 20.00     0.011 A 
HETATM    2  C2  UNL     1     -41.555   6.665  -0.793  1.00 20.00    -0.009 A 
HETATM    3  C3  UNL     1     -42.296   5.359  -0.677  1.00 20.00     0.004 A 
ENDROOT
BRANCH   2   4
HETATM    4  C5  UNL     1     -41.300   7.490   0.420  1.00 20.00     0.005 C 
BRANCH   4   5
HETATM    5  C7  UNL     1     -41.894   8.906   0.305  1.00 20.00    -0.004 C 
HETATM    6  C4  UNL     1     -43.273   8.910  -0.335  1.00 20.00     0.005 C 
ENDBRANCH   4   5
ENDBRANCH   2   4
BRANCH   3   7
HETATM    7  C6  UNL     1     -43.283   4.964  -1.722  1.00 20.00     0.119 C 
HETATM    8 CL8  UNL     1     -42.720   3.537  -2.636  1.00 20.00    -0.130 Cl
ENDBRANCH   3   7
TORSDOF 3
ENDMDL
MODEL 9
REMARK VINA RESULT:      -3.6     11.407     12.207
REMARK  3 active torsions:
REMARK  status: ('A' for Active; 'I' for Inactive)
REMARK    1  A    between atoms: C2_2  and  C5_5 
REMARK    2  A    between atoms: C3_3  and  C6_6 
REMARK    3  A    between atoms: C5_5  and  C7_7 
ROOT
HETATM    1  C1  UNL     1     -34.963  16.034  -2.026  1.00 20.00     0.011 A 
HETATM    2  C2  UNL     1     -34.871  15.574  -3.456  1.00 20.00    -0.009 A 
HETATM    3  C3  UNL     1     -33.648  16.105  -2.756  1.00 20.00     0.004 A 
ENDROOT
BRANCH   2   4
HETATM    4  C5  UNL     1     -34.975  14.125  -3.786  1.00 20.00     0.005 C 
BRANCH   4   5
HETATM    5  C7  UNL     1     -36.121  13.825  -4.769  1.00 20.00    -0.004 C 
HETATM    6  C4  UNL     1     -37.436  14.459  -4.343  1.00 20.00     0.005 C 
ENDBRANCH   4   5
ENDBRANCH   2   4
BRANCH   3   7
HETATM    7  C6  UNL     1     -33.078  17.426  -3.145  1.00 20.00     0.119 C 
HETATM    8 CL8  UNL     1     -32.249  18.203  -1.768  1.00 20.00    -0.130 Cl
ENDBRANCH   3   7
TORSDOF 3
ENDMDL
