MODEL 1
REMARK VINA RESULT:      -4.1      0.000      0.000
REMARK  3 active torsions:
REMARK  status: ('A' for Active; 'I' for Inactive)
REMARK    1  A    between atoms: C2_2  and  C6_6 
REMARK    2  A    between atoms: C3_3  and  C7_7 
REMARK    3  A    between atoms: C3_3  and  C8_8 
ROOT
HETATM    1  C1  UNL     1     -31.677   7.089   3.105  1.00 20.00     0.016 A 
HETATM    2  C2  UNL     1     -32.526   7.297   1.880  1.00 20.00     0.009 A 
HETATM    3  C3  UNL     1     -33.027   6.411   3.007  1.00 20.00    -0.036 A 
ENDROOT
BRANCH   3   4
HETATM    4  C7  UNL     1     -34.127   6.894   3.916  1.00 20.00     0.005 C 
HETATM    5  C4  UNL     1     -33.685   6.995   5.347  1.00 20.00     0.006 C 
ENDBRANCH   3   4
BRANCH   3   6
HETATM    6  C8  UNL     1     -33.053   4.926   2.754  1.00 20.00     0.005 C 
HETATM    7  C5  UNL     1     -34.121   4.229   3.547  1.00 20.00     0.006 C 
ENDBRANCH   3   6
BRANCH   2   8
HETATM    8  C6  UNL     1     -33.110   8.637   1.588  1.00 20.00     0.120 C 
HETATM    9 CL9  UNL     1     -33.377   8.858  -0.164  1.00 20.00    -0.130 Cl
ENDBRANCH   2   8
TORSDOF 3
ENDMDL
MODEL 2
REMARK VINA RESULT:      -3.7     10.484     11.640
REMARK  3 active torsions:
REMARK  status: ('A' for Active; 'I' for Inactive)
REMARK    1  A    between atoms: C2_2  and  C6_6 
REMARK    2  A    between atoms: C3_3  and  C7_7 
REMARK    3  A    between atoms: C3_3  and  C8_8 
ROOT
HETATM    1  C1  UNL     1     -33.531  14.632  -4.226  1.00 20.00     0.016 A 
HETATM    2  C2  UNL     1     -34.948  14.333  -3.815  1.00 20.00     0.009 A 
HETATM    3  C3  UNL     1     -34.414  15.752  -3.716  1.00 20.00    -0.036 A 
ENDROOT
BRANCH   3   4
HETATM    4  C7  UNL     1     -34.866  16.799  -4.700  1.00 20.00     0.005 C 
HETATM    5  C4  UNL     1     -35.985  17.644  -4.163  1.00 20.00     0.006 C 
ENDBRANCH   3   4
BRANCH   3   6
HETATM    6  C8  UNL     1     -34.143  16.289  -2.335  1.00 20.00     0.005 C 
HETATM    7  C5  UNL     1     -32.917  17.155  -2.288  1.00 20.00     0.006 C 
ENDBRANCH   3   6
BRANCH   2   8
HETATM    8  C6  UNL     1     -35.955  13.921  -4.832  1.00 20.00     0.120 C 
HETATM    9 CL9  UNL     1     -37.611  14.335  -4.308  1.00 20.00    -0.130 Cl
ENDBRANCH   2   8
TORSDOF 3
ENDMDL
MODEL 3
REMARK VINA RESULT:      -3.7     10.538     11.692
REMARK  3 active torsions:
REMARK  status: ('A' for Active; 'I' for Inactive)
REMARK    1  A    between atoms: C2_2  and  C6_6 
REMARK    2  A    between atoms: C3_3  and  C7_7 
REMARK    3  A    between atoms: C3_3  and  C8_8 
ROOT
HETATM    1  C1  UNL     1     -34.818  16.045  -2.156  1.00 20.00     0.016 A 
HETATM    2  C2  UNL     1     -33.426  16.363  -2.631  1.00 20.00     0.009 A 
HETATM    3  C3  UNL     1     -34.465  15.855  -3.616  1.00 20.00    -0.036 A 
ENDROOT
BRANCH   3   4
HETATM    4  C7  UNL     1     -35.079  16.795  -4.620  1.00 20.00     0.005 C 
HETATM    5  C4  UNL     1     -34.543  16.582  -6.006  1.00 20.00     0.006 C 
ENDBRANCH   3   4
BRANCH   3   6
HETATM    6  C8  UNL     1     -34.298  14.446  -4.123  1.00 20.00     0.005 C 
HETATM    7  C5  UNL     1     -35.599  13.697  -4.169  1.00 20.00     0.006 C 
ENDBRANCH   3   6
BRANCH   2   8
HETATM    8  C6  UNL     1     -32.936  17.771  -2.633  1.00 20.00     0.120 C 
HETATM    9 CL9  UNL     1     -31.935  18.109  -1.194  1.00 20.00    -0.130 Cl
ENDBRANCH   2   8
TORSDOF 3
ENDMDL
MODEL 4
REMARK VINA RESULT:      -3.7     10.524     11.531
REMARK  3 active torsions:
REMARK  status: ('A' for Active; 'I' for Inactive)
REMARK    1  A    between atoms: C2_2  and  C6_6 
REMARK    2  A    between atoms: C3_3  and  C7_7 
REMARK    3  A    between atoms: C3_3  and  C8_8 
ROOT
HETATM    1  C1  UNL     1     -33.330  16.244  -3.095  1.00 20.00     0.016 A 
HETATM    2  C2  UNL     1     -34.323  15.120  -3.224  1.00 20.00     0.009 A 
HETATM    3  C3  UNL     1     -34.782  16.484  -2.736  1.00 20.00    -0.036 A 
ENDROOT
BRANCH   3   4
HETATM    4  C7  UNL     1     -35.594  17.375  -3.639  1.00 20.00     0.005 C 
HETATM    5  C4  UNL     1     -37.041  17.427  -3.241  1.00 20.00     0.006 C 
ENDBRANCH   3   4
BRANCH   3   6
HETATM    6  C8  UNL     1     -35.136  16.608  -1.277  1.00 20.00     0.005 C 
HETATM    7  C5  UNL     1     -34.386  17.717  -0.599  1.00 20.00     0.006 C 
ENDBRANCH   3   6
BRANCH   2   8
HETATM    8  C6  UNL     1     -34.681  14.584  -4.568  1.00 20.00     0.120 C 
HETATM    9 CL9  UNL     1     -36.159  13.584  -4.493  1.00 20.00    -0.130 Cl
ENDBRANCH   2   8
TORSDOF 3
ENDMDL
MODEL 5
REMARK VINA RESULT:      -3.7     10.653     11.543
REMARK  3 active torsions:
REMARK  status: ('A' for Active; 'I' for Inactive)
REMARK    1  A    between atoms: C2_2  and  C6_6 
REMARK    2  A    between atoms: C3_3  and  C7_7 
REMARK    3  A    between atoms: C3_3  and  C8_8 
ROOT
HETATM    1  C1  UNL     1     -35.669  14.421  -3.754  1.00 20.00     0.016 A 
HETATM    2  C2  UNL     1     -36.039  15.793  -4.249  1.00 20.00     0.009 A 
HETATM    3  C3  UNL     1     -34.845  15.617  -3.327  1.00 20.00    -0.036 A 
ENDROOT
BRANCH   3   4
HETATM    4  C7  UNL     1     -33.445  15.742  -3.872  1.00 20.00     0.005 C 
HETATM    5  C4  UNL     1     -32.888  14.423  -4.325  1.00 20.00     0.006 C 
ENDBRANCH   3   4
BRANCH   3   6
HETATM    6  C8  UNL     1     -34.993  16.105  -1.910  1.00 20.00     0.005 C 
HETATM    7  C5  UNL     1     -34.005  17.184  -1.569  1.00 20.00     0.006 C 
ENDBRANCH   3   6
BRANCH   2   8
HETATM    8  C6  UNL     1     -35.899  16.135  -5.693  1.00 20.00     0.120 C 
HETATM    9 CL9  UNL     1     -35.735  14.665  -6.693  1.00 20.00    -0.130 Cl
ENDBRANCH   2   8
TORSDOF 3
ENDMDL
MODEL 6
REMARK VINA RESULT:      -3.6     10.791     11.478
REMARK  3 active torsions:
REMARK  status: ('A' for Active; 'I' for Inactive)
REMARK    1  A    between atoms: C2_2  and  C6_6 
REMARK    2  A    between atoms: C3_3  and  C7_7 
REMARK    3  A    between atoms: C3_3  and  C8_8 
ROOT
HETATM    1  C1  UNL     1     -33.869  17.063  -4.096  1.00 20.00     0.016 A 
HETATM    2  C2  UNL     1     -33.114  15.859  -3.600  1.00 20.00     0.009 A 
HETATM    3  C3  UNL     1     -34.331  16.356  -2.839  1.00 20.00    -0.036 A 
ENDROOT
BRANCH   3   4
HETATM    4  C7  UNL     1     -35.624  15.586  -2.896  1.00 20.00     0.005 C 
HETATM    5  C4  UNL     1     -36.580  16.148  -3.909  1.00 20.00     0.006 C 
ENDBRANCH   3   4
BRANCH   3   6
HETATM    6  C8  UNL     1     -34.084  17.036  -1.517  1.00 20.00     0.005 C 
HETATM    7  C5  UNL     1     -35.282  16.983  -0.614  1.00 20.00     0.006 C 
ENDBRANCH   3   6
BRANCH   2   8
HETATM    8  C6  UNL     1     -33.117  14.593  -4.386  1.00 20.00     0.120 C 
HETATM    9 CL9  UNL     1     -33.767  14.854  -6.029  1.00 20.00    -0.130 Cl
ENDBRANCH   2   8
TORSDOF 3
ENDMDL
MODEL 7
REMARK VINA RESULT:      -3.6     10.531     11.598
REMARK  3 active torsions:
REMARK  status: ('A' for Active; 'I' for Inactive)
REMARK    1  A    between atoms: C2_2  and  C6_6 
REMARK    2  A    between atoms: C3_3  and  C7_7 
REMARK    3  A    between atoms: C3_3  and  C8_8 
ROOT
HETATM    1  C1  UNL     1     -34.000  16.973  -4.148  1.00 20.00     0.016 A 
HETATM    2  C2  UNL     1     -33.331  15.679  -3.768  1.00 20.00     0.009 A 
HETATM    3  C3  UNL     1     -33.844  16.613  -2.686  1.00 20.00    -0.036 A 
ENDROOT
BRANCH   3   4
HETATM    4  C7  UNL     1     -35.085  16.260  -1.909  1.00 20.00     0.005 C 
HETATM    5  C4  UNL     1     -35.199  17.036  -0.628  1.00 20.00     0.006 C 
ENDBRANCH   3   4
BRANCH   3   6
HETATM    6  C8  UNL     1     -32.814  17.363  -1.882  1.00 20.00     0.005 C 
HETATM    7  C5  UNL     1     -32.525  18.723  -2.449  1.00 20.00     0.006 C 
ENDBRANCH   3   6
BRANCH   2   8
HETATM    8  C6  UNL     1     -33.982  14.376  -4.082  1.00 20.00     0.120 C 
HETATM    9 CL9  UNL     1     -35.191  14.553  -5.384  1.00 20.00    -0.130 Cl
ENDBRANCH   2   8
TORSDOF 3
ENDMDL
MODEL 8
REMARK VINA RESULT:      -3.6     10.733     11.745
REMARK  3 active torsions:
REMARK  status: ('A' for Active; 'I' for Inactive)
REMARK    1  A    between atoms: C2_2  and  C6_6 
REMARK    2  A    between atoms: C3_3  and  C7_7 
REMARK    3  A    between atoms: C3_3  and  C8_8 
ROOT
HETATM    1  C1  UNL     1     -35.427  16.464  -4.989  1.00 20.00     0.016 A 
HETATM    2  C2  UNL     1     -34.134  15.863  -5.472  1.00 20.00     0.009 A 
HETATM    3  C3  UNL     1     -34.767  15.364  -4.183  1.00 20.00    -0.036 A 
ENDROOT
BRANCH   3   4
HETATM    4  C7  UNL     1     -35.438  14.017  -4.144  1.00 20.00     0.005 C 
HETATM    5  C4  UNL     1     -36.920  14.109  -4.369  1.00 20.00     0.006 C 
ENDBRANCH   3   4
BRANCH   3   6
HETATM    6  C8  UNL     1     -34.089  15.746  -2.893  1.00 20.00     0.005 C 
HETATM    7  C5  UNL     1     -35.063  16.217  -1.852  1.00 20.00     0.006 C 
ENDBRANCH   3   6
BRANCH   2   8
HETATM    8  C6  UNL     1     -34.103  15.050  -6.720  1.00 20.00     0.120 C 
HETATM    9 CL9  UNL     1     -35.625  15.218  -7.640  1.00 20.00    -0.130 Cl
ENDBRANCH   2   8
TORSDOF 3
ENDMDL
MODEL 9
REMARK VINA RESULT:      -3.6      9.362      9.928
REMARK  3 active torsions:
REMARK  status: ('A' for Active; 'I' for Inactive)
REMARK    1  A    between atoms: C2_2  and  C6_6 
REMARK    2  A    between atoms: C3_3  and  C7_7 
REMARK    3  A    between atoms: C3_3  and  C8_8 
ROOT
HETATM    1  C1  UNL     1     -41.377   7.163  -1.333  1.00 20.00     0.016 A 
HETATM    2  C2  UNL     1     -42.722   7.709  -0.934  1.00 20.00     0.009 A 
HETATM    3  C3  UNL     1     -42.385   6.253  -0.663  1.00 20.00    -0.036 A 
ENDROOT
BRANCH   3   4
HETATM    4  C7  UNL     1     -42.097   5.792   0.742  1.00 20.00     0.005 C 
HETATM    5  C4  UNL     1     -43.286   5.140   1.386  1.00 20.00     0.006 C 
ENDBRANCH   3   4
BRANCH   3   6
HETATM    6  C8  UNL     1     -43.074   5.219  -1.515  1.00 20.00     0.005 C 
HETATM    7  C5  UNL     1     -42.118   4.201  -2.066  1.00 20.00     0.006 C 
ENDBRANCH   3   6
BRANCH   2   8
HETATM    8  C6  UNL     1     -42.829   8.726   0.151  1.00 20.00     0.120 C 
HETATM    9 CL9  UNL     1     -41.283   9.590   0.383  1.00 20.00    -0.130 Cl
ENDBRANCH   2   8
TORSDOF 3
ENDMDL
