MODEL 1
REMARK VINA RESULT:      -4.3      0.000      0.000
REMARK  1 active torsions:
REMARK  status: ('A' for Active; 'I' for Inactive)
REMARK    1  A    between atoms: C4_4  and  C8_8 
ROOT
HETATM    1  C1  UNL     1     -35.616  13.796  -4.841  1.00 20.00     0.136 C 
HETATM    2  C2  UNL     1     -35.886  14.537  -6.163  1.00 20.00     0.084 C 
HETATM    3  C3  UNL     1     -35.420  15.839  -5.453  1.00 20.00     0.004 C 
HETATM    4  C4  UNL     1     -34.794  14.996  -4.271  1.00 20.00     0.020 C 
HETATM    5  C5  UNL     1     -34.522  16.750  -6.272  1.00 20.00     0.011 C 
HETATM    6  C6  UNL     1     -33.289  14.745  -4.298  1.00 20.00     0.024 C 
HETATM    7  O9  UNL     1     -35.920  12.701  -4.419  1.00 20.00    -0.297 OA
ENDROOT
BRANCH   4   8
HETATM    8  C8  UNL     1     -35.260  15.460  -2.892  1.00 20.00     0.013 C 
HETATM    9  C7  UNL     1     -34.217  16.278  -2.204  1.00 20.00     0.006 C 
ENDBRANCH   4   8
TORSDOF 1
ENDMDL
MODEL 2
REMARK VINA RESULT:      -4.2      1.422      1.805
REMARK  1 active torsions:
REMARK  status: ('A' for Active; 'I' for Inactive)
REMARK    1  A    between atoms: C4_4  and  C8_8 
ROOT
HETATM    1  C1  UNL     1     -36.175  13.805  -4.415  1.00 20.00     0.136 C 
HETATM    2  C2  UNL     1     -37.550  14.495  -4.467  1.00 20.00     0.084 C 
HETATM    3  C3  UNL     1     -36.851  15.782  -3.946  1.00 20.00     0.004 C 
HETATM    4  C4  UNL     1     -35.431  15.172  -4.280  1.00 20.00     0.020 C 
HETATM    5  C5  UNL     1     -37.278  17.078  -4.613  1.00 20.00     0.011 C 
HETATM    6  C6  UNL     1     -34.759  15.608  -5.579  1.00 20.00     0.024 C 
HETATM    7  O9  UNL     1     -35.817  12.648  -4.469  1.00 20.00    -0.297 OA
ENDROOT
BRANCH   4   8
HETATM    8  C8  UNL     1     -34.461  15.230  -3.102  1.00 20.00     0.013 C 
HETATM    9  C7  UNL     1     -33.208  15.963  -3.453  1.00 20.00     0.006 C 
ENDBRANCH   4   8
TORSDOF 1
ENDMDL
MODEL 3
REMARK VINA RESULT:      -4.1     17.581     19.245
REMARK  1 active torsions:
REMARK  status: ('A' for Active; 'I' for Inactive)
REMARK    1  A    between atoms: C4_4  and  C8_8 
ROOT
HETATM    1  C1  UNL     1     -22.685  17.902  11.117  1.00 20.00     0.136 C 
HETATM    2  C2  UNL     1     -22.561  18.505   9.706  1.00 20.00     0.084 C 
HETATM    3  C3  UNL     1     -23.912  17.818   9.365  1.00 20.00     0.004 C 
HETATM    4  C4  UNL     1     -24.193  17.558  10.899  1.00 20.00     0.020 C 
HETATM    5  C5  UNL     1     -24.892  18.655   8.562  1.00 20.00     0.011 C 
HETATM    6  C6  UNL     1     -25.129  18.522  11.622  1.00 20.00     0.024 C 
HETATM    7  O9  UNL     1     -21.909  17.763  12.039  1.00 20.00    -0.297 OA
ENDROOT
BRANCH   4   8
HETATM    8  C8  UNL     1     -24.542  16.103  11.206  1.00 20.00     0.013 C 
HETATM    9  C7  UNL     1     -25.517  15.995  12.332  1.00 20.00     0.006 C 
ENDBRANCH   4   8
TORSDOF 1
ENDMDL
MODEL 4
REMARK VINA RESULT:      -3.9     17.843     18.715
REMARK  1 active torsions:
REMARK  status: ('A' for Active; 'I' for Inactive)
REMARK    1  A    between atoms: C4_4  and  C8_8 
ROOT
HETATM    1  C1  UNL     1     -22.713  17.261   9.198  1.00 20.00     0.136 C 
HETATM    2  C2  UNL     1     -23.518  18.331   8.437  1.00 20.00     0.084 C 
HETATM    3  C3  UNL     1     -24.696  18.042   9.408  1.00 20.00     0.004 C 
HETATM    4  C4  UNL     1     -23.728  17.262  10.385  1.00 20.00     0.020 C 
HETATM    5  C5  UNL     1     -25.441  19.263   9.920  1.00 20.00     0.011 C 
HETATM    6  C6  UNL     1     -23.203  18.007  11.609  1.00 20.00     0.024 C 
HETATM    7  O9  UNL     1     -21.685  16.663   8.962  1.00 20.00    -0.297 OA
ENDROOT
BRANCH   4   8
HETATM    8  C8  UNL     1     -24.242  15.872  10.755  1.00 20.00     0.013 C 
HETATM    9  C7  UNL     1     -24.896  15.864  12.097  1.00 20.00     0.006 C 
ENDBRANCH   4   8
TORSDOF 1
ENDMDL
MODEL 5
REMARK VINA RESULT:      -3.9      1.517      3.206
REMARK  1 active torsions:
REMARK  status: ('A' for Active; 'I' for Inactive)
REMARK    1  A    between atoms: C4_4  and  C8_8 
ROOT
HETATM    1  C1  UNL     1     -35.585  15.363  -3.452  1.00 20.00     0.136 C 
HETATM    2  C2  UNL     1     -35.032  15.943  -2.137  1.00 20.00     0.084 C 
HETATM    3  C3  UNL     1     -33.659  16.082  -2.852  1.00 20.00     0.004 C 
HETATM    4  C4  UNL     1     -34.345  15.863  -4.259  1.00 20.00     0.020 C 
HETATM    5  C5  UNL     1     -32.907  17.375  -2.585  1.00 20.00     0.011 C 
HETATM    6  C6  UNL     1     -34.649  17.100  -5.101  1.00 20.00     0.024 C 
HETATM    7  O9  UNL     1     -36.597  14.761  -3.741  1.00 20.00    -0.297 OA
ENDROOT
BRANCH   4   8
HETATM    8  C8  UNL     1     -33.672  14.773  -5.091  1.00 20.00     0.013 C 
HETATM    9  C7  UNL     1     -33.872  14.992  -6.554  1.00 20.00     0.006 C 
ENDBRANCH   4   8
TORSDOF 1
ENDMDL
MODEL 6
REMARK VINA RESULT:      -3.7      2.827      4.035
REMARK  1 active torsions:
REMARK  status: ('A' for Active; 'I' for Inactive)
REMARK    1  A    between atoms: C4_4  and  C8_8 
ROOT
HETATM    1  C1  UNL     1     -33.270  17.078  -2.357  1.00 20.00     0.136 C 
HETATM    2  C2  UNL     1     -33.252  15.857  -3.295  1.00 20.00     0.084 C 
HETATM    3  C3  UNL     1     -34.658  15.493  -2.741  1.00 20.00     0.004 C 
HETATM    4  C4  UNL     1     -34.805  16.934  -2.106  1.00 20.00     0.020 C 
HETATM    5  C5  UNL     1     -35.672  15.029  -3.772  1.00 20.00     0.011 C 
HETATM    6  C6  UNL     1     -35.627  17.967  -2.872  1.00 20.00     0.024 C 
HETATM    7  O9  UNL     1     -32.418  17.852  -1.975  1.00 20.00    -0.297 OA
ENDROOT
BRANCH   4   8
HETATM    8  C8  UNL     1     -35.185  16.901  -0.627  1.00 20.00     0.013 C 
HETATM    9  C7  UNL     1     -36.324  17.819  -0.329  1.00 20.00     0.006 C 
ENDBRANCH   4   8
TORSDOF 1
ENDMDL
MODEL 7
REMARK VINA RESULT:      -3.7      1.443      2.783
REMARK  1 active torsions:
REMARK  status: ('A' for Active; 'I' for Inactive)
REMARK    1  A    between atoms: C4_4  and  C8_8 
ROOT
HETATM    1  C1  UNL     1     -36.388  14.208  -4.305  1.00 20.00     0.136 C 
HETATM    2  C2  UNL     1     -34.995  13.721  -3.867  1.00 20.00     0.084 C 
HETATM    3  C3  UNL     1     -34.433  15.078  -4.373  1.00 20.00     0.004 C 
HETATM    4  C4  UNL     1     -35.892  15.683  -4.439  1.00 20.00     0.020 C 
HETATM    5  C5  UNL     1     -33.396  15.736  -3.479  1.00 20.00     0.011 C 
HETATM    6  C6  UNL     1     -36.347  16.565  -3.279  1.00 20.00     0.024 C 
HETATM    7  O9  UNL     1     -37.454  13.654  -4.469  1.00 20.00    -0.297 OA
ENDROOT
BRANCH   4   8
HETATM    8  C8  UNL     1     -36.217  16.320  -5.788  1.00 20.00     0.013 C 
HETATM    9  C7  UNL     1     -36.800  17.686  -5.628  1.00 20.00     0.006 C 
ENDBRANCH   4   8
TORSDOF 1
ENDMDL
MODEL 8
REMARK VINA RESULT:      -3.7      1.637      3.228
REMARK  1 active torsions:
REMARK  status: ('A' for Active; 'I' for Inactive)
REMARK    1  A    between atoms: C4_4  and  C8_8 
ROOT
HETATM    1  C1  UNL     1     -34.023  15.022  -5.135  1.00 20.00     0.136 C 
HETATM    2  C2  UNL     1     -33.286  15.390  -3.835  1.00 20.00     0.084 C 
HETATM    3  C3  UNL     1     -34.548  16.199  -3.425  1.00 20.00     0.004 C 
HETATM    4  C4  UNL     1     -35.396  15.490  -4.555  1.00 20.00     0.020 C 
HETATM    5  C5  UNL     1     -34.979  16.057  -1.975  1.00 20.00     0.011 C 
HETATM    6  C6  UNL     1     -36.292  14.324  -4.146  1.00 20.00     0.024 C 
HETATM    7  O9  UNL     1     -33.668  14.545  -6.191  1.00 20.00    -0.297 OA
ENDROOT
BRANCH   4   8
HETATM    8  C8  UNL     1     -36.139  16.476  -5.455  1.00 20.00     0.013 C 
HETATM    9  C7  UNL     1     -37.589  16.137  -5.567  1.00 20.00     0.006 C 
ENDBRANCH   4   8
TORSDOF 1
ENDMDL
MODEL 9
REMARK VINA RESULT:      -3.7     18.015     19.286
REMARK  1 active torsions:
REMARK  status: ('A' for Active; 'I' for Inactive)
REMARK    1  A    between atoms: C4_4  and  C8_8 
ROOT
HETATM    1  C1  UNL     1     -24.755  16.132  11.423  1.00 20.00     0.136 C 
HETATM    2  C2  UNL     1     -25.931  16.671  12.257  1.00 20.00     0.084 C 
HETATM    3  C3  UNL     1     -25.225  18.055  12.238  1.00 20.00     0.004 C 
HETATM    4  C4  UNL     1     -24.265  17.574  11.078  1.00 20.00     0.020 C 
HETATM    5  C5  UNL     1     -26.130  19.253  12.005  1.00 20.00     0.011 C 
HETATM    6  C6  UNL     1     -24.613  17.989   9.651  1.00 20.00     0.024 C 
HETATM    7  O9  UNL     1     -24.372  15.017  11.141  1.00 20.00    -0.297 OA
ENDROOT
BRANCH   4   8
HETATM    8  C8  UNL     1     -22.788  17.811  11.385  1.00 20.00     0.013 C 
HETATM    9  C7  UNL     1     -21.995  18.041  10.140  1.00 20.00     0.006 C 
ENDBRANCH   4   8
TORSDOF 1
ENDMDL
