MODEL 1
REMARK VINA RESULT:      -4.3      0.000      0.000
REMARK  2 active torsions:
REMARK  status: ('A' for Active; 'I' for Inactive)
REMARK    1  A    between atoms: C4_4  and  C7_7 
REMARK    2  A    between atoms: C6_6  and  C10_10 
ROOT
HETATM    1  C1  UNL     1     -33.077  18.503   1.292  1.00 20.00     0.015 A 
HETATM    2  C2  UNL     1     -34.307  18.165   1.813  1.00 20.00     0.051 A 
HETATM    3  C3  UNL     1     -33.001  18.251  -0.108  1.00 20.00    -0.048 A 
HETATM    4  C4  UNL     1     -34.176  17.730  -0.604  1.00 20.00    -0.003 A 
HETATM    5  C8  UNL     1     -31.790  18.521  -0.921  1.00 20.00     0.049 C 
HETATM    6  S11 UNL     1     -35.364  17.547   0.616  1.00 20.00    -0.105 SA
ENDROOT
BRANCH   4   7
HETATM    7  C7  UNL     1     -34.419  17.346  -2.091  1.00 20.00    -0.005 A 
HETATM    8  C5  UNL     1     -33.520  16.263  -2.670  1.00 20.00     0.021 A 
HETATM    9  C6  UNL     1     -34.943  15.929  -2.332  1.00 20.00     0.010 A 
HETATM   10  C9  UNL     1     -34.840  18.476  -2.986  1.00 20.00     0.021 C 
BRANCH   9  11
HETATM   11  C10 UNL     1     -35.917  15.607  -3.413  1.00 20.00     0.091 C 
HETATM   12 BR12 UNL     1     -35.522  13.862  -4.190  1.00 20.00    -0.096 Br
ENDBRANCH   9  11
ENDBRANCH   4   7
TORSDOF 2
ENDMDL
MODEL 2
REMARK VINA RESULT:      -4.3      1.460      1.940
REMARK  2 active torsions:
REMARK  status: ('A' for Active; 'I' for Inactive)
REMARK    1  A    between atoms: C4_4  and  C7_7 
REMARK    2  A    between atoms: C6_6  and  C10_10 
ROOT
HETATM    1  C1  UNL     1     -32.923  18.484   1.565  1.00 20.00     0.015 A 
HETATM    2  C2  UNL     1     -31.649  18.715   1.090  1.00 20.00     0.051 A 
HETATM    3  C3  UNL     1     -33.820  18.104   0.527  1.00 20.00    -0.048 A 
HETATM    4  C4  UNL     1     -33.200  18.058  -0.703  1.00 20.00    -0.003 A 
HETATM    5  C8  UNL     1     -35.253  17.798   0.759  1.00 20.00     0.049 C 
HETATM    6  S11 UNL     1     -31.542  18.473  -0.601  1.00 20.00    -0.105 SA
ENDROOT
BRANCH   4   7
HETATM    7  C7  UNL     1     -33.902  17.679  -2.038  1.00 20.00    -0.005 A 
HETATM    8  C5  UNL     1     -33.096  16.836  -3.015  1.00 20.00     0.021 A 
HETATM    9  C6  UNL     1     -34.200  16.192  -2.230  1.00 20.00     0.010 A 
HETATM   10  C9  UNL     1     -34.832  18.720  -2.592  1.00 20.00     0.021 C 
BRANCH   9  11
HETATM   11  C10 UNL     1     -35.428  15.703  -2.920  1.00 20.00     0.091 C 
HETATM   12 BR12 UNL     1     -35.004  14.190  -4.076  1.00 20.00    -0.096 Br
ENDBRANCH   9  11
ENDBRANCH   4   7
TORSDOF 2
ENDMDL
MODEL 3
REMARK VINA RESULT:      -4.0      2.357      3.823
REMARK  2 active torsions:
REMARK  status: ('A' for Active; 'I' for Inactive)
REMARK    1  A    between atoms: C4_4  and  C7_7 
REMARK    2  A    between atoms: C6_6  and  C10_10 
ROOT
HETATM    1  C1  UNL     1     -33.584  17.014  -1.918  1.00 20.00     0.015 A 
HETATM    2  C2  UNL     1     -34.695  17.618  -1.369  1.00 20.00     0.051 A 
HETATM    3  C3  UNL     1     -33.921  16.175  -3.019  1.00 20.00    -0.048 A 
HETATM    4  C4  UNL     1     -35.276  16.168  -3.270  1.00 20.00    -0.003 A 
HETATM    5  C8  UNL     1     -32.918  15.403  -3.793  1.00 20.00     0.049 C 
HETATM    6  S11 UNL     1     -36.135  17.171  -2.180  1.00 20.00    -0.105 SA
ENDROOT
BRANCH   4   7
HETATM    7  C7  UNL     1     -35.965  15.354  -4.401  1.00 20.00    -0.005 A 
HETATM    8  C5  UNL     1     -37.190  15.986  -5.045  1.00 20.00     0.021 A 
HETATM    9  C6  UNL     1     -35.894  15.970  -5.798  1.00 20.00     0.010 A 
HETATM   10  C9  UNL     1     -35.942  13.863  -4.224  1.00 20.00     0.021 C 
BRANCH   9  11
HETATM   11  C10 UNL     1     -35.750  15.146  -7.032  1.00 20.00     0.091 C 
HETATM   12 BR12 UNL     1     -34.043  15.512  -7.903  1.00 20.00    -0.096 Br
ENDBRANCH   9  11
ENDBRANCH   4   7
TORSDOF 2
ENDMDL
MODEL 4
REMARK VINA RESULT:      -3.9      2.452      3.416
REMARK  2 active torsions:
REMARK  status: ('A' for Active; 'I' for Inactive)
REMARK    1  A    between atoms: C4_4  and  C7_7 
REMARK    2  A    between atoms: C6_6  and  C10_10 
ROOT
HETATM    1  C1  UNL     1     -33.048  17.724  -1.610  1.00 20.00     0.015 A 
HETATM    2  C2  UNL     1     -32.340  18.703  -2.274  1.00 20.00     0.051 A 
HETATM    3  C3  UNL     1     -34.052  17.138  -2.433  1.00 20.00    -0.048 A 
HETATM    4  C4  UNL     1     -34.074  17.691  -3.696  1.00 20.00    -0.003 A 
HETATM    5  C8  UNL     1     -34.961  16.061  -1.970  1.00 20.00     0.049 C 
HETATM    6  S11 UNL     1     -32.887  18.911  -3.883  1.00 20.00    -0.105 SA
ENDROOT
BRANCH   4   7
HETATM    7  C7  UNL     1     -35.051  17.273  -4.831  1.00 20.00    -0.005 A 
HETATM    8  C5  UNL     1     -34.499  17.301  -6.248  1.00 20.00     0.021 A 
HETATM    9  C6  UNL     1     -34.698  15.980  -5.566  1.00 20.00     0.010 A 
HETATM   10  C9  UNL     1     -36.486  17.659  -4.616  1.00 20.00     0.021 C 
BRANCH   9  11
HETATM   11  C10 UNL     1     -35.734  15.028  -6.057  1.00 20.00     0.091 C 
HETATM   12 BR12 UNL     1     -36.213  13.758  -4.656  1.00 20.00    -0.096 Br
ENDBRANCH   9  11
ENDBRANCH   4   7
TORSDOF 2
ENDMDL
MODEL 5
REMARK VINA RESULT:      -3.9      3.087      5.286
REMARK  2 active torsions:
REMARK  status: ('A' for Active; 'I' for Inactive)
REMARK    1  A    between atoms: C4_4  and  C7_7 
REMARK    2  A    between atoms: C6_6  and  C10_10 
ROOT
HETATM    1  C1  UNL     1     -36.169  15.134  -5.598  1.00 20.00     0.015 A 
HETATM    2  C2  UNL     1     -36.717  16.367  -5.878  1.00 20.00     0.051 A 
HETATM    3  C3  UNL     1     -35.331  15.169  -4.447  1.00 20.00    -0.048 A 
HETATM    4  C4  UNL     1     -35.271  16.427  -3.889  1.00 20.00    -0.003 A 
HETATM    5  C8  UNL     1     -34.614  13.980  -3.924  1.00 20.00     0.049 C 
HETATM    6  S11 UNL     1     -36.221  17.559  -4.753  1.00 20.00    -0.105 SA
ENDROOT
BRANCH   4   7
HETATM    7  C7  UNL     1     -34.444  16.800  -2.626  1.00 20.00    -0.005 A 
HETATM    8  C5  UNL     1     -32.938  16.606  -2.717  1.00 20.00     0.021 A 
HETATM    9  C6  UNL     1     -33.502  17.994  -2.780  1.00 20.00     0.010 A 
HETATM   10  C9  UNL     1     -35.120  16.528  -1.313  1.00 20.00     0.021 C 
BRANCH   9  11
HETATM   11  C10 UNL     1     -33.245  18.961  -1.675  1.00 20.00     0.091 C 
HETATM   12 BR12 UNL     1     -31.651  18.449  -0.675  1.00 20.00    -0.096 Br
ENDBRANCH   9  11
ENDBRANCH   4   7
TORSDOF 2
ENDMDL
MODEL 6
REMARK VINA RESULT:      -3.9      3.069      5.045
REMARK  2 active torsions:
REMARK  status: ('A' for Active; 'I' for Inactive)
REMARK    1  A    between atoms: C4_4  and  C7_7 
REMARK    2  A    between atoms: C6_6  and  C10_10 
ROOT
HETATM    1  C1  UNL     1     -35.804  13.854  -4.487  1.00 20.00     0.015 A 
HETATM    2  C2  UNL     1     -37.075  14.365  -4.336  1.00 20.00     0.051 A 
HETATM    3  C3  UNL     1     -34.800  14.812  -4.166  1.00 20.00    -0.048 A 
HETATM    4  C4  UNL     1     -35.341  16.020  -3.782  1.00 20.00    -0.003 A 
HETATM    5  C8  UNL     1     -33.347  14.528  -4.245  1.00 20.00     0.049 C 
HETATM    6  S11 UNL     1     -37.053  15.995  -3.809  1.00 20.00    -0.105 SA
ENDROOT
BRANCH   4   7
HETATM    7  C7  UNL     1     -34.516  17.272  -3.370  1.00 20.00    -0.005 A 
HETATM    8  C5  UNL     1     -35.039  18.074  -2.188  1.00 20.00     0.021 A 
HETATM    9  C6  UNL     1     -33.837  17.196  -2.002  1.00 20.00     0.010 A 
HETATM   10  C9  UNL     1     -33.865  18.013  -4.503  1.00 20.00     0.021 C 
BRANCH   9  11
HETATM   11  C10 UNL     1     -32.500  17.798  -1.735  1.00 20.00     0.091 C 
HETATM   12 BR12 UNL     1     -32.452  18.595   0.045  1.00 20.00    -0.096 Br
ENDBRANCH   9  11
ENDBRANCH   4   7
TORSDOF 2
ENDMDL
MODEL 7
REMARK VINA RESULT:      -3.8      3.205      5.257
REMARK  2 active torsions:
REMARK  status: ('A' for Active; 'I' for Inactive)
REMARK    1  A    between atoms: C4_4  and  C7_7 
REMARK    2  A    between atoms: C6_6  and  C10_10 
ROOT
HETATM    1  C1  UNL     1     -37.082  15.079  -4.888  1.00 20.00     0.015 A 
HETATM    2  C2  UNL     1     -36.225  14.001  -4.946  1.00 20.00     0.051 A 
HETATM    3  C3  UNL     1     -36.604  16.096  -4.012  1.00 20.00    -0.048 A 
HETATM    4  C4  UNL     1     -35.400  15.757  -3.434  1.00 20.00    -0.003 A 
HETATM    5  C8  UNL     1     -37.331  17.364  -3.762  1.00 20.00     0.049 C 
HETATM    6  S11 UNL     1     -34.851  14.218  -3.947  1.00 20.00    -0.105 SA
ENDROOT
BRANCH   4   7
HETATM    7  C7  UNL     1     -34.615  16.649  -2.430  1.00 20.00    -0.005 A 
HETATM    8  C5  UNL     1     -33.103  16.697  -2.601  1.00 20.00     0.021 A 
HETATM    9  C6  UNL     1     -33.926  17.874  -3.033  1.00 20.00     0.010 A 
HETATM   10  C9  UNL     1     -35.177  16.699  -1.039  1.00 20.00     0.021 C 
BRANCH   9  11
HETATM   11  C10 UNL     1     -33.821  19.172  -2.308  1.00 20.00     0.091 C 
HETATM   12 BR12 UNL     1     -32.174  19.241  -1.265  1.00 20.00    -0.096 Br
ENDBRANCH   9  11
ENDBRANCH   4   7
TORSDOF 2
ENDMDL
MODEL 8
REMARK VINA RESULT:      -3.8      3.269      4.872
REMARK  2 active torsions:
REMARK  status: ('A' for Active; 'I' for Inactive)
REMARK    1  A    between atoms: C4_4  and  C7_7 
REMARK    2  A    between atoms: C6_6  and  C10_10 
ROOT
HETATM    1  C1  UNL     1     -34.804  14.024  -4.058  1.00 20.00     0.015 A 
HETATM    2  C2  UNL     1     -36.089  13.717  -4.454  1.00 20.00     0.051 A 
HETATM    3  C3  UNL     1     -34.704  15.351  -3.550  1.00 20.00    -0.048 A 
HETATM    4  C4  UNL     1     -35.915  16.008  -3.576  1.00 20.00    -0.003 A 
HETATM    5  C8  UNL     1     -33.436  15.941  -3.057  1.00 20.00     0.049 C 
HETATM    6  S11 UNL     1     -37.165  15.026  -4.212  1.00 20.00    -0.105 SA
ENDROOT
BRANCH   4   7
HETATM    7  C7  UNL     1     -36.142  17.468  -3.093  1.00 20.00    -0.005 A 
HETATM    8  C5  UNL     1     -37.484  17.768  -2.441  1.00 20.00     0.021 A 
HETATM    9  C6  UNL     1     -36.262  17.654  -1.580  1.00 20.00     0.010 A 
HETATM   10  C9  UNL     1     -35.509  18.532  -3.942  1.00 20.00     0.021 C 
BRANCH   9  11
HETATM   11  C10 UNL     1     -35.724  18.851  -0.873  1.00 20.00     0.091 C 
HETATM   12 BR12 UNL     1     -33.994  18.449  -0.066  1.00 20.00    -0.096 Br
ENDBRANCH   9  11
ENDBRANCH   4   7
TORSDOF 2
ENDMDL
MODEL 9
REMARK VINA RESULT:      -3.7      2.669      4.085
REMARK  2 active torsions:
REMARK  status: ('A' for Active; 'I' for Inactive)
REMARK    1  A    between atoms: C4_4  and  C7_7 
REMARK    2  A    between atoms: C6_6  and  C10_10 
ROOT
HETATM    1  C1  UNL     1     -33.106  16.611  -2.727  1.00 20.00     0.015 A 
HETATM    2  C2  UNL     1     -33.957  17.530  -2.152  1.00 20.00     0.051 A 
HETATM    3  C3  UNL     1     -33.782  15.754  -3.642  1.00 20.00    -0.048 A 
HETATM    4  C4  UNL     1     -35.124  16.050  -3.733  1.00 20.00    -0.003 A 
HETATM    5  C8  UNL     1     -33.105  14.672  -4.399  1.00 20.00     0.049 C 
HETATM    6  S11 UNL     1     -35.564  17.357  -2.718  1.00 20.00    -0.105 SA
ENDROOT
BRANCH   4   7
HETATM    7  C7  UNL     1     -36.139  15.301  -4.642  1.00 20.00    -0.005 A 
HETATM    8  C5  UNL     1     -36.234  13.793  -4.458  1.00 20.00     0.021 A 
HETATM    9  C6  UNL     1     -37.330  14.666  -3.922  1.00 20.00     0.010 A 
HETATM   10  C9  UNL     1     -36.297  15.861  -6.026  1.00 20.00     0.021 C 
BRANCH   9  11
HETATM   11  C10 UNL     1     -38.694  14.614  -4.521  1.00 20.00     0.091 C 
HETATM   12 BR12 UNL     1     -39.830  16.002  -3.753  1.00 20.00    -0.096 Br
ENDBRANCH   9  11
ENDBRANCH   4   7
TORSDOF 2
ENDMDL
