MODEL 1
REMARK VINA RESULT:      -5.2      0.000      0.000
REMARK  1 active torsions:
REMARK  status: ('A' for Active; 'I' for Inactive)
REMARK    1  A    between atoms: C1_1  and  C5_5 
ROOT
HETATM    1  C2  UNL     1     -33.773  15.110  -4.349  1.00 20.00     0.013 C 
HETATM    2  C3  UNL     1     -32.834  15.928  -3.465  1.00 20.00     0.009 C 
HETATM    3  C4  UNL     1     -34.833  16.643  -2.062  1.00 20.00     0.013 C 
HETATM    4  C5  UNL     1     -34.975  14.603  -3.552  1.00 20.00     0.051 C 
HETATM    5  C6  UNL     1     -35.772  15.741  -2.891  1.00 20.00    -0.007 C 
HETATM    6  C7  UNL     1     -33.528  17.111  -2.755  1.00 20.00    -0.047 C 
HETATM    7  C8  UNL     1     -36.648  16.538  -3.864  1.00 20.00     0.011 C 
HETATM    8  C9  UNL     1     -33.788  18.258  -3.749  1.00 20.00     0.015 C 
HETATM    9  C10 UNL     1     -32.576  17.663  -1.669  1.00 20.00     0.015 C 
ENDROOT
BRANCH   4  10
HETATM   10  C1  UNL     1     -35.850  13.744  -4.416  1.00 20.00     0.236 C 
HETATM   11  O11 UNL     1     -35.771  12.521  -4.455  1.00 20.00    -0.306 OA
ENDBRANCH   4  10
TORSDOF 1
ENDMDL
MODEL 2
REMARK VINA RESULT:      -4.7      1.557      2.093
REMARK  1 active torsions:
REMARK  status: ('A' for Active; 'I' for Inactive)
REMARK    1  A    between atoms: C1_1  and  C5_5 
ROOT
HETATM    1  C2  UNL     1     -32.960  17.038  -3.095  1.00 20.00     0.013 C 
HETATM    2  C3  UNL     1     -32.915  17.673  -1.707  1.00 20.00     0.009 C 
HETATM    3  C4  UNL     1     -35.147  16.575  -1.170  1.00 20.00     0.013 C 
HETATM    4  C5  UNL     1     -33.713  15.709  -3.067  1.00 20.00     0.051 C 
HETATM    5  C6  UNL     1     -35.150  15.853  -2.533  1.00 20.00    -0.007 C 
HETATM    6  C7  UNL     1     -34.310  17.876  -1.074  1.00 20.00    -0.047 C 
HETATM    7  C8  UNL     1     -36.128  16.481  -3.532  1.00 20.00     0.011 C 
HETATM    8  C9  UNL     1     -35.030  19.069  -1.730  1.00 20.00     0.015 C 
HETATM    9  C10 UNL     1     -34.129  18.226   0.420  1.00 20.00     0.015 C 
ENDROOT
BRANCH   4  10
HETATM   10  C1  UNL     1     -33.688  15.065  -4.421  1.00 20.00     0.236 C 
HETATM   11  O11 UNL     1     -33.418  13.883  -4.603  1.00 20.00    -0.306 OA
ENDBRANCH   4  10
TORSDOF 1
ENDMDL
MODEL 3
REMARK VINA RESULT:      -4.5      1.599      2.542
REMARK  1 active torsions:
REMARK  status: ('A' for Active; 'I' for Inactive)
REMARK    1  A    between atoms: C1_1  and  C5_5 
ROOT
HETATM    1  C2  UNL     1     -35.392  16.780  -4.970  1.00 20.00     0.013 C 
HETATM    2  C3  UNL     1     -34.565  17.597  -3.980  1.00 20.00     0.009 C 
HETATM    3  C4  UNL     1     -33.134  15.541  -3.532  1.00 20.00     0.013 C 
HETATM    4  C5  UNL     1     -34.544  15.692  -5.627  1.00 20.00     0.051 C 
HETATM    5  C6  UNL     1     -33.903  14.739  -4.602  1.00 20.00    -0.007 C 
HETATM    6  C7  UNL     1     -33.880  16.740  -2.893  1.00 20.00    -0.047 C 
HETATM    7  C8  UNL     1     -34.880  13.726  -3.993  1.00 20.00     0.011 C 
HETATM    8  C9  UNL     1     -34.907  16.281  -1.842  1.00 20.00     0.015 C 
HETATM    9  C10 UNL     1     -32.843  17.616  -2.155  1.00 20.00     0.015 C 
ENDROOT
BRANCH   4  10
HETATM   10  C1  UNL     1     -35.351  14.944  -6.647  1.00 20.00     0.236 C 
HETATM   11  O11 UNL     1     -36.559  15.096  -6.797  1.00 20.00    -0.306 OA
ENDBRANCH   4  10
TORSDOF 1
ENDMDL
MODEL 4
REMARK VINA RESULT:      -4.5      1.610      2.441
REMARK  1 active torsions:
REMARK  status: ('A' for Active; 'I' for Inactive)
REMARK    1  A    between atoms: C1_1  and  C5_5 
ROOT
HETATM    1  C2  UNL     1     -35.912  14.952  -3.126  1.00 20.00     0.013 C 
HETATM    2  C3  UNL     1     -34.749  15.742  -2.531  1.00 20.00     0.009 C 
HETATM    3  C4  UNL     1     -34.480  16.957  -4.750  1.00 20.00     0.013 C 
HETATM    4  C5  UNL     1     -36.644  15.771  -4.189  1.00 20.00     0.051 C 
HETATM    5  C6  UNL     1     -35.716  16.234  -5.326  1.00 20.00    -0.007 C 
HETATM    6  C7  UNL     1     -33.741  16.250  -3.585  1.00 20.00    -0.047 C 
HETATM    7  C8  UNL     1     -35.343  15.126  -6.318  1.00 20.00     0.011 C 
HETATM    8  C9  UNL     1     -32.858  15.093  -4.087  1.00 20.00     0.015 C 
HETATM    9  C10 UNL     1     -32.801  17.277  -2.916  1.00 20.00     0.015 C 
ENDROOT
BRANCH   4  10
HETATM   10  C1  UNL     1     -37.825  15.009  -4.714  1.00 20.00     0.236 C 
HETATM   11  O11 UNL     1     -38.085  13.856  -4.388  1.00 20.00    -0.306 OA
ENDBRANCH   4  10
TORSDOF 1
ENDMDL
MODEL 5
REMARK VINA RESULT:      -4.4      1.256      1.925
REMARK  1 active torsions:
REMARK  status: ('A' for Active; 'I' for Inactive)
REMARK    1  A    between atoms: C1_1  and  C5_5 
ROOT
HETATM    1  C2  UNL     1     -35.122  14.851  -2.965  1.00 20.00     0.013 C 
HETATM    2  C3  UNL     1     -34.958  16.110  -2.116  1.00 20.00     0.009 C 
HETATM    3  C4  UNL     1     -35.382  17.524  -4.188  1.00 20.00     0.013 C 
HETATM    4  C5  UNL     1     -36.086  15.094  -4.125  1.00 20.00     0.051 C 
HETATM    5  C6  UNL     1     -35.645  16.258  -5.031  1.00 20.00    -0.007 C 
HETATM    6  C7  UNL     1     -34.505  17.346  -2.923  1.00 20.00    -0.047 C 
HETATM    7  C8  UNL     1     -34.477  15.916  -5.964  1.00 20.00     0.011 C 
HETATM    8  C9  UNL     1     -33.009  17.241  -3.273  1.00 20.00     0.015 C 
HETATM    9  C10 UNL     1     -34.673  18.602  -2.038  1.00 20.00     0.015 C 
ENDROOT
BRANCH   4  10
HETATM   10  C1  UNL     1     -36.290  13.831  -4.909  1.00 20.00     0.236 C 
HETATM   11  O11 UNL     1     -35.880  12.735  -4.542  1.00 20.00    -0.306 OA
ENDBRANCH   4  10
TORSDOF 1
ENDMDL
MODEL 6
REMARK VINA RESULT:      -4.4      2.784      4.606
REMARK  1 active torsions:
REMARK  status: ('A' for Active; 'I' for Inactive)
REMARK    1  A    between atoms: C1_1  and  C5_5 
ROOT
HETATM    1  C2  UNL     1     -34.197  17.631  -1.064  1.00 20.00     0.013 C 
HETATM    2  C3  UNL     1     -35.044  16.454  -1.542  1.00 20.00     0.009 C 
HETATM    3  C4  UNL     1     -33.635  16.343  -3.658  1.00 20.00     0.013 C 
HETATM    4  C5  UNL     1     -32.769  17.534  -1.600  1.00 20.00     0.051 C 
HETATM    5  C6  UNL     1     -32.716  17.467  -3.137  1.00 20.00    -0.007 C 
HETATM    6  C7  UNL     1     -35.072  16.295  -3.078  1.00 20.00    -0.047 C 
HETATM    7  C8  UNL     1     -32.973  18.810  -3.831  1.00 20.00     0.011 C 
HETATM    8  C9  UNL     1     -35.981  17.363  -3.713  1.00 20.00     0.015 C 
HETATM    9  C10 UNL     1     -35.686  14.919  -3.421  1.00 20.00     0.015 C 
ENDROOT
BRANCH   4  10
HETATM   10  C1  UNL     1     -31.932  18.659  -1.067  1.00 20.00     0.236 C 
HETATM   11  O11 UNL     1     -30.760  18.528  -0.731  1.00 20.00    -0.306 OA
ENDBRANCH   4  10
TORSDOF 1
ENDMDL
MODEL 7
REMARK VINA RESULT:      -4.3      2.765      4.477
REMARK  1 active torsions:
REMARK  status: ('A' for Active; 'I' for Inactive)
REMARK    1  A    between atoms: C1_1  and  C5_5 
ROOT
HETATM    1  C2  UNL     1     -35.091  17.138  -1.596  1.00 20.00     0.013 C 
HETATM    2  C3  UNL     1     -35.305  15.771  -2.242  1.00 20.00     0.009 C 
HETATM    3  C4  UNL     1     -33.051  16.002  -3.400  1.00 20.00     0.013 C 
HETATM    4  C5  UNL     1     -33.604  17.414  -1.373  1.00 20.00     0.051 C 
HETATM    5  C6  UNL     1     -32.785  17.338  -2.674  1.00 20.00    -0.007 C 
HETATM    6  C7  UNL     1     -34.535  15.586  -3.567  1.00 20.00    -0.047 C 
HETATM    7  C8  UNL     1     -32.957  18.553  -3.593  1.00 20.00     0.011 C 
HETATM    8  C9  UNL     1     -35.222  16.365  -4.703  1.00 20.00     0.015 C 
HETATM    9  C10 UNL     1     -34.575  14.091  -3.957  1.00 20.00     0.015 C 
ENDROOT
BRANCH   4  10
HETATM   10  C1  UNL     1     -33.414  18.728  -0.676  1.00 20.00     0.236 C 
HETATM   11  O11 UNL     1     -32.462  18.973   0.058  1.00 20.00    -0.306 OA
ENDBRANCH   4  10
TORSDOF 1
ENDMDL
MODEL 8
REMARK VINA RESULT:      -4.2     10.504     12.475
REMARK  1 active torsions:
REMARK  status: ('A' for Active; 'I' for Inactive)
REMARK    1  A    between atoms: C1_1  and  C5_5 
ROOT
HETATM    1  C2  UNL     1     -42.733   6.638  -1.859  1.00 20.00     0.013 C 
HETATM    2  C3  UNL     1     -42.181   8.006  -1.462  1.00 20.00     0.009 C 
HETATM    3  C4  UNL     1     -41.305   6.988   0.699  1.00 20.00     0.013 C 
HETATM    4  C5  UNL     1     -41.882   5.512  -1.274  1.00 20.00     0.051 C 
HETATM    5  C6  UNL     1     -41.774   5.585   0.260  1.00 20.00    -0.007 C 
HETATM    6  C7  UNL     1     -42.039   8.196   0.064  1.00 20.00    -0.047 C 
HETATM    7  C8  UNL     1     -43.036   5.126   0.999  1.00 20.00     0.011 C 
HETATM    8  C9  UNL     1     -43.417   8.431   0.708  1.00 20.00     0.015 C 
HETATM    9  C10 UNL     1     -41.197   9.465   0.327  1.00 20.00     0.015 C 
ENDROOT
BRANCH   4  10
HETATM   10  C1  UNL     1     -42.395   4.178  -1.728  1.00 20.00     0.236 C 
HETATM   11  O11 UNL     1     -41.914   3.552  -2.667  1.00 20.00    -0.306 OA
ENDBRANCH   4  10
TORSDOF 1
ENDMDL
MODEL 9
REMARK VINA RESULT:      -4.2      2.337      4.046
REMARK  1 active torsions:
REMARK  status: ('A' for Active; 'I' for Inactive)
REMARK    1  A    between atoms: C1_1  and  C5_5 
ROOT
HETATM    1  C2  UNL     1     -36.292  17.022  -2.914  1.00 20.00     0.013 C 
HETATM    2  C3  UNL     1     -36.618  16.108  -4.093  1.00 20.00     0.009 C 
HETATM    3  C4  UNL     1     -34.332  15.018  -3.838  1.00 20.00     0.013 C 
HETATM    4  C5  UNL     1     -35.350  16.331  -1.928  1.00 20.00     0.051 C 
HETATM    5  C6  UNL     1     -34.036  15.870  -2.586  1.00 20.00    -0.007 C 
HETATM    6  C7  UNL     1     -35.368  15.591  -4.839  1.00 20.00    -0.047 C 
HETATM    7  C8  UNL     1     -33.045  17.006  -2.865  1.00 20.00     0.011 C 
HETATM    8  C9  UNL     1     -34.764  16.705  -5.713  1.00 20.00     0.015 C 
HETATM    9  C10 UNL     1     -35.798  14.454  -5.793  1.00 20.00     0.015 C 
ENDROOT
BRANCH   4  10
HETATM   10  C1  UNL     1     -35.094  17.214  -0.743  1.00 20.00     0.236 C 
HETATM   11  O11 UNL     1     -35.451  16.935   0.397  1.00 20.00    -0.306 OA
ENDBRANCH   4  10
TORSDOF 1
ENDMDL
