MODEL 1
REMARK VINA RESULT:      -4.5      0.000      0.000
REMARK  2 active torsions:
REMARK  status: ('A' for Active; 'I' for Inactive)
REMARK    1  A    between atoms: C3_3  and  C7_7 
REMARK    2  A    between atoms: C4_4  and  O8_8 
ROOT
HETATM    1  C1  UNL     1     -34.489   5.065   5.791  1.00 20.00     0.037 C 
HETATM    2  C2  UNL     1     -34.491   6.576   5.455  1.00 20.00    -0.010 C 
HETATM    3  C3  UNL     1     -34.282   6.174   3.960  1.00 20.00     0.018 C 
HETATM    4  C4  UNL     1     -34.901   4.793   4.327  1.00 20.00     0.122 C 
HETATM    5  C5  UNL     1     -33.452   7.424   6.161  1.00 20.00     0.010 C 
ENDROOT
BRANCH   3   6
HETATM    6  C7  UNL     1     -32.863   6.159   3.406  1.00 20.00     0.003 C 
HETATM    7  C6  UNL     1     -32.669   7.193   2.343  1.00 20.00     0.005 C 
ENDBRANCH   3   6
BRANCH   4   8
HETATM    8  O8  UNL     1     -34.318   3.636   3.705  1.00 20.00    -0.395 OA
HETATM    9  H22 UNL     1     -34.409   2.918   4.346  1.00 20.00     0.210 HD
ENDBRANCH   4   8
TORSDOF 2
ENDMDL
MODEL 2
REMARK VINA RESULT:      -4.1     12.225     12.741
REMARK  2 active torsions:
REMARK  status: ('A' for Active; 'I' for Inactive)
REMARK    1  A    between atoms: C3_3  and  C7_7 
REMARK    2  A    between atoms: C4_4  and  O8_8 
ROOT
HETATM    1  C1  UNL     1     -33.139  15.993  -3.648  1.00 20.00     0.037 C 
HETATM    2  C2  UNL     1     -34.286  15.576  -2.696  1.00 20.00    -0.010 C 
HETATM    3  C3  UNL     1     -34.715  14.535  -3.779  1.00 20.00     0.018 C 
HETATM    4  C4  UNL     1     -33.252  14.599  -4.307  1.00 20.00     0.122 C 
HETATM    5  C5  UNL     1     -35.247  16.672  -2.280  1.00 20.00     0.010 C 
ENDROOT
BRANCH   3   6
HETATM    6  C7  UNL     1     -35.812  14.923  -4.761  1.00 20.00     0.003 C 
HETATM    7  C6  UNL     1     -37.103  14.233  -4.456  1.00 20.00     0.005 C 
ENDBRANCH   3   6
BRANCH   4   8
HETATM    8  O8  UNL     1     -33.074  14.552  -5.733  1.00 20.00    -0.395 OA
HETATM    9  H22 UNL     1     -32.928  13.622  -5.950  1.00 20.00     0.210 HD
ENDBRANCH   4   8
TORSDOF 2
ENDMDL
MODEL 3
REMARK VINA RESULT:      -3.9      8.776      9.544
REMARK  2 active torsions:
REMARK  status: ('A' for Active; 'I' for Inactive)
REMARK    1  A    between atoms: C3_3  and  C7_7 
REMARK    2  A    between atoms: C4_4  and  O8_8 
ROOT
HETATM    1  C1  UNL     1     -41.167   7.201  -1.361  1.00 20.00     0.037 C 
HETATM    2  C2  UNL     1     -41.359   7.684   0.097  1.00 20.00    -0.010 C 
HETATM    3  C3  UNL     1     -41.590   6.190   0.490  1.00 20.00     0.018 C 
HETATM    4  C4  UNL     1     -40.795   5.812  -0.794  1.00 20.00     0.122 C 
HETATM    5  C5  UNL     1     -42.457   8.704   0.328  1.00 20.00     0.010 C 
ENDROOT
BRANCH   3   6
HETATM    6  C7  UNL     1     -43.021   5.679   0.581  1.00 20.00     0.003 C 
HETATM    7  C6  UNL     1     -43.417   5.381   1.992  1.00 20.00     0.005 C 
ENDBRANCH   3   6
BRANCH   4   8
HETATM    8  O8  UNL     1     -41.265   4.674  -1.536  1.00 20.00    -0.395 OA
HETATM    9  H22 UNL     1     -41.384   4.983  -2.445  1.00 20.00     0.210 HD
ENDBRANCH   4   8
TORSDOF 2
ENDMDL
MODEL 4
REMARK VINA RESULT:      -3.9     15.905     16.836
REMARK  2 active torsions:
REMARK  status: ('A' for Active; 'I' for Inactive)
REMARK    1  A    between atoms: C3_3  and  C7_7 
REMARK    2  A    between atoms: C4_4  and  O8_8 
ROOT
HETATM    1  C1  UNL     1     -23.032  18.256   8.079  1.00 20.00     0.037 C 
HETATM    2  C2  UNL     1     -23.816  18.925   9.234  1.00 20.00    -0.010 C 
HETATM    3  C3  UNL     1     -23.288  17.785  10.162  1.00 20.00     0.018 C 
HETATM    4  C4  UNL     1     -22.122  17.605   9.145  1.00 20.00     0.122 C 
HETATM    5  C5  UNL     1     -25.307  19.097   9.023  1.00 20.00     0.010 C 
ENDROOT
BRANCH   3   6
HETATM    6  C7  UNL     1     -24.179  16.573  10.398  1.00 20.00     0.003 C 
HETATM    7  C6  UNL     1     -24.170  16.147  11.832  1.00 20.00     0.005 C 
ENDBRANCH   3   6
BRANCH   4   8
HETATM    8  O8  UNL     1     -21.694  16.259   8.881  1.00 20.00    -0.395 OA
HETATM    9  H22 UNL     1     -21.563  16.206   7.925  1.00 20.00     0.210 HD
ENDBRANCH   4   8
TORSDOF 2
ENDMDL
MODEL 5
REMARK VINA RESULT:      -3.9     16.361     16.965
REMARK  2 active torsions:
REMARK  status: ('A' for Active; 'I' for Inactive)
REMARK    1  A    between atoms: C3_3  and  C7_7 
REMARK    2  A    between atoms: C4_4  and  O8_8 
ROOT
HETATM    1  C1  UNL     1     -23.017  16.916   9.799  1.00 20.00     0.037 C 
HETATM    2  C2  UNL     1     -23.529  18.372   9.688  1.00 20.00    -0.010 C 
HETATM    3  C3  UNL     1     -23.990  18.251  11.176  1.00 20.00     0.018 C 
HETATM    4  C4  UNL     1     -22.932  17.118  11.328  1.00 20.00     0.122 C 
HETATM    5  C5  UNL     1     -24.550  18.646   8.602  1.00 20.00     0.010 C 
ENDROOT
BRANCH   3   6
HETATM    6  C7  UNL     1     -25.438  17.874  11.457  1.00 20.00     0.003 C 
HETATM    7  C6  UNL     1     -26.208  19.016  12.039  1.00 20.00     0.005 C 
ENDBRANCH   3   6
BRANCH   4   8
HETATM    8  O8  UNL     1     -23.302  15.992  12.142  1.00 20.00    -0.395 OA
HETATM    9  H22 UNL     1     -22.892  15.221  11.726  1.00 20.00     0.210 HD
ENDBRANCH   4   8
TORSDOF 2
ENDMDL
MODEL 6
REMARK VINA RESULT:      -3.8     12.292     13.284
REMARK  2 active torsions:
REMARK  status: ('A' for Active; 'I' for Inactive)
REMARK    1  A    between atoms: C3_3  and  C7_7 
REMARK    2  A    between atoms: C4_4  and  O8_8 
ROOT
HETATM    1  C1  UNL     1     -34.588  15.462  -2.991  1.00 20.00     0.037 C 
HETATM    2  C2  UNL     1     -34.727  14.206  -3.884  1.00 20.00    -0.010 C 
HETATM    3  C3  UNL     1     -33.728  14.884  -4.876  1.00 20.00     0.018 C 
HETATM    4  C4  UNL     1     -33.223  15.726  -3.667  1.00 20.00     0.122 C 
HETATM    5  C5  UNL     1     -36.130  13.860  -4.344  1.00 20.00     0.010 C 
ENDROOT
BRANCH   3   6
HETATM    6  C7  UNL     1     -34.295  15.659  -6.058  1.00 20.00     0.003 C 
HETATM    7  C6  UNL     1     -33.822  15.108  -7.364  1.00 20.00     0.005 C 
ENDBRANCH   3   6
BRANCH   4   8
HETATM    8  O8  UNL     1     -32.896  17.101  -3.927  1.00 20.00    -0.395 OA
HETATM    9  H22 UNL     1     -31.993  17.223  -3.604  1.00 20.00     0.210 HD
ENDBRANCH   4   8
TORSDOF 2
ENDMDL
MODEL 7
REMARK VINA RESULT:      -3.8     16.516     16.980
REMARK  2 active torsions:
REMARK  status: ('A' for Active; 'I' for Inactive)
REMARK    1  A    between atoms: C3_3  and  C7_7 
REMARK    2  A    between atoms: C4_4  and  O8_8 
ROOT
HETATM    1  C1  UNL     1     -23.723  17.905  12.332  1.00 20.00     0.037 C 
HETATM    2  C2  UNL     1     -25.120  17.899  11.667  1.00 20.00    -0.010 C 
HETATM    3  C3  UNL     1     -24.395  17.672  10.302  1.00 20.00     0.018 C 
HETATM    4  C4  UNL     1     -23.203  17.096  11.122  1.00 20.00     0.122 C 
HETATM    5  C5  UNL     1     -25.969  19.139  11.874  1.00 20.00     0.010 C 
ENDROOT
BRANCH   3   6
HETATM    6  C7  UNL     1     -24.099  18.884   9.429  1.00 20.00     0.003 C 
HETATM    7  C6  UNL     1     -24.756  18.778   8.090  1.00 20.00     0.005 C 
ENDBRANCH   3   6
BRANCH   4   8
HETATM    8  O8  UNL     1     -21.881  17.421  10.659  1.00 20.00    -0.395 OA
HETATM    9  H22 UNL     1     -21.305  16.718  10.991  1.00 20.00     0.210 HD
ENDBRANCH   4   8
TORSDOF 2
ENDMDL
MODEL 8
REMARK VINA RESULT:      -3.8      1.934      3.408
REMARK  2 active torsions:
REMARK  status: ('A' for Active; 'I' for Inactive)
REMARK    1  A    between atoms: C3_3  and  C7_7 
REMARK    2  A    between atoms: C4_4  and  O8_8 
ROOT
HETATM    1  C1  UNL     1     -32.828   5.334   2.606  1.00 20.00     0.037 C 
HETATM    2  C2  UNL     1     -34.212   5.268   3.296  1.00 20.00    -0.010 C 
HETATM    3  C3  UNL     1     -33.903   6.675   3.901  1.00 20.00     0.018 C 
HETATM    4  C4  UNL     1     -32.904   6.874   2.723  1.00 20.00     0.122 C 
HETATM    5  C5  UNL     1     -34.449   4.086   4.215  1.00 20.00     0.010 C 
ENDROOT
BRANCH   3   6
HETATM    6  C7  UNL     1     -33.321   6.746   5.306  1.00 20.00     0.003 C 
HETATM    7  C6  UNL     1     -34.379   6.606   6.354  1.00 20.00     0.005 C 
ENDBRANCH   3   6
BRANCH   4   8
HETATM    8  O8  UNL     1     -31.672   7.551   3.024  1.00 20.00    -0.395 OA
HETATM    9  H22 UNL     1     -30.969   6.991   2.667  1.00 20.00     0.210 HD
ENDBRANCH   4   8
TORSDOF 2
ENDMDL
MODEL 9
REMARK VINA RESULT:      -3.7     16.599     17.165
REMARK  2 active torsions:
REMARK  status: ('A' for Active; 'I' for Inactive)
REMARK    1  A    between atoms: C3_3  and  C7_7 
REMARK    2  A    between atoms: C4_4  and  O8_8 
ROOT
HETATM    1  C1  UNL     1     -24.224  18.177  11.561  1.00 20.00     0.037 C 
HETATM    2  C2  UNL     1     -24.594  17.843  10.095  1.00 20.00    -0.010 C 
HETATM    3  C3  UNL     1     -23.185  17.181   9.961  1.00 20.00     0.018 C 
HETATM    4  C4  UNL     1     -23.202  17.018  11.510  1.00 20.00     0.122 C 
HETATM    5  C5  UNL     1     -24.963  19.018   9.211  1.00 20.00     0.010 C 
ENDROOT
BRANCH   3   6
HETATM    6  C7  UNL     1     -22.049  18.009   9.376  1.00 20.00     0.003 C 
HETATM    7  C6  UNL     1     -21.444  17.355   8.175  1.00 20.00     0.005 C 
ENDBRANCH   3   6
BRANCH   4   8
HETATM    8  O8  UNL     1     -21.959  17.233  12.198  1.00 20.00    -0.395 OA
HETATM    9  H22 UNL     1     -21.280  16.812  11.655  1.00 20.00     0.210 HD
ENDBRANCH   4   8
TORSDOF 2
ENDMDL
