MODEL 1
REMARK VINA RESULT:      -5.8      0.000      0.000
REMARK  3 active torsions:
REMARK  status: ('A' for Active; 'I' for Inactive)
REMARK    1  A    between atoms: C1_1  and  C9_9 
REMARK    2  A    between atoms: C5_5  and  C8_8 
REMARK    3  A    between atoms: C6_6  and  C9_9 
ROOT
HETATM    1  C2  UNL     1     -33.925   4.285   3.511  1.00 20.00     0.005 C 
HETATM    2  C3  UNL     1     -33.160   4.902   2.336  1.00 20.00     0.008 C 
HETATM    3  C4  UNL     1     -33.883   6.678   3.784  1.00 20.00     0.012 C 
HETATM    4  C5  UNL     1     -34.684   5.439   4.176  1.00 20.00    -0.014 C 
HETATM    5  C6  UNL     1     -33.525   6.390   2.330  1.00 20.00     0.030 C 
ENDROOT
BRANCH   5   6
HETATM    6  C9  UNL     1     -32.412   7.278   1.799  1.00 20.00     0.274 C 
HETATM    7  F12 UNL     1     -31.801   7.862   2.866  1.00 20.00    -0.238 F 
BRANCH   6   8
HETATM    8  C1  UNL     1     -32.848   8.420   0.888  1.00 20.00     0.208 C 
HETATM    9  O10 UNL     1     -32.874   9.572   1.403  1.00 20.00    -0.646 OA
HETATM   10  O11 UNL     1     -33.149   8.062  -0.288  1.00 20.00    -0.646 OA
ENDBRANCH   6   8
ENDBRANCH   5   6
BRANCH   4  11
HETATM   11  C8  UNL     1     -34.831   5.273   5.679  1.00 20.00     0.000 C 
HETATM   12  C7  UNL     1     -34.243   6.426   6.430  1.00 20.00     0.005 C 
ENDBRANCH   4  11
TORSDOF 3
ENDMDL
MODEL 2
REMARK VINA RESULT:      -5.6     10.767     11.340
REMARK  3 active torsions:
REMARK  status: ('A' for Active; 'I' for Inactive)
REMARK    1  A    between atoms: C1_1  and  C9_9 
REMARK    2  A    between atoms: C5_5  and  C8_8 
REMARK    3  A    between atoms: C6_6  and  C9_9 
ROOT
HETATM    1  C2  UNL     1     -33.215  16.913  -2.418  1.00 20.00     0.005 C 
HETATM    2  C3  UNL     1     -33.351  15.981  -3.626  1.00 20.00     0.008 C 
HETATM    3  C4  UNL     1     -35.457  16.034  -2.470  1.00 20.00     0.012 C 
HETATM    4  C5  UNL     1     -34.418  16.617  -1.516  1.00 20.00    -0.014 C 
HETATM    5  C6  UNL     1     -34.608  15.144  -3.373  1.00 20.00     0.030 C 
ENDROOT
BRANCH   5   6
HETATM    6  C9  UNL     1     -35.321  14.733  -4.650  1.00 20.00     0.274 C 
HETATM    7  F12 UNL     1     -36.058  15.795  -5.076  1.00 20.00    -0.238 F 
BRANCH   6   8
HETATM    8  C1  UNL     1     -36.299  13.569  -4.523  1.00 20.00     0.208 C 
HETATM    9  O10 UNL     1     -37.527  13.861  -4.537  1.00 20.00    -0.646 OA
HETATM   10  O11 UNL     1     -35.748  12.437  -4.402  1.00 20.00    -0.646 OA
ENDBRANCH   6   8
ENDBRANCH   5   6
BRANCH   4  11
HETATM   11  C8  UNL     1     -34.917  17.838  -0.761  1.00 20.00     0.000 C 
HETATM   12  C7  UNL     1     -35.471  17.478   0.582  1.00 20.00     0.005 C 
ENDBRANCH   4  11
TORSDOF 3
ENDMDL
MODEL 3
REMARK VINA RESULT:      -5.3     10.982     11.728
REMARK  3 active torsions:
REMARK  status: ('A' for Active; 'I' for Inactive)
REMARK    1  A    between atoms: C1_1  and  C9_9 
REMARK    2  A    between atoms: C5_5  and  C8_8 
REMARK    3  A    between atoms: C6_6  and  C9_9 
ROOT
HETATM    1  C2  UNL     1     -32.981  16.521  -2.831  1.00 20.00     0.005 C 
HETATM    2  C3  UNL     1     -33.592  15.608  -3.898  1.00 20.00     0.008 C 
HETATM    3  C4  UNL     1     -35.367  16.448  -2.514  1.00 20.00     0.012 C 
HETATM    4  C5  UNL     1     -34.064  16.711  -1.764  1.00 20.00    -0.014 C 
HETATM    5  C6  UNL     1     -35.000  15.263  -3.402  1.00 20.00     0.030 C 
ENDROOT
BRANCH   5   6
HETATM    6  C9  UNL     1     -35.991  15.029  -4.529  1.00 20.00     0.274 C 
HETATM    7  F12 UNL     1     -36.981  15.955  -4.413  1.00 20.00    -0.238 F 
BRANCH   6   8
HETATM    8  C1  UNL     1     -36.686  13.671  -4.534  1.00 20.00     0.208 C 
HETATM    9  O10 UNL     1     -37.945  13.683  -4.442  1.00 20.00    -0.646 OA
HETATM   10  O11 UNL     1     -35.899  12.684  -4.615  1.00 20.00    -0.646 OA
ENDBRANCH   6   8
ENDBRANCH   5   6
BRANCH   4  11
HETATM   11  C8  UNL     1     -34.021  18.079  -1.102  1.00 20.00     0.000 C 
HETATM   12  C7  UNL     1     -33.066  19.004  -1.790  1.00 20.00     0.005 C 
ENDBRANCH   4  11
TORSDOF 3
ENDMDL
MODEL 4
REMARK VINA RESULT:      -5.3     10.514     11.499
REMARK  3 active torsions:
REMARK  status: ('A' for Active; 'I' for Inactive)
REMARK    1  A    between atoms: C1_1  and  C9_9 
REMARK    2  A    between atoms: C5_5  and  C8_8 
REMARK    3  A    between atoms: C6_6  and  C9_9 
ROOT
HETATM    1  C2  UNL     1     -34.476  17.167  -1.269  1.00 20.00     0.005 C 
HETATM    2  C3  UNL     1     -35.179  16.001  -1.970  1.00 20.00     0.008 C 
HETATM    3  C4  UNL     1     -33.044  16.339  -3.020  1.00 20.00     0.012 C 
HETATM    4  C5  UNL     1     -33.331  17.591  -2.194  1.00 20.00    -0.014 C 
HETATM    5  C6  UNL     1     -34.445  15.805  -3.301  1.00 20.00     0.030 C 
ENDROOT
BRANCH   5   6
HETATM    6  C9  UNL     1     -34.451  14.364  -3.782  1.00 20.00     0.274 C 
HETATM    7  F12 UNL     1     -33.417  14.211  -4.653  1.00 20.00    -0.238 F 
BRANCH   6   8
HETATM    8  C1  UNL     1     -35.702  13.917  -4.532  1.00 20.00     0.208 C 
HETATM    9  O10 UNL     1     -35.960  12.682  -4.509  1.00 20.00    -0.646 OA
HETATM   10  O11 UNL     1     -36.326  14.855  -5.107  1.00 20.00    -0.646 OA
ENDBRANCH   6   8
ENDBRANCH   5   6
BRANCH   4  11
HETATM   11  C8  UNL     1     -32.113  18.105  -1.445  1.00 20.00     0.000 C 
HETATM   12  C7  UNL     1     -32.447  18.509  -0.043  1.00 20.00     0.005 C 
ENDBRANCH   4  11
TORSDOF 3
ENDMDL
MODEL 5
REMARK VINA RESULT:      -5.0     10.927     11.512
REMARK  3 active torsions:
REMARK  status: ('A' for Active; 'I' for Inactive)
REMARK    1  A    between atoms: C1_1  and  C9_9 
REMARK    2  A    between atoms: C5_5  and  C8_8 
REMARK    3  A    between atoms: C6_6  and  C9_9 
ROOT
HETATM    1  C2  UNL     1     -33.148  15.932  -3.390  1.00 20.00     0.005 C 
HETATM    2  C3  UNL     1     -33.600  14.883  -4.410  1.00 20.00     0.008 C 
HETATM    3  C4  UNL     1     -35.491  15.487  -3.058  1.00 20.00     0.012 C 
HETATM    4  C5  UNL     1     -34.250  15.994  -2.327  1.00 20.00    -0.014 C 
HETATM    5  C6  UNL     1     -34.934  14.338  -3.891  1.00 20.00     0.030 C 
ENDROOT
BRANCH   5   6
HETATM    6  C9  UNL     1     -35.872  13.893  -5.001  1.00 20.00     0.274 C 
HETATM    7  F12 UNL     1     -35.332  14.288  -6.186  1.00 20.00    -0.238 F 
BRANCH   6   8
HETATM    8  C1  UNL     1     -37.277  14.485  -4.963  1.00 20.00     0.208 C 
HETATM    9  O10 UNL     1     -38.122  13.881  -4.245  1.00 20.00    -0.646 OA
HETATM   10  O11 UNL     1     -37.428  15.516  -5.679  1.00 20.00    -0.646 OA
ENDBRANCH   6   8
ENDBRANCH   5   6
BRANCH   4  11
HETATM   11  C8  UNL     1     -34.431  17.379  -1.730  1.00 20.00     0.000 C 
HETATM   12  C7  UNL     1     -35.039  17.325  -0.363  1.00 20.00     0.005 C 
ENDBRANCH   4  11
TORSDOF 3
ENDMDL
MODEL 6
REMARK VINA RESULT:      -4.9     15.911     16.587
REMARK  3 active torsions:
REMARK  status: ('A' for Active; 'I' for Inactive)
REMARK    1  A    between atoms: C1_1  and  C9_9 
REMARK    2  A    between atoms: C5_5  and  C8_8 
REMARK    3  A    between atoms: C6_6  and  C9_9 
ROOT
HETATM    1  C2  UNL     1     -24.249  17.981  12.332  1.00 20.00     0.005 C 
HETATM    2  C3  UNL     1     -23.074  17.902  11.354  1.00 20.00     0.008 C 
HETATM    3  C4  UNL     1     -25.031  18.572  10.132  1.00 20.00     0.012 C 
HETATM    4  C5  UNL     1     -25.517  18.022  11.471  1.00 20.00    -0.014 C 
HETATM    5  C6  UNL     1     -23.693  17.863   9.953  1.00 20.00     0.030 C 
ENDROOT
BRANCH   5   6
HETATM    6  C9  UNL     1     -22.814  18.502   8.891  1.00 20.00     0.274 C 
HETATM    7  F12 UNL     1     -23.622  19.189   8.039  1.00 20.00    -0.238 F 
BRANCH   6   8
HETATM    8  C1  UNL     1     -22.011  17.538   8.023  1.00 20.00     0.208 C 
HETATM    9  O10 UNL     1     -22.024  17.757   6.780  1.00 20.00    -0.646 OA
HETATM   10  O11 UNL     1     -21.433  16.615   8.666  1.00 20.00    -0.646 OA
ENDBRANCH   6   8
ENDBRANCH   5   6
BRANCH   4  11
HETATM   11  C8  UNL     1     -26.634  18.848  12.087  1.00 20.00     0.000 C 
HETATM   12  C7  UNL     1     -27.883  18.045  12.278  1.00 20.00     0.005 C 
ENDBRANCH   4  11
TORSDOF 3
ENDMDL
MODEL 7
REMARK VINA RESULT:      -4.7     11.343     12.023
REMARK  3 active torsions:
REMARK  status: ('A' for Active; 'I' for Inactive)
REMARK    1  A    between atoms: C1_1  and  C9_9 
REMARK    2  A    between atoms: C5_5  and  C8_8 
REMARK    3  A    between atoms: C6_6  and  C9_9 
ROOT
HETATM    1  C2  UNL     1     -35.417  15.864  -2.484  1.00 20.00     0.005 C 
HETATM    2  C3  UNL     1     -34.878  16.982  -1.587  1.00 20.00     0.008 C 
HETATM    3  C4  UNL     1     -33.187  16.427  -3.201  1.00 20.00     0.012 C 
HETATM    4  C5  UNL     1     -34.202  15.286  -3.218  1.00 20.00    -0.014 C 
HETATM    5  C6  UNL     1     -33.361  16.997  -1.797  1.00 20.00     0.030 C 
ENDROOT
BRANCH   5   6
HETATM    6  C9  UNL     1     -32.747  18.377  -1.631  1.00 20.00     0.274 C 
HETATM    7  F12 UNL     1     -31.992  18.633  -2.733  1.00 20.00    -0.238 F 
BRANCH   6   8
HETATM    8  C1  UNL     1     -31.816  18.553  -0.435  1.00 20.00     0.208 C 
HETATM    9  O10 UNL     1     -30.581  18.417  -0.659  1.00 20.00    -0.646 OA
HETATM   10  O11 UNL     1     -32.409  18.802   0.654  1.00 20.00    -0.646 OA
ENDBRANCH   6   8
ENDBRANCH   5   6
BRANCH   4  11
HETATM   11  C8  UNL     1     -34.525  14.795  -4.619  1.00 20.00     0.000 C 
HETATM   12  C7  UNL     1     -35.802  14.014  -4.658  1.00 20.00     0.005 C 
ENDBRANCH   4  11
TORSDOF 3
ENDMDL
MODEL 8
REMARK VINA RESULT:      -4.5     11.035     11.709
REMARK  3 active torsions:
REMARK  status: ('A' for Active; 'I' for Inactive)
REMARK    1  A    between atoms: C1_1  and  C9_9 
REMARK    2  A    between atoms: C5_5  and  C8_8 
REMARK    3  A    between atoms: C6_6  and  C9_9 
ROOT
HETATM    1  C2  UNL     1     -34.766  17.220  -0.684  1.00 20.00     0.005 C 
HETATM    2  C3  UNL     1     -35.127  16.224  -1.790  1.00 20.00     0.008 C 
HETATM    3  C4  UNL     1     -32.952  17.128  -2.267  1.00 20.00     0.012 C 
HETATM    4  C5  UNL     1     -33.587  18.040  -1.219  1.00 20.00    -0.014 C 
HETATM    5  C6  UNL     1     -34.172  16.518  -2.951  1.00 20.00     0.030 C 
ENDROOT
BRANCH   5   6
HETATM    6  C9  UNL     1     -33.840  15.289  -3.780  1.00 20.00     0.274 C 
HETATM    7  F12 UNL     1     -32.485  15.184  -3.847  1.00 20.00    -0.238 F 
BRANCH   6   8
HETATM    8  C1  UNL     1     -34.332  15.307  -5.224  1.00 20.00     0.208 C 
HETATM    9  O10 UNL     1     -34.657  14.193  -5.722  1.00 20.00    -0.646 OA
HETATM   10  O11 UNL     1     -34.338  16.454  -5.758  1.00 20.00    -0.646 OA
ENDBRANCH   6   8
ENDBRANCH   5   6
BRANCH   4  11
HETATM   11  C8  UNL     1     -32.615  18.472  -0.135  1.00 20.00     0.000 C 
HETATM   12  C7  UNL     1     -33.213  18.354   1.233  1.00 20.00     0.005 C 
ENDBRANCH   4  11
TORSDOF 3
ENDMDL
MODEL 9
REMARK VINA RESULT:      -4.5     10.837     11.636
REMARK  3 active torsions:
REMARK  status: ('A' for Active; 'I' for Inactive)
REMARK    1  A    between atoms: C1_1  and  C9_9 
REMARK    2  A    between atoms: C5_5  and  C8_8 
REMARK    3  A    between atoms: C6_6  and  C9_9 
ROOT
HETATM    1  C2  UNL     1     -32.971  17.335  -2.402  1.00 20.00     0.005 C 
HETATM    2  C3  UNL     1     -33.177  16.159  -3.362  1.00 20.00     0.008 C 
HETATM    3  C4  UNL     1     -35.170  16.419  -2.045  1.00 20.00     0.012 C 
HETATM    4  C5  UNL     1     -34.073  17.218  -1.344  1.00 20.00    -0.014 C 
HETATM    5  C6  UNL     1     -34.370  15.371  -2.813  1.00 20.00     0.030 C 
ENDROOT
BRANCH   5   6
HETATM    6  C9  UNL     1     -35.179  14.677  -3.896  1.00 20.00     0.274 C 
HETATM    7  F12 UNL     1     -34.867  13.353  -3.864  1.00 20.00    -0.238 F 
BRANCH   6   8
HETATM    8  C1  UNL     1     -34.912  15.137  -5.326  1.00 20.00     0.208 C 
HETATM    9  O10 UNL     1     -34.081  14.456  -5.989  1.00 20.00    -0.646 OA
HETATM   10  O11 UNL     1     -35.556  16.170  -5.669  1.00 20.00    -0.646 OA
ENDBRANCH   6   8
ENDBRANCH   5   6
BRANCH   4  11
HETATM   11  C8  UNL     1     -34.552  18.564  -0.826  1.00 20.00     0.000 C 
HETATM   12  C7  UNL     1     -34.332  18.706   0.648  1.00 20.00     0.005 C 
ENDBRANCH   4  11
TORSDOF 3
ENDMDL
