MODEL 1
REMARK VINA RESULT:      -4.3      0.000      0.000
REMARK  2 active torsions:
REMARK  status: ('A' for Active; 'I' for Inactive)
REMARK    1  A    between atoms: C4_4  and  C6_6 
REMARK    2  A    between atoms: C7_7  and  C8_8 
ROOT
HETATM    1  C1  UNL     1     -34.583  15.380  -5.544  1.00 20.00     0.034 A 
HETATM    2  C2  UNL     1     -35.311  14.691  -6.486  1.00 20.00     0.142 A 
HETATM    3  C3  UNL     1     -35.958  13.931  -4.549  1.00 20.00     0.148 A 
HETATM    4  C4  UNL     1     -35.003  14.885  -4.286  1.00 20.00    -0.029 A 
HETATM    5  O9  UNL     1     -36.151  13.807  -5.888  1.00 20.00    -0.334 OA
ENDROOT
BRANCH   4   6
HETATM    6  C6  UNL     1     -34.505  15.316  -2.925  1.00 20.00     0.026 A 
HETATM    7  C5  UNL     1     -33.470  16.414  -2.807  1.00 20.00     0.016 A 
HETATM    8  C7  UNL     1     -34.883  16.677  -2.378  1.00 20.00     0.005 A 
BRANCH   8   9
HETATM    9  C8  UNL     1     -35.212  16.835  -0.933  1.00 20.00     0.090 C 
HETATM   10 BR10 UNL     1     -34.061  18.184  -0.116  1.00 20.00    -0.096 Br
ENDBRANCH   8   9
ENDBRANCH   4   6
TORSDOF 2
ENDMDL
MODEL 2
REMARK VINA RESULT:      -4.2      2.003      2.721
REMARK  2 active torsions:
REMARK  status: ('A' for Active; 'I' for Inactive)
REMARK    1  A    between atoms: C4_4  and  C6_6 
REMARK    2  A    between atoms: C7_7  and  C8_8 
ROOT
HETATM    1  C1  UNL     1     -34.979  15.156  -3.262  1.00 20.00     0.034 A 
HETATM    2  C2  UNL     1     -34.757  13.942  -3.870  1.00 20.00     0.142 A 
HETATM    3  C3  UNL     1     -32.934  15.102  -4.153  1.00 20.00     0.148 A 
HETATM    4  C4  UNL     1     -33.796  15.910  -3.447  1.00 20.00    -0.029 A 
HETATM    5  O9  UNL     1     -33.513  13.902  -4.414  1.00 20.00    -0.334 OA
ENDROOT
BRANCH   4   6
HETATM    6  C6  UNL     1     -33.528  17.318  -2.967  1.00 20.00     0.026 A 
HETATM    7  C5  UNL     1     -34.368  17.916  -1.857  1.00 20.00     0.016 A 
HETATM    8  C7  UNL     1     -32.937  17.548  -1.592  1.00 20.00     0.005 A 
BRANCH   8   9
HETATM    9  C8  UNL     1     -31.915  18.612  -1.387  1.00 20.00     0.090 C 
HETATM   10 BR10 UNL     1     -31.004  18.364   0.321  1.00 20.00    -0.096 Br
ENDBRANCH   8   9
ENDBRANCH   4   6
TORSDOF 2
ENDMDL
MODEL 3
REMARK VINA RESULT:      -4.1     11.289     12.048
REMARK  2 active torsions:
REMARK  status: ('A' for Active; 'I' for Inactive)
REMARK    1  A    between atoms: C4_4  and  C6_6 
REMARK    2  A    between atoms: C7_7  and  C8_8 
ROOT
HETATM    1  C1  UNL     1     -34.130   6.386   5.664  1.00 20.00     0.034 A 
HETATM    2  C2  UNL     1     -34.958   5.312   5.898  1.00 20.00     0.142 A 
HETATM    3  C3  UNL     1     -34.417   5.210   3.790  1.00 20.00     0.148 A 
HETATM    4  C4  UNL     1     -33.780   6.320   4.294  1.00 20.00    -0.029 A 
HETATM    5  O9  UNL     1     -35.137   4.591   4.761  1.00 20.00    -0.334 OA
ENDROOT
BRANCH   4   6
HETATM    6  C6  UNL     1     -32.886   7.274   3.536  1.00 20.00     0.026 A 
HETATM    7  C5  UNL     1     -31.851   6.741   2.568  1.00 20.00     0.016 A 
HETATM    8  C7  UNL     1     -33.064   7.451   2.042  1.00 20.00     0.005 A 
BRANCH   8   9
HETATM    9  C8  UNL     1     -32.935   8.803   1.430  1.00 20.00     0.090 C 
HETATM   10 BR10 UNL     1     -33.303   8.723  -0.486  1.00 20.00    -0.096 Br
ENDBRANCH   8   9
ENDBRANCH   4   6
TORSDOF 2
ENDMDL
MODEL 4
REMARK VINA RESULT:      -4.1      1.677      1.759
REMARK  2 active torsions:
REMARK  status: ('A' for Active; 'I' for Inactive)
REMARK    1  A    between atoms: C4_4  and  C6_6 
REMARK    2  A    between atoms: C7_7  and  C8_8 
ROOT
HETATM    1  C1  UNL     1     -36.646  15.156  -3.793  1.00 20.00     0.034 A 
HETATM    2  C2  UNL     1     -37.059  14.072  -4.532  1.00 20.00     0.142 A 
HETATM    3  C3  UNL     1     -34.988  13.675  -3.982  1.00 20.00     0.148 A 
HETATM    4  C4  UNL     1     -35.300  14.899  -3.437  1.00 20.00    -0.029 A 
HETATM    5  O9  UNL     1     -36.055  13.165  -4.651  1.00 20.00    -0.334 OA
ENDROOT
BRANCH   4   6
HETATM    6  C6  UNL     1     -34.388  15.787  -2.623  1.00 20.00     0.026 A 
HETATM    7  C5  UNL     1     -33.023  16.168  -3.155  1.00 20.00     0.016 A 
HETATM    8  C7  UNL     1     -34.106  17.203  -3.080  1.00 20.00     0.005 A 
BRANCH   8   9
HETATM    9  C8  UNL     1     -34.021  18.307  -2.083  1.00 20.00     0.090 C 
HETATM   10 BR10 UNL     1     -32.196  18.482  -1.412  1.00 20.00    -0.096 Br
ENDBRANCH   8   9
ENDBRANCH   4   6
TORSDOF 2
ENDMDL
MODEL 5
REMARK VINA RESULT:      -4.1     14.528     16.043
REMARK  2 active torsions:
REMARK  status: ('A' for Active; 'I' for Inactive)
REMARK    1  A    between atoms: C4_4  and  C6_6 
REMARK    2  A    between atoms: C7_7  and  C8_8 
ROOT
HETATM    1  C1  UNL     1     -24.673  19.263   6.131  1.00 20.00     0.034 A 
HETATM    2  C2  UNL     1     -25.766  19.219   5.298  1.00 20.00     0.142 A 
HETATM    3  C3  UNL     1     -26.553  19.177   7.329  1.00 20.00     0.148 A 
HETATM    4  C4  UNL     1     -25.184  19.235   7.451  1.00 20.00    -0.029 A 
HETATM    5  O9  UNL     1     -26.915  19.167   6.020  1.00 20.00    -0.334 OA
ENDROOT
BRANCH   4   6
HETATM    6  C6  UNL     1     -24.389  19.262   8.736  1.00 20.00     0.026 A 
HETATM    7  C5  UNL     1     -25.028  18.817  10.035  1.00 20.00     0.016 A 
HETATM    8  C7  UNL     1     -23.973  17.964   9.395  1.00 20.00     0.005 A 
BRANCH   8   9
HETATM    9  C8  UNL     1     -22.626  17.842  10.020  1.00 20.00     0.090 C 
HETATM   10 BR10 UNL     1     -22.786  17.646  11.956  1.00 20.00    -0.096 Br
ENDBRANCH   8   9
ENDBRANCH   4   6
TORSDOF 2
ENDMDL
MODEL 6
REMARK VINA RESULT:      -4.1      1.415      1.894
REMARK  2 active torsions:
REMARK  status: ('A' for Active; 'I' for Inactive)
REMARK    1  A    between atoms: C4_4  and  C6_6 
REMARK    2  A    between atoms: C7_7  and  C8_8 
ROOT
HETATM    1  C1  UNL     1     -35.182  14.099  -4.156  1.00 20.00     0.034 A 
HETATM    2  C2  UNL     1     -36.150  13.257  -4.654  1.00 20.00     0.142 A 
HETATM    3  C3  UNL     1     -37.205  14.998  -3.876  1.00 20.00     0.148 A 
HETATM    4  C4  UNL     1     -35.868  15.229  -3.650  1.00 20.00    -0.029 A 
HETATM    5  O9  UNL     1     -37.384  13.798  -4.487  1.00 20.00    -0.334 OA
ENDROOT
BRANCH   4   6
HETATM    6  C6  UNL     1     -35.257  16.446  -2.993  1.00 20.00     0.026 A 
HETATM    7  C5  UNL     1     -35.095  16.497  -1.488  1.00 20.00     0.016 A 
HETATM    8  C7  UNL     1     -33.883  16.355  -2.362  1.00 20.00     0.005 A 
BRANCH   8   9
HETATM    9  C8  UNL     1     -32.922  17.485  -2.501  1.00 20.00     0.090 C 
HETATM   10 BR10 UNL     1     -32.644  18.360  -0.779  1.00 20.00    -0.096 Br
ENDBRANCH   8   9
ENDBRANCH   4   6
TORSDOF 2
ENDMDL
MODEL 7
REMARK VINA RESULT:      -4.1      1.853      2.217
REMARK  2 active torsions:
REMARK  status: ('A' for Active; 'I' for Inactive)
REMARK    1  A    between atoms: C4_4  and  C6_6 
REMARK    2  A    between atoms: C7_7  and  C8_8 
ROOT
HETATM    1  C1  UNL     1     -36.968  15.638  -3.727  1.00 20.00     0.034 A 
HETATM    2  C2  UNL     1     -37.923  14.832  -4.303  1.00 20.00     0.142 A 
HETATM    3  C3  UNL     1     -36.075  13.676  -4.304  1.00 20.00     0.148 A 
HETATM    4  C4  UNL     1     -35.768  14.888  -3.729  1.00 20.00    -0.029 A 
HETATM    5  O9  UNL     1     -37.386  13.635  -4.656  1.00 20.00    -0.334 OA
ENDROOT
BRANCH   4   6
HETATM    6  C6  UNL     1     -34.419  15.325  -3.205  1.00 20.00     0.026 A 
HETATM    7  C5  UNL     1     -33.169  15.083  -4.024  1.00 20.00     0.016 A 
HETATM    8  C7  UNL     1     -33.692  16.480  -3.862  1.00 20.00     0.005 A 
BRANCH   8   9
HETATM    9  C8  UNL     1     -32.949  17.466  -3.028  1.00 20.00     0.090 C 
HETATM   10 BR10 UNL     1     -34.047  19.045  -2.696  1.00 20.00    -0.096 Br
ENDBRANCH   8   9
ENDBRANCH   4   6
TORSDOF 2
ENDMDL
MODEL 8
REMARK VINA RESULT:      -4.0      3.329      4.897
REMARK  2 active torsions:
REMARK  status: ('A' for Active; 'I' for Inactive)
REMARK    1  A    between atoms: C4_4  and  C6_6 
REMARK    2  A    between atoms: C7_7  and  C8_8 
ROOT
HETATM    1  C1  UNL     1     -35.042  16.233  -1.777  1.00 20.00     0.034 A 
HETATM    2  C2  UNL     1     -34.762  17.284  -0.935  1.00 20.00     0.142 A 
HETATM    3  C3  UNL     1     -33.056  17.117  -2.280  1.00 20.00     0.148 A 
HETATM    4  C4  UNL     1     -33.933  16.123  -2.650  1.00 20.00    -0.029 A 
HETATM    5  O9  UNL     1     -33.554  17.828  -1.236  1.00 20.00    -0.334 OA
ENDROOT
BRANCH   4   6
HETATM    6  C6  UNL     1     -33.747  15.120  -3.765  1.00 20.00     0.026 A 
HETATM    7  C5  UNL     1     -34.826  14.100  -4.058  1.00 20.00     0.016 A 
HETATM    8  C7  UNL     1     -34.583  15.223  -5.023  1.00 20.00     0.005 A 
BRANCH   8   9
HETATM    9  C8  UNL     1     -33.970  14.951  -6.352  1.00 20.00     0.090 C 
HETATM   10 BR10 UNL     1     -34.395  16.384  -7.607  1.00 20.00    -0.096 Br
ENDBRANCH   8   9
ENDBRANCH   4   6
TORSDOF 2
ENDMDL
MODEL 9
REMARK VINA RESULT:      -4.0     15.805     17.466
REMARK  2 active torsions:
REMARK  status: ('A' for Active; 'I' for Inactive)
REMARK    1  A    between atoms: C4_4  and  C6_6 
REMARK    2  A    between atoms: C7_7  and  C8_8 
ROOT
HETATM    1  C1  UNL     1     -24.112  16.394  10.683  1.00 20.00     0.034 A 
HETATM    2  C2  UNL     1     -24.773  15.879  11.774  1.00 20.00     0.142 A 
HETATM    3  C3  UNL     1     -25.431  17.948  11.591  1.00 20.00     0.148 A 
HETATM    4  C4  UNL     1     -24.538  17.739  10.566  1.00 20.00    -0.029 A 
HETATM    5  O9  UNL     1     -25.579  16.819  12.332  1.00 20.00    -0.334 OA
ENDROOT
BRANCH   4   6
HETATM    6  C6  UNL     1     -24.103  18.744   9.524  1.00 20.00     0.026 A 
HETATM    7  C5  UNL     1     -22.746  18.619   8.866  1.00 20.00     0.016 A 
HETATM    8  C7  UNL     1     -23.986  18.327   8.073  1.00 20.00     0.005 A 
BRANCH   8   9
HETATM    9  C8  UNL     1     -24.421  19.255   6.992  1.00 20.00     0.090 C 
HETATM   10 BR10 UNL     1     -26.297  18.953   6.546  1.00 20.00    -0.096 Br
ENDBRANCH   8   9
ENDBRANCH   4   6
TORSDOF 2
ENDMDL
