MODEL 1
REMARK VINA RESULT:      -4.3      0.000      0.000
REMARK  2 active torsions:
REMARK  status: ('A' for Active; 'I' for Inactive)
REMARK    1  A    between atoms: C3_3  and  O9_9 
REMARK    2  A    between atoms: C4_4  and  C8_8 
ROOT
HETATM    1  C1  UNL     1     -32.976  15.494  -3.681  1.00 20.00     0.037 C 
HETATM    2  C2  UNL     1     -34.354  15.473  -2.976  1.00 20.00    -0.006 C 
HETATM    3  C3  UNL     1     -33.550  14.511  -4.727  1.00 20.00     0.127 C 
HETATM    4  C4  UNL     1     -34.978  15.038  -4.353  1.00 20.00    -0.015 C 
HETATM    5  C5  UNL     1     -34.794  16.767  -2.319  1.00 20.00     0.011 C 
HETATM    6  C6  UNL     1     -35.498  16.166  -5.249  1.00 20.00     0.018 C 
ENDROOT
BRANCH   4   7
HETATM    7  C8  UNL     1     -36.020  13.929  -4.221  1.00 20.00     0.007 C 
HETATM    8  C7  UNL     1     -37.408  14.454  -4.393  1.00 20.00     0.006 C 
ENDBRANCH   4   7
BRANCH   3   9
HETATM    9  O9  UNL     1     -33.125  14.707  -6.087  1.00 20.00    -0.395 OA
HETATM   10  H25 UNL     1     -33.527  15.538  -6.371  1.00 20.00     0.210 HD
ENDBRANCH   3   9
TORSDOF 2
ENDMDL
MODEL 2
REMARK VINA RESULT:      -4.1      1.306      2.703
REMARK  2 active torsions:
REMARK  status: ('A' for Active; 'I' for Inactive)
REMARK    1  A    between atoms: C3_3  and  O9_9 
REMARK    2  A    between atoms: C4_4  and  C8_8 
ROOT
HETATM    1  C1  UNL     1     -33.729  14.983  -6.045  1.00 20.00     0.037 C 
HETATM    2  C2  UNL     1     -34.535  16.091  -5.324  1.00 20.00    -0.006 C 
HETATM    3  C3  UNL     1     -33.047  14.668  -4.695  1.00 20.00     0.127 C 
HETATM    4  C4  UNL     1     -34.289  15.305  -3.984  1.00 20.00    -0.015 C 
HETATM    5  C5  UNL     1     -35.949  16.325  -5.818  1.00 20.00     0.011 C 
HETATM    6  C6  UNL     1     -35.375  14.305  -3.575  1.00 20.00     0.018 C 
ENDROOT
BRANCH   4   7
HETATM    7  C8  UNL     1     -33.920  16.212  -2.811  1.00 20.00     0.007 C 
HETATM    8  C7  UNL     1     -34.991  16.228  -1.769  1.00 20.00     0.006 C 
ENDBRANCH   4   7
BRANCH   3   9
HETATM    9  O9  UNL     1     -32.787  13.280  -4.420  1.00 20.00    -0.395 OA
HETATM   10  H25 UNL     1     -32.378  13.257  -3.545  1.00 20.00     0.210 HD
ENDBRANCH   3   9
TORSDOF 2
ENDMDL
MODEL 3
REMARK VINA RESULT:      -4.1     16.943     18.358
REMARK  2 active torsions:
REMARK  status: ('A' for Active; 'I' for Inactive)
REMARK    1  A    between atoms: C3_3  and  O9_9 
REMARK    2  A    between atoms: C4_4  and  C8_8 
ROOT
HETATM    1  C1  UNL     1     -23.661  18.544   7.908  1.00 20.00     0.037 C 
HETATM    2  C2  UNL     1     -23.954  19.006   9.356  1.00 20.00    -0.006 C 
HETATM    3  C3  UNL     1     -22.426  17.790   8.450  1.00 20.00     0.127 C 
HETATM    4  C4  UNL     1     -23.130  17.761   9.850  1.00 20.00    -0.015 C 
HETATM    5  C5  UNL     1     -25.415  19.148   9.736  1.00 20.00     0.011 C 
HETATM    6  C6  UNL     1     -23.930  16.488  10.137  1.00 20.00     0.018 C 
ENDROOT
BRANCH   4   7
HETATM    7  C8  UNL     1     -22.188  18.081  11.010  1.00 20.00     0.007 C 
HETATM    8  C7  UNL     1     -22.727  17.581  12.310  1.00 20.00     0.006 C 
ENDBRANCH   4   7
BRANCH   3   9
HETATM    9  O9  UNL     1     -22.140  16.516   7.845  1.00 20.00    -0.395 OA
HETATM   10  H25 UNL     1     -21.181  16.491   7.727  1.00 20.00     0.210 HD
ENDBRANCH   3   9
TORSDOF 2
ENDMDL
MODEL 4
REMARK VINA RESULT:      -4.1      1.272      3.063
REMARK  2 active torsions:
REMARK  status: ('A' for Active; 'I' for Inactive)
REMARK    1  A    between atoms: C3_3  and  O9_9 
REMARK    2  A    between atoms: C4_4  and  C8_8 
ROOT
HETATM    1  C1  UNL     1     -35.700  14.667  -6.538  1.00 20.00     0.037 C 
HETATM    2  C2  UNL     1     -36.125  15.284  -5.183  1.00 20.00    -0.006 C 
HETATM    3  C3  UNL     1     -34.308  15.307  -6.337  1.00 20.00     0.127 C 
HETATM    4  C4  UNL     1     -34.601  15.323  -4.798  1.00 20.00    -0.015 C 
HETATM    5  C5  UNL     1     -37.097  14.472  -4.349  1.00 20.00     0.011 C 
HETATM    6  C6  UNL     1     -34.062  14.111  -4.033  1.00 20.00     0.018 C 
ENDROOT
BRANCH   4   7
HETATM    7  C8  UNL     1     -34.184  16.623  -4.113  1.00 20.00     0.007 C 
HETATM    8  C7  UNL     1     -33.356  16.365  -2.897  1.00 20.00     0.006 C 
ENDBRANCH   4   7
BRANCH   3   9
HETATM    9  O9  UNL     1     -33.179  14.529  -6.772  1.00 20.00    -0.395 OA
HETATM   10  H25 UNL     1     -33.459  14.094  -7.589  1.00 20.00     0.210 HD
ENDBRANCH   3   9
TORSDOF 2
ENDMDL
MODEL 5
REMARK VINA RESULT:      -4.0      1.967      3.201
REMARK  2 active torsions:
REMARK  status: ('A' for Active; 'I' for Inactive)
REMARK    1  A    between atoms: C3_3  and  O9_9 
REMARK    2  A    between atoms: C4_4  and  C8_8 
ROOT
HETATM    1  C1  UNL     1     -35.840  14.405  -6.220  1.00 20.00     0.037 C 
HETATM    2  C2  UNL     1     -34.772  15.357  -5.629  1.00 20.00    -0.006 C 
HETATM    3  C3  UNL     1     -36.141  13.929  -4.781  1.00 20.00     0.127 C 
HETATM    4  C4  UNL     1     -35.562  15.292  -4.271  1.00 20.00    -0.015 C 
HETATM    5  C5  UNL     1     -34.590  16.686  -6.338  1.00 20.00     0.011 C 
HETATM    6  C6  UNL     1     -36.608  16.386  -4.040  1.00 20.00     0.018 C 
ENDROOT
BRANCH   4   7
HETATM    7  C8  UNL     1     -34.653  15.149  -3.051  1.00 20.00     0.007 C 
HETATM    8  C7  UNL     1     -34.890  16.236  -2.056  1.00 20.00     0.006 C 
ENDBRANCH   4   7
BRANCH   3   9
HETATM    9  O9  UNL     1     -37.521  13.659  -4.474  1.00 20.00    -0.395 OA
HETATM   10  H25 UNL     1     -37.637  13.905  -3.547  1.00 20.00     0.210 HD
ENDBRANCH   3   9
TORSDOF 2
ENDMDL
MODEL 6
REMARK VINA RESULT:      -3.9     11.326     12.920
REMARK  2 active torsions:
REMARK  status: ('A' for Active; 'I' for Inactive)
REMARK    1  A    between atoms: C3_3  and  O9_9 
REMARK    2  A    between atoms: C4_4  and  C8_8 
ROOT
HETATM    1  C1  UNL     1     -42.450   7.024   0.844  1.00 20.00     0.037 C 
HETATM    2  C2  UNL     1     -42.743   7.110  -0.674  1.00 20.00    -0.006 C 
HETATM    3  C3  UNL     1     -42.758   5.511   0.768  1.00 20.00     0.127 C 
HETATM    4  C4  UNL     1     -42.408   5.576  -0.758  1.00 20.00    -0.015 C 
HETATM    5  C5  UNL     1     -41.920   8.111  -1.462  1.00 20.00     0.011 C 
HETATM    6  C6  UNL     1     -40.960   5.215  -1.098  1.00 20.00     0.018 C 
ENDROOT
BRANCH   4   7
HETATM    7  C8  UNL     1     -43.381   4.793  -1.639  1.00 20.00     0.007 C 
HETATM    8  C7  UNL     1     -42.675   3.765  -2.460  1.00 20.00     0.006 C 
ENDBRANCH   4   7
BRANCH   3   9
HETATM    9  O9  UNL     1     -41.940   4.652   1.582  1.00 20.00    -0.395 OA
HETATM   10  H25 UNL     1     -41.330   4.216   0.973  1.00 20.00     0.210 HD
ENDBRANCH   3   9
TORSDOF 2
ENDMDL
MODEL 7
REMARK VINA RESULT:      -3.8     10.928     12.420
REMARK  2 active torsions:
REMARK  status: ('A' for Active; 'I' for Inactive)
REMARK    1  A    between atoms: C3_3  and  O9_9 
REMARK    2  A    between atoms: C4_4  and  C8_8 
ROOT
HETATM    1  C1  UNL     1     -41.614   7.270   0.625  1.00 20.00     0.037 C 
HETATM    2  C2  UNL     1     -42.009   5.774   0.666  1.00 20.00    -0.006 C 
HETATM    3  C3  UNL     1     -41.091   7.042  -0.811  1.00 20.00     0.127 C 
HETATM    4  C4  UNL     1     -42.056   5.812  -0.905  1.00 20.00    -0.015 C 
HETATM    5  C5  UNL     1     -43.259   5.429   1.454  1.00 20.00     0.011 C 
HETATM    6  C6  UNL     1     -43.417   6.114  -1.538  1.00 20.00     0.018 C 
ENDROOT
BRANCH   4   7
HETATM    7  C8  UNL     1     -41.417   4.586  -1.558  1.00 20.00     0.007 C 
HETATM    8  C7  UNL     1     -42.396   3.837  -2.400  1.00 20.00     0.006 C 
ENDBRANCH   4   7
BRANCH   3   9
HETATM    9  O9  UNL     1     -41.314   8.111  -1.748  1.00 20.00    -0.395 OA
HETATM   10  H25 UNL     1     -41.402   8.913  -1.216  1.00 20.00     0.210 HD
ENDBRANCH   3   9
TORSDOF 2
ENDMDL
MODEL 8
REMARK VINA RESULT:      -3.8      1.185      1.231
REMARK  2 active torsions:
REMARK  status: ('A' for Active; 'I' for Inactive)
REMARK    1  A    between atoms: C3_3  and  O9_9 
REMARK    2  A    between atoms: C4_4  and  C8_8 
ROOT
HETATM    1  C1  UNL     1     -33.333  16.722  -3.080  1.00 20.00     0.037 C 
HETATM    2  C2  UNL     1     -34.410  15.921  -2.310  1.00 20.00    -0.006 C 
HETATM    3  C3  UNL     1     -33.678  15.888  -4.334  1.00 20.00     0.127 C 
HETATM    4  C4  UNL     1     -35.086  15.622  -3.699  1.00 20.00    -0.015 C 
HETATM    5  C5  UNL     1     -35.176  16.678  -1.242  1.00 20.00     0.011 C 
HETATM    6  C6  UNL     1     -36.182  16.594  -4.144  1.00 20.00     0.018 C 
ENDROOT
BRANCH   4   7
HETATM    7  C8  UNL     1     -35.555  14.175  -3.843  1.00 20.00     0.007 C 
HETATM    8  C7  UNL     1     -36.854  14.088  -4.574  1.00 20.00     0.006 C 
ENDBRANCH   4   7
BRANCH   3   9
HETATM    9  O9  UNL     1     -33.659  16.588  -5.591  1.00 20.00    -0.395 OA
HETATM   10  H25 UNL     1     -33.246  15.984  -6.222  1.00 20.00     0.210 HD
ENDBRANCH   3   9
TORSDOF 2
ENDMDL
MODEL 9
REMARK VINA RESULT:      -3.8      1.694      2.738
REMARK  2 active torsions:
REMARK  status: ('A' for Active; 'I' for Inactive)
REMARK    1  A    between atoms: C3_3  and  O9_9 
REMARK    2  A    between atoms: C4_4  and  C8_8 
ROOT
HETATM    1  C1  UNL     1     -35.166  15.210  -2.744  1.00 20.00     0.037 C 
HETATM    2  C2  UNL     1     -34.340  16.306  -3.460  1.00 20.00    -0.006 C 
HETATM    3  C3  UNL     1     -35.457  14.591  -4.130  1.00 20.00     0.127 C 
HETATM    4  C4  UNL     1     -34.159  15.296  -4.652  1.00 20.00    -0.015 C 
HETATM    5  C5  UNL     1     -33.126  16.827  -2.717  1.00 20.00     0.011 C 
HETATM    6  C6  UNL     1     -32.900  14.424  -4.619  1.00 20.00     0.018 C 
ENDROOT
BRANCH   4   7
HETATM    7  C8  UNL     1     -34.330  15.945  -6.025  1.00 20.00     0.007 C 
HETATM    8  C7  UNL     1     -33.757  15.095  -7.111  1.00 20.00     0.006 C 
ENDBRANCH   4   7
BRANCH   3   9
HETATM    9  O9  UNL     1     -35.482  13.154  -4.193  1.00 20.00    -0.395 OA
HETATM   10  H25 UNL     1     -34.729  12.902  -4.744  1.00 20.00     0.210 HD
ENDBRANCH   3   9
TORSDOF 2
ENDMDL
