MODEL 1
REMARK VINA RESULT:      -3.9      0.000      0.000
REMARK  1 active torsions:
REMARK  status: ('A' for Active; 'I' for Inactive)
REMARK    1  A    between atoms: C5_5  and  C10_10 
ROOT
HETATM    1  C1  UNL     1     -34.776  15.888  -2.189  1.00 20.00     0.019 C 
HETATM    2  C2  UNL     1     -34.487  17.352  -5.647  1.00 20.00     0.017 A 
HETATM    3  C3  UNL     1     -34.172  17.255  -1.896  1.00 20.00     0.075 C 
HETATM    4  C4  UNL     1     -36.199  17.700  -3.745  1.00 20.00     0.084 C 
HETATM    5  C5  UNL     1     -35.738  16.625  -6.031  1.00 20.00     0.006 A 
HETATM    6  C6  UNL     1     -35.346  16.731  -4.546  1.00 20.00    -0.020 A 
HETATM    7  C7  UNL     1     -34.824  15.518  -3.710  1.00 20.00    -0.038 C 
HETATM    8  C8  UNL     1     -35.787  14.318  -3.830  1.00 20.00     0.015 C 
HETATM    9  C9  UNL     1     -33.407  15.054  -4.110  1.00 20.00     0.015 C 
HETATM   10  S11 UNL     1     -35.187  18.614  -2.549  1.00 20.00    -0.168 SA
ENDROOT
BRANCH   5  11
HETATM   11  C10 UNL     1     -35.643  15.428  -6.907  1.00 20.00     0.090 C 
HETATM   12 BR12 UNL     1     -33.972  15.447  -7.918  1.00 20.00    -0.096 Br
ENDBRANCH   5  11
TORSDOF 1
ENDMDL
MODEL 2
REMARK VINA RESULT:      -3.9      3.197      4.573
REMARK  1 active torsions:
REMARK  status: ('A' for Active; 'I' for Inactive)
REMARK    1  A    between atoms: C5_5  and  C10_10 
ROOT
HETATM    1  C1  UNL     1     -35.956  15.798  -3.189  1.00 20.00     0.019 C 
HETATM    2  C2  UNL     1     -33.098  18.186  -3.752  1.00 20.00     0.017 A 
HETATM    3  C3  UNL     1     -35.755  15.689  -4.695  1.00 20.00     0.075 C 
HETATM    4  C4  UNL     1     -33.210  15.611  -3.580  1.00 20.00     0.084 C 
HETATM    5  C5  UNL     1     -32.548  17.801  -2.413  1.00 20.00     0.006 A 
HETATM    6  C6  UNL     1     -33.670  16.956  -3.045  1.00 20.00    -0.020 A 
HETATM    7  C7  UNL     1     -35.139  16.950  -2.513  1.00 20.00    -0.038 C 
HETATM    8  C8  UNL     1     -35.168  16.662  -0.996  1.00 20.00     0.015 C 
HETATM    9  C9  UNL     1     -35.902  18.265  -2.779  1.00 20.00     0.015 C 
HETATM   10  S11 UNL     1     -34.057  15.209  -5.132  1.00 20.00    -0.168 SA
ENDROOT
BRANCH   5  11
HETATM   11  C10 UNL     1     -32.665  18.754  -1.279  1.00 20.00     0.090 C 
HETATM   12 BR12 UNL     1     -31.201  18.499  -0.013  1.00 20.00    -0.096 Br
ENDBRANCH   5  11
TORSDOF 1
ENDMDL
MODEL 3
REMARK VINA RESULT:      -3.9      2.759      4.018
REMARK  1 active torsions:
REMARK  status: ('A' for Active; 'I' for Inactive)
REMARK    1  A    between atoms: C5_5  and  C10_10 
ROOT
HETATM    1  C1  UNL     1     -34.061  14.993  -5.975  1.00 20.00     0.019 C 
HETATM    2  C2  UNL     1     -36.738  16.217  -3.626  1.00 20.00     0.017 A 
HETATM    3  C3  UNL     1     -35.278  15.037  -6.890  1.00 20.00     0.075 C 
HETATM    4  C4  UNL     1     -35.332  17.406  -5.437  1.00 20.00     0.084 C 
HETATM    5  C5  UNL     1     -35.706  17.043  -2.923  1.00 20.00     0.006 A 
HETATM    6  C6  UNL     1     -35.374  16.413  -4.288  1.00 20.00    -0.020 A 
HETATM    7  C7  UNL     1     -34.387  15.214  -4.460  1.00 20.00    -0.038 C 
HETATM    8  C8  UNL     1     -33.039  15.514  -3.771  1.00 20.00     0.015 C 
HETATM    9  C9  UNL     1     -34.932  13.878  -3.912  1.00 20.00     0.015 C 
HETATM   10  S11 UNL     1     -36.045  16.684  -6.940  1.00 20.00    -0.168 SA
ENDROOT
BRANCH   5  11
HETATM   11  C10 UNL     1     -35.218  16.612  -1.587  1.00 20.00     0.090 C 
HETATM   12 BR12 UNL     1     -33.938  17.903  -0.873  1.00 20.00    -0.096 Br
ENDBRANCH   5  11
TORSDOF 1
ENDMDL
MODEL 4
REMARK VINA RESULT:      -3.8      2.862      4.380
REMARK  1 active torsions:
REMARK  status: ('A' for Active; 'I' for Inactive)
REMARK    1  A    between atoms: C5_5  and  C10_10 
ROOT
HETATM    1  C1  UNL     1     -36.473  16.717  -5.475  1.00 20.00     0.019 C 
HETATM    2  C2  UNL     1     -33.335  15.576  -3.733  1.00 20.00     0.017 A 
HETATM    3  C3  UNL     1     -36.225  15.369  -6.139  1.00 20.00     0.075 C 
HETATM    4  C4  UNL     1     -35.824  14.963  -3.418  1.00 20.00     0.084 C 
HETATM    5  C5  UNL     1     -33.811  16.257  -2.487  1.00 20.00     0.006 A 
HETATM    6  C6  UNL     1     -34.788  16.047  -3.659  1.00 20.00    -0.020 A 
HETATM    7  C7  UNL     1     -35.299  17.213  -4.565  1.00 20.00    -0.038 C 
HETATM    8  C8  UNL     1     -35.876  18.359  -3.706  1.00 20.00     0.015 C 
HETATM    9  C9  UNL     1     -34.216  17.795  -5.498  1.00 20.00     0.015 C 
HETATM   10  S11 UNL     1     -36.128  14.013  -4.933  1.00 20.00    -0.168 SA
ENDROOT
BRANCH   5  11
HETATM   11  C10 UNL     1     -33.168  17.528  -2.064  1.00 20.00     0.090 C 
HETATM   12 BR12 UNL     1     -33.931  18.157  -0.380  1.00 20.00    -0.096 Br
ENDBRANCH   5  11
TORSDOF 1
ENDMDL
MODEL 5
REMARK VINA RESULT:      -3.8      1.903      3.248
REMARK  1 active torsions:
REMARK  status: ('A' for Active; 'I' for Inactive)
REMARK    1  A    between atoms: C5_5  and  C10_10 
ROOT
HETATM    1  C1  UNL     1     -34.668  19.236  -3.196  1.00 20.00     0.019 C 
HETATM    2  C2  UNL     1     -34.890  15.548  -2.466  1.00 20.00     0.017 A 
HETATM    3  C3  UNL     1     -34.827  19.231  -1.682  1.00 20.00     0.075 C 
HETATM    4  C4  UNL     1     -32.961  17.253  -2.257  1.00 20.00     0.084 C 
HETATM    5  C5  UNL     1     -33.943  15.294  -3.597  1.00 20.00     0.006 A 
HETATM    6  C6  UNL     1     -34.132  16.729  -3.072  1.00 20.00    -0.020 A 
HETATM    7  C7  UNL     1     -34.886  17.840  -3.871  1.00 20.00    -0.038 C 
HETATM    8  C8  UNL     1     -34.319  17.962  -5.302  1.00 20.00     0.015 C 
HETATM    9  C9  UNL     1     -36.409  17.612  -3.963  1.00 20.00     0.015 C 
HETATM   10  S11 UNL     1     -33.542  18.245  -0.856  1.00 20.00    -0.168 SA
ENDROOT
BRANCH   5  11
HETATM   11  C10 UNL     1     -34.464  14.720  -4.865  1.00 20.00     0.090 C 
HETATM   12 BR12 UNL     1     -36.202  13.879  -4.576  1.00 20.00    -0.096 Br
ENDBRANCH   5  11
TORSDOF 1
ENDMDL
MODEL 6
REMARK VINA RESULT:      -3.8      2.885      4.385
REMARK  1 active torsions:
REMARK  status: ('A' for Active; 'I' for Inactive)
REMARK    1  A    between atoms: C5_5  and  C10_10 
ROOT
HETATM    1  C1  UNL     1     -35.968  17.094  -5.869  1.00 20.00     0.019 C 
HETATM    2  C2  UNL     1     -33.571  16.404  -3.047  1.00 20.00     0.017 A 
HETATM    3  C3  UNL     1     -34.722  16.650  -6.624  1.00 20.00     0.075 C 
HETATM    4  C4  UNL     1     -35.018  14.855  -4.523  1.00 20.00     0.084 C 
HETATM    5  C5  UNL     1     -34.726  15.941  -2.214  1.00 20.00     0.006 A 
HETATM    6  C6  UNL     1     -34.915  16.146  -3.729  1.00 20.00    -0.020 A 
HETATM    7  C7  UNL     1     -35.744  17.323  -4.336  1.00 20.00    -0.038 C 
HETATM    8  C8  UNL     1     -37.150  17.384  -3.702  1.00 20.00     0.015 C 
HETATM    9  C9  UNL     1     -35.072  18.703  -4.176  1.00 20.00     0.015 C 
HETATM   10  S11 UNL     1     -34.153  15.002  -6.110  1.00 20.00    -0.168 SA
ENDROOT
BRANCH   5  11
HETATM   11  C10 UNL     1     -35.224  16.811  -1.117  1.00 20.00     0.090 C 
HETATM   12 BR12 UNL     1     -33.837  18.064  -0.550  1.00 20.00    -0.096 Br
ENDBRANCH   5  11
TORSDOF 1
ENDMDL
MODEL 7
REMARK VINA RESULT:      -3.8      1.255      1.330
REMARK  1 active torsions:
REMARK  status: ('A' for Active; 'I' for Inactive)
REMARK    1  A    between atoms: C5_5  and  C10_10 
ROOT
HETATM    1  C1  UNL     1     -35.072  16.241  -1.540  1.00 20.00     0.019 C 
HETATM    2  C2  UNL     1     -34.780  18.344  -4.650  1.00 20.00     0.017 A 
HETATM    3  C3  UNL     1     -35.294  17.642  -0.986  1.00 20.00     0.075 C 
HETATM    4  C4  UNL     1     -36.815  17.492  -3.307  1.00 20.00     0.084 C 
HETATM    5  C5  UNL     1     -35.397  17.227  -5.432  1.00 20.00     0.006 A 
HETATM    6  C6  UNL     1     -35.445  17.195  -3.893  1.00 20.00    -0.020 A 
HETATM    7  C7  UNL     1     -34.596  16.206  -3.031  1.00 20.00    -0.038 C 
HETATM    8  C8  UNL     1     -34.797  14.752  -3.511  1.00 20.00     0.015 C 
HETATM    9  C9  UNL     1     -33.085  16.520  -3.034  1.00 20.00     0.015 C 
HETATM   10  S11 UNL     1     -36.671  18.499  -1.806  1.00 20.00    -0.168 SA
ENDROOT
BRANCH   5  11
HETATM   11  C10 UNL     1     -34.538  16.407  -6.326  1.00 20.00     0.090 C 
HETATM   12 BR12 UNL     1     -35.606  15.067  -7.264  1.00 20.00    -0.096 Br
ENDBRANCH   5  11
TORSDOF 1
ENDMDL
MODEL 8
REMARK VINA RESULT:      -3.8      2.428      2.917
REMARK  1 active torsions:
REMARK  status: ('A' for Active; 'I' for Inactive)
REMARK    1  A    between atoms: C5_5  and  C10_10 
ROOT
HETATM    1  C1  UNL     1     -33.984  14.382  -4.064  1.00 20.00     0.019 C 
HETATM    2  C2  UNL     1     -36.127  17.401  -4.758  1.00 20.00     0.017 A 
HETATM    3  C3  UNL     1     -33.019  15.522  -3.762  1.00 20.00     0.075 C 
HETATM    4  C4  UNL     1     -35.427  16.227  -2.566  1.00 20.00     0.084 C 
HETATM    5  C5  UNL     1     -37.315  16.639  -4.258  1.00 20.00     0.006 A 
HETATM    6  C6  UNL     1     -35.899  16.090  -4.004  1.00 20.00    -0.020 A 
HETATM    7  C7  UNL     1     -35.324  14.835  -4.736  1.00 20.00    -0.038 C 
HETATM    8  C8  UNL     1     -36.292  13.639  -4.609  1.00 20.00     0.015 C 
HETATM    9  C9  UNL     1     -35.027  15.070  -6.231  1.00 20.00     0.015 C 
HETATM   10  S11 UNL     1     -33.667  16.661  -2.503  1.00 20.00    -0.168 SA
ENDROOT
BRANCH   5  11
HETATM   11  C10 UNL     1     -38.317  16.136  -5.233  1.00 20.00     0.090 C 
HETATM   12 BR12 UNL     1     -39.777  15.224  -4.309  1.00 20.00    -0.096 Br
ENDBRANCH   5  11
TORSDOF 1
ENDMDL
MODEL 9
REMARK VINA RESULT:      -3.7      2.026      2.876
REMARK  1 active torsions:
REMARK  status: ('A' for Active; 'I' for Inactive)
REMARK    1  A    between atoms: C5_5  and  C10_10 
ROOT
HETATM    1  C1  UNL     1     -32.698  17.656  -1.796  1.00 20.00     0.019 C 
HETATM    2  C2  UNL     1     -36.242  17.852  -3.056  1.00 20.00     0.017 A 
HETATM    3  C3  UNL     1     -33.261  18.796  -0.957  1.00 20.00     0.075 C 
HETATM    4  C4  UNL     1     -35.202  16.806  -0.936  1.00 20.00     0.084 C 
HETATM    5  C5  UNL     1     -36.227  16.367  -3.249  1.00 20.00     0.006 A 
HETATM    6  C6  UNL     1     -35.106  17.039  -2.434  1.00 20.00    -0.020 A 
HETATM    7  C7  UNL     1     -33.640  17.183  -2.954  1.00 20.00    -0.038 C 
HETATM    8  C8  UNL     1     -33.090  15.819  -3.423  1.00 20.00     0.015 C 
HETATM    9  C9  UNL     1     -33.487  18.197  -4.107  1.00 20.00     0.015 C 
HETATM   10  S11 UNL     1     -34.738  18.301  -0.020  1.00 20.00    -0.168 SA
ENDROOT
BRANCH   5  11
HETATM   11  C10 UNL     1     -36.136  15.815  -4.626  1.00 20.00     0.090 C 
HETATM   12 BR12 UNL     1     -36.212  13.864  -4.591  1.00 20.00    -0.096 Br
ENDBRANCH   5  11
TORSDOF 1
ENDMDL
