MODEL 1
REMARK VINA RESULT:      -3.9      0.000      0.000
REMARK  2 active torsions:
REMARK  status: ('A' for Active; 'I' for Inactive)
REMARK    1  A    between atoms: C4_4  and  C6_6 
REMARK    2  A    between atoms: C7_7  and  C8_8 
ROOT
HETATM    1  C1  UNL     1     -23.514  16.716   9.688  1.00 20.00     0.015 A 
HETATM    2  C2  UNL     1     -22.545  17.005   8.753  1.00 20.00     0.050 A 
HETATM    3  C3  UNL     1     -22.051  18.016  10.940  1.00 20.00     0.057 A 
HETATM    4  C4  UNL     1     -23.228  17.301  10.955  1.00 20.00    -0.047 A 
HETATM    5  S9  UNL     1     -21.296  17.979   9.403  1.00 20.00    -0.113 SA
ENDROOT
BRANCH   4   6
HETATM    6  C6  UNL     1     -24.129  17.151  12.194  1.00 20.00     0.024 A 
HETATM    7  C5  UNL     1     -25.488  16.509  12.023  1.00 20.00     0.016 A 
HETATM    8  C7  UNL     1     -25.395  17.974  12.331  1.00 20.00     0.004 A 
BRANCH   8   9
HETATM    9  C8  UNL     1     -25.811  18.980  11.313  1.00 20.00     0.090 C 
HETATM   10 BR10 UNL     1     -27.744  19.246  11.365  1.00 20.00    -0.096 Br
ENDBRANCH   8   9
ENDBRANCH   4   6
TORSDOF 2
ENDMDL
MODEL 2
REMARK VINA RESULT:      -3.9     17.258     18.081
REMARK  2 active torsions:
REMARK  status: ('A' for Active; 'I' for Inactive)
REMARK    1  A    between atoms: C4_4  and  C6_6 
REMARK    2  A    between atoms: C7_7  and  C8_8 
ROOT
HETATM    1  C1  UNL     1     -33.024  16.788  -2.581  1.00 20.00     0.015 A 
HETATM    2  C2  UNL     1     -33.150  17.805  -1.661  1.00 20.00     0.050 A 
HETATM    3  C3  UNL     1     -35.156  16.384  -1.750  1.00 20.00     0.057 A 
HETATM    4  C4  UNL     1     -34.185  15.965  -2.632  1.00 20.00    -0.047 A 
HETATM    5  S9  UNL     1     -34.666  17.766  -0.865  1.00 20.00    -0.113 SA
ENDROOT
BRANCH   4   6
HETATM    6  C6  UNL     1     -34.336  14.749  -3.564  1.00 20.00     0.024 A 
HETATM    7  C5  UNL     1     -33.253  14.487  -4.587  1.00 20.00     0.016 A 
HETATM    8  C7  UNL     1     -34.607  14.940  -5.044  1.00 20.00     0.004 A 
BRANCH   8   9
HETATM    9  C8  UNL     1     -34.776  16.288  -5.660  1.00 20.00     0.090 C 
HETATM   10 BR10 UNL     1     -34.328  16.231  -7.559  1.00 20.00    -0.096 Br
ENDBRANCH   8   9
ENDBRANCH   4   6
TORSDOF 2
ENDMDL
MODEL 3
REMARK VINA RESULT:      -3.9      3.316      4.277
REMARK  2 active torsions:
REMARK  status: ('A' for Active; 'I' for Inactive)
REMARK    1  A    between atoms: C4_4  and  C6_6 
REMARK    2  A    between atoms: C7_7  and  C8_8 
ROOT
HETATM    1  C1  UNL     1     -24.409  19.138   6.865  1.00 20.00     0.015 A 
HETATM    2  C2  UNL     1     -25.661  19.196   6.297  1.00 20.00     0.050 A 
HETATM    3  C3  UNL     1     -25.759  19.214   8.755  1.00 20.00     0.057 A 
HETATM    4  C4  UNL     1     -24.465  19.148   8.289  1.00 20.00    -0.047 A 
HETATM    5  S9  UNL     1     -26.900  19.263   7.478  1.00 20.00    -0.113 SA
ENDROOT
BRANCH   4   6
HETATM    6  C6  UNL     1     -23.224  19.094   9.198  1.00 20.00     0.024 A 
HETATM    7  C5  UNL     1     -22.084  18.180   8.806  1.00 20.00     0.016 A 
HETATM    8  C7  UNL     1     -22.916  17.849  10.009  1.00 20.00     0.004 A 
BRANCH   8   9
HETATM    9  C8  UNL     1     -23.799  16.648   9.998  1.00 20.00     0.090 C 
HETATM   10 BR10 UNL     1     -24.636  16.401  11.745  1.00 20.00    -0.096 Br
ENDBRANCH   8   9
ENDBRANCH   4   6
TORSDOF 2
ENDMDL
MODEL 4
REMARK VINA RESULT:      -3.9     17.337     18.143
REMARK  2 active torsions:
REMARK  status: ('A' for Active; 'I' for Inactive)
REMARK    1  A    between atoms: C4_4  and  C6_6 
REMARK    2  A    between atoms: C7_7  and  C8_8 
ROOT
HETATM    1  C1  UNL     1     -35.063  16.174  -1.768  1.00 20.00     0.015 A 
HETATM    2  C2  UNL     1     -34.662  17.285  -1.060  1.00 20.00     0.050 A 
HETATM    3  C3  UNL     1     -33.073  16.702  -2.845  1.00 20.00     0.057 A 
HETATM    4  C4  UNL     1     -34.143  15.836  -2.802  1.00 20.00    -0.047 A 
HETATM    5  S9  UNL     1     -33.180  17.916  -1.642  1.00 20.00    -0.113 SA
ENDROOT
BRANCH   4   6
HETATM    6  C6  UNL     1     -34.325  14.645  -3.759  1.00 20.00     0.024 A 
HETATM    7  C5  UNL     1     -33.724  14.735  -5.145  1.00 20.00     0.016 A 
HETATM    8  C7  UNL     1     -35.215  14.766  -4.982  1.00 20.00     0.004 A 
BRANCH   8   9
HETATM    9  C8  UNL     1     -35.975  16.009  -5.298  1.00 20.00     0.090 C 
HETATM   10 BR10 UNL     1     -37.830  15.842  -4.712  1.00 20.00    -0.096 Br
ENDBRANCH   8   9
ENDBRANCH   4   6
TORSDOF 2
ENDMDL
MODEL 5
REMARK VINA RESULT:      -3.8     18.173     18.940
REMARK  2 active torsions:
REMARK  status: ('A' for Active; 'I' for Inactive)
REMARK    1  A    between atoms: C4_4  and  C6_6 
REMARK    2  A    between atoms: C7_7  and  C8_8 
ROOT
HETATM    1  C1  UNL     1     -33.965  15.033  -6.324  1.00 20.00     0.015 A 
HETATM    2  C2  UNL     1     -34.674  15.355  -7.459  1.00 20.00     0.050 A 
HETATM    3  C3  UNL     1     -35.974  15.762  -5.411  1.00 20.00     0.057 A 
HETATM    4  C4  UNL     1     -34.717  15.269  -5.137  1.00 20.00    -0.047 A 
HETATM    5  S9  UNL     1     -36.242  15.939  -7.093  1.00 20.00    -0.113 SA
ENDROOT
BRANCH   4   6
HETATM    6  C6  UNL     1     -34.187  15.004  -3.717  1.00 20.00     0.024 A 
HETATM    7  C5  UNL     1     -34.857  15.705  -2.556  1.00 20.00     0.016 A 
HETATM    8  C7  UNL     1     -33.462  16.094  -2.949  1.00 20.00     0.004 A 
BRANCH   8   9
HETATM    9  C8  UNL     1     -33.198  17.441  -3.528  1.00 20.00     0.090 C 
HETATM   10 BR10 UNL     1     -32.474  18.639  -2.167  1.00 20.00    -0.096 Br
ENDBRANCH   8   9
ENDBRANCH   4   6
TORSDOF 2
ENDMDL
MODEL 6
REMARK VINA RESULT:      -3.8     18.045     18.783
REMARK  2 active torsions:
REMARK  status: ('A' for Active; 'I' for Inactive)
REMARK    1  A    between atoms: C4_4  and  C6_6 
REMARK    2  A    between atoms: C7_7  and  C8_8 
ROOT
HETATM    1  C1  UNL     1     -36.085  15.942  -5.206  1.00 20.00     0.015 A 
HETATM    2  C2  UNL     1     -36.269  16.036  -6.567  1.00 20.00     0.050 A 
HETATM    3  C3  UNL     1     -34.110  15.005  -5.995  1.00 20.00     0.057 A 
HETATM    4  C4  UNL     1     -34.834  15.345  -4.874  1.00 20.00    -0.047 A 
HETATM    5  S9  UNL     1     -34.938  15.406  -7.440  1.00 20.00    -0.113 SA
ENDROOT
BRANCH   4   6
HETATM    6  C6  UNL     1     -34.351  15.106  -3.432  1.00 20.00     0.024 A 
HETATM    7  C5  UNL     1     -34.999  15.896  -2.316  1.00 20.00     0.016 A 
HETATM    8  C7  UNL     1     -33.574  16.179  -2.692  1.00 20.00     0.004 A 
BRANCH   8   9
HETATM    9  C8  UNL     1     -33.212  17.482  -3.319  1.00 20.00     0.090 C 
HETATM   10 BR10 UNL     1     -32.386  18.665  -2.005  1.00 20.00    -0.096 Br
ENDBRANCH   8   9
ENDBRANCH   4   6
TORSDOF 2
ENDMDL
MODEL 7
REMARK VINA RESULT:      -3.7     16.799     17.478
REMARK  2 active torsions:
REMARK  status: ('A' for Active; 'I' for Inactive)
REMARK    1  A    between atoms: C4_4  and  C6_6 
REMARK    2  A    between atoms: C7_7  and  C8_8 
ROOT
HETATM    1  C1  UNL     1     -33.785  14.889  -3.896  1.00 20.00     0.015 A 
HETATM    2  C2  UNL     1     -33.793  14.818  -5.271  1.00 20.00     0.050 A 
HETATM    3  C3  UNL     1     -35.412  16.462  -4.421  1.00 20.00     0.057 A 
HETATM    4  C4  UNL     1     -34.723  15.841  -3.404  1.00 20.00    -0.047 A 
HETATM    5  S9  UNL     1     -34.928  15.897  -5.964  1.00 20.00    -0.113 SA
ENDROOT
BRANCH   4   6
HETATM    6  C6  UNL     1     -34.939  16.140  -1.909  1.00 20.00     0.024 A 
HETATM    7  C5  UNL     1     -35.549  17.469  -1.522  1.00 20.00     0.016 A 
HETATM    8  C7  UNL     1     -34.108  17.197  -1.207  1.00 20.00     0.004 A 
BRANCH   8   9
HETATM    9  C8  UNL     1     -33.034  17.964  -1.901  1.00 20.00     0.090 C 
HETATM   10 BR10 UNL     1     -31.623  18.452  -0.643  1.00 20.00    -0.096 Br
ENDBRANCH   8   9
ENDBRANCH   4   6
TORSDOF 2
ENDMDL
MODEL 8
REMARK VINA RESULT:      -3.6      3.281      4.589
REMARK  2 active torsions:
REMARK  status: ('A' for Active; 'I' for Inactive)
REMARK    1  A    between atoms: C4_4  and  C6_6 
REMARK    2  A    between atoms: C7_7  and  C8_8 
ROOT
HETATM    1  C1  UNL     1     -26.069  18.903  11.769  1.00 20.00     0.015 A 
HETATM    2  C2  UNL     1     -27.395  19.262  11.677  1.00 20.00     0.050 A 
HETATM    3  C3  UNL     1     -27.118  16.907  12.331  1.00 20.00     0.057 A 
HETATM    4  C4  UNL     1     -25.908  17.539  12.148  1.00 20.00    -0.047 A 
HETATM    5  S9  UNL     1     -28.441  17.957  12.046  1.00 20.00    -0.113 SA
ENDROOT
BRANCH   4   6
HETATM    6  C6  UNL     1     -24.542  16.853  12.332  1.00 20.00     0.024 A 
HETATM    7  C5  UNL     1     -23.292  17.697  12.219  1.00 20.00     0.016 A 
HETATM    8  C7  UNL     1     -23.599  16.685  11.156  1.00 20.00     0.004 A 
BRANCH   8   9
HETATM    9  C8  UNL     1     -23.950  17.132   9.778  1.00 20.00     0.090 C 
HETATM   10 BR10 UNL     1     -22.343  17.286   8.681  1.00 20.00    -0.096 Br
ENDBRANCH   8   9
ENDBRANCH   4   6
TORSDOF 2
ENDMDL
MODEL 9
REMARK VINA RESULT:      -3.5     17.783     18.540
REMARK  2 active torsions:
REMARK  status: ('A' for Active; 'I' for Inactive)
REMARK    1  A    between atoms: C4_4  and  C6_6 
REMARK    2  A    between atoms: C7_7  and  C8_8 
ROOT
HETATM    1  C1  UNL     1     -34.576  14.915  -5.405  1.00 20.00     0.015 A 
HETATM    2  C2  UNL     1     -35.795  14.403  -5.790  1.00 20.00     0.050 A 
HETATM    3  C3  UNL     1     -35.785  15.094  -3.429  1.00 20.00     0.057 A 
HETATM    4  C4  UNL     1     -34.570  15.315  -4.039  1.00 20.00    -0.047 A 
HETATM    5  S9  UNL     1     -36.926  14.406  -4.504  1.00 20.00    -0.113 SA
ENDROOT
BRANCH   4   6
HETATM    6  C6  UNL     1     -33.348  15.925  -3.327  1.00 20.00     0.024 A 
HETATM    7  C5  UNL     1     -33.585  16.851  -2.155  1.00 20.00     0.016 A 
HETATM    8  C7  UNL     1     -33.050  17.408  -3.441  1.00 20.00     0.004 A 
BRANCH   8   9
HETATM    9  C8  UNL     1     -33.886  18.332  -4.260  1.00 20.00     0.090 C 
HETATM   10 BR10 UNL     1     -35.308  19.110  -3.172  1.00 20.00    -0.096 Br
ENDBRANCH   8   9
ENDBRANCH   4   6
TORSDOF 2
ENDMDL
