MODEL 1
REMARK VINA RESULT:      -4.5      0.000      0.000
REMARK  1 active torsions:
REMARK  status: ('A' for Active; 'I' for Inactive)
REMARK    1  A    between atoms: C6_6  and  C8_8 
ROOT
HETATM    1  C1  UNL     1     -34.491   6.771   4.399  1.00 20.00     0.036 C 
HETATM    2  C2  UNL     1     -33.623   5.189   2.649  1.00 20.00     0.036 C 
HETATM    3  C3  UNL     1     -32.008   6.974   3.637  1.00 20.00     0.016 A 
HETATM    4  C4  UNL     1     -34.627   5.564   5.320  1.00 20.00     0.168 C 
HETATM    5  C5  UNL     1     -33.818   4.072   3.672  1.00 20.00     0.168 C 
HETATM    6  C6  UNL     1     -32.850   7.705   2.625  1.00 20.00     0.009 A 
HETATM    7  C7  UNL     1     -33.421   6.507   3.361  1.00 20.00    -0.032 A 
HETATM    8  O9  UNL     1     -34.898   4.385   4.557  1.00 20.00    -0.391 OA
ENDROOT
BRANCH   6   9
HETATM    9  C8  UNL     1     -32.492   7.664   1.179  1.00 20.00     0.120 C 
HETATM   10 CL10 UNL     1     -33.014   9.151   0.342  1.00 20.00    -0.130 Cl
ENDBRANCH   6   9
TORSDOF 1
ENDMDL
MODEL 2
REMARK VINA RESULT:      -4.3     15.887     16.706
REMARK  1 active torsions:
REMARK  status: ('A' for Active; 'I' for Inactive)
REMARK    1  A    between atoms: C6_6  and  C8_8 
ROOT
HETATM    1  C1  UNL     1     -23.915  16.503  10.202  1.00 20.00     0.036 C 
HETATM    2  C2  UNL     1     -24.875  18.791   9.799  1.00 20.00     0.036 C 
HETATM    3  C3  UNL     1     -24.121  18.154  12.207  1.00 20.00     0.016 A 
HETATM    4  C4  UNL     1     -22.735  16.924   9.334  1.00 20.00     0.168 C 
HETATM    5  C5  UNL     1     -23.639  19.075   8.948  1.00 20.00     0.168 C 
HETATM    6  C6  UNL     1     -25.467  17.506  12.019  1.00 20.00     0.009 A 
HETATM    7  C7  UNL     1     -24.559  17.725  10.822  1.00 20.00    -0.032 A 
HETATM    8  O9  UNL     1     -23.156  17.870   8.348  1.00 20.00    -0.391 OA
ENDROOT
BRANCH   6   9
HETATM    9  C8  UNL     1     -26.715  18.290  12.234  1.00 20.00     0.120 C 
HETATM   10 CL10 UNL     1     -28.141  17.221  12.331  1.00 20.00    -0.130 Cl
ENDBRANCH   6   9
TORSDOF 1
ENDMDL
MODEL 3
REMARK VINA RESULT:      -4.2     11.319     11.969
REMARK  1 active torsions:
REMARK  status: ('A' for Active; 'I' for Inactive)
REMARK    1  A    between atoms: C6_6  and  C8_8 
ROOT
HETATM    1  C1  UNL     1     -32.874  15.231  -3.921  1.00 20.00     0.036 C 
HETATM    2  C2  UNL     1     -34.932  15.676  -2.547  1.00 20.00     0.036 C 
HETATM    3  C3  UNL     1     -33.694  17.687  -3.639  1.00 20.00     0.016 A 
HETATM    4  C4  UNL     1     -33.782  14.519  -4.918  1.00 20.00     0.168 C 
HETATM    5  C5  UNL     1     -35.718  14.930  -3.623  1.00 20.00     0.168 C 
HETATM    6  C6  UNL     1     -32.894  17.338  -2.413  1.00 20.00     0.009 A 
HETATM    7  C7  UNL     1     -33.671  16.257  -3.144  1.00 20.00    -0.032 A 
HETATM    8  O9  UNL     1     -34.899  13.934  -4.243  1.00 20.00    -0.391 OA
ENDROOT
BRANCH   6   9
HETATM    9  C8  UNL     1     -33.302  17.855  -1.076  1.00 20.00     0.120 C 
HETATM   10 CL10 UNL     1     -31.881  18.323  -0.103  1.00 20.00    -0.130 Cl
ENDBRANCH   6   9
TORSDOF 1
ENDMDL
MODEL 4
REMARK VINA RESULT:      -4.2     10.809     11.738
REMARK  1 active torsions:
REMARK  status: ('A' for Active; 'I' for Inactive)
REMARK    1  A    between atoms: C6_6  and  C8_8 
ROOT
HETATM    1  C1  UNL     1     -34.881  13.876  -3.809  1.00 20.00     0.036 C 
HETATM    2  C2  UNL     1     -36.348  15.810  -3.155  1.00 20.00     0.036 C 
HETATM    3  C3  UNL     1     -34.099  16.297  -4.370  1.00 20.00     0.016 A 
HETATM    4  C4  UNL     1     -35.975  13.470  -4.789  1.00 20.00     0.168 C 
HETATM    5  C5  UNL     1     -37.361  15.285  -4.171  1.00 20.00     0.168 C 
HETATM    6  C6  UNL     1     -33.734  16.029  -2.935  1.00 20.00     0.009 A 
HETATM    7  C7  UNL     1     -34.957  15.364  -3.541  1.00 20.00    -0.032 A 
HETATM    8  O9  UNL     1     -37.258  13.863  -4.293  1.00 20.00    -0.391 OA
ENDROOT
BRANCH   6   9
HETATM    9  C8  UNL     1     -33.831  17.115  -1.919  1.00 20.00     0.120 C 
HETATM   10 CL10 UNL     1     -32.238  17.860  -1.615  1.00 20.00    -0.130 Cl
ENDBRANCH   6   9
TORSDOF 1
ENDMDL
MODEL 5
REMARK VINA RESULT:      -4.2     11.403     12.222
REMARK  1 active torsions:
REMARK  status: ('A' for Active; 'I' for Inactive)
REMARK    1  A    between atoms: C6_6  and  C8_8 
ROOT
HETATM    1  C1  UNL     1     -35.652  14.519  -3.675  1.00 20.00     0.036 C 
HETATM    2  C2  UNL     1     -34.965  16.247  -5.366  1.00 20.00     0.036 C 
HETATM    3  C3  UNL     1     -33.115  14.893  -4.134  1.00 20.00     0.016 A 
HETATM    4  C4  UNL     1     -36.253  13.729  -4.832  1.00 20.00     0.168 C 
HETATM    5  C5  UNL     1     -35.613  15.357  -6.424  1.00 20.00     0.168 C 
HETATM    6  C6  UNL     1     -33.556  15.953  -3.162  1.00 20.00     0.009 A 
HETATM    7  C7  UNL     1     -34.538  15.408  -4.183  1.00 20.00    -0.032 A 
HETATM    8  O9  UNL     1     -36.700  14.617  -5.860  1.00 20.00    -0.391 OA
ENDROOT
BRANCH   6   9
HETATM    9  C8  UNL     1     -32.992  17.330  -3.244  1.00 20.00     0.120 C 
HETATM   10 CL10 UNL     1     -32.387  17.877  -1.657  1.00 20.00    -0.130 Cl
ENDBRANCH   6   9
TORSDOF 1
ENDMDL
MODEL 6
REMARK VINA RESULT:      -4.1      9.543     10.171
REMARK  1 active torsions:
REMARK  status: ('A' for Active; 'I' for Inactive)
REMARK    1  A    between atoms: C6_6  and  C8_8 
ROOT
HETATM    1  C1  UNL     1     -41.287   7.899  -1.150  1.00 20.00     0.036 C 
HETATM    2  C2  UNL     1     -43.415   6.891  -0.269  1.00 20.00     0.036 C 
HETATM    3  C3  UNL     1     -41.205   5.532  -0.066  1.00 20.00     0.016 A 
HETATM    4  C4  UNL     1     -41.411   8.944  -0.046  1.00 20.00     0.168 C 
HETATM    5  C5  UNL     1     -43.417   8.001   0.779  1.00 20.00     0.168 C 
HETATM    6  C6  UNL     1     -41.657   5.357  -1.491  1.00 20.00     0.009 A 
HETATM    7  C7  UNL     1     -42.002   6.630  -0.738  1.00 20.00    -0.032 A 
HETATM    8  O9  UNL     1     -42.787   9.178   0.265  1.00 20.00    -0.391 OA
ENDROOT
BRANCH   6   9
HETATM    9  C8  UNL     1     -42.677   4.327  -1.835  1.00 20.00     0.120 C 
HETATM   10 CL10 UNL     1     -42.013   3.112  -2.961  1.00 20.00    -0.130 Cl
ENDBRANCH   6   9
TORSDOF 1
ENDMDL
MODEL 7
REMARK VINA RESULT:      -4.0     10.827     11.706
REMARK  1 active torsions:
REMARK  status: ('A' for Active; 'I' for Inactive)
REMARK    1  A    between atoms: C6_6  and  C8_8 
ROOT
HETATM    1  C1  UNL     1     -36.628  15.976  -4.212  1.00 20.00     0.036 C 
HETATM    2  C2  UNL     1     -34.608  14.482  -4.128  1.00 20.00     0.036 C 
HETATM    3  C3  UNL     1     -35.183  15.932  -2.045  1.00 20.00     0.016 A 
HETATM    4  C4  UNL     1     -37.474  14.708  -4.267  1.00 20.00     0.168 C 
HETATM    5  C5  UNL     1     -35.574  13.301  -4.196  1.00 20.00     0.168 C 
HETATM    6  C6  UNL     1     -34.510  16.866  -3.014  1.00 20.00     0.009 A 
HETATM    7  C7  UNL     1     -35.307  15.683  -3.533  1.00 20.00    -0.032 A 
HETATM    8  O9  UNL     1     -36.754  13.659  -4.921  1.00 20.00    -0.391 OA
ENDROOT
BRANCH   6   9
HETATM    9  C8  UNL     1     -33.023  16.927  -3.090  1.00 20.00     0.120 C 
HETATM   10 CL10 UNL     1     -32.341  17.824  -1.706  1.00 20.00    -0.130 Cl
ENDBRANCH   6   9
TORSDOF 1
ENDMDL
MODEL 8
REMARK VINA RESULT:      -4.0     11.253     12.340
REMARK  1 active torsions:
REMARK  status: ('A' for Active; 'I' for Inactive)
REMARK    1  A    between atoms: C6_6  and  C8_8 
ROOT
HETATM    1  C1  UNL     1     -34.458  15.466  -6.093  1.00 20.00     0.036 C 
HETATM    2  C2  UNL     1     -35.090  14.486  -3.866  1.00 20.00     0.036 C 
HETATM    3  C3  UNL     1     -35.211  17.066  -4.180  1.00 20.00     0.016 A 
HETATM    4  C4  UNL     1     -35.687  14.770  -6.667  1.00 20.00     0.168 C 
HETATM    5  C5  UNL     1     -36.279  13.841  -4.574  1.00 20.00     0.168 C 
HETATM    6  C6  UNL     1     -33.756  16.754  -3.957  1.00 20.00     0.009 A 
HETATM    7  C7  UNL     1     -34.658  15.726  -4.615  1.00 20.00    -0.032 A 
HETATM    8  O9  UNL     1     -35.961  13.568  -5.942  1.00 20.00    -0.391 OA
ENDROOT
BRANCH   6   9
HETATM    9  C8  UNL     1     -33.225  16.589  -2.574  1.00 20.00     0.120 C 
HETATM   10 CL10 UNL     1     -34.436  17.072  -1.355  1.00 20.00    -0.130 Cl
ENDBRANCH   6   9
TORSDOF 1
ENDMDL
MODEL 9
REMARK VINA RESULT:      -3.9     11.337     12.117
REMARK  1 active torsions:
REMARK  status: ('A' for Active; 'I' for Inactive)
REMARK    1  A    between atoms: C6_6  and  C8_8 
ROOT
HETATM    1  C1  UNL     1     -35.109  16.638  -1.168  1.00 20.00     0.036 C 
HETATM    2  C2  UNL     1     -33.046  16.664  -2.605  1.00 20.00     0.036 C 
HETATM    3  C3  UNL     1     -35.378  16.591  -3.759  1.00 20.00     0.016 A 
HETATM    4  C4  UNL     1     -34.738  18.052  -0.736  1.00 20.00     0.168 C 
HETATM    5  C5  UNL     1     -32.793  18.076  -2.081  1.00 20.00     0.168 C 
HETATM    6  C6  UNL     1     -35.104  15.181  -3.311  1.00 20.00     0.009 A 
HETATM    7  C7  UNL     1     -34.523  16.348  -2.533  1.00 20.00    -0.032 A 
HETATM    8  O9  UNL     1     -33.318  18.222  -0.759  1.00 20.00    -0.391 OA
ENDROOT
BRANCH   6   9
HETATM    9  C8  UNL     1     -34.266  14.275  -4.146  1.00 20.00     0.120 C 
HETATM   10 CL10 UNL     1     -34.039  14.936  -5.788  1.00 20.00    -0.130 Cl
ENDBRANCH   6   9
TORSDOF 1
ENDMDL
