MODEL 1
REMARK VINA RESULT:      -4.8      0.000      0.000
REMARK  1 active torsions:
REMARK  status: ('A' for Active; 'I' for Inactive)
REMARK    1  A    between atoms: C5_5  and  C10_10 
ROOT
HETATM    1  C1  UNL     1     -33.020  15.610  -3.672  1.00 20.00     0.036 C 
HETATM    2  C2  UNL     1     -35.021  15.932  -2.033  1.00 20.00     0.016 A 
HETATM    3  C3  UNL     1     -35.256  16.263  -4.615  1.00 20.00     0.047 C 
HETATM    4  C4  UNL     1     -33.168  14.284  -4.404  1.00 20.00     0.169 C 
HETATM    5  C5  UNL     1     -34.532  17.314  -2.367  1.00 20.00     0.009 A 
HETATM    6  C6  UNL     1     -34.382  16.191  -3.381  1.00 20.00    -0.031 A 
HETATM    7  C7  UNL     1     -35.287  14.918  -5.369  1.00 20.00     0.054 C 
HETATM    8  C8  UNL     1     -36.142  13.865  -4.650  1.00 20.00     0.045 C 
HETATM    9  C9  UNL     1     -35.879  15.144  -6.768  1.00 20.00     0.045 C 
HETATM   10  O11 UNL     1     -33.949  14.436  -5.589  1.00 20.00    -0.381 OA
ENDROOT
BRANCH   5  11
HETATM   11  C10 UNL     1     -33.374  17.898  -1.633  1.00 20.00     0.120 C 
HETATM   12 CL12 UNL     1     -33.762  18.152   0.090  1.00 20.00    -0.130 Cl
ENDBRANCH   5  11
TORSDOF 1
ENDMDL
MODEL 2
REMARK VINA RESULT:      -4.5      1.884      3.069
REMARK  1 active torsions:
REMARK  status: ('A' for Active; 'I' for Inactive)
REMARK    1  A    between atoms: C5_5  and  C10_10 
ROOT
HETATM    1  C1  UNL     1     -34.550  17.236  -1.145  1.00 20.00     0.036 C 
HETATM    2  C2  UNL     1     -33.022  18.792  -2.571  1.00 20.00     0.016 A 
HETATM    3  C3  UNL     1     -33.088  16.201  -2.907  1.00 20.00     0.047 C 
HETATM    4  C4  UNL     1     -35.751  16.800  -1.973  1.00 20.00     0.169 C 
HETATM    5  C5  UNL     1     -32.128  18.169  -1.534  1.00 20.00     0.009 A 
HETATM    6  C6  UNL     1     -33.346  17.413  -2.038  1.00 20.00    -0.031 A 
HETATM    7  C7  UNL     1     -34.364  15.746  -3.643  1.00 20.00     0.054 C 
HETATM    8  C8  UNL     1     -34.730  16.680  -4.806  1.00 20.00     0.045 C 
HETATM    9  C9  UNL     1     -34.137  14.338  -4.212  1.00 20.00     0.045 C 
HETATM   10  O11 UNL     1     -35.459  15.618  -2.719  1.00 20.00    -0.381 OA
ENDROOT
BRANCH   5  11
HETATM   11  C10 UNL     1     -32.049  18.752  -0.165  1.00 20.00     0.120 C 
HETATM   12 CL12 UNL     1     -30.695  18.048   0.761  1.00 20.00    -0.130 Cl
ENDBRANCH   5  11
TORSDOF 1
ENDMDL
MODEL 3
REMARK VINA RESULT:      -4.4      3.061      4.798
REMARK  1 active torsions:
REMARK  status: ('A' for Active; 'I' for Inactive)
REMARK    1  A    between atoms: C5_5  and  C10_10 
ROOT
HETATM    1  C1  UNL     1     -32.935  16.798  -2.689  1.00 20.00     0.036 C 
HETATM    2  C2  UNL     1     -35.073  16.600  -4.166  1.00 20.00     0.016 A 
HETATM    3  C3  UNL     1     -35.111  16.199  -1.584  1.00 20.00     0.047 C 
HETATM    4  C4  UNL     1     -32.971  18.106  -1.911  1.00 20.00     0.169 C 
HETATM    5  C5  UNL     1     -34.613  15.191  -3.911  1.00 20.00     0.009 A 
HETATM    6  C6  UNL     1     -34.338  16.276  -2.883  1.00 20.00    -0.031 A 
HETATM    7  C7  UNL     1     -35.028  17.520  -0.793  1.00 20.00     0.054 C 
HETATM    8  C8  UNL     1     -35.897  18.625  -1.411  1.00 20.00     0.045 C 
HETATM    9  C9  UNL     1     -35.514  17.274   0.643  1.00 20.00     0.045 C 
HETATM   10  O11 UNL     1     -33.659  17.947  -0.671  1.00 20.00    -0.381 OA
ENDROOT
BRANCH   5  11
HETATM   11  C10 UNL     1     -33.541  14.588  -4.754  1.00 20.00     0.120 C 
HETATM   12 CL12 UNL     1     -33.819  14.916  -6.486  1.00 20.00    -0.130 Cl
ENDBRANCH   5  11
TORSDOF 1
ENDMDL
MODEL 4
REMARK VINA RESULT:      -4.3      1.523      2.387
REMARK  1 active torsions:
REMARK  status: ('A' for Active; 'I' for Inactive)
REMARK    1  A    between atoms: C5_5  and  C10_10 
ROOT
HETATM    1  C1  UNL     1     -34.796  17.922  -3.669  1.00 20.00     0.036 C 
HETATM    2  C2  UNL     1     -32.846  17.321  -2.047  1.00 20.00     0.016 A 
HETATM    3  C3  UNL     1     -34.760  15.637  -2.621  1.00 20.00     0.047 C 
HETATM    4  C4  UNL     1     -34.571  17.241  -5.012  1.00 20.00     0.169 C 
HETATM    5  C5  UNL     1     -34.025  17.649  -1.174  1.00 20.00     0.009 A 
HETATM    6  C6  UNL     1     -34.247  17.060  -2.558  1.00 20.00    -0.031 A 
HETATM    7  C7  UNL     1     -34.597  15.036  -4.031  1.00 20.00     0.054 C 
HETATM    8  C8  UNL     1     -33.138  14.675  -4.346  1.00 20.00     0.045 C 
HETATM    9  C9  UNL     1     -35.440  13.756  -4.129  1.00 20.00     0.045 C 
HETATM   10  O11 UNL     1     -35.134  15.929  -5.023  1.00 20.00    -0.381 OA
ENDROOT
BRANCH   5  11
HETATM   11  C10 UNL     1     -34.341  19.067  -0.841  1.00 20.00     0.120 C 
HETATM   12 CL12 UNL     1     -36.001  19.229  -0.205  1.00 20.00    -0.130 Cl
ENDBRANCH   5  11
TORSDOF 1
ENDMDL
MODEL 5
REMARK VINA RESULT:      -4.3      2.983      4.837
REMARK  1 active torsions:
REMARK  status: ('A' for Active; 'I' for Inactive)
REMARK    1  A    between atoms: C5_5  and  C10_10 
ROOT
HETATM    1  C1  UNL     1     -34.511  17.574  -4.313  1.00 20.00     0.036 C 
HETATM    2  C2  UNL     1     -34.942  15.199  -3.330  1.00 20.00     0.016 A 
HETATM    3  C3  UNL     1     -33.031  16.752  -2.455  1.00 20.00     0.047 C 
HETATM    4  C4  UNL     1     -35.033  18.629  -3.347  1.00 20.00     0.169 C 
HETATM    5  C5  UNL     1     -33.769  15.056  -4.261  1.00 20.00     0.009 A 
HETATM    6  C6  UNL     1     -34.013  16.374  -3.544  1.00 20.00    -0.031 A 
HETATM    7  C7  UNL     1     -33.574  17.892  -1.571  1.00 20.00     0.054 C 
HETATM    8  C8  UNL     1     -34.673  17.415  -0.612  1.00 20.00     0.045 C 
HETATM    9  C9  UNL     1     -32.421  18.465  -0.732  1.00 20.00     0.045 C 
HETATM   10  O11 UNL     1     -34.037  18.983  -2.386  1.00 20.00    -0.381 OA
ENDROOT
BRANCH   5  11
HETATM   11  C10 UNL     1     -33.990  14.881  -5.725  1.00 20.00     0.120 C 
HETATM   12 CL12 UNL     1     -35.687  14.454  -6.076  1.00 20.00    -0.130 Cl
ENDBRANCH   5  11
TORSDOF 1
ENDMDL
MODEL 6
REMARK VINA RESULT:      -4.2      1.578      2.179
REMARK  1 active torsions:
REMARK  status: ('A' for Active; 'I' for Inactive)
REMARK    1  A    between atoms: C5_5  and  C10_10 
ROOT
HETATM    1  C1  UNL     1     -34.635  17.092  -5.020  1.00 20.00     0.036 C 
HETATM    2  C2  UNL     1     -33.373  15.468  -3.419  1.00 20.00     0.016 A 
HETATM    3  C3  UNL     1     -35.969  15.761  -3.357  1.00 20.00     0.047 C 
HETATM    4  C4  UNL     1     -35.324  16.294  -6.118  1.00 20.00     0.169 C 
HETATM    5  C5  UNL     1     -33.679  16.697  -2.607  1.00 20.00     0.009 A 
HETATM    6  C6  UNL     1     -34.604  16.289  -3.743  1.00 20.00    -0.031 A 
HETATM    7  C7  UNL     1     -36.659  15.050  -4.538  1.00 20.00     0.054 C 
HETATM    8  C8  UNL     1     -36.050  13.670  -4.825  1.00 20.00     0.045 C 
HETATM    9  C9  UNL     1     -38.146  14.859  -4.206  1.00 20.00     0.045 C 
HETATM   10  O11 UNL     1     -36.629  15.882  -5.712  1.00 20.00    -0.381 OA
ENDROOT
BRANCH   5  11
HETATM   11  C10 UNL     1     -32.786  17.888  -2.682  1.00 20.00     0.120 C 
HETATM   12 CL12 UNL     1     -31.902  18.131  -1.151  1.00 20.00    -0.130 Cl
ENDBRANCH   5  11
TORSDOF 1
ENDMDL
MODEL 7
REMARK VINA RESULT:      -4.2     12.523     14.296
REMARK  1 active torsions:
REMARK  status: ('A' for Active; 'I' for Inactive)
REMARK    1  A    between atoms: C5_5  and  C10_10 
ROOT
HETATM    1  C1  UNL     1     -43.417   4.596   0.216  1.00 20.00     0.036 C 
HETATM    2  C2  UNL     1     -41.433   4.667  -1.471  1.00 20.00     0.016 A 
HETATM    3  C3  UNL     1     -43.047   6.692  -1.121  1.00 20.00     0.047 C 
HETATM    4  C4  UNL     1     -43.060   5.400   1.459  1.00 20.00     0.169 C 
HETATM    5  C5  UNL     1     -42.668   4.420  -2.293  1.00 20.00     0.009 A 
HETATM    6  C6  UNL     1     -42.764   5.210  -0.998  1.00 20.00    -0.031 A 
HETATM    7  C7  UNL     1     -42.762   7.437   0.199  1.00 20.00     0.054 C 
HETATM    8  C8  UNL     1     -41.258   7.600   0.463  1.00 20.00     0.045 C 
HETATM    9  C9  UNL     1     -43.392   8.836   0.129  1.00 20.00     0.045 C 
HETATM   10  O11 UNL     1     -43.410   6.775   1.299  1.00 20.00    -0.381 OA
ENDROOT
BRANCH   5  11
HETATM   11  C10 UNL     1     -43.208   3.039  -2.438  1.00 20.00     0.120 C 
HETATM   12 CL12 UNL     1     -42.173   2.046  -3.500  1.00 20.00    -0.130 Cl
ENDBRANCH   5  11
TORSDOF 1
ENDMDL
MODEL 8
REMARK VINA RESULT:      -4.1      1.261      1.548
REMARK  1 active torsions:
REMARK  status: ('A' for Active; 'I' for Inactive)
REMARK    1  A    between atoms: C5_5  and  C10_10 
ROOT
HETATM    1  C1  UNL     1     -34.427  15.154  -3.163  1.00 20.00     0.036 C 
HETATM    2  C2  UNL     1     -35.821  17.352  -3.291  1.00 20.00     0.016 A 
HETATM    3  C3  UNL     1     -34.227  16.590  -5.216  1.00 20.00     0.047 C 
HETATM    4  C4  UNL     1     -35.068  14.091  -4.045  1.00 20.00     0.169 C 
HETATM    5  C5  UNL     1     -34.423  17.768  -2.924  1.00 20.00     0.009 A 
HETATM    6  C6  UNL     1     -34.647  16.521  -3.764  1.00 20.00    -0.031 A 
HETATM    7  C7  UNL     1     -34.827  15.431  -6.038  1.00 20.00     0.054 C 
HETATM    8  C8  UNL     1     -36.324  15.625  -6.314  1.00 20.00     0.045 C 
HETATM    9  C9  UNL     1     -34.097  15.345  -7.386  1.00 20.00     0.045 C 
HETATM   10  O11 UNL     1     -34.581  14.173  -5.385  1.00 20.00    -0.381 OA
ENDROOT
BRANCH   5  11
HETATM   11  C10 UNL     1     -33.973  17.714  -1.504  1.00 20.00     0.120 C 
HETATM   12 CL12 UNL     1     -32.214  17.992  -1.372  1.00 20.00    -0.130 Cl
ENDBRANCH   5  11
TORSDOF 1
ENDMDL
MODEL 9
REMARK VINA RESULT:      -3.9      1.485      2.269
REMARK  1 active torsions:
REMARK  status: ('A' for Active; 'I' for Inactive)
REMARK    1  A    between atoms: C5_5  and  C10_10 
ROOT
HETATM    1  C1  UNL     1     -34.881  17.620  -4.438  1.00 20.00     0.036 C 
HETATM    2  C2  UNL     1     -33.501  15.702  -3.340  1.00 20.00     0.016 A 
HETATM    3  C3  UNL     1     -35.460  15.241  -5.007  1.00 20.00     0.047 C 
HETATM    4  C4  UNL     1     -34.449  17.796  -5.887  1.00 20.00     0.169 C 
HETATM    5  C5  UNL     1     -34.790  15.779  -2.569  1.00 20.00     0.009 A 
HETATM    6  C6  UNL     1     -34.760  16.170  -4.038  1.00 20.00    -0.031 A 
HETATM    7  C7  UNL     1     -35.057  15.533  -6.466  1.00 20.00     0.054 C 
HETATM    8  C8  UNL     1     -33.641  15.036  -6.791  1.00 20.00     0.045 C 
HETATM    9  C9  UNL     1     -36.042  14.824  -7.408  1.00 20.00     0.045 C 
HETATM   10  O11 UNL     1     -35.191  16.937  -6.753  1.00 20.00    -0.381 OA
ENDROOT
BRANCH   5  11
HETATM   11  C10 UNL     1     -34.950  16.776  -1.472  1.00 20.00     0.120 C 
HETATM   12 CL12 UNL     1     -33.403  17.587  -1.105  1.00 20.00    -0.130 Cl
ENDBRANCH   5  11
TORSDOF 1
ENDMDL
