MODEL 1
REMARK VINA RESULT:      -4.0      0.000      0.000
REMARK  1 active torsions:
REMARK  status: ('A' for Active; 'I' for Inactive)
REMARK    1  A    between atoms: C6_6  and  C8_8 
ROOT
HETATM    1  C1  UNL     1     -33.648  14.627  -5.079  1.00 20.00     0.011 C 
HETATM    2  C2  UNL     1     -34.370  14.681  -3.735  1.00 20.00     0.011 C 
HETATM    3  C3  UNL     1     -33.437  16.762  -2.476  1.00 20.00     0.017 A 
HETATM    4  C4  UNL     1     -34.401  15.360  -6.182  1.00 20.00     0.074 C 
HETATM    5  C5  UNL     1     -35.401  16.962  -4.170  1.00 20.00     0.083 C 
HETATM    6  C6  UNL     1     -34.665  16.295  -1.746  1.00 20.00     0.009 A 
HETATM    7  C7  UNL     1     -34.562  16.107  -3.254  1.00 20.00    -0.027 A 
HETATM    8  S9  UNL     1     -34.605  17.124  -5.792  1.00 20.00    -0.168 SA
ENDROOT
BRANCH   6   9
HETATM    9  C8  UNL     1     -35.583  17.282  -1.111  1.00 20.00     0.120 C 
HETATM   10 CL10 UNL     1     -35.596  17.103   0.666  1.00 20.00    -0.130 Cl
ENDBRANCH   6   9
TORSDOF 1
ENDMDL
MODEL 2
REMARK VINA RESULT:      -4.0      2.098      2.440
REMARK  1 active torsions:
REMARK  status: ('A' for Active; 'I' for Inactive)
REMARK    1  A    between atoms: C6_6  and  C8_8 
ROOT
HETATM    1  C1  UNL     1     -33.891  14.775  -4.879  1.00 20.00     0.011 C 
HETATM    2  C2  UNL     1     -32.974  15.301  -3.777  1.00 20.00     0.011 C 
HETATM    3  C3  UNL     1     -33.491  17.842  -3.532  1.00 20.00     0.017 A 
HETATM    4  C4  UNL     1     -35.209  14.233  -4.340  1.00 20.00     0.074 C 
HETATM    5  C5  UNL     1     -34.888  16.041  -2.280  1.00 20.00     0.083 C 
HETATM    6  C6  UNL     1     -32.664  17.424  -2.348  1.00 20.00     0.009 A 
HETATM    7  C7  UNL     1     -33.619  16.430  -2.996  1.00 20.00    -0.027 A 
HETATM    8  S9  UNL     1     -36.154  15.519  -3.470  1.00 20.00    -0.168 SA
ENDROOT
BRANCH   6   9
HETATM    9  C8  UNL     1     -32.908  18.031  -1.010  1.00 20.00     0.120 C 
HETATM   10 CL10 UNL     1     -31.375  18.335  -0.147  1.00 20.00    -0.130 Cl
ENDBRANCH   6   9
TORSDOF 1
ENDMDL
MODEL 3
REMARK VINA RESULT:      -3.9      2.109      2.339
REMARK  1 active torsions:
REMARK  status: ('A' for Active; 'I' for Inactive)
REMARK    1  A    between atoms: C6_6  and  C8_8 
ROOT
HETATM    1  C1  UNL     1     -35.708  13.906  -4.349  1.00 20.00     0.011 C 
HETATM    2  C2  UNL     1     -35.367  15.041  -3.386  1.00 20.00     0.011 C 
HETATM    3  C3  UNL     1     -32.804  15.450  -3.600  1.00 20.00     0.017 A 
HETATM    4  C4  UNL     1     -36.124  14.407  -5.726  1.00 20.00     0.074 C 
HETATM    5  C5  UNL     1     -34.503  16.580  -5.212  1.00 20.00     0.083 C 
HETATM    6  C6  UNL     1     -33.392  16.605  -2.840  1.00 20.00     0.009 A 
HETATM    7  C7  UNL     1     -34.222  15.893  -3.900  1.00 20.00    -0.027 A 
HETATM    8  S9  UNL     1     -34.793  15.357  -6.520  1.00 20.00    -0.168 SA
ENDROOT
BRANCH   6   9
HETATM    9  C8  UNL     1     -32.848  17.980  -3.023  1.00 20.00     0.120 C 
HETATM   10 CL10 UNL     1     -32.012  18.546  -1.550  1.00 20.00    -0.130 Cl
ENDBRANCH   6   9
TORSDOF 1
ENDMDL
MODEL 4
REMARK VINA RESULT:      -3.8      2.375      3.413
REMARK  1 active torsions:
REMARK  status: ('A' for Active; 'I' for Inactive)
REMARK    1  A    between atoms: C6_6  and  C8_8 
ROOT
HETATM    1  C1  UNL     1     -32.775  17.913  -2.627  1.00 20.00     0.011 C 
HETATM    2  C2  UNL     1     -32.947  16.444  -3.006  1.00 20.00     0.011 C 
HETATM    3  C3  UNL     1     -35.470  15.885  -2.676  1.00 20.00     0.017 A 
HETATM    4  C4  UNL     1     -32.914  18.850  -3.821  1.00 20.00     0.074 C 
HETATM    5  C5  UNL     1     -34.584  16.929  -4.887  1.00 20.00     0.083 C 
HETATM    6  C6  UNL     1     -34.845  14.756  -3.448  1.00 20.00     0.009 A 
HETATM    7  C7  UNL     1     -34.312  16.173  -3.611  1.00 20.00    -0.027 A 
HETATM    8  S9  UNL     1     -34.558  18.718  -4.584  1.00 20.00    -0.168 SA
ENDROOT
BRANCH   6   9
HETATM    9  C8  UNL     1     -35.620  14.052  -4.508  1.00 20.00     0.120 C 
HETATM   10 CL10 UNL     1     -37.374  14.327  -4.319  1.00 20.00    -0.130 Cl
ENDBRANCH   6   9
TORSDOF 1
ENDMDL
MODEL 5
REMARK VINA RESULT:      -3.7      1.604      1.712
REMARK  1 active torsions:
REMARK  status: ('A' for Active; 'I' for Inactive)
REMARK    1  A    between atoms: C6_6  and  C8_8 
ROOT
HETATM    1  C1  UNL     1     -35.914  14.384  -5.655  1.00 20.00     0.011 C 
HETATM    2  C2  UNL     1     -36.074  14.700  -4.169  1.00 20.00     0.011 C 
HETATM    3  C3  UNL     1     -33.753  15.533  -3.334  1.00 20.00     0.017 A 
HETATM    4  C4  UNL     1     -36.260  15.567  -6.550  1.00 20.00     0.074 C 
HETATM    5  C5  UNL     1     -35.465  17.151  -4.435  1.00 20.00     0.083 C 
HETATM    6  C6  UNL     1     -34.766  15.852  -2.270  1.00 20.00     0.009 A 
HETATM    7  C7  UNL     1     -35.181  15.846  -3.736  1.00 20.00    -0.027 A 
HETATM    8  S9  UNL     1     -35.181  16.992  -6.219  1.00 20.00    -0.168 SA
ENDROOT
BRANCH   6   9
HETATM    9  C8  UNL     1     -34.644  17.099  -1.465  1.00 20.00     0.120 C 
HETATM   10 CL10 UNL     1     -32.966  17.713  -1.473  1.00 20.00    -0.130 Cl
ENDBRANCH   6   9
TORSDOF 1
ENDMDL
MODEL 6
REMARK VINA RESULT:      -3.7      2.797      4.261
REMARK  1 active torsions:
REMARK  status: ('A' for Active; 'I' for Inactive)
REMARK    1  A    between atoms: C6_6  and  C8_8 
ROOT
HETATM    1  C1  UNL     1     -35.112  16.634  -1.220  1.00 20.00     0.011 C 
HETATM    2  C2  UNL     1     -34.121  16.247  -2.316  1.00 20.00     0.011 C 
HETATM    3  C3  UNL     1     -35.321  14.484  -3.810  1.00 20.00     0.017 A 
HETATM    4  C4  UNL     1     -35.958  17.846  -1.592  1.00 20.00     0.074 C 
HETATM    5  C5  UNL     1     -35.620  17.036  -4.208  1.00 20.00     0.083 C 
HETATM    6  C6  UNL     1     -34.086  14.939  -4.537  1.00 20.00     0.009 A 
HETATM    7  C7  UNL     1     -34.822  15.902  -3.615  1.00 20.00    -0.027 A 
HETATM    8  S9  UNL     1     -36.952  17.534  -3.081  1.00 20.00    -0.168 SA
ENDROOT
BRANCH   6   9
HETATM    9  C8  UNL     1     -34.092  15.068  -6.021  1.00 20.00     0.120 C 
HETATM   10 CL10 UNL     1     -35.633  14.492  -6.715  1.00 20.00    -0.130 Cl
ENDBRANCH   6   9
TORSDOF 1
ENDMDL
MODEL 7
REMARK VINA RESULT:      -3.7      2.755      4.333
REMARK  1 active torsions:
REMARK  status: ('A' for Active; 'I' for Inactive)
REMARK    1  A    between atoms: C6_6  and  C8_8 
ROOT
HETATM    1  C1  UNL     1     -34.983  18.117  -0.769  1.00 20.00     0.011 C 
HETATM    2  C2  UNL     1     -35.095  16.645  -1.158  1.00 20.00     0.011 C 
HETATM    3  C3  UNL     1     -35.405  16.584  -3.744  1.00 20.00     0.017 A 
HETATM    4  C4  UNL     1     -33.542  18.610  -0.734  1.00 20.00     0.074 C 
HETATM    5  C5  UNL     1     -33.044  16.695  -2.657  1.00 20.00     0.083 C 
HETATM    6  C6  UNL     1     -35.093  15.187  -3.285  1.00 20.00     0.009 A 
HETATM    7  C7  UNL     1     -34.514  16.380  -2.534  1.00 20.00    -0.027 A 
HETATM    8  S9  UNL     1     -32.746  18.460  -2.362  1.00 20.00    -0.168 SA
ENDROOT
BRANCH   6   9
HETATM    9  C8  UNL     1     -34.268  14.284  -4.135  1.00 20.00     0.120 C 
HETATM   10 CL10 UNL     1     -34.078  14.942  -5.784  1.00 20.00    -0.130 Cl
ENDBRANCH   6   9
TORSDOF 1
ENDMDL
MODEL 8
REMARK VINA RESULT:      -3.7      3.040      4.262
REMARK  1 active torsions:
REMARK  status: ('A' for Active; 'I' for Inactive)
REMARK    1  A    between atoms: C6_6  and  C8_8 
ROOT
HETATM    1  C1  UNL     1     -33.331  17.442  -1.658  1.00 20.00     0.011 C 
HETATM    2  C2  UNL     1     -33.016  16.627  -2.910  1.00 20.00     0.011 C 
HETATM    3  C3  UNL     1     -35.008  14.982  -3.244  1.00 20.00     0.017 A 
HETATM    4  C4  UNL     1     -34.066  18.740  -1.970  1.00 20.00     0.074 C 
HETATM    5  C5  UNL     1     -35.079  17.412  -4.167  1.00 20.00     0.083 C 
HETATM    6  C6  UNL     1     -34.187  14.972  -4.503  1.00 20.00     0.009 A 
HETATM    7  C7  UNL     1     -34.274  16.240  -3.664  1.00 20.00    -0.027 A 
HETATM    8  S9  UNL     1     -35.663  18.424  -2.779  1.00 20.00    -0.168 SA
ENDROOT
BRANCH   6   9
HETATM    9  C8  UNL     1     -34.848  14.828  -5.830  1.00 20.00     0.120 C 
HETATM   10 CL10 UNL     1     -33.679  15.042  -7.163  1.00 20.00    -0.130 Cl
ENDBRANCH   6   9
TORSDOF 1
ENDMDL
MODEL 9
REMARK VINA RESULT:      -3.7     11.523     12.454
REMARK  1 active torsions:
REMARK  status: ('A' for Active; 'I' for Inactive)
REMARK    1  A    between atoms: C6_6  and  C8_8 
ROOT
HETATM    1  C1  UNL     1     -34.152   6.301   5.877  1.00 20.00     0.011 C 
HETATM    2  C2  UNL     1     -34.084   7.310   4.733  1.00 20.00     0.011 C 
HETATM    3  C3  UNL     1     -31.825   6.889   3.507  1.00 20.00     0.017 A 
HETATM    4  C4  UNL     1     -34.858   5.010   5.482  1.00 20.00     0.074 C 
HETATM    5  C5  UNL     1     -33.965   5.531   2.924  1.00 20.00     0.083 C 
HETATM    6  C6  UNL     1     -32.660   7.785   2.636  1.00 20.00     0.009 A 
HETATM    7  C7  UNL     1     -33.335   6.757   3.536  1.00 20.00    -0.027 A 
HETATM    8  S9  UNL     1     -33.996   4.168   4.120  1.00 20.00    -0.168 SA
ENDROOT
BRANCH   6   9
HETATM    9  C8  UNL     1     -32.605   7.655   1.153  1.00 20.00     0.120 C 
HETATM   10 CL10 UNL     1     -33.064   9.184   0.353  1.00 20.00    -0.130 Cl
ENDBRANCH   6   9
TORSDOF 1
ENDMDL
