MODEL 1
REMARK VINA RESULT:      -4.1      0.000      0.000
REMARK  1 active torsions:
REMARK  status: ('A' for Active; 'I' for Inactive)
REMARK    1  A    between atoms: C3_3  and  O10_10 
ROOT
HETATM    1  C1  UNL     1     -35.674  14.084  -4.749  1.00 20.00     0.143 C 
HETATM    2  C2  UNL     1     -36.132  15.094  -5.815  1.00 20.00     0.082 C 
HETATM    3  C3  UNL     1     -35.288  16.175  -5.070  1.00 20.00     0.146 C 
HETATM    4  C4  UNL     1     -34.709  15.101  -4.081  1.00 20.00     0.040 C 
HETATM    5  C5  UNL     1     -35.744  14.740  -7.239  1.00 20.00     0.020 C 
HETATM    6  C6  UNL     1     -33.237  14.739  -4.268  1.00 20.00     0.026 C 
HETATM    7  C7  UNL     1     -35.035  15.380  -2.616  1.00 20.00     0.026 C 
HETATM    8  O9  UNL     1     -35.954  12.925  -4.526  1.00 20.00    -0.297 OA
ENDROOT
BRANCH   3   9
HETATM    9  O10 UNL     1     -34.331  16.899  -5.868  1.00 20.00    -0.389 OA
HETATM   10  C8  UNL     1     -34.425  18.289  -5.624  1.00 20.00     0.202 C 
ENDBRANCH   3   9
TORSDOF 1
ENDMDL
MODEL 2
REMARK VINA RESULT:      -4.0      1.341      1.984
REMARK  1 active torsions:
REMARK  status: ('A' for Active; 'I' for Inactive)
REMARK    1  A    between atoms: C3_3  and  O10_10 
ROOT
HETATM    1  C1  UNL     1     -35.735  13.783  -4.420  1.00 20.00     0.143 C 
HETATM    2  C2  UNL     1     -36.622  14.870  -3.791  1.00 20.00     0.082 C 
HETATM    3  C3  UNL     1     -35.515  15.906  -4.159  1.00 20.00     0.146 C 
HETATM    4  C4  UNL     1     -34.692  14.814  -4.932  1.00 20.00     0.040 C 
HETATM    5  C5  UNL     1     -37.990  15.026  -4.428  1.00 20.00     0.020 C 
HETATM    6  C6  UNL     1     -34.674  14.937  -6.454  1.00 20.00     0.026 C 
HETATM    7  C7  UNL     1     -33.290  14.594  -4.371  1.00 20.00     0.026 C 
HETATM    8  O9  UNL     1     -35.826  12.575  -4.496  1.00 20.00    -0.297 OA
ENDROOT
BRANCH   3   9
HETATM    9  O10 UNL     1     -35.942  17.052  -4.923  1.00 20.00    -0.389 OA
HETATM   10  C8  UNL     1     -35.463  18.248  -4.342  1.00 20.00     0.202 C 
ENDBRANCH   3   9
TORSDOF 1
ENDMDL
MODEL 3
REMARK VINA RESULT:      -3.9      1.279      2.840
REMARK  1 active torsions:
REMARK  status: ('A' for Active; 'I' for Inactive)
REMARK    1  A    between atoms: C3_3  and  O10_10 
ROOT
HETATM    1  C1  UNL     1     -34.227  14.411  -4.292  1.00 20.00     0.143 C 
HETATM    2  C2  UNL     1     -33.940  15.666  -3.450  1.00 20.00     0.082 C 
HETATM    3  C3  UNL     1     -34.225  16.517  -4.726  1.00 20.00     0.146 C 
HETATM    4  C4  UNL     1     -34.663  15.242  -5.530  1.00 20.00     0.040 C 
HETATM    5  C5  UNL     1     -34.849  15.850  -2.248  1.00 20.00     0.020 C 
HETATM    6  C6  UNL     1     -36.154  15.118  -5.836  1.00 20.00     0.026 C 
HETATM    7  C7  UNL     1     -33.813  14.980  -6.771  1.00 20.00     0.026 C 
HETATM    8  O9  UNL     1     -34.151  13.222  -4.066  1.00 20.00    -0.297 OA
ENDROOT
BRANCH   3   9
HETATM    9  O10 UNL     1     -35.209  17.562  -4.588  1.00 20.00    -0.389 OA
HETATM   10  C8  UNL     1     -34.701  18.794  -5.061  1.00 20.00     0.202 C 
ENDBRANCH   3   9
TORSDOF 1
ENDMDL
MODEL 4
REMARK VINA RESULT:      -3.7      1.776      3.149
REMARK  1 active torsions:
REMARK  status: ('A' for Active; 'I' for Inactive)
REMARK    1  A    between atoms: C3_3  and  O10_10 
ROOT
HETATM    1  C1  UNL     1     -34.040  14.743  -4.541  1.00 20.00     0.143 C 
HETATM    2  C2  UNL     1     -34.131  16.135  -3.893  1.00 20.00     0.082 C 
HETATM    3  C3  UNL     1     -35.509  16.312  -4.603  1.00 20.00     0.146 C 
HETATM    4  C4  UNL     1     -35.474  14.834  -5.132  1.00 20.00     0.040 C 
HETATM    5  C5  UNL     1     -34.102  16.136  -2.376  1.00 20.00     0.020 C 
HETATM    6  C6  UNL     1     -36.452  13.861  -4.476  1.00 20.00     0.026 C 
HETATM    7  C7  UNL     1     -35.514  14.728  -6.654  1.00 20.00     0.026 C 
HETATM    8  O9  UNL     1     -33.176  13.892  -4.567  1.00 20.00    -0.297 OA
ENDROOT
BRANCH   3   9
HETATM    9  O10 UNL     1     -36.621  16.668  -3.757  1.00 20.00    -0.389 OA
HETATM   10  C8  UNL     1     -37.310  17.787  -4.280  1.00 20.00     0.202 C 
ENDBRANCH   3   9
TORSDOF 1
ENDMDL
MODEL 5
REMARK VINA RESULT:      -3.7      2.012      2.657
REMARK  1 active torsions:
REMARK  status: ('A' for Active; 'I' for Inactive)
REMARK    1  A    between atoms: C3_3  and  O10_10 
ROOT
HETATM    1  C1  UNL     1     -34.017  14.641  -4.105  1.00 20.00     0.143 C 
HETATM    2  C2  UNL     1     -35.446  14.327  -3.630  1.00 20.00     0.082 C 
HETATM    3  C3  UNL     1     -35.553  15.810  -3.158  1.00 20.00     0.146 C 
HETATM    4  C4  UNL     1     -34.155  16.154  -3.785  1.00 20.00     0.040 C 
HETATM    5  C5  UNL     1     -36.391  13.851  -4.717  1.00 20.00     0.020 C 
HETATM    6  C6  UNL     1     -34.176  17.029  -5.037  1.00 20.00     0.026 C 
HETATM    7  C7  UNL     1     -33.136  16.658  -2.767  1.00 20.00     0.026 C 
HETATM    8  O9  UNL     1     -33.125  13.960  -4.568  1.00 20.00    -0.297 OA
ENDROOT
BRANCH   3   9
HETATM    9  O10 UNL     1     -36.683  16.557  -3.653  1.00 20.00    -0.389 OA
HETATM   10  C8  UNL     1     -37.145  17.471  -2.679  1.00 20.00     0.202 C 
ENDBRANCH   3   9
TORSDOF 1
ENDMDL
MODEL 6
REMARK VINA RESULT:      -3.7      1.724      2.718
REMARK  1 active torsions:
REMARK  status: ('A' for Active; 'I' for Inactive)
REMARK    1  A    between atoms: C3_3  and  O10_10 
ROOT
HETATM    1  C1  UNL     1     -35.770  14.399  -5.331  1.00 20.00     0.143 C 
HETATM    2  C2  UNL     1     -36.674  14.443  -4.088  1.00 20.00     0.082 C 
HETATM    3  C3  UNL     1     -35.517  15.179  -3.343  1.00 20.00     0.146 C 
HETATM    4  C4  UNL     1     -34.667  15.263  -4.660  1.00 20.00     0.040 C 
HETATM    5  C5  UNL     1     -37.987  15.180  -4.279  1.00 20.00     0.020 C 
HETATM    6  C6  UNL     1     -34.532  16.649  -5.287  1.00 20.00     0.026 C 
HETATM    7  C7  UNL     1     -33.316  14.559  -4.561  1.00 20.00     0.026 C 
HETATM    8  O9  UNL     1     -35.885  13.889  -6.426  1.00 20.00    -0.297 OA
ENDROOT
BRANCH   3   9
HETATM    9  O10 UNL     1     -35.859  16.431  -2.715  1.00 20.00    -0.389 OA
HETATM   10  C8  UNL     1     -35.168  16.582  -1.491  1.00 20.00     0.202 C 
ENDBRANCH   3   9
TORSDOF 1
ENDMDL
MODEL 7
REMARK VINA RESULT:      -3.7      2.242      3.582
REMARK  1 active torsions:
REMARK  status: ('A' for Active; 'I' for Inactive)
REMARK    1  A    between atoms: C3_3  and  O10_10 
ROOT
HETATM    1  C1  UNL     1     -35.344  15.498  -3.171  1.00 20.00     0.143 C 
HETATM    2  C2  UNL     1     -35.019  16.205  -1.845  1.00 20.00     0.082 C 
HETATM    3  C3  UNL     1     -33.610  16.532  -2.430  1.00 20.00     0.146 C 
HETATM    4  C4  UNL     1     -34.009  15.943  -3.830  1.00 20.00     0.040 C 
HETATM    5  C5  UNL     1     -35.937  17.363  -1.496  1.00 20.00     0.020 C 
HETATM    6  C6  UNL     1     -34.208  16.957  -4.954  1.00 20.00     0.026 C 
HETATM    7  C7  UNL     1     -33.130  14.777  -4.276  1.00 20.00     0.026 C 
HETATM    8  O9  UNL     1     -36.293  14.849  -3.558  1.00 20.00    -0.297 OA
ENDROOT
BRANCH   3   9
HETATM    9  O10 UNL     1     -33.214  17.919  -2.403  1.00 20.00    -0.389 OA
HETATM   10  C8  UNL     1     -32.150  18.117  -1.494  1.00 20.00     0.202 C 
ENDBRANCH   3   9
TORSDOF 1
ENDMDL
MODEL 8
REMARK VINA RESULT:      -3.6      1.603      2.131
REMARK  1 active torsions:
REMARK  status: ('A' for Active; 'I' for Inactive)
REMARK    1  A    between atoms: C3_3  and  O10_10 
ROOT
HETATM    1  C1  UNL     1     -36.072  13.872  -5.030  1.00 20.00     0.143 C 
HETATM    2  C2  UNL     1     -35.672  14.616  -6.315  1.00 20.00     0.082 C 
HETATM    3  C3  UNL     1     -36.595  15.788  -5.855  1.00 20.00     0.146 C 
HETATM    4  C4  UNL     1     -36.873  15.083  -4.479  1.00 20.00     0.040 C 
HETATM    5  C5  UNL     1     -34.186  14.889  -6.459  1.00 20.00     0.020 C 
HETATM    6  C6  UNL     1     -36.222  15.721  -3.254  1.00 20.00     0.026 C 
HETATM    7  C7  UNL     1     -38.349  14.779  -4.235  1.00 20.00     0.026 C 
HETATM    8  O9  UNL     1     -35.837  12.760  -4.605  1.00 20.00    -0.297 OA
ENDROOT
BRANCH   3   9
HETATM    9  O10 UNL     1     -35.988  17.094  -5.800  1.00 20.00    -0.389 OA
HETATM   10  C8  UNL     1     -36.783  18.045  -6.480  1.00 20.00     0.202 C 
ENDBRANCH   3   9
TORSDOF 1
ENDMDL
MODEL 9
REMARK VINA RESULT:      -3.5      1.771      2.434
REMARK  1 active torsions:
REMARK  status: ('A' for Active; 'I' for Inactive)
REMARK    1  A    between atoms: C3_3  and  O10_10 
ROOT
HETATM    1  C1  UNL     1     -35.084  15.610  -3.284  1.00 20.00     0.143 C 
HETATM    2  C2  UNL     1     -35.914  15.133  -4.487  1.00 20.00     0.082 C 
HETATM    3  C3  UNL     1     -34.764  15.644  -5.410  1.00 20.00     0.146 C 
HETATM    4  C4  UNL     1     -33.864  15.986  -4.170  1.00 20.00     0.040 C 
HETATM    5  C5  UNL     1     -36.232  13.649  -4.495  1.00 20.00     0.020 C 
HETATM    6  C6  UNL     1     -32.659  15.076  -3.942  1.00 20.00     0.026 C 
HETATM    7  C7  UNL     1     -33.478  17.460  -4.082  1.00 20.00     0.026 C 
HETATM    8  O9  UNL     1     -35.300  15.661  -2.091  1.00 20.00    -0.297 OA
ENDROOT
BRANCH   3   9
HETATM    9  O10 UNL     1     -34.230  14.691  -6.351  1.00 20.00    -0.389 OA
HETATM   10  C8  UNL     1     -34.023  15.296  -7.612  1.00 20.00     0.202 C 
ENDBRANCH   3   9
TORSDOF 1
ENDMDL
