MODEL 1
REMARK VINA RESULT:      -5.5      0.000      0.000
REMARK  0 active torsions:
REMARK  status: ('A' for Active; 'I' for Inactive)
ROOT
HETATM    1  C1  UNL     1     -36.536  15.372  -4.190  1.00 20.00     0.068 C 
HETATM    2  C2  UNL     1     -35.245  16.678  -1.455  1.00 20.00     0.010 A 
HETATM    3  C3  UNL     1     -34.370  17.637  -0.940  1.00 20.00     0.019 A 
HETATM    4  C4  UNL     1     -32.654  16.997  -2.544  1.00 20.00     0.026 A 
HETATM    5  C5  UNL     1     -34.811  15.886  -2.506  1.00 20.00    -0.034 A 
HETATM    6  C6  UNL     1     -33.524  16.041  -3.040  1.00 20.00    -0.049 A 
HETATM    7  C7  UNL     1     -33.084  17.796  -1.482  1.00 20.00     0.011 A 
HETATM    8  C8  UNL     1     -33.302  15.103  -4.183  1.00 20.00     0.041 C 
HETATM    9  C9  UNL     1     -34.422  14.074  -3.946  1.00 20.00     0.028 C 
HETATM   10  C10 UNL     1     -35.574  14.815  -3.232  1.00 20.00     0.126 C 
HETATM   11  N11 UNL     1     -37.297  15.813  -4.947  1.00 20.00    -0.197 NA
HETATM   12 BR12 UNL     1     -31.925  19.111  -0.769  1.00 20.00    -0.051 Br
ENDROOT
TORSDOF 0
ENDMDL
MODEL 2
REMARK VINA RESULT:      -5.2      1.880      2.308
REMARK  0 active torsions:
REMARK  status: ('A' for Active; 'I' for Inactive)
ROOT
HETATM    1  C1  UNL     1     -37.007  14.138  -4.580  1.00 20.00     0.068 C 
HETATM    2  C2  UNL     1     -34.324  15.290  -3.054  1.00 20.00     0.010 A 
HETATM    3  C3  UNL     1     -33.664  16.431  -2.592  1.00 20.00     0.019 A 
HETATM    4  C4  UNL     1     -34.082  17.581  -4.696  1.00 20.00     0.026 A 
HETATM    5  C5  UNL     1     -34.851  15.308  -4.336  1.00 20.00    -0.034 A 
HETATM    6  C6  UNL     1     -34.724  16.441  -5.151  1.00 20.00    -0.049 A 
HETATM    7  C7  UNL     1     -33.545  17.568  -3.407  1.00 20.00     0.011 A 
HETATM    8  C8  UNL     1     -35.400  16.232  -6.468  1.00 20.00     0.041 C 
HETATM    9  C9  UNL     1     -35.521  14.698  -6.501  1.00 20.00     0.028 C 
HETATM   10  C10 UNL     1     -35.614  14.220  -5.036  1.00 20.00     0.126 C 
HETATM   11  N11 UNL     1     -38.107  14.074  -4.219  1.00 20.00    -0.197 NA
HETATM   12 BR12 UNL     1     -32.654  19.102  -2.747  1.00 20.00    -0.051 Br
ENDROOT
TORSDOF 0
ENDMDL
MODEL 3
REMARK VINA RESULT:      -4.9      3.394      4.925
REMARK  0 active torsions:
REMARK  status: ('A' for Active; 'I' for Inactive)
ROOT
HETATM    1  C1  UNL     1     -33.277  18.065   1.647  1.00 20.00     0.068 C 
HETATM    2  C2  UNL     1     -35.273  17.176  -0.818  1.00 20.00     0.010 A 
HETATM    3  C3  UNL     1     -35.481  16.271  -1.862  1.00 20.00     0.019 A 
HETATM    4  C4  UNL     1     -33.176  16.527  -2.601  1.00 20.00     0.026 A 
HETATM    5  C5  UNL     1     -34.019  17.750  -0.682  1.00 20.00    -0.034 A 
HETATM    6  C6  UNL     1     -32.983  17.432  -1.571  1.00 20.00    -0.049 A 
HETATM    7  C7  UNL     1     -34.439  15.948  -2.746  1.00 20.00     0.011 A 
HETATM    8  C8  UNL     1     -31.722  18.146  -1.200  1.00 20.00     0.041 C 
HETATM    9  C9  UNL     1     -32.268  19.263  -0.293  1.00 20.00     0.028 C 
HETATM   10  C10 UNL     1     -33.557  18.723   0.364  1.00 20.00     0.126 C 
HETATM   11  N11 UNL     1     -33.057  17.545   2.660  1.00 20.00    -0.197 NA
HETATM   12 BR12 UNL     1     -34.748  14.711  -4.143  1.00 20.00    -0.051 Br
ENDROOT
TORSDOF 0
ENDMDL
MODEL 4
REMARK VINA RESULT:      -4.8      1.862      2.747
REMARK  0 active torsions:
REMARK  status: ('A' for Active; 'I' for Inactive)
ROOT
HETATM    1  C1  UNL     1     -33.306  14.480  -4.468  1.00 20.00     0.068 C 
HETATM    2  C2  UNL     1     -32.859  17.162  -2.607  1.00 20.00     0.010 A 
HETATM    3  C3  UNL     1     -33.010  17.718  -1.335  1.00 20.00     0.019 A 
HETATM    4  C4  UNL     1     -35.288  16.873  -1.187  1.00 20.00     0.026 A 
HETATM    5  C5  UNL     1     -33.929  16.472  -3.156  1.00 20.00    -0.034 A 
HETATM    6  C6  UNL     1     -35.134  16.336  -2.454  1.00 20.00    -0.049 A 
HETATM    7  C7  UNL     1     -34.216  17.573  -0.629  1.00 20.00     0.011 A 
HETATM    8  C8  UNL     1     -36.119  15.525  -3.233  1.00 20.00     0.041 C 
HETATM    9  C9  UNL     1     -35.522  15.610  -4.649  1.00 20.00     0.028 C 
HETATM   10  C10 UNL     1     -33.995  15.777  -4.486  1.00 20.00     0.126 C 
HETATM   11  N11 UNL     1     -32.762  13.456  -4.453  1.00 20.00    -0.197 NA
HETATM   12 BR12 UNL     1     -34.385  18.329   1.097  1.00 20.00    -0.051 Br
ENDROOT
TORSDOF 0
ENDMDL
MODEL 5
REMARK VINA RESULT:      -4.8      1.529      2.564
REMARK  0 active torsions:
REMARK  status: ('A' for Active; 'I' for Inactive)
ROOT
HETATM    1  C1  UNL     1     -35.900  13.867  -4.663  1.00 20.00     0.068 C 
HETATM    2  C2  UNL     1     -33.571  15.941  -3.602  1.00 20.00     0.010 A 
HETATM    3  C3  UNL     1     -33.090  16.672  -2.513  1.00 20.00     0.019 A 
HETATM    4  C4  UNL     1     -35.330  17.478  -2.007  1.00 20.00     0.026 A 
HETATM    5  C5  UNL     1     -34.927  15.993  -3.883  1.00 20.00    -0.034 A 
HETATM    6  C6  UNL     1     -35.796  16.760  -3.095  1.00 20.00    -0.049 A 
HETATM    7  C7  UNL     1     -33.963  17.433  -1.720  1.00 20.00     0.011 A 
HETATM    8  C8  UNL     1     -37.207  16.629  -3.572  1.00 20.00     0.041 C 
HETATM    9  C9  UNL     1     -36.992  16.083  -4.995  1.00 20.00     0.028 C 
HETATM   10  C10 UNL     1     -35.671  15.283  -4.977  1.00 20.00     0.126 C 
HETATM   11  N11 UNL     1     -36.079  12.748  -4.414  1.00 20.00    -0.197 NA
HETATM   12 BR12 UNL     1     -33.283  18.403  -0.246  1.00 20.00    -0.051 Br
ENDROOT
TORSDOF 0
ENDMDL
MODEL 6
REMARK VINA RESULT:      -4.5      2.105      2.539
REMARK  0 active torsions:
REMARK  status: ('A' for Active; 'I' for Inactive)
ROOT
HETATM    1  C1  UNL     1     -34.512  15.418  -6.916  1.00 20.00     0.068 C 
HETATM    2  C2  UNL     1     -34.197  17.902  -4.775  1.00 20.00     0.010 A 
HETATM    3  C3  UNL     1     -33.447  18.423  -3.719  1.00 20.00     0.019 A 
HETATM    4  C4  UNL     1     -33.416  16.256  -2.612  1.00 20.00     0.026 A 
HETATM    5  C5  UNL     1     -34.553  16.563  -4.734  1.00 20.00    -0.034 A 
HETATM    6  C6  UNL     1     -34.170  15.750  -3.658  1.00 20.00    -0.049 A 
HETATM    7  C7  UNL     1     -33.057  17.605  -2.646  1.00 20.00     0.011 A 
HETATM    8  C8  UNL     1     -34.639  14.345  -3.856  1.00 20.00     0.041 C 
HETATM    9  C9  UNL     1     -35.729  14.541  -4.925  1.00 20.00     0.028 C 
HETATM   10  C10 UNL     1     -35.331  15.782  -5.753  1.00 20.00     0.126 C 
HETATM   11  N11 UNL     1     -33.864  15.131  -7.834  1.00 20.00    -0.197 NA
HETATM   12 BR12 UNL     1     -32.031  18.338  -1.236  1.00 20.00    -0.051 Br
ENDROOT
TORSDOF 0
ENDMDL
MODEL 7
REMARK VINA RESULT:      -4.5      2.245      3.061
REMARK  0 active torsions:
REMARK  status: ('A' for Active; 'I' for Inactive)
ROOT
HETATM    1  C1  UNL     1     -35.570  13.927  -4.545  1.00 20.00     0.068 C 
HETATM    2  C2  UNL     1     -34.709  16.022  -2.153  1.00 20.00     0.010 A 
HETATM    3  C3  UNL     1     -35.166  16.809  -1.093  1.00 20.00     0.019 A 
HETATM    4  C4  UNL     1     -36.978  17.682  -2.463  1.00 20.00     0.026 A 
HETATM    5  C5  UNL     1     -35.391  16.080  -3.358  1.00 20.00    -0.034 A 
HETATM    6  C6  UNL     1     -36.511  16.908  -3.512  1.00 20.00    -0.049 A 
HETATM    7  C7  UNL     1     -36.293  17.632  -1.246  1.00 20.00     0.011 A 
HETATM    8  C8  UNL     1     -37.093  16.773  -4.882  1.00 20.00     0.041 C 
HETATM    9  C9  UNL     1     -35.917  16.138  -5.645  1.00 20.00     0.028 C 
HETATM   10  C10 UNL     1     -35.104  15.318  -4.619  1.00 20.00     0.126 C 
HETATM   11  N11 UNL     1     -35.938  12.829  -4.486  1.00 20.00    -0.197 NA
HETATM   12 BR12 UNL     1     -36.893  18.677   0.212  1.00 20.00    -0.051 Br
ENDROOT
TORSDOF 0
ENDMDL
MODEL 8
REMARK VINA RESULT:      -4.4      1.678      2.670
REMARK  0 active torsions:
REMARK  status: ('A' for Active; 'I' for Inactive)
ROOT
HETATM    1  C1  UNL     1     -37.074  14.634  -4.806  1.00 20.00     0.068 C 
HETATM    2  C2  UNL     1     -33.973  15.443  -4.043  1.00 20.00     0.010 A 
HETATM    3  C3  UNL     1     -33.145  16.087  -3.121  1.00 20.00     0.019 A 
HETATM    4  C4  UNL     1     -34.632  18.014  -3.065  1.00 20.00     0.026 A 
HETATM    5  C5  UNL     1     -35.119  16.096  -4.470  1.00 20.00    -0.034 A 
HETATM    6  C6  UNL     1     -35.440  17.373  -3.989  1.00 20.00    -0.049 A 
HETATM    7  C7  UNL     1     -33.474  17.363  -2.634  1.00 20.00     0.011 A 
HETATM    8  C8  UNL     1     -36.733  17.852  -4.565  1.00 20.00     0.041 C 
HETATM    9  C9  UNL     1     -36.882  16.920  -5.781  1.00 20.00     0.028 C 
HETATM   10  C10 UNL     1     -36.161  15.600  -5.430  1.00 20.00     0.126 C 
HETATM   11  N11 UNL     1     -37.795  13.871  -4.313  1.00 20.00    -0.197 NA
HETATM   12 BR12 UNL     1     -32.338  18.204  -1.377  1.00 20.00    -0.051 Br
ENDROOT
TORSDOF 0
ENDMDL
MODEL 9
REMARK VINA RESULT:      -4.4      3.343      4.769
REMARK  0 active torsions:
REMARK  status: ('A' for Active; 'I' for Inactive)
ROOT
HETATM    1  C1  UNL     1     -32.564  18.191  -1.768  1.00 20.00     0.068 C 
HETATM    2  C2  UNL     1     -33.190  15.540  -3.622  1.00 20.00     0.010 A 
HETATM    3  C3  UNL     1     -33.726  15.079  -4.826  1.00 20.00     0.019 A 
HETATM    4  C4  UNL     1     -35.697  16.477  -4.538  1.00 20.00     0.026 A 
HETATM    5  C5  UNL     1     -33.919  16.462  -2.887  1.00 20.00    -0.034 A 
HETATM    6  C6  UNL     1     -35.164  16.920  -3.339  1.00 20.00    -0.049 A 
HETATM    7  C7  UNL     1     -34.969  15.545  -5.282  1.00 20.00     0.011 A 
HETATM    8  C8  UNL     1     -35.737  17.930  -2.398  1.00 20.00     0.041 C 
HETATM    9  C9  UNL     1     -34.913  17.655  -1.127  1.00 20.00     0.028 C 
HETATM   10  C10 UNL     1     -33.543  17.112  -1.586  1.00 20.00     0.126 C 
HETATM   11  N11 UNL     1     -31.791  19.044  -1.913  1.00 20.00    -0.197 NA
HETATM   12 BR12 UNL     1     -35.663  14.909  -6.923  1.00 20.00    -0.051 Br
ENDROOT
TORSDOF 0
ENDMDL
