MODEL 1
REMARK VINA RESULT:      -3.9      0.000      0.000
REMARK  1 active torsions:
REMARK  status: ('A' for Active; 'I' for Inactive)
REMARK       I    between atoms: C1_1  and  N5_5 
REMARK    1  A    between atoms: C4_4  and  N5_5 
ROOT
HETATM    1  C1  UNL     1     -32.964   6.293   2.644  1.00 20.00     0.314 C 
HETATM    2  N5  UNL     1     -33.434   6.624   3.914  1.00 20.00    -0.343 N 
HETATM    3  O6  UNL     1     -32.843   5.132   2.256  1.00 20.00    -0.254 OA
HETATM    4 CL7  UNL     1     -32.574   7.700   1.690  1.00 20.00    -0.020 Cl
HETATM    5  H13 UNL     1     -33.504   7.616   4.160  1.00 20.00     0.164 HD
ENDROOT
BRANCH   2   6
HETATM    6  C4  UNL     1     -33.819   5.663   4.883  1.00 20.00     0.085 A 
HETATM    7  C2  UNL     1     -34.673   6.043   6.060  1.00 20.00     0.027 A 
HETATM    8  C3  UNL     1     -35.237   5.173   4.975  1.00 20.00     0.027 A 
ENDBRANCH   2   6
TORSDOF 1
ENDMDL
MODEL 2
REMARK VINA RESULT:      -3.8      1.761      1.894
REMARK  1 active torsions:
REMARK  status: ('A' for Active; 'I' for Inactive)
REMARK       I    between atoms: C1_1  and  N5_5 
REMARK    1  A    between atoms: C4_4  and  N5_5 
ROOT
HETATM    1  C1  UNL     1     -33.397   5.427   2.782  1.00 20.00     0.314 C 
HETATM    2  N5  UNL     1     -34.326   5.012   3.734  1.00 20.00    -0.343 N 
HETATM    3  O6  UNL     1     -32.957   6.574   2.731  1.00 20.00    -0.254 OA
HETATM    4 CL7  UNL     1     -32.944   4.144   1.689  1.00 20.00    -0.020 Cl
HETATM    5  H13 UNL     1     -34.643   4.038   3.708  1.00 20.00     0.164 HD
ENDROOT
BRANCH   2   6
HETATM    6  C4  UNL     1     -34.856   5.863   4.737  1.00 20.00     0.085 A 
HETATM    7  C2  UNL     1     -34.885   5.444   6.180  1.00 20.00     0.027 A 
HETATM    8  C3  UNL     1     -33.962   6.541   5.737  1.00 20.00     0.027 A 
ENDBRANCH   2   6
TORSDOF 1
ENDMDL
MODEL 3
REMARK VINA RESULT:      -3.6      2.462      3.637
REMARK  1 active torsions:
REMARK  status: ('A' for Active; 'I' for Inactive)
REMARK       I    between atoms: C1_1  and  N5_5 
REMARK    1  A    between atoms: C4_4  and  N5_5 
ROOT
HETATM    1  C1  UNL     1     -34.381   5.121   4.482  1.00 20.00     0.314 C 
HETATM    2  N5  UNL     1     -33.740   6.272   4.029  1.00 20.00    -0.343 N 
HETATM    3  O6  UNL     1     -34.362   4.057   3.867  1.00 20.00    -0.254 OA
HETATM    4 CL7  UNL     1     -35.202   5.369   6.002  1.00 20.00    -0.020 Cl
HETATM    5  H13 UNL     1     -33.805   7.119   4.602  1.00 20.00     0.164 HD
ENDROOT
BRANCH   2   6
HETATM    6  C4  UNL     1     -33.002   6.335   2.820  1.00 20.00     0.085 A 
HETATM    7  C2  UNL     1     -33.093   7.531   1.913  1.00 20.00     0.027 A 
HETATM    8  C3  UNL     1     -31.826   7.259   2.670  1.00 20.00     0.027 A 
ENDBRANCH   2   6
TORSDOF 1
ENDMDL
MODEL 4
REMARK VINA RESULT:      -3.6     16.734     17.129
REMARK  1 active torsions:
REMARK  status: ('A' for Active; 'I' for Inactive)
REMARK       I    between atoms: C1_1  and  N5_5 
REMARK    1  A    between atoms: C4_4  and  N5_5 
ROOT
HETATM    1  C1  UNL     1     -23.503  16.687  11.561  1.00 20.00     0.314 C 
HETATM    2  N5  UNL     1     -23.163  16.550  10.217  1.00 20.00    -0.343 N 
HETATM    3  O6  UNL     1     -22.939  17.476  12.317  1.00 20.00    -0.254 OA
HETATM    4 CL7  UNL     1     -24.802  15.622  12.033  1.00 20.00    -0.020 Cl
HETATM    5  H13 UNL     1     -23.682  15.869   9.654  1.00 20.00     0.164 HD
ENDROOT
BRANCH   2   6
HETATM    6  C4  UNL     1     -22.139  17.300   9.585  1.00 20.00     0.085 A 
HETATM    7  C2  UNL     1     -22.159  17.553   8.103  1.00 20.00     0.027 A 
HETATM    8  C3  UNL     1     -22.398  18.685   9.060  1.00 20.00     0.027 A 
ENDBRANCH   2   6
TORSDOF 1
ENDMDL
MODEL 5
REMARK VINA RESULT:      -3.5     16.598     16.811
REMARK  1 active torsions:
REMARK  status: ('A' for Active; 'I' for Inactive)
REMARK       I    between atoms: C1_1  and  N5_5 
REMARK    1  A    between atoms: C4_4  and  N5_5 
ROOT
HETATM    1  C1  UNL     1     -22.132  17.780   8.687  1.00 20.00     0.314 C 
HETATM    2  N5  UNL     1     -22.915  16.885   9.414  1.00 20.00    -0.343 N 
HETATM    3  O6  UNL     1     -22.053  18.976   8.960  1.00 20.00    -0.254 OA
HETATM    4 CL7  UNL     1     -21.293  17.010   7.365  1.00 20.00    -0.020 Cl
HETATM    5  H13 UNL     1     -22.926  15.904   9.121  1.00 20.00     0.164 HD
ENDROOT
BRANCH   2   6
HETATM    6  C4  UNL     1     -23.697  17.259  10.537  1.00 20.00     0.085 A 
HETATM    7  C2  UNL     1     -24.268  16.225  11.467  1.00 20.00     0.027 A 
HETATM    8  C3  UNL     1     -23.165  17.128  11.937  1.00 20.00     0.027 A 
ENDBRANCH   2   6
TORSDOF 1
ENDMDL
MODEL 6
REMARK VINA RESULT:      -3.4     15.789     15.997
REMARK  1 active torsions:
REMARK  status: ('A' for Active; 'I' for Inactive)
REMARK       I    between atoms: C1_1  and  N5_5 
REMARK    1  A    between atoms: C4_4  and  N5_5 
ROOT
HETATM    1  C1  UNL     1     -24.956  18.840   7.423  1.00 20.00     0.314 C 
HETATM    2  N5  UNL     1     -25.235  18.570   8.761  1.00 20.00    -0.343 N 
HETATM    3  O6  UNL     1     -23.819  18.811   6.956  1.00 20.00    -0.254 OA
HETATM    4 CL7  UNL     1     -26.392  19.219   6.506  1.00 20.00    -0.020 Cl
HETATM    5  H13 UNL     1     -26.210  18.616   9.071  1.00 20.00     0.164 HD
ENDROOT
BRANCH   2   6
HETATM    6  C4  UNL     1     -24.242  18.236   9.717  1.00 20.00     0.085 A 
HETATM    7  C2  UNL     1     -24.607  17.913  11.139  1.00 20.00     0.027 A 
HETATM    8  C3  UNL     1     -24.097  16.831  10.233  1.00 20.00     0.027 A 
ENDBRANCH   2   6
TORSDOF 1
ENDMDL
MODEL 7
REMARK VINA RESULT:      -3.4     12.494     12.785
REMARK  1 active torsions:
REMARK  status: ('A' for Active; 'I' for Inactive)
REMARK       I    between atoms: C1_1  and  N5_5 
REMARK    1  A    between atoms: C4_4  and  N5_5 
ROOT
HETATM    1  C1  UNL     1     -34.265  15.064  -5.945  1.00 20.00     0.314 C 
HETATM    2  N5  UNL     1     -33.524  15.787  -5.012  1.00 20.00    -0.343 N 
HETATM    3  O6  UNL     1     -34.957  14.093  -5.643  1.00 20.00    -0.254 OA
HETATM    4 CL7  UNL     1     -34.093  15.691  -7.564  1.00 20.00    -0.020 Cl
HETATM    5  H13 UNL     1     -32.973  16.583  -5.345  1.00 20.00     0.164 HD
ENDROOT
BRANCH   2   6
HETATM    6  C4  UNL     1     -33.491  15.481  -3.627  1.00 20.00     0.085 A 
HETATM    7  C2  UNL     1     -33.347  16.563  -2.593  1.00 20.00     0.027 A 
HETATM    8  C3  UNL     1     -34.645  15.821  -2.726  1.00 20.00     0.027 A 
ENDBRANCH   2   6
TORSDOF 1
ENDMDL
MODEL 8
REMARK VINA RESULT:      -3.3     16.083     16.291
REMARK  1 active torsions:
REMARK  status: ('A' for Active; 'I' for Inactive)
REMARK       I    between atoms: C1_1  and  N5_5 
REMARK    1  A    between atoms: C4_4  and  N5_5 
ROOT
HETATM    1  C1  UNL     1     -24.075  18.873   8.599  1.00 20.00     0.314 C 
HETATM    2  N5  UNL     1     -24.836  18.084   9.459  1.00 20.00    -0.343 N 
HETATM    3  O6  UNL     1     -22.941  19.262   8.874  1.00 20.00    -0.254 OA
HETATM    4 CL7  UNL     1     -24.911  19.236   7.111  1.00 20.00    -0.020 Cl
HETATM    5  H13 UNL     1     -25.772  17.802   9.155  1.00 20.00     0.164 HD
ENDROOT
BRANCH   2   6
HETATM    6  C4  UNL     1     -24.385  17.651  10.732  1.00 20.00     0.085 A 
HETATM    7  C2  UNL     1     -25.347  17.133  11.765  1.00 20.00     0.027 A 
HETATM    8  C3  UNL     1     -24.381  16.194  11.104  1.00 20.00     0.027 A 
ENDBRANCH   2   6
TORSDOF 1
ENDMDL
MODEL 9
REMARK VINA RESULT:      -3.3     12.167     12.458
REMARK  1 active torsions:
REMARK  status: ('A' for Active; 'I' for Inactive)
REMARK       I    between atoms: C1_1  and  N5_5 
REMARK    1  A    between atoms: C4_4  and  N5_5 
ROOT
HETATM    1  C1  UNL     1     -37.658  14.740  -4.198  1.00 20.00     0.314 C 
HETATM    2  N5  UNL     1     -36.733  15.555  -3.550  1.00 20.00    -0.343 N 
HETATM    3  O6  UNL     1     -37.428  13.569  -4.495  1.00 20.00    -0.254 OA
HETATM    4 CL7  UNL     1     -39.157  15.568  -4.534  1.00 20.00    -0.020 Cl
HETATM    5  H13 UNL     1     -37.003  16.520  -3.339  1.00 20.00     0.164 HD
ENDROOT
BRANCH   2   6
HETATM    6  C4  UNL     1     -35.438  15.122  -3.167  1.00 20.00     0.085 A 
HETATM    7  C2  UNL     1     -34.202  15.742  -3.757  1.00 20.00     0.027 A 
HETATM    8  C3  UNL     1     -34.546  15.984  -2.316  1.00 20.00     0.027 A 
ENDBRANCH   2   6
TORSDOF 1
ENDMDL
