MODEL 1
REMARK VINA RESULT:      -4.1      0.000      0.000
REMARK  0 active torsions:
REMARK  status: ('A' for Active; 'I' for Inactive)
ROOT
HETATM    1  C1  UNL     1     -22.147  18.149  10.690  1.00 20.00     0.007 C 
HETATM    2  C2  UNL     1     -22.838  17.404  11.842  1.00 20.00     0.027 C 
HETATM    3  C3  UNL     1     -24.362  18.786   9.722  1.00 20.00     0.027 C 
HETATM    4  C4  UNL     1     -23.623  16.507   9.788  1.00 20.00     0.032 C 
HETATM    5  C5  UNL     1     -23.105  17.920   9.506  1.00 20.00    -0.011 C 
HETATM    6  C6  UNL     1     -25.114  18.025  10.830  1.00 20.00     0.106 C 
HETATM    7  C7  UNL     1     -24.131  16.886  11.183  1.00 20.00     0.054 C 
HETATM    8 CL8  UNL     1     -25.561  19.065  12.194  1.00 20.00    -0.123 Cl
HETATM    9 CL9  UNL     1     -24.874  15.562  12.067  1.00 20.00    -0.118 Cl
ENDROOT
TORSDOF 0
ENDMDL
MODEL 2
REMARK VINA RESULT:      -4.1     23.118     23.948
REMARK  0 active torsions:
REMARK  status: ('A' for Active; 'I' for Inactive)
ROOT
HETATM    1  C1  UNL     1     -42.688   8.792   0.067  1.00 20.00     0.007 C 
HETATM    2  C2  UNL     1     -43.417   7.541   0.580  1.00 20.00     0.027 C 
HETATM    3  C3  UNL     1     -41.319   7.401  -1.494  1.00 20.00     0.027 C 
HETATM    4  C4  UNL     1     -41.083   7.229   0.885  1.00 20.00     0.032 C 
HETATM    5  C5  UNL     1     -41.269   8.271  -0.222  1.00 20.00    -0.011 C 
HETATM    6  C6  UNL     1     -41.986   6.106  -0.996  1.00 20.00     0.106 C 
HETATM    7  C7  UNL     1     -42.335   6.449   0.470  1.00 20.00     0.054 C 
HETATM    8 CL8  UNL     1     -43.370   5.621  -1.991  1.00 20.00    -0.123 Cl
HETATM    9 CL9  UNL     1     -42.671   5.040   1.464  1.00 20.00    -0.118 Cl
ENDROOT
TORSDOF 0
ENDMDL
MODEL 3
REMARK VINA RESULT:      -3.9     17.505     18.204
REMARK  0 active torsions:
REMARK  status: ('A' for Active; 'I' for Inactive)
ROOT
HETATM    1  C1  UNL     1     -33.899  16.761  -2.086  1.00 20.00     0.007 C 
HETATM    2  C2  UNL     1     -35.028  15.746  -2.321  1.00 20.00     0.027 C 
HETATM    3  C3  UNL     1     -34.000  17.484  -4.477  1.00 20.00     0.027 C 
HETATM    4  C4  UNL     1     -33.273  15.286  -3.853  1.00 20.00     0.032 C 
HETATM    5  C5  UNL     1     -33.141  16.751  -3.426  1.00 20.00    -0.011 C 
HETATM    6  C6  UNL     1     -35.108  16.460  -4.786  1.00 20.00     0.106 C 
HETATM    7  C7  UNL     1     -34.803  15.322  -3.786  1.00 20.00     0.054 C 
HETATM    8 CL8  UNL     1     -36.736  17.149  -4.648  1.00 20.00    -0.123 Cl
HETATM    9 CL9  UNL     1     -35.580  13.800  -4.192  1.00 20.00    -0.118 Cl
ENDROOT
TORSDOF 0
ENDMDL
MODEL 4
REMARK VINA RESULT:      -3.8     17.063     17.852
REMARK  0 active torsions:
REMARK  status: ('A' for Active; 'I' for Inactive)
ROOT
HETATM    1  C1  UNL     1     -34.420  14.698  -3.933  1.00 20.00     0.007 C 
HETATM    2  C2  UNL     1     -33.198  15.577  -3.627  1.00 20.00     0.027 C 
HETATM    3  C3  UNL     1     -35.890  16.715  -4.056  1.00 20.00     0.027 C 
HETATM    4  C4  UNL     1     -34.870  16.021  -2.001  1.00 20.00     0.032 C 
HETATM    5  C5  UNL     1     -35.570  15.449  -3.237  1.00 20.00    -0.011 C 
HETATM    6  C6  UNL     1     -34.713  17.648  -3.716  1.00 20.00     0.106 C 
HETATM    7  C7  UNL     1     -33.814  16.749  -2.838  1.00 20.00     0.054 C 
HETATM    8 CL8  UNL     1     -33.919  18.304  -5.159  1.00 20.00    -0.123 Cl
HETATM    9 CL9  UNL     1     -32.632  17.642  -1.893  1.00 20.00    -0.118 Cl
ENDROOT
TORSDOF 0
ENDMDL
MODEL 5
REMARK VINA RESULT:      -3.8     23.628     24.451
REMARK  0 active torsions:
REMARK  status: ('A' for Active; 'I' for Inactive)
ROOT
HETATM    1  C1  UNL     1     -41.197   8.000  -0.433  1.00 20.00     0.007 C 
HETATM    2  C2  UNL     1     -41.264   6.560  -0.965  1.00 20.00     0.027 C 
HETATM    3  C3  UNL     1     -43.273   7.640   0.912  1.00 20.00     0.027 C 
HETATM    4  C4  UNL     1     -43.309   7.649  -1.485  1.00 20.00     0.032 C 
HETATM    5  C5  UNL     1     -42.681   8.388  -0.299  1.00 20.00    -0.011 C 
HETATM    6  C6  UNL     1     -43.416   6.200   0.386  1.00 20.00     0.106 C 
HETATM    7  C7  UNL     1     -42.780   6.289  -1.019  1.00 20.00     0.054 C 
HETATM    8 CL8  UNL     1     -42.673   5.001   1.460  1.00 20.00    -0.123 Cl
HETATM    9 CL9  UNL     1     -43.205   4.949  -2.072  1.00 20.00    -0.118 Cl
ENDROOT
TORSDOF 0
ENDMDL
MODEL 6
REMARK VINA RESULT:      -3.8     18.155     18.927
REMARK  0 active torsions:
REMARK  status: ('A' for Active; 'I' for Inactive)
ROOT
HETATM    1  C1  UNL     1     -33.108  14.814  -4.219  1.00 20.00     0.007 C 
HETATM    2  C2  UNL     1     -34.050  15.005  -5.418  1.00 20.00     0.027 C 
HETATM    3  C3  UNL     1     -34.901  15.553  -2.643  1.00 20.00     0.027 C 
HETATM    4  C4  UNL     1     -33.918  17.057  -4.230  1.00 20.00     0.032 C 
HETATM    5  C5  UNL     1     -33.540  15.936  -3.258  1.00 20.00    -0.011 C 
HETATM    6  C6  UNL     1     -35.881  15.800  -3.805  1.00 20.00     0.106 C 
HETATM    7  C7  UNL     1     -34.937  16.182  -4.967  1.00 20.00     0.054 C 
HETATM    8 CL8  UNL     1     -36.927  14.405  -4.128  1.00 20.00    -0.123 Cl
HETATM    9 CL9  UNL     1     -35.750  16.985  -6.301  1.00 20.00    -0.118 Cl
ENDROOT
TORSDOF 0
ENDMDL
MODEL 7
REMARK VINA RESULT:      -3.8     17.451     18.220
REMARK  0 active torsions:
REMARK  status: ('A' for Active; 'I' for Inactive)
ROOT
HETATM    1  C1  UNL     1     -35.858  16.181  -4.817  1.00 20.00     0.007 C 
HETATM    2  C2  UNL     1     -34.370  16.051  -5.176  1.00 20.00     0.027 C 
HETATM    3  C3  UNL     1     -35.315  16.111  -2.378  1.00 20.00     0.027 C 
HETATM    4  C4  UNL     1     -34.975  14.212  -3.801  1.00 20.00     0.032 C 
HETATM    5  C5  UNL     1     -35.979  15.338  -3.535  1.00 20.00    -0.011 C 
HETATM    6  C6  UNL     1     -33.813  15.941  -2.673  1.00 20.00     0.106 C 
HETATM    7  C7  UNL     1     -33.817  15.190  -4.023  1.00 20.00     0.054 C 
HETATM    8 CL8  UNL     1     -32.939  17.483  -2.686  1.00 20.00    -0.123 Cl
HETATM    9 CL9  UNL     1     -32.285  14.422  -4.408  1.00 20.00    -0.118 Cl
ENDROOT
TORSDOF 0
ENDMDL
MODEL 8
REMARK VINA RESULT:      -3.8     17.751     18.544
REMARK  0 active torsions:
REMARK  status: ('A' for Active; 'I' for Inactive)
ROOT
HETATM    1  C1  UNL     1     -34.422  17.687  -3.540  1.00 20.00     0.007 C 
HETATM    2  C2  UNL     1     -35.553  16.991  -4.312  1.00 20.00     0.027 C 
HETATM    3  C3  UNL     1     -33.028  15.614  -3.639  1.00 20.00     0.027 C 
HETATM    4  C4  UNL     1     -35.063  15.706  -2.376  1.00 20.00     0.032 C 
HETATM    5  C5  UNL     1     -33.823  16.544  -2.700  1.00 20.00    -0.011 C 
HETATM    6  C6  UNL     1     -34.139  14.850  -4.383  1.00 20.00     0.106 C 
HETATM    7  C7  UNL     1     -35.424  15.525  -3.854  1.00 20.00     0.054 C 
HETATM    8 CL8  UNL     1     -33.947  14.903  -6.144  1.00 20.00    -0.123 Cl
HETATM    9 CL9  UNL     1     -36.881  14.584  -4.132  1.00 20.00    -0.118 Cl
ENDROOT
TORSDOF 0
ENDMDL
MODEL 9
REMARK VINA RESULT:      -3.8     18.703     19.356
REMARK  0 active torsions:
REMARK  status: ('A' for Active; 'I' for Inactive)
ROOT
HETATM    1  C1  UNL     1     -34.107  15.553  -3.076  1.00 20.00     0.007 C 
HETATM    2  C2  UNL     1     -35.626  15.778  -3.134  1.00 20.00     0.027 C 
HETATM    3  C3  UNL     1     -34.037  15.127  -5.538  1.00 20.00     0.027 C 
HETATM    4  C4  UNL     1     -35.148  13.631  -4.030  1.00 20.00     0.032 C 
HETATM    5  C5  UNL     1     -33.876  14.475  -4.150  1.00 20.00    -0.011 C 
HETATM    6  C6  UNL     1     -35.563  15.304  -5.656  1.00 20.00     0.106 C 
HETATM    7  C7  UNL     1     -36.064  14.835  -4.272  1.00 20.00     0.054 C 
HETATM    8 CL8  UNL     1     -36.030  16.958  -6.091  1.00 20.00    -0.123 Cl
HETATM    9 CL9  UNL     1     -37.779  14.458  -4.234  1.00 20.00    -0.118 Cl
ENDROOT
TORSDOF 0
ENDMDL
