MODEL 1
REMARK VINA RESULT:      -3.6      0.000      0.000
REMARK  1 active torsions:
REMARK  status: ('A' for Active; 'I' for Inactive)
REMARK    1  A    between atoms: C1_1  and  C5_5 
ROOT
HETATM    1  C1  UNL     1     -33.422   6.218   3.170  1.00 20.00    -0.089 C 
HETATM    2  C2  UNL     1     -33.005   6.983   2.345  1.00 20.00    -0.023 C 
HETATM    3 BR6  UNL     1     -32.344   8.196   1.039  1.00 20.00     0.010 Br
ENDROOT
BRANCH   1   4
HETATM    4  C5  UNL     1     -33.922   5.305   4.154  1.00 20.00     0.066 A 
HETATM    5  C3  UNL     1     -35.404   5.258   4.415  1.00 20.00     0.018 A 
HETATM    6  C4  UNL     1     -34.483   5.855   5.438  1.00 20.00     0.018 A 
ENDBRANCH   1   4
TORSDOF 1
ENDMDL
MODEL 2
REMARK VINA RESULT:      -3.4      2.601      4.389
REMARK  1 active torsions:
REMARK  status: ('A' for Active; 'I' for Inactive)
REMARK    1  A    between atoms: C1_1  and  C5_5 
ROOT
HETATM    1  C1  UNL     1     -32.944   7.042   2.184  1.00 20.00    -0.089 C 
HETATM    2  C2  UNL     1     -33.474   6.244   2.906  1.00 20.00    -0.023 C 
HETATM    3 BR6  UNL     1     -34.315   4.979   4.050  1.00 20.00     0.010 Br
ENDROOT
BRANCH   1   4
HETATM    4  C5  UNL     1     -32.312   7.997   1.323  1.00 20.00     0.066 A 
HETATM    5  C3  UNL     1     -32.987   9.321   1.087  1.00 20.00     0.018 A 
HETATM    6  C4  UNL     1     -32.941   8.301  -0.011  1.00 20.00     0.018 A 
ENDBRANCH   1   4
TORSDOF 1
ENDMDL
MODEL 3
REMARK VINA RESULT:      -3.0     11.419     11.868
REMARK  1 active torsions:
REMARK  status: ('A' for Active; 'I' for Inactive)
REMARK    1  A    between atoms: C1_1  and  C5_5 
ROOT
HETATM    1  C1  UNL     1     -34.749  15.452  -2.792  1.00 20.00    -0.089 C 
HETATM    2  C2  UNL     1     -34.992  16.170  -1.862  1.00 20.00    -0.023 C 
HETATM    3 BR6  UNL     1     -35.378  17.306  -0.387  1.00 20.00     0.010 Br
ENDROOT
BRANCH   1   4
HETATM    4  C5  UNL     1     -34.459  14.595  -3.903  1.00 20.00     0.066 A 
HETATM    5  C3  UNL     1     -33.044  14.521  -4.412  1.00 20.00     0.018 A 
HETATM    6  C4  UNL     1     -34.095  15.217  -5.225  1.00 20.00     0.018 A 
ENDBRANCH   1   4
TORSDOF 1
ENDMDL
MODEL 4
REMARK VINA RESULT:      -3.0     11.631     12.379
REMARK  1 active torsions:
REMARK  status: ('A' for Active; 'I' for Inactive)
REMARK    1  A    between atoms: C1_1  and  C5_5 
ROOT
HETATM    1  C1  UNL     1     -33.004  17.301  -2.321  1.00 20.00    -0.089 C 
HETATM    2  C2  UNL     1     -32.360  17.846  -1.469  1.00 20.00    -0.023 C 
HETATM    3 BR6  UNL     1     -31.338  18.710  -0.118  1.00 20.00     0.010 Br
ENDROOT
BRANCH   1   4
HETATM    4  C5  UNL     1     -33.774  16.650  -3.339  1.00 20.00     0.066 A 
HETATM    5  C3  UNL     1     -34.534  15.400  -2.986  1.00 20.00     0.018 A 
HETATM    6  C4  UNL     1     -33.314  15.312  -3.854  1.00 20.00     0.018 A 
ENDBRANCH   1   4
TORSDOF 1
ENDMDL
MODEL 5
REMARK VINA RESULT:      -3.0     11.145     11.754
REMARK  1 active torsions:
REMARK  status: ('A' for Active; 'I' for Inactive)
REMARK    1  A    between atoms: C1_1  and  C5_5 
ROOT
HETATM    1  C1  UNL     1     -34.925  16.176  -2.380  1.00 20.00    -0.089 C 
HETATM    2  C2  UNL     1     -35.123  16.618  -1.283  1.00 20.00    -0.023 C 
HETATM    3 BR6  UNL     1     -35.437  17.321   0.455  1.00 20.00     0.010 Br
ENDROOT
BRANCH   1   4
HETATM    4  C5  UNL     1     -34.687  15.646  -3.690  1.00 20.00     0.066 A 
HETATM    5  C3  UNL     1     -34.505  14.161  -3.850  1.00 20.00     0.018 A 
HETATM    6  C4  UNL     1     -33.330  15.079  -4.010  1.00 20.00     0.018 A 
ENDBRANCH   1   4
TORSDOF 1
ENDMDL
MODEL 6
REMARK VINA RESULT:      -3.0     16.722     17.128
REMARK  1 active torsions:
REMARK  status: ('A' for Active; 'I' for Inactive)
REMARK    1  A    between atoms: C1_1  and  C5_5 
ROOT
HETATM    1  C1  UNL     1     -23.862  17.629  10.207  1.00 20.00    -0.089 C 
HETATM    2  C2  UNL     1     -24.754  18.145  10.822  1.00 20.00    -0.023 C 
HETATM    3 BR6  UNL     1     -26.168  18.963  11.794  1.00 20.00     0.010 Br
ENDROOT
BRANCH   1   4
HETATM    4  C5  UNL     1     -22.796  17.014   9.474  1.00 20.00     0.066 A 
HETATM    5  C3  UNL     1     -21.489  17.749   9.340  1.00 20.00     0.018 A 
HETATM    6  C4  UNL     1     -22.390  17.604   8.150  1.00 20.00     0.018 A 
ENDBRANCH   1   4
TORSDOF 1
ENDMDL
MODEL 7
REMARK VINA RESULT:      -2.9      9.049      9.645
REMARK  1 active torsions:
REMARK  status: ('A' for Active; 'I' for Inactive)
REMARK    1  A    between atoms: C1_1  and  C5_5 
ROOT
HETATM    1  C1  UNL     1     -41.696   5.791  -0.831  1.00 20.00    -0.089 C 
HETATM    2  C2  UNL     1     -42.136   4.907  -1.512  1.00 20.00    -0.023 C 
HETATM    3 BR6  UNL     1     -42.832   3.506  -2.592  1.00 20.00     0.010 Br
ENDROOT
BRANCH   1   4
HETATM    4  C5  UNL     1     -41.171   6.847  -0.017  1.00 20.00     0.066 A 
HETATM    5  C3  UNL     1     -42.130   7.815   0.623  1.00 20.00     0.018 A 
HETATM    6  C4  UNL     1     -41.265   8.264  -0.517  1.00 20.00     0.018 A 
ENDBRANCH   1   4
TORSDOF 1
ENDMDL
MODEL 8
REMARK VINA RESULT:      -2.9     16.518     16.928
REMARK  1 active torsions:
REMARK  status: ('A' for Active; 'I' for Inactive)
REMARK    1  A    between atoms: C1_1  and  C5_5 
ROOT
HETATM    1  C1  UNL     1     -23.769  17.901  11.073  1.00 20.00    -0.089 C 
HETATM    2  C2  UNL     1     -23.080  17.702  10.111  1.00 20.00    -0.023 C 
HETATM    3 BR6  UNL     1     -21.989  17.388   8.586  1.00 20.00     0.010 Br
ENDROOT
BRANCH   1   4
HETATM    4  C5  UNL     1     -24.592  18.137  12.221  1.00 20.00     0.066 A 
HETATM    5  C3  UNL     1     -25.908  17.415  12.332  1.00 20.00     0.018 A 
HETATM    6  C4  UNL     1     -25.886  18.887  12.046  1.00 20.00     0.018 A 
ENDBRANCH   1   4
TORSDOF 1
ENDMDL
MODEL 9
REMARK VINA RESULT:      -2.9     11.758     12.276
REMARK  1 active torsions:
REMARK  status: ('A' for Active; 'I' for Inactive)
REMARK    1  A    between atoms: C1_1  and  C5_5 
ROOT
HETATM    1  C1  UNL     1     -34.101  15.266  -4.674  1.00 20.00    -0.089 C 
HETATM    2  C2  UNL     1     -34.100  15.321  -5.873  1.00 20.00    -0.023 C 
HETATM    3 BR6  UNL     1     -34.099  15.408  -7.772  1.00 20.00     0.010 Br
ENDROOT
BRANCH   1   4
HETATM    4  C5  UNL     1     -34.101  15.199  -3.243  1.00 20.00     0.066 A 
HETATM    5  C3  UNL     1     -35.163  15.947  -2.482  1.00 20.00     0.018 A 
HETATM    6  C4  UNL     1     -33.744  16.434  -2.458  1.00 20.00     0.018 A 
ENDBRANCH   1   4
TORSDOF 1
ENDMDL
