MODEL 1
REMARK VINA RESULT:      -4.0      0.000      0.000
REMARK  1 active torsions:
REMARK  status: ('A' for Active; 'I' for Inactive)
REMARK    1  A    between atoms: C2_2  and  C3_3 
ROOT
HETATM    1  C1  UNL     1     -35.892   5.758   3.908  1.00 20.00     0.060 C 
HETATM    2  C2  UNL     1     -34.467   5.494   4.388  1.00 20.00     0.206 C 
HETATM    3 CL7  UNL     1     -33.990   3.833   3.914  1.00 20.00    -0.092 Cl
HETATM    4 CL8  UNL     1     -33.357   6.652   3.588  1.00 20.00    -0.092 Cl
ENDROOT
BRANCH   2   5
HETATM    5  C3  UNL     1     -34.352   5.642   5.898  1.00 20.00     0.422 C 
HETATM    6  F4  UNL     1     -35.566   5.804   6.472  1.00 20.00    -0.168 F 
HETATM    7  F5  UNL     1     -33.787   4.548   6.458  1.00 20.00    -0.168 F 
HETATM    8  F6  UNL     1     -33.596   6.709   6.241  1.00 20.00    -0.168 F 
ENDBRANCH   2   5
TORSDOF 1
ENDMDL
MODEL 2
REMARK VINA RESULT:      -4.0      1.169      1.704
REMARK  1 active torsions:
REMARK  status: ('A' for Active; 'I' for Inactive)
REMARK    1  A    between atoms: C2_2  and  C3_3 
ROOT
HETATM    1  C1  UNL     1     -34.070   4.050   3.946  1.00 20.00     0.060 C 
HETATM    2  C2  UNL     1     -34.470   5.462   4.367  1.00 20.00     0.206 C 
HETATM    3 CL7  UNL     1     -33.380   6.639   3.569  1.00 20.00    -0.092 Cl
HETATM    4 CL8  UNL     1     -36.147   5.782   3.820  1.00 20.00    -0.092 Cl
ENDROOT
BRANCH   2   5
HETATM    5  C3  UNL     1     -34.387   5.637   5.876  1.00 20.00     0.422 C 
HETATM    6  F4  UNL     1     -35.617   5.729   6.431  1.00 20.00    -0.168 F 
HETATM    7  F5  UNL     1     -33.762   4.589   6.460  1.00 20.00    -0.168 F 
HETATM    8  F6  UNL     1     -33.705   6.754   6.215  1.00 20.00    -0.168 F 
ENDBRANCH   2   5
TORSDOF 1
ENDMDL
MODEL 3
REMARK VINA RESULT:      -3.9      1.166      1.699
REMARK  1 active torsions:
REMARK  status: ('A' for Active; 'I' for Inactive)
REMARK    1  A    between atoms: C2_2  and  C3_3 
ROOT
HETATM    1  C1  UNL     1     -33.553   6.472   3.644  1.00 20.00     0.060 C 
HETATM    2  C2  UNL     1     -34.472   5.482   4.357  1.00 20.00     0.206 C 
HETATM    3 CL7  UNL     1     -36.160   5.771   3.831  1.00 20.00    -0.092 Cl
HETATM    4 CL8  UNL     1     -34.010   3.815   3.887  1.00 20.00    -0.092 Cl
ENDROOT
BRANCH   2   5
HETATM    5  C3  UNL     1     -34.380   5.627   5.868  1.00 20.00     0.422 C 
HETATM    6  F4  UNL     1     -35.606   5.741   6.428  1.00 20.00    -0.168 F 
HETATM    7  F5  UNL     1     -33.782   4.552   6.431  1.00 20.00    -0.168 F 
HETATM    8  F6  UNL     1     -33.669   6.719   6.226  1.00 20.00    -0.168 F 
ENDBRANCH   2   5
TORSDOF 1
ENDMDL
MODEL 4
REMARK VINA RESULT:      -3.9      8.780      9.546
REMARK  1 active torsions:
REMARK  status: ('A' for Active; 'I' for Inactive)
REMARK    1  A    between atoms: C2_2  and  C3_3 
ROOT
HETATM    1  C1  UNL     1     -40.976   5.648  -0.934  1.00 20.00     0.060 C 
HETATM    2  C2  UNL     1     -42.097   6.470  -0.304  1.00 20.00     0.206 C 
HETATM    3 CL7  UNL     1     -43.408   6.688  -1.506  1.00 20.00    -0.092 Cl
HETATM    4 CL8  UNL     1     -42.760   5.575   1.100  1.00 20.00    -0.092 Cl
ENDROOT
BRANCH   2   5
HETATM    5  C3  UNL     1     -41.599   7.833   0.153  1.00 20.00     0.422 C 
HETATM    6  F4  UNL     1     -42.625   8.643   0.499  1.00 20.00    -0.168 F 
HETATM    7  F5  UNL     1     -40.792   7.725   1.234  1.00 20.00    -0.168 F 
HETATM    8  F6  UNL     1     -40.895   8.461  -0.816  1.00 20.00    -0.168 F 
ENDBRANCH   2   5
TORSDOF 1
ENDMDL
MODEL 5
REMARK VINA RESULT:      -3.9      8.633      9.484
REMARK  1 active torsions:
REMARK  status: ('A' for Active; 'I' for Inactive)
REMARK    1  A    between atoms: C2_2  and  C3_3 
ROOT
HETATM    1  C1  UNL     1     -43.290   6.560  -1.316  1.00 20.00     0.060 C 
HETATM    2  C2  UNL     1     -42.161   6.441  -0.295  1.00 20.00     0.206 C 
HETATM    3 CL7  UNL     1     -42.769   5.569   1.147  1.00 20.00    -0.092 Cl
HETATM    4 CL8  UNL     1     -40.824   5.485  -1.012  1.00 20.00    -0.092 Cl
ENDROOT
BRANCH   2   5
HETATM    5  C3  UNL     1     -41.641   7.808   0.122  1.00 20.00     0.422 C 
HETATM    6  F4  UNL     1     -40.853   7.723   1.218  1.00 20.00    -0.168 F 
HETATM    7  F5  UNL     1     -40.900   8.373  -0.860  1.00 20.00    -0.168 F 
HETATM    8  F6  UNL     1     -42.648   8.662   0.411  1.00 20.00    -0.168 F 
ENDBRANCH   2   5
TORSDOF 1
ENDMDL
MODEL 6
REMARK VINA RESULT:      -3.9      8.689      9.506
REMARK  1 active torsions:
REMARK  status: ('A' for Active; 'I' for Inactive)
REMARK    1  A    between atoms: C2_2  and  C3_3 
ROOT
HETATM    1  C1  UNL     1     -42.722   5.742   0.932  1.00 20.00     0.060 C 
HETATM    2  C2  UNL     1     -42.140   6.508  -0.253  1.00 20.00     0.206 C 
HETATM    3 CL7  UNL     1     -40.812   5.546  -0.974  1.00 20.00    -0.092 Cl
HETATM    4 CL8  UNL     1     -43.417   6.728  -1.492  1.00 20.00    -0.092 Cl
ENDROOT
BRANCH   2   5
HETATM    5  C3  UNL     1     -41.606   7.868   0.171  1.00 20.00     0.422 C 
HETATM    6  F4  UNL     1     -40.790   7.765   1.244  1.00 20.00    -0.168 F 
HETATM    7  F5  UNL     1     -40.892   8.448  -0.820  1.00 20.00    -0.168 F 
HETATM    8  F6  UNL     1     -42.604   8.718   0.502  1.00 20.00    -0.168 F 
ENDBRANCH   2   5
TORSDOF 1
ENDMDL
MODEL 7
REMARK VINA RESULT:      -3.8     16.453     17.117
REMARK  1 active torsions:
REMARK  status: ('A' for Active; 'I' for Inactive)
REMARK    1  A    between atoms: C2_2  and  C3_3 
ROOT
HETATM    1  C1  UNL     1     -22.828  17.742  12.332  1.00 20.00     0.060 C 
HETATM    2  C2  UNL     1     -23.995  17.428  11.400  1.00 20.00     0.206 C 
HETATM    3 CL7  UNL     1     -24.539  15.746  11.693  1.00 20.00    -0.092 Cl
HETATM    4 CL8  UNL     1     -25.354  18.536  11.772  1.00 20.00    -0.092 Cl
ENDROOT
BRANCH   2   5
HETATM    5  C3  UNL     1     -23.599  17.584   9.940  1.00 20.00     0.422 C 
HETATM    6  F4  UNL     1     -22.701  18.583   9.776  1.00 20.00    -0.168 F 
HETATM    7  F5  UNL     1     -23.031  16.454   9.460  1.00 20.00    -0.168 F 
HETATM    8  F6  UNL     1     -24.665  17.865   9.157  1.00 20.00    -0.168 F 
ENDBRANCH   2   5
TORSDOF 1
ENDMDL
MODEL 8
REMARK VINA RESULT:      -3.7     16.465     17.138
REMARK  1 active torsions:
REMARK  status: ('A' for Active; 'I' for Inactive)
REMARK    1  A    between atoms: C2_2  and  C3_3 
ROOT
HETATM    1  C1  UNL     1     -25.374  18.498  11.533  1.00 20.00     0.060 C 
HETATM    2  C2  UNL     1     -24.182  17.599  11.215  1.00 20.00     0.206 C 
HETATM    3 CL7  UNL     1     -22.838  17.995  12.332  1.00 20.00    -0.092 Cl
HETATM    4 CL8  UNL     1     -24.654  15.890  11.480  1.00 20.00    -0.092 Cl
ENDROOT
BRANCH   2   5
HETATM    5  C3  UNL     1     -23.716  17.779   9.778  1.00 20.00     0.422 C 
HETATM    6  F4  UNL     1     -24.743  18.119   8.966  1.00 20.00    -0.168 F 
HETATM    7  F5  UNL     1     -22.788  18.758   9.681  1.00 20.00    -0.168 F 
HETATM    8  F6  UNL     1     -23.166  16.648   9.283  1.00 20.00    -0.168 F 
ENDBRANCH   2   5
TORSDOF 1
ENDMDL
MODEL 9
REMARK VINA RESULT:      -3.7      9.037      9.854
REMARK  1 active torsions:
REMARK  status: ('A' for Active; 'I' for Inactive)
REMARK    1  A    between atoms: C2_2  and  C3_3 
ROOT
HETATM    1  C1  UNL     1     -43.070   4.674  -1.348  1.00 20.00     0.060 C 
HETATM    2  C2  UNL     1     -42.625   5.941  -0.622  1.00 20.00     0.206 C 
HETATM    3 CL7  UNL     1     -43.417   7.357  -1.381  1.00 20.00    -0.092 Cl
HETATM    4 CL8  UNL     1     -43.151   5.848   1.089  1.00 20.00    -0.092 Cl
ENDROOT
BRANCH   2   5
HETATM    5  C3  UNL     1     -41.115   6.114  -0.680  1.00 20.00     0.422 C 
HETATM    6  F4  UNL     1     -40.506   4.988  -1.114  1.00 20.00    -0.168 F 
HETATM    7  F5  UNL     1     -40.766   7.110  -1.526  1.00 20.00    -0.168 F 
HETATM    8  F6  UNL     1     -40.597   6.413   0.533  1.00 20.00    -0.168 F 
ENDBRANCH   2   5
TORSDOF 1
ENDMDL
