MODEL 1
REMARK VINA RESULT:      -5.0      0.000      0.000
REMARK  2 active torsions:
REMARK  status: ('A' for Active; 'I' for Inactive)
REMARK    1  A    between atoms: C1_1  and  C3_3 
REMARK    2  A    between atoms: C2_2  and  C5_5 
ROOT
HETATM    1  C1  UNL     1     -33.881   5.712   3.503  1.00 20.00     0.005 C 
HETATM    2  C2  UNL     1     -33.090   5.968   2.451  1.00 20.00     0.068 C 
ENDROOT
BRANCH   1   3
HETATM    3  C3  UNL     1     -34.059   6.648   4.591  1.00 20.00    -0.004 C 
HETATM    4  C4  UNL     1     -34.454   6.279   5.819  1.00 20.00    -0.031 C 
HETATM    5  C6  UNL     1     -34.753   4.868   6.203  1.00 20.00     0.036 C 
ENDBRANCH   1   3
BRANCH   2   6
HETATM    6  C5  UNL     1     -32.341   7.257   2.352  1.00 20.00     0.241 C 
HETATM    7  O7  UNL     1     -31.524   7.573   3.213  1.00 20.00    -0.275 OA
HETATM    8 CL8  UNL     1     -32.713   8.241   0.951  1.00 20.00    -0.039 Cl
ENDBRANCH   2   6
TORSDOF 2
ENDMDL
MODEL 2
REMARK VINA RESULT:      -4.6      1.575      1.576
REMARK  2 active torsions:
REMARK  status: ('A' for Active; 'I' for Inactive)
REMARK    1  A    between atoms: C1_1  and  C3_3 
REMARK    2  A    between atoms: C2_2  and  C5_5 
ROOT
HETATM    1  C1  UNL     1     -33.889   4.924   3.150  1.00 20.00     0.005 C 
HETATM    2  C2  UNL     1     -32.813   5.459   2.556  1.00 20.00     0.068 C 
ENDROOT
BRANCH   1   3
HETATM    3  C3  UNL     1     -34.902   5.727   3.798  1.00 20.00    -0.004 C 
HETATM    4  C4  UNL     1     -35.093   5.738   5.126  1.00 20.00    -0.031 C 
HETATM    5  C6  UNL     1     -34.284   4.927   6.085  1.00 20.00     0.036 C 
ENDBRANCH   1   3
BRANCH   2   6
HETATM    6  C5  UNL     1     -32.606   6.938   2.534  1.00 20.00     0.241 C 
HETATM    7  O7  UNL     1     -32.884   7.594   1.534  1.00 20.00    -0.275 OA
HETATM    8 CL8  UNL     1     -31.957   7.631   4.007  1.00 20.00    -0.039 Cl
ENDBRANCH   2   6
TORSDOF 2
ENDMDL
MODEL 3
REMARK VINA RESULT:      -4.6      3.076      4.267
REMARK  2 active torsions:
REMARK  status: ('A' for Active; 'I' for Inactive)
REMARK    1  A    between atoms: C1_1  and  C3_3 
REMARK    2  A    between atoms: C2_2  and  C5_5 
ROOT
HETATM    1  C1  UNL     1     -33.070   5.432   2.741  1.00 20.00     0.005 C 
HETATM    2  C2  UNL     1     -34.032   4.646   3.246  1.00 20.00     0.068 C 
ENDROOT
BRANCH   1   3
HETATM    3  C3  UNL     1     -32.860   6.791   3.187  1.00 20.00    -0.004 C 
HETATM    4  C4  UNL     1     -32.557   7.799   2.355  1.00 20.00    -0.031 C 
HETATM    5  C6  UNL     1     -32.405   7.635   0.879  1.00 20.00     0.036 C 
ENDBRANCH   1   3
BRANCH   2   6
HETATM    6  C5  UNL     1     -34.949   5.147   4.314  1.00 20.00     0.241 C 
HETATM    7  O7  UNL     1     -36.041   5.629   4.025  1.00 20.00    -0.275 OA
HETATM    8 CL8  UNL     1     -34.354   4.991   5.954  1.00 20.00    -0.039 Cl
ENDBRANCH   2   6
TORSDOF 2
ENDMDL
MODEL 4
REMARK VINA RESULT:      -4.5     11.610     11.894
REMARK  2 active torsions:
REMARK  status: ('A' for Active; 'I' for Inactive)
REMARK    1  A    between atoms: C1_1  and  C3_3 
REMARK    2  A    between atoms: C2_2  and  C5_5 
ROOT
HETATM    1  C1  UNL     1     -35.455  15.524  -3.133  1.00 20.00     0.005 C 
HETATM    2  C2  UNL     1     -36.386  14.793  -3.762  1.00 20.00     0.068 C 
ENDROOT
BRANCH   1   3
HETATM    3  C3  UNL     1     -34.042  15.405  -3.422  1.00 20.00    -0.004 C 
HETATM    4  C4  UNL     1     -33.122  16.261  -2.954  1.00 20.00    -0.031 C 
HETATM    5  C6  UNL     1     -33.446  17.430  -2.084  1.00 20.00     0.036 C 
ENDBRANCH   1   3
BRANCH   2   6
HETATM    6  C5  UNL     1     -36.002  13.802  -4.811  1.00 20.00     0.241 C 
HETATM    7  O7  UNL     1     -35.871  12.613  -4.531  1.00 20.00    -0.275 OA
HETATM    8 CL8  UNL     1     -35.766  14.458  -6.419  1.00 20.00    -0.039 Cl
ENDBRANCH   2   6
TORSDOF 2
ENDMDL
MODEL 5
REMARK VINA RESULT:      -4.4     11.465     11.972
REMARK  2 active torsions:
REMARK  status: ('A' for Active; 'I' for Inactive)
REMARK    1  A    between atoms: C1_1  and  C3_3 
REMARK    2  A    between atoms: C2_2  and  C5_5 
ROOT
HETATM    1  C1  UNL     1     -34.422  15.468  -4.509  1.00 20.00     0.005 C 
HETATM    2  C2  UNL     1     -35.171  14.675  -5.288  1.00 20.00     0.068 C 
ENDROOT
BRANCH   1   3
HETATM    3  C3  UNL     1     -34.524  15.465  -3.066  1.00 20.00    -0.004 C 
HETATM    4  C4  UNL     1     -33.892  16.353  -2.284  1.00 20.00    -0.031 C 
HETATM    5  C6  UNL     1     -33.016  17.442  -2.808  1.00 20.00     0.036 C 
ENDBRANCH   1   3
BRANCH   2   6
HETATM    6  C5  UNL     1     -36.166  13.733  -4.692  1.00 20.00     0.241 C 
HETATM    7  O7  UNL     1     -35.865  12.563  -4.474  1.00 20.00    -0.275 OA
HETATM    8 CL8  UNL     1     -37.740  14.418  -4.342  1.00 20.00    -0.039 Cl
ENDBRANCH   2   6
TORSDOF 2
ENDMDL
MODEL 6
REMARK VINA RESULT:      -4.4      2.730      4.096
REMARK  2 active torsions:
REMARK  status: ('A' for Active; 'I' for Inactive)
REMARK    1  A    between atoms: C1_1  and  C3_3 
REMARK    2  A    between atoms: C2_2  and  C5_5 
ROOT
HETATM    1  C1  UNL     1     -34.106   5.724   3.019  1.00 20.00     0.005 C 
HETATM    2  C2  UNL     1     -34.954   5.425   4.013  1.00 20.00     0.068 C 
ENDROOT
BRANCH   1   3
HETATM    3  C3  UNL     1     -32.761   6.200   3.258  1.00 20.00    -0.004 C 
HETATM    4  C4  UNL     1     -32.191   7.181   2.542  1.00 20.00    -0.031 C 
HETATM    5  C6  UNL     1     -32.876   7.892   1.422  1.00 20.00     0.036 C 
ENDBRANCH   1   3
BRANCH   2   6
HETATM    6  C5  UNL     1     -34.542   5.571   5.442  1.00 20.00     0.241 C 
HETATM    7  O7  UNL     1     -34.557   4.604   6.199  1.00 20.00    -0.275 OA
HETATM    8 CL8  UNL     1     -34.052   7.182   5.925  1.00 20.00    -0.039 Cl
ENDBRANCH   2   6
TORSDOF 2
ENDMDL
MODEL 7
REMARK VINA RESULT:      -4.2      1.873      2.194
REMARK  2 active torsions:
REMARK  status: ('A' for Active; 'I' for Inactive)
REMARK    1  A    between atoms: C1_1  and  C3_3 
REMARK    2  A    between atoms: C2_2  and  C5_5 
ROOT
HETATM    1  C1  UNL     1     -35.394   5.412   4.105  1.00 20.00     0.005 C 
HETATM    2  C2  UNL     1     -34.789   5.761   2.961  1.00 20.00     0.068 C 
ENDROOT
BRANCH   1   3
HETATM    3  C3  UNL     1     -34.683   4.816   5.214  1.00 20.00    -0.004 C 
HETATM    4  C4  UNL     1     -34.065   5.536   6.163  1.00 20.00    -0.031 C 
HETATM    5  C6  UNL     1     -34.041   7.029   6.184  1.00 20.00     0.036 C 
ENDBRANCH   1   3
BRANCH   2   6
HETATM    6  C5  UNL     1     -33.322   5.546   2.774  1.00 20.00     0.241 C 
HETATM    7  O7  UNL     1     -32.887   4.441   2.462  1.00 20.00    -0.275 OA
HETATM    8 CL8  UNL     1     -32.314   6.956   3.028  1.00 20.00    -0.039 Cl
ENDBRANCH   2   6
TORSDOF 2
ENDMDL
MODEL 8
REMARK VINA RESULT:      -4.2     15.570     16.075
REMARK  2 active torsions:
REMARK  status: ('A' for Active; 'I' for Inactive)
REMARK    1  A    between atoms: C1_1  and  C3_3 
REMARK    2  A    between atoms: C2_2  and  C5_5 
ROOT
HETATM    1  C1  UNL     1     -22.997  17.253  11.778  1.00 20.00     0.005 C 
HETATM    2  C2  UNL     1     -22.431  17.776  10.682  1.00 20.00     0.068 C 
ENDROOT
BRANCH   1   3
HETATM    3  C3  UNL     1     -24.079  16.295  11.717  1.00 20.00    -0.004 C 
HETATM    4  C4  UNL     1     -25.360  16.617  11.948  1.00 20.00    -0.031 C 
HETATM    5  C6  UNL     1     -25.817  17.996  12.294  1.00 20.00     0.036 C 
ENDBRANCH   1   3
BRANCH   2   6
HETATM    6  C5  UNL     1     -22.898  17.385   9.318  1.00 20.00     0.241 C 
HETATM    7  O7  UNL     1     -22.336  16.485   8.699  1.00 20.00    -0.275 OA
HETATM    8 CL8  UNL     1     -24.267  18.288   8.701  1.00 20.00    -0.039 Cl
ENDBRANCH   2   6
TORSDOF 2
ENDMDL
MODEL 9
REMARK VINA RESULT:      -4.1     11.290     11.811
REMARK  2 active torsions:
REMARK  status: ('A' for Active; 'I' for Inactive)
REMARK    1  A    between atoms: C1_1  and  C3_3 
REMARK    2  A    between atoms: C2_2  and  C5_5 
ROOT
HETATM    1  C1  UNL     1     -34.495  15.842  -2.619  1.00 20.00     0.005 C 
HETATM    2  C2  UNL     1     -34.863  14.824  -3.410  1.00 20.00     0.068 C 
ENDROOT
BRANCH   1   3
HETATM    3  C3  UNL     1     -33.241  16.543  -2.783  1.00 20.00    -0.004 C 
HETATM    4  C4  UNL     1     -32.837  17.526  -1.964  1.00 20.00    -0.031 C 
HETATM    5  C6  UNL     1     -33.630  18.007  -0.795  1.00 20.00     0.036 C 
ENDBRANCH   1   3
BRANCH   2   6
HETATM    6  C5  UNL     1     -33.978  14.357  -4.519  1.00 20.00     0.241 C 
HETATM    7  O7  UNL     1     -33.208  13.415  -4.351  1.00 20.00    -0.275 OA
HETATM    8 CL8  UNL     1     -34.131  15.236  -6.028  1.00 20.00    -0.039 Cl
ENDBRANCH   2   6
TORSDOF 2
ENDMDL
