MODEL 1
REMARK VINA RESULT:      -4.4      0.000      0.000
REMARK  0 active torsions:
REMARK  status: ('A' for Active; 'I' for Inactive)
ROOT
HETATM    1  C1  UNL     1     -40.775   6.492   0.439  1.00 20.00     0.005 C 
HETATM    2  C2  UNL     1     -42.352   8.162  -0.665  1.00 20.00     0.005 C 
HETATM    3  C3  UNL     1     -43.133   6.811   1.349  1.00 20.00     0.005 C 
HETATM    4  C4  UNL     1     -40.792   5.702  -0.863  1.00 20.00     0.006 C 
HETATM    5  C5  UNL     1     -43.417   7.448  -1.487  1.00 20.00     0.006 C 
HETATM    6  C6  UNL     1     -43.417   5.365   0.961  1.00 20.00     0.006 C 
HETATM    7  C7  UNL     1     -41.942   7.467   0.640  1.00 20.00    -0.014 C 
HETATM    8  C8  UNL     1     -42.091   5.118  -1.306  1.00 20.00    -0.006 A 
HETATM    9  C9  UNL     1     -43.294   5.971  -1.654  1.00 20.00    -0.006 A 
HETATM   10  C10 UNL     1     -43.360   5.008  -0.486  1.00 20.00    -0.006 A 
ENDROOT
TORSDOF 0
ENDMDL
MODEL 2
REMARK VINA RESULT:      -4.3      0.056      2.392
REMARK  0 active torsions:
REMARK  status: ('A' for Active; 'I' for Inactive)
ROOT
HETATM    1  C1  UNL     1     -43.130   6.755   1.316  1.00 20.00     0.005 C 
HETATM    2  C2  UNL     1     -40.773   6.445   0.398  1.00 20.00     0.005 C 
HETATM    3  C3  UNL     1     -42.348   8.134  -0.679  1.00 20.00     0.005 C 
HETATM    4  C4  UNL     1     -43.417   5.316   0.909  1.00 20.00     0.006 C 
HETATM    5  C5  UNL     1     -40.794   5.672  -0.915  1.00 20.00     0.006 C 
HETATM    6  C6  UNL     1     -43.416   7.435  -1.509  1.00 20.00     0.006 C 
HETATM    7  C7  UNL     1     -41.938   7.419   0.615  1.00 20.00    -0.014 C 
HETATM    8  C8  UNL     1     -43.364   4.979  -0.544  1.00 20.00    -0.006 A 
HETATM    9  C9  UNL     1     -42.096   5.098  -1.365  1.00 20.00    -0.006 A 
HETATM   10  C10 UNL     1     -43.298   5.960  -1.698  1.00 20.00    -0.006 A 
ENDROOT
TORSDOF 0
ENDMDL
MODEL 3
REMARK VINA RESULT:      -4.3      0.057      2.399
REMARK  0 active torsions:
REMARK  status: ('A' for Active; 'I' for Inactive)
ROOT
HETATM    1  C1  UNL     1     -42.368   8.170  -0.594  1.00 20.00     0.005 C 
HETATM    2  C2  UNL     1     -43.152   6.786   1.396  1.00 20.00     0.005 C 
HETATM    3  C3  UNL     1     -40.782   6.507   0.506  1.00 20.00     0.005 C 
HETATM    4  C4  UNL     1     -43.417   7.454  -1.434  1.00 20.00     0.006 C 
HETATM    5  C5  UNL     1     -43.415   5.342   0.989  1.00 20.00     0.006 C 
HETATM    6  C6  UNL     1     -40.777   5.732  -0.805  1.00 20.00     0.006 C 
HETATM    7  C7  UNL     1     -41.962   7.465   0.706  1.00 20.00    -0.014 C 
HETATM    8  C8  UNL     1     -43.275   5.980  -1.618  1.00 20.00    -0.006 A 
HETATM    9  C9  UNL     1     -43.341   5.003  -0.462  1.00 20.00    -0.006 A 
HETATM   10  C10 UNL     1     -42.064   5.138  -1.269  1.00 20.00    -0.006 A 
ENDROOT
TORSDOF 0
ENDMDL
MODEL 4
REMARK VINA RESULT:      -4.3     10.867     12.386
REMARK  0 active torsions:
REMARK  status: ('A' for Active; 'I' for Inactive)
ROOT
HETATM    1  C1  UNL     1     -34.791  13.561  -3.998  1.00 20.00     0.005 C 
HETATM    2  C2  UNL     1     -34.120  15.387  -5.643  1.00 20.00     0.005 C 
HETATM    3  C3  UNL     1     -33.685  15.694  -3.152  1.00 20.00     0.005 C 
HETATM    4  C4  UNL     1     -36.239  13.814  -4.394  1.00 20.00     0.006 C 
HETATM    5  C5  UNL     1     -35.075  16.572  -5.565  1.00 20.00     0.006 C 
HETATM    6  C6  UNL     1     -34.976  15.999  -2.403  1.00 20.00     0.006 C 
HETATM    7  C7  UNL     1     -33.808  14.696  -4.309  1.00 20.00    -0.014 C 
HETATM    8  C8  UNL     1     -36.820  15.155  -4.091  1.00 20.00    -0.006 A 
HETATM    9  C9  UNL     1     -36.288  16.433  -4.709  1.00 20.00    -0.006 A 
HETATM   10  C10 UNL     1     -36.211  16.226  -3.209  1.00 20.00    -0.006 A 
ENDROOT
TORSDOF 0
ENDMDL
MODEL 5
REMARK VINA RESULT:      -4.3     10.883     12.439
REMARK  0 active torsions:
REMARK  status: ('A' for Active; 'I' for Inactive)
ROOT
HETATM    1  C1  UNL     1     -34.102  15.271  -5.698  1.00 20.00     0.005 C 
HETATM    2  C2  UNL     1     -33.654  15.652  -3.219  1.00 20.00     0.005 C 
HETATM    3  C3  UNL     1     -34.838  13.531  -3.989  1.00 20.00     0.005 C 
HETATM    4  C4  UNL     1     -35.011  16.493  -5.664  1.00 20.00     0.006 C 
HETATM    5  C5  UNL     1     -34.932  16.032  -2.484  1.00 20.00     0.006 C 
HETATM    6  C6  UNL     1     -36.277  13.824  -4.394  1.00 20.00     0.006 C 
HETATM    7  C7  UNL     1     -33.815  14.618  -4.341  1.00 20.00    -0.014 C 
HETATM    8  C8  UNL     1     -36.229  16.430  -4.804  1.00 20.00    -0.006 A 
HETATM    9  C9  UNL     1     -36.158  16.275  -3.298  1.00 20.00    -0.006 A 
HETATM   10  C10 UNL     1     -36.807  15.195  -4.142  1.00 20.00    -0.006 A 
ENDROOT
TORSDOF 0
ENDMDL
MODEL 6
REMARK VINA RESULT:      -4.3     11.293     12.902
REMARK  0 active torsions:
REMARK  status: ('A' for Active; 'I' for Inactive)
ROOT
HETATM    1  C1  UNL     1     -36.292  14.664  -3.845  1.00 20.00     0.005 C 
HETATM    2  C2  UNL     1     -35.206  16.135  -2.071  1.00 20.00     0.005 C 
HETATM    3  C3  UNL     1     -35.859  17.129  -4.324  1.00 20.00     0.005 C 
HETATM    4  C4  UNL     1     -34.998  13.861  -3.891  1.00 20.00     0.006 C 
HETATM    5  C5  UNL     1     -33.754  16.435  -2.422  1.00 20.00     0.006 C 
HETATM    6  C6  UNL     1     -34.894  16.689  -5.417  1.00 20.00     0.006 C 
HETATM    7  C7  UNL     1     -36.178  16.076  -3.256  1.00 20.00    -0.014 C 
HETATM    8  C8  UNL     1     -33.761  14.560  -4.347  1.00 20.00    -0.006 A 
HETATM    9  C9  UNL     1     -33.162  15.733  -3.597  1.00 20.00    -0.006 A 
HETATM   10  C10 UNL     1     -33.682  15.921  -5.009  1.00 20.00    -0.006 A 
ENDROOT
TORSDOF 0
ENDMDL
MODEL 7
REMARK VINA RESULT:      -4.3     11.301     12.876
REMARK  0 active torsions:
REMARK  status: ('A' for Active; 'I' for Inactive)
ROOT
HETATM    1  C1  UNL     1     -35.850  17.138  -4.300  1.00 20.00     0.005 C 
HETATM    2  C2  UNL     1     -36.284  14.668  -3.850  1.00 20.00     0.005 C 
HETATM    3  C3  UNL     1     -35.182  16.113  -2.065  1.00 20.00     0.005 C 
HETATM    4  C4  UNL     1     -34.894  16.710  -5.406  1.00 20.00     0.006 C 
HETATM    5  C5  UNL     1     -34.992  13.864  -3.917  1.00 20.00     0.006 C 
HETATM    6  C6  UNL     1     -33.733  16.416  -2.423  1.00 20.00     0.006 C 
HETATM    7  C7  UNL     1     -36.163  16.071  -3.243  1.00 20.00    -0.014 C 
HETATM    8  C8  UNL     1     -33.680  15.935  -5.017  1.00 20.00    -0.006 A 
HETATM    9  C9  UNL     1     -33.757  14.566  -4.372  1.00 20.00    -0.006 A 
HETATM   10  C10 UNL     1     -33.151  15.729  -3.612  1.00 20.00    -0.006 A 
ENDROOT
TORSDOF 0
ENDMDL
MODEL 8
REMARK VINA RESULT:      -4.3     11.302     12.775
REMARK  0 active torsions:
REMARK  status: ('A' for Active; 'I' for Inactive)
ROOT
HETATM    1  C1  UNL     1     -35.182  16.125  -2.064  1.00 20.00     0.005 C 
HETATM    2  C2  UNL     1     -35.845  17.140  -4.305  1.00 20.00     0.005 C 
HETATM    3  C3  UNL     1     -36.285  14.673  -3.844  1.00 20.00     0.005 C 
HETATM    4  C4  UNL     1     -33.732  16.424  -2.422  1.00 20.00     0.006 C 
HETATM    5  C5  UNL     1     -34.887  16.706  -5.407  1.00 20.00     0.006 C 
HETATM    6  C6  UNL     1     -34.995  13.866  -3.905  1.00 20.00     0.006 C 
HETATM    7  C7  UNL     1     -36.162  16.079  -3.243  1.00 20.00    -0.014 C 
HETATM    8  C8  UNL     1     -33.149  15.728  -3.606  1.00 20.00    -0.006 A 
HETATM    9  C9  UNL     1     -33.677  15.930  -5.012  1.00 20.00    -0.006 A 
HETATM   10  C10 UNL     1     -33.758  14.563  -4.361  1.00 20.00    -0.006 A 
ENDROOT
TORSDOF 0
ENDMDL
MODEL 9
REMARK VINA RESULT:      -4.2     11.816     13.428
REMARK  0 active torsions:
REMARK  status: ('A' for Active; 'I' for Inactive)
ROOT
HETATM    1  C1  UNL     1     -35.457  17.224  -4.995  1.00 20.00     0.005 C 
HETATM    2  C2  UNL     1     -34.347  14.986  -5.498  1.00 20.00     0.005 C 
HETATM    3  C3  UNL     1     -35.982  15.189  -3.555  1.00 20.00     0.005 C 
HETATM    4  C4  UNL     1     -34.073  17.776  -4.681  1.00 20.00     0.006 C 
HETATM    5  C5  UNL     1     -33.260  14.673  -4.478  1.00 20.00     0.006 C 
HETATM    6  C6  UNL     1     -35.350  15.927  -2.382  1.00 20.00     0.006 C 
HETATM    7  C7  UNL     1     -35.590  15.697  -4.948  1.00 20.00    -0.014 C 
HETATM    8  C8  UNL     1     -33.334  17.186  -3.527  1.00 20.00    -0.006 A 
HETATM    9  C9  UNL     1     -32.908  15.732  -3.488  1.00 20.00    -0.006 A 
HETATM   10  C10 UNL     1     -33.899  16.260  -2.469  1.00 20.00    -0.006 A 
ENDROOT
TORSDOF 0
ENDMDL
