MODEL 1
REMARK VINA RESULT:      -5.0      0.000      0.000
REMARK  1 active torsions:
REMARK  status: ('A' for Active; 'I' for Inactive)
REMARK    1  A    between atoms: C8_8  and  C11_11 
ROOT
HETATM    1  C1  UNL     1     -34.516  15.851  -2.550  1.00 20.00    -0.076 C 
HETATM    2  C2  UNL     1     -36.087  14.467  -4.334  1.00 20.00     0.136 C 
HETATM    3  C3  UNL     1     -35.098  16.342  -1.458  1.00 20.00     0.015 C 
HETATM    4  C4  UNL     1     -33.177  16.131  -3.296  1.00 20.00     0.045 C 
HETATM    5  C5  UNL     1     -35.622  14.368  -5.791  1.00 20.00     0.080 C 
HETATM    6  C6  UNL     1     -34.128  14.849  -5.718  1.00 20.00     0.018 C 
HETATM    7  C7  UNL     1     -34.828  14.798  -3.551  1.00 20.00     0.092 C 
HETATM    8  C8  UNL     1     -34.101  15.836  -4.538  1.00 20.00    -0.019 C 
HETATM    9  O12 UNL     1     -37.233  14.292  -3.951  1.00 20.00    -0.297 OA
ENDROOT
BRANCH   8  10
HETATM   10  C11 UNL     1     -34.721  17.183  -5.004  1.00 20.00    -0.013 C 
HETATM   11  C9  UNL     1     -33.859  18.336  -4.525  1.00 20.00     0.010 C 
HETATM   12  C10 UNL     1     -34.864  17.184  -6.515  1.00 20.00     0.010 C 
ENDBRANCH   8  10
TORSDOF 1
ENDMDL
MODEL 2
REMARK VINA RESULT:      -4.7      1.621      2.313
REMARK  1 active torsions:
REMARK  status: ('A' for Active; 'I' for Inactive)
REMARK    1  A    between atoms: C8_8  and  C11_11 
ROOT
HETATM    1  C1  UNL     1     -33.675  15.693  -3.496  1.00 20.00    -0.076 C 
HETATM    2  C2  UNL     1     -36.421  15.842  -3.395  1.00 20.00     0.136 C 
HETATM    3  C3  UNL     1     -32.980  16.780  -3.169  1.00 20.00     0.015 C 
HETATM    4  C4  UNL     1     -33.352  14.380  -4.268  1.00 20.00     0.045 C 
HETATM    5  C5  UNL     1     -37.235  14.861  -4.246  1.00 20.00     0.080 C 
HETATM    6  C6  UNL     1     -36.164  13.798  -4.684  1.00 20.00     0.018 C 
HETATM    7  C7  UNL     1     -35.054  15.191  -3.263  1.00 20.00     0.092 C 
HETATM    8  C8  UNL     1     -34.843  14.587  -4.736  1.00 20.00    -0.019 C 
HETATM    9  O12 UNL     1     -36.842  16.894  -2.943  1.00 20.00    -0.297 OA
ENDROOT
BRANCH   8  10
HETATM   10  C11 UNL     1     -34.823  15.437  -6.037  1.00 20.00    -0.013 C 
HETATM   11  C9  UNL     1     -33.645  15.024  -6.900  1.00 20.00     0.010 C 
HETATM   12  C10 UNL     1     -36.140  15.272  -6.774  1.00 20.00     0.010 C 
ENDBRANCH   8  10
TORSDOF 1
ENDMDL
MODEL 3
REMARK VINA RESULT:      -4.5      2.171      3.890
REMARK  1 active torsions:
REMARK  status: ('A' for Active; 'I' for Inactive)
REMARK    1  A    between atoms: C8_8  and  C11_11 
ROOT
HETATM    1  C1  UNL     1     -33.994  14.949  -4.756  1.00 20.00    -0.076 C 
HETATM    2  C2  UNL     1     -33.446  17.234  -3.325  1.00 20.00     0.136 C 
HETATM    3  C3  UNL     1     -33.687  14.936  -6.051  1.00 20.00     0.015 C 
HETATM    4  C4  UNL     1     -34.919  14.092  -3.843  1.00 20.00     0.045 C 
HETATM    5  C5  UNL     1     -34.240  17.497  -2.041  1.00 20.00     0.080 C 
HETATM    6  C6  UNL     1     -34.934  16.115  -1.764  1.00 20.00     0.018 C 
HETATM    7  C7  UNL     1     -33.589  15.741  -3.565  1.00 20.00     0.092 C 
HETATM    8  C8  UNL     1     -35.125  15.498  -3.161  1.00 20.00    -0.019 C 
HETATM    9  O12 UNL     1     -32.842  18.083  -3.962  1.00 20.00    -0.297 OA
ENDROOT
BRANCH   8  10
HETATM   10  C11 UNL     1     -36.333  16.192  -3.850  1.00 20.00    -0.013 C 
HETATM   11  C9  UNL     1     -37.353  15.149  -4.266  1.00 20.00     0.010 C 
HETATM   12  C10 UNL     1     -36.936  17.219  -2.908  1.00 20.00     0.010 C 
ENDBRANCH   8  10
TORSDOF 1
ENDMDL
MODEL 4
REMARK VINA RESULT:      -4.4      1.668      2.359
REMARK  1 active torsions:
REMARK  status: ('A' for Active; 'I' for Inactive)
REMARK    1  A    between atoms: C8_8  and  C11_11 
ROOT
HETATM    1  C1  UNL     1     -36.030  17.026  -3.010  1.00 20.00    -0.076 C 
HETATM    2  C2  UNL     1     -36.549  15.527  -5.258  1.00 20.00     0.136 C 
HETATM    3  C3  UNL     1     -36.169  18.348  -3.097  1.00 20.00     0.015 C 
HETATM    4  C4  UNL     1     -35.308  16.065  -2.020  1.00 20.00     0.045 C 
HETATM    5  C5  UNL     1     -35.905  14.142  -5.374  1.00 20.00     0.080 C 
HETATM    6  C6  UNL     1     -35.378  13.873  -3.918  1.00 20.00     0.018 C 
HETATM    7  C7  UNL     1     -36.510  15.845  -3.772  1.00 20.00     0.092 C 
HETATM    8  C8  UNL     1     -35.067  15.273  -3.361  1.00 20.00    -0.019 C 
HETATM    9  O12 UNL     1     -36.989  16.176  -6.193  1.00 20.00    -0.297 OA
ENDROOT
BRANCH   8  10
HETATM   10  C11 UNL     1     -33.724  15.763  -3.971  1.00 20.00    -0.013 C 
HETATM   11  C9  UNL     1     -32.944  16.545  -2.930  1.00 20.00     0.010 C 
HETATM   12  C10 UNL     1     -32.932  14.573  -4.484  1.00 20.00     0.010 C 
ENDBRANCH   8  10
TORSDOF 1
ENDMDL
MODEL 5
REMARK VINA RESULT:      -4.3      1.248      3.136
REMARK  1 active torsions:
REMARK  status: ('A' for Active; 'I' for Inactive)
REMARK    1  A    between atoms: C8_8  and  C11_11 
ROOT
HETATM    1  C1  UNL     1     -34.541  15.645  -6.389  1.00 20.00    -0.076 C 
HETATM    2  C2  UNL     1     -36.349  14.111  -4.993  1.00 20.00     0.136 C 
HETATM    3  C3  UNL     1     -33.585  15.016  -7.070  1.00 20.00     0.015 C 
HETATM    4  C4  UNL     1     -34.741  17.102  -5.878  1.00 20.00     0.045 C 
HETATM    5  C5  UNL     1     -37.084  14.749  -3.810  1.00 20.00     0.080 C 
HETATM    6  C6  UNL     1     -36.786  16.280  -3.991  1.00 20.00     0.018 C 
HETATM    7  C7  UNL     1     -35.869  15.288  -5.825  1.00 20.00     0.092 C 
HETATM    8  C8  UNL     1     -35.412  16.322  -4.684  1.00 20.00    -0.019 C 
HETATM    9  O12 UNL     1     -36.222  12.911  -5.175  1.00 20.00    -0.297 OA
ENDROOT
BRANCH   8  10
HETATM   10  C11 UNL     1     -34.313  16.029  -3.625  1.00 20.00    -0.013 C 
HETATM   11  C9  UNL     1     -33.263  17.123  -3.662  1.00 20.00     0.010 C 
HETATM   12  C10 UNL     1     -34.947  15.911  -2.251  1.00 20.00     0.010 C 
ENDBRANCH   8  10
TORSDOF 1
ENDMDL
MODEL 6
REMARK VINA RESULT:      -4.2      1.517      2.352
REMARK  1 active torsions:
REMARK  status: ('A' for Active; 'I' for Inactive)
REMARK    1  A    between atoms: C8_8  and  C11_11 
ROOT
HETATM    1  C1  UNL     1     -36.976  17.109  -4.267  1.00 20.00    -0.076 C 
HETATM    2  C2  UNL     1     -36.787  14.367  -4.159  1.00 20.00     0.136 C 
HETATM    3  C3  UNL     1     -38.106  17.638  -4.731  1.00 20.00     0.015 C 
HETATM    4  C4  UNL     1     -35.528  17.640  -4.049  1.00 20.00     0.045 C 
HETATM    5  C5  UNL     1     -35.393  13.732  -4.162  1.00 20.00     0.080 C 
HETATM    6  C6  UNL     1     -34.447  14.954  -3.878  1.00 20.00     0.018 C 
HETATM    7  C7  UNL     1     -36.556  15.798  -3.707  1.00 20.00     0.092 C 
HETATM    8  C8  UNL     1     -35.193  16.160  -4.476  1.00 20.00    -0.019 C 
HETATM    9  O12 UNL     1     -37.822  13.789  -4.454  1.00 20.00    -0.297 OA
ENDROOT
BRANCH   8  10
HETATM   10  C11 UNL     1     -35.024  16.133  -6.020  1.00 20.00    -0.013 C 
HETATM   11  C9  UNL     1     -34.546  17.488  -6.507  1.00 20.00     0.010 C 
HETATM   12  C10 UNL     1     -34.059  15.028  -6.409  1.00 20.00     0.010 C 
ENDBRANCH   8  10
TORSDOF 1
ENDMDL
MODEL 7
REMARK VINA RESULT:      -4.1      3.117      4.737
REMARK  1 active torsions:
REMARK  status: ('A' for Active; 'I' for Inactive)
REMARK    1  A    between atoms: C8_8  and  C11_11 
ROOT
HETATM    1  C1  UNL     1     -35.307  17.749  -0.255  1.00 20.00    -0.076 C 
HETATM    2  C2  UNL     1     -32.676  18.471  -0.612  1.00 20.00     0.136 C 
HETATM    3  C3  UNL     1     -35.642  17.162   0.891  1.00 20.00     0.015 C 
HETATM    4  C4  UNL     1     -35.969  17.863  -1.660  1.00 20.00     0.045 C 
HETATM    5  C5  UNL     1     -32.152  18.631  -2.042  1.00 20.00     0.080 C 
HETATM    6  C6  UNL     1     -33.467  18.647  -2.902  1.00 20.00     0.018 C 
HETATM    7  C7  UNL     1     -34.185  18.595  -0.740  1.00 20.00     0.092 C 
HETATM    8  C8  UNL     1     -34.457  17.784  -2.100  1.00 20.00    -0.019 C 
HETATM    9  O12 UNL     1     -31.979  18.298   0.376  1.00 20.00    -0.297 OA
ENDROOT
BRANCH   8  10
HETATM   10  C11 UNL     1     -34.098  16.288  -2.315  1.00 20.00    -0.013 C 
HETATM   11  C9  UNL     1     -35.338  15.519  -2.735  1.00 20.00     0.010 C 
HETATM   12  C10 UNL     1     -32.993  16.171  -3.349  1.00 20.00     0.010 C 
ENDBRANCH   8  10
TORSDOF 1
ENDMDL
MODEL 8
REMARK VINA RESULT:      -4.0      1.474      2.893
REMARK  1 active torsions:
REMARK  status: ('A' for Active; 'I' for Inactive)
REMARK    1  A    between atoms: C8_8  and  C11_11 
ROOT
HETATM    1  C1  UNL     1     -34.282  15.284  -4.580  1.00 20.00    -0.076 C 
HETATM    2  C2  UNL     1     -36.998  14.854  -4.491  1.00 20.00     0.136 C 
HETATM    3  C3  UNL     1     -33.479  14.235  -4.411  1.00 20.00     0.015 C 
HETATM    4  C4  UNL     1     -34.097  16.828  -4.497  1.00 20.00     0.045 C 
HETATM    5  C5  UNL     1     -37.911  16.034  -4.141  1.00 20.00     0.080 C 
HETATM    6  C6  UNL     1     -36.955  17.273  -4.272  1.00 20.00     0.018 C 
HETATM    7  C7  UNL     1     -35.703  15.497  -4.959  1.00 20.00     0.092 C 
HETATM    8  C8  UNL     1     -35.561  16.719  -3.925  1.00 20.00    -0.019 C 
HETATM    9  O12 UNL     1     -37.309  13.677  -4.404  1.00 20.00    -0.297 OA
ENDROOT
BRANCH   8  10
HETATM   10  C11 UNL     1     -35.463  16.554  -2.383  1.00 20.00    -0.013 C 
HETATM   11  C9  UNL     1     -34.045  16.843  -1.927  1.00 20.00     0.010 C 
HETATM   12  C10 UNL     1     -36.464  17.473  -1.706  1.00 20.00     0.010 C 
ENDBRANCH   8  10
TORSDOF 1
ENDMDL
MODEL 9
REMARK VINA RESULT:      -4.0      1.949      3.449
REMARK  1 active torsions:
REMARK  status: ('A' for Active; 'I' for Inactive)
REMARK    1  A    between atoms: C8_8  and  C11_11 
ROOT
HETATM    1  C1  UNL     1     -36.926  15.652  -5.568  1.00 20.00    -0.076 C 
HETATM    2  C2  UNL     1     -34.286  15.036  -6.040  1.00 20.00     0.136 C 
HETATM    3  C3  UNL     1     -37.512  16.538  -6.370  1.00 20.00     0.015 C 
HETATM    4  C4  UNL     1     -37.250  15.067  -4.162  1.00 20.00     0.045 C 
HETATM    5  C5  UNL     1     -33.449  14.481  -4.882  1.00 20.00     0.080 C 
HETATM    6  C6  UNL     1     -34.534  14.112  -3.807  1.00 20.00     0.018 C 
HETATM    7  C7  UNL     1     -35.726  14.776  -5.631  1.00 20.00     0.092 C 
HETATM    8  C8  UNL     1     -35.678  15.110  -4.060  1.00 20.00    -0.019 C 
HETATM    9  O12 UNL     1     -33.832  15.551  -7.050  1.00 20.00    -0.297 OA
ENDROOT
BRANCH   8  10
HETATM   10  C11 UNL     1     -35.273  16.489  -3.470  1.00 20.00    -0.013 C 
HETATM   11  C9  UNL     1     -36.469  17.123  -2.784  1.00 20.00     0.010 C 
HETATM   12  C10 UNL     1     -34.109  16.312  -2.511  1.00 20.00     0.010 C 
ENDBRANCH   8  10
TORSDOF 1
ENDMDL
