MODEL 1
REMARK VINA RESULT:      -4.8      0.000      0.000
REMARK  0 active torsions:
REMARK  status: ('A' for Active; 'I' for Inactive)
ROOT
HETATM    1  C1  UNL     1     -34.306  14.940  -5.573  1.00 20.00     0.198 C 
HETATM    2  C2  UNL     1     -35.660  15.611  -5.649  1.00 20.00     0.085 C 
HETATM    3  C3  UNL     1     -35.584  17.078  -5.245  1.00 20.00     0.008 C 
HETATM    4  C4  UNL     1     -36.112  17.386  -3.844  1.00 20.00     0.000 C 
HETATM    5  C5  UNL     1     -35.742  16.418  -2.723  1.00 20.00     0.000 C 
HETATM    6  C6  UNL     1     -34.263  16.324  -2.366  1.00 20.00     0.006 C 
HETATM    7  C7  UNL     1     -33.283  15.782  -3.409  1.00 20.00     0.087 C 
HETATM    8  C8  UNL     1     -33.734  14.570  -4.219  1.00 20.00     0.302 C 
HETATM    9  O9  UNL     1     -33.666  14.712  -6.603  1.00 20.00    -0.291 OA
HETATM   10  F10 UNL     1     -32.627  13.788  -4.414  1.00 20.00    -0.198 F 
HETATM   11  F11 UNL     1     -34.588  13.799  -3.499  1.00 20.00    -0.198 F 
ENDROOT
TORSDOF 0
ENDMDL
MODEL 2
REMARK VINA RESULT:      -4.8     17.718     18.553
REMARK  0 active torsions:
REMARK  status: ('A' for Active; 'I' for Inactive)
ROOT
HETATM    1  C1  UNL     1     -25.391  17.542  11.729  1.00 20.00     0.198 C 
HETATM    2  C2  UNL     1     -25.337  18.961  11.206  1.00 20.00     0.085 C 
HETATM    3  C3  UNL     1     -25.437  19.005   9.687  1.00 20.00     0.008 C 
HETATM    4  C4  UNL     1     -24.115  19.263   8.964  1.00 20.00     0.000 C 
HETATM    5  C5  UNL     1     -22.876  18.535   9.479  1.00 20.00     0.000 C 
HETATM    6  C6  UNL     1     -22.880  17.015   9.358  1.00 20.00     0.006 C 
HETATM    7  C7  UNL     1     -23.911  16.212  10.154  1.00 20.00     0.087 C 
HETATM    8  C8  UNL     1     -24.172  16.652  11.591  1.00 20.00     0.302 C 
HETATM    9  O9  UNL     1     -26.424  17.109  12.246  1.00 20.00    -0.291 OA
HETATM   10  F10 UNL     1     -24.380  15.514  12.323  1.00 20.00    -0.198 F 
HETATM   11  F11 UNL     1     -23.063  17.219  12.131  1.00 20.00    -0.198 F 
ENDROOT
TORSDOF 0
ENDMDL
MODEL 3
REMARK VINA RESULT:      -4.7      1.617      1.747
REMARK  0 active torsions:
REMARK  status: ('A' for Active; 'I' for Inactive)
ROOT
HETATM    1  C1  UNL     1     -35.664  14.662  -5.211  1.00 20.00     0.198 C 
HETATM    2  C2  UNL     1     -36.044  16.092  -5.532  1.00 20.00     0.085 C 
HETATM    3  C3  UNL     1     -34.855  16.886  -6.058  1.00 20.00     0.008 C 
HETATM    4  C4  UNL     1     -34.229  17.849  -5.049  1.00 20.00     0.000 C 
HETATM    5  C5  UNL     1     -34.053  17.352  -3.616  1.00 20.00     0.000 C 
HETATM    6  C6  UNL     1     -33.088  16.189  -3.413  1.00 20.00     0.006 C 
HETATM    7  C7  UNL     1     -33.421  14.833  -4.039  1.00 20.00     0.087 C 
HETATM    8  C8  UNL     1     -34.871  14.368  -3.954  1.00 20.00     0.302 C 
HETATM    9  O9  UNL     1     -35.982  13.748  -5.976  1.00 20.00    -0.291 OA
HETATM   10  F10 UNL     1     -34.842  13.012  -3.766  1.00 20.00    -0.198 F 
HETATM   11  F11 UNL     1     -35.473  14.865  -2.843  1.00 20.00    -0.198 F 
ENDROOT
TORSDOF 0
ENDMDL
MODEL 4
REMARK VINA RESULT:      -4.7      1.774      2.081
REMARK  0 active torsions:
REMARK  status: ('A' for Active; 'I' for Inactive)
ROOT
HETATM    1  C1  UNL     1     -35.853  13.865  -4.278  1.00 20.00     0.198 C 
HETATM    2  C2  UNL     1     -37.126  14.674  -4.151  1.00 20.00     0.085 C 
HETATM    3  C3  UNL     1     -37.305  15.628  -5.325  1.00 20.00     0.008 C 
HETATM    4  C4  UNL     1     -36.985  17.092  -5.017  1.00 20.00     0.000 C 
HETATM    5  C5  UNL     1     -35.747  17.379  -4.172  1.00 20.00     0.000 C 
HETATM    6  C6  UNL     1     -34.402  17.002  -4.784  1.00 20.00     0.006 C 
HETATM    7  C7  UNL     1     -34.101  15.526  -5.057  1.00 20.00     0.087 C 
HETATM    8  C8  UNL     1     -34.521  14.524  -3.986  1.00 20.00     0.302 C 
HETATM    9  O9  UNL     1     -35.900  12.684  -4.634  1.00 20.00    -0.291 OA
HETATM   10  F10 UNL     1     -33.555  13.555  -3.950  1.00 20.00    -0.198 F 
HETATM   11  F11 UNL     1     -34.494  15.095  -2.755  1.00 20.00    -0.198 F 
ENDROOT
TORSDOF 0
ENDMDL
MODEL 5
REMARK VINA RESULT:      -4.6      1.665      2.241
REMARK  0 active torsions:
REMARK  status: ('A' for Active; 'I' for Inactive)
ROOT
HETATM    1  C1  UNL     1     -35.324  14.319  -5.522  1.00 20.00     0.198 C 
HETATM    2  C2  UNL     1     -35.758  14.023  -4.103  1.00 20.00     0.085 C 
HETATM    3  C3  UNL     1     -36.299  15.266  -3.409  1.00 20.00     0.008 C 
HETATM    4  C4  UNL     1     -35.341  15.911  -2.408  1.00 20.00     0.000 C 
HETATM    5  C5  UNL     1     -33.872  16.019  -2.807  1.00 20.00     0.000 C 
HETATM    6  C6  UNL     1     -33.554  16.916  -3.998  1.00 20.00     0.006 C 
HETATM    7  C7  UNL     1     -34.093  16.533  -5.378  1.00 20.00     0.087 C 
HETATM    8  C8  UNL     1     -34.024  15.059  -5.764  1.00 20.00     0.302 C 
HETATM    9  O9  UNL     1     -36.033  13.977  -6.473  1.00 20.00    -0.291 OA
HETATM   10  F10 UNL     1     -33.739  15.012  -7.102  1.00 20.00    -0.198 F 
HETATM   11  F11 UNL     1     -32.972  14.451  -5.158  1.00 20.00    -0.198 F 
ENDROOT
TORSDOF 0
ENDMDL
MODEL 6
REMARK VINA RESULT:      -4.5      1.706      2.184
REMARK  0 active torsions:
REMARK  status: ('A' for Active; 'I' for Inactive)
ROOT
HETATM    1  C1  UNL     1     -34.209  14.389  -4.038  1.00 20.00     0.198 C 
HETATM    2  C2  UNL     1     -35.597  13.828  -4.260  1.00 20.00     0.085 C 
HETATM    3  C3  UNL     1     -36.337  14.574  -5.362  1.00 20.00     0.008 C 
HETATM    4  C4  UNL     1     -37.401  15.557  -4.870  1.00 20.00     0.000 C 
HETATM    5  C5  UNL     1     -37.054  16.424  -3.664  1.00 20.00     0.000 C 
HETATM    6  C6  UNL     1     -35.921  17.428  -3.850  1.00 20.00     0.006 C 
HETATM    7  C7  UNL     1     -34.507  16.908  -4.116  1.00 20.00     0.087 C 
HETATM    8  C8  UNL     1     -34.048  15.703  -3.300  1.00 20.00     0.302 C 
HETATM    9  O9  UNL     1     -33.221  13.791  -4.470  1.00 20.00    -0.291 OA
HETATM   10  F10 UNL     1     -32.719  15.890  -3.030  1.00 20.00    -0.198 F 
HETATM   11  F11 UNL     1     -34.654  15.684  -2.086  1.00 20.00    -0.198 F 
ENDROOT
TORSDOF 0
ENDMDL
MODEL 7
REMARK VINA RESULT:      -4.5      2.018      3.044
REMARK  0 active torsions:
REMARK  status: ('A' for Active; 'I' for Inactive)
ROOT
HETATM    1  C1  UNL     1     -35.324  13.942  -4.722  1.00 20.00     0.198 C 
HETATM    2  C2  UNL     1     -34.465  14.410  -3.568  1.00 20.00     0.085 C 
HETATM    3  C3  UNL     1     -35.105  15.576  -2.826  1.00 20.00     0.008 C 
HETATM    4  C4  UNL     1     -34.494  16.944  -3.129  1.00 20.00     0.000 C 
HETATM    5  C5  UNL     1     -34.149  17.254  -4.583  1.00 20.00     0.000 C 
HETATM    6  C6  UNL     1     -35.318  17.333  -5.559  1.00 20.00     0.006 C 
HETATM    7  C7  UNL     1     -36.142  16.073  -5.830  1.00 20.00     0.087 C 
HETATM    8  C8  UNL     1     -35.374  14.765  -5.993  1.00 20.00     0.302 C 
HETATM    9  O9  UNL     1     -35.991  12.909  -4.621  1.00 20.00    -0.291 OA
HETATM   10  F10 UNL     1     -36.025  14.040  -6.955  1.00 20.00    -0.198 F 
HETATM   11  F11 UNL     1     -34.136  14.993  -6.502  1.00 20.00    -0.198 F 
ENDROOT
TORSDOF 0
ENDMDL
MODEL 8
REMARK VINA RESULT:      -4.4      1.924      2.913
REMARK  0 active torsions:
REMARK  status: ('A' for Active; 'I' for Inactive)
ROOT
HETATM    1  C1  UNL     1     -34.599  14.272  -4.040  1.00 20.00     0.198 C 
HETATM    2  C2  UNL     1     -33.900  15.420  -3.345  1.00 20.00     0.085 C 
HETATM    3  C3  UNL     1     -34.689  15.913  -2.139  1.00 20.00     0.008 C 
HETATM    4  C4  UNL     1     -35.450  17.221  -2.360  1.00 20.00     0.000 C 
HETATM    5  C5  UNL     1     -36.183  17.393  -3.688  1.00 20.00     0.000 C 
HETATM    6  C6  UNL     1     -37.339  16.437  -3.956  1.00 20.00     0.006 C 
HETATM    7  C7  UNL     1     -37.046  14.943  -4.100  1.00 20.00     0.087 C 
HETATM    8  C8  UNL     1     -35.810  14.554  -4.906  1.00 20.00     0.302 C 
HETATM    9  O9  UNL     1     -34.198  13.116  -3.886  1.00 20.00    -0.291 OA
HETATM   10  F10 UNL     1     -36.127  13.413  -5.594  1.00 20.00    -0.198 F 
HETATM   11  F11 UNL     1     -35.548  15.480  -5.863  1.00 20.00    -0.198 F 
ENDROOT
TORSDOF 0
ENDMDL
MODEL 9
REMARK VINA RESULT:      -4.3     16.788     18.024
REMARK  0 active torsions:
REMARK  status: ('A' for Active; 'I' for Inactive)
ROOT
HETATM    1  C1  UNL     1     -23.306  16.892   9.688  1.00 20.00     0.198 C 
HETATM    2  C2  UNL     1     -23.544  16.634  11.160  1.00 20.00     0.085 C 
HETATM    3  C3  UNL     1     -25.020  16.409  11.461  1.00 20.00     0.008 C 
HETATM    4  C4  UNL     1     -25.732  17.598  12.107  1.00 20.00     0.000 C 
HETATM    5  C5  UNL     1     -25.419  18.988  11.561  1.00 20.00     0.000 C 
HETATM    6  C6  UNL     1     -25.834  19.263  10.120  1.00 20.00     0.006 C 
HETATM    7  C7  UNL     1     -25.169  18.469   8.994  1.00 20.00     0.087 C 
HETATM    8  C8  UNL     1     -23.664  18.242   9.102  1.00 20.00     0.302 C 
HETATM    9  O9  UNL     1     -22.842  16.003   8.969  1.00 20.00    -0.291 OA
HETATM   10  F10 UNL     1     -23.160  18.312   7.831  1.00 20.00    -0.198 F 
HETATM   11  F11 UNL     1     -23.070  19.262   9.772  1.00 20.00    -0.198 F 
ENDROOT
TORSDOF 0
ENDMDL
