MODEL 1
REMARK VINA RESULT:      -4.2      0.000      0.000
REMARK  3 active torsions:
REMARK  status: ('A' for Active; 'I' for Inactive)
REMARK    1  A    between atoms: C3_3  and  C5_5 
REMARK    2  A    between atoms: C4_4  and  C5_5 
REMARK    3  A    between atoms: C5_5  and  O6_6 
ROOT
HETATM    1  C5  UNL     1     -33.706   4.964   3.891  1.00 20.00     0.132 C 
ENDROOT
BRANCH   1   2
HETATM    2  C3  UNL     1     -34.583   5.857   4.697  1.00 20.00     0.015 A 
HETATM    3  C1  UNL     1     -34.869   5.539   6.138  1.00 20.00     0.007 A 
HETATM    4  C2  UNL     1     -33.998   6.712   5.786  1.00 20.00     0.007 A 
ENDBRANCH   1   2
BRANCH   1   5
HETATM    5  C4  UNL     1     -33.524   5.494   2.471  1.00 20.00     0.117 C 
HETATM    6 BR7  UNL     1     -32.442   7.119   2.477  1.00 20.00    -0.094 Br
ENDBRANCH   1   5
BRANCH   1   7
HETATM    7  O6  UNL     1     -34.298   3.664   3.811  1.00 20.00    -0.394 OA
HETATM    8  H16 UNL     1     -35.254   3.798   3.879  1.00 20.00     0.210 HD
ENDBRANCH   1   7
TORSDOF 3
ENDMDL
MODEL 2
REMARK VINA RESULT:      -4.1      1.425      1.425
REMARK  3 active torsions:
REMARK  status: ('A' for Active; 'I' for Inactive)
REMARK    1  A    between atoms: C3_3  and  C5_5 
REMARK    2  A    between atoms: C4_4  and  C5_5 
REMARK    3  A    between atoms: C5_5  and  O6_6 
ROOT
HETATM    1  C5  UNL     1     -33.207   5.933   3.549  1.00 20.00     0.132 C 
ENDROOT
BRANCH   1   2
HETATM    2  C3  UNL     1     -34.358   6.247   4.441  1.00 20.00     0.015 A 
HETATM    3  C1  UNL     1     -34.773   5.277   5.512  1.00 20.00     0.007 A 
HETATM    4  C2  UNL     1     -34.126   6.580   5.888  1.00 20.00     0.007 A 
ENDBRANCH   1   2
BRANCH   1   5
HETATM    5  C4  UNL     1     -32.364   7.174   3.270  1.00 20.00     0.117 C 
HETATM    6 BR7  UNL     1     -32.591   7.758   1.421  1.00 20.00    -0.094 Br
ENDBRANCH   1   5
BRANCH   1   7
HETATM    7  O6  UNL     1     -33.696   5.433   2.301  1.00 20.00    -0.394 OA
HETATM    8  H16 UNL     1     -34.196   6.157   1.897  1.00 20.00     0.210 HD
ENDBRANCH   1   7
TORSDOF 3
ENDMDL
MODEL 3
REMARK VINA RESULT:      -3.9      2.297      3.324
REMARK  3 active torsions:
REMARK  status: ('A' for Active; 'I' for Inactive)
REMARK    1  A    between atoms: C3_3  and  C5_5 
REMARK    2  A    between atoms: C4_4  and  C5_5 
REMARK    3  A    between atoms: C5_5  and  O6_6 
ROOT
HETATM    1  C5  UNL     1     -33.960   5.860   3.270  1.00 20.00     0.132 C 
ENDROOT
BRANCH   1   2
HETATM    2  C3  UNL     1     -32.675   6.247   2.623  1.00 20.00     0.015 A 
HETATM    3  C1  UNL     1     -32.596   7.488   1.778  1.00 20.00     0.007 A 
HETATM    4  C2  UNL     1     -31.910   7.443   3.115  1.00 20.00     0.007 A 
ENDBRANCH   1   2
BRANCH   1   5
HETATM    5  C4  UNL     1     -34.111   6.511   4.643  1.00 20.00     0.117 C 
HETATM    6 BR7  UNL     1     -34.754   5.214   5.952  1.00 20.00    -0.094 Br
ENDBRANCH   1   5
BRANCH   1   7
HETATM    7  O6  UNL     1     -33.996   4.441   3.441  1.00 20.00    -0.394 OA
HETATM    8  H16 UNL     1     -33.364   4.075   2.806  1.00 20.00     0.210 HD
ENDBRANCH   1   7
TORSDOF 3
ENDMDL
MODEL 4
REMARK VINA RESULT:      -3.8     16.048     16.585
REMARK  3 active torsions:
REMARK  status: ('A' for Active; 'I' for Inactive)
REMARK    1  A    between atoms: C3_3  and  C5_5 
REMARK    2  A    between atoms: C4_4  and  C5_5 
REMARK    3  A    between atoms: C5_5  and  O6_6 
ROOT
HETATM    1  C5  UNL     1     -22.894  17.083  10.111  1.00 20.00     0.132 C 
ENDROOT
BRANCH   1   2
HETATM    2  C3  UNL     1     -24.267  16.611  10.444  1.00 20.00     0.015 A 
HETATM    3  C1  UNL     1     -24.511  15.817  11.697  1.00 20.00     0.007 A 
HETATM    4  C2  UNL     1     -25.022  17.226  11.589  1.00 20.00     0.007 A 
ENDBRANCH   1   2
BRANCH   1   5
HETATM    5  C4  UNL     1     -22.905  18.531   9.626  1.00 20.00     0.117 C 
HETATM    6 BR7  UNL     1     -24.174  18.757   8.160  1.00 20.00    -0.094 Br
ENDBRANCH   1   5
BRANCH   1   7
HETATM    7  O6  UNL     1     -22.351  16.267   9.070  1.00 20.00    -0.394 OA
HETATM    8  H16 UNL     1     -21.391  16.377   9.112  1.00 20.00     0.210 HD
ENDBRANCH   1   7
TORSDOF 3
ENDMDL
MODEL 5
REMARK VINA RESULT:      -3.8     12.883     13.348
REMARK  3 active torsions:
REMARK  status: ('A' for Active; 'I' for Inactive)
REMARK    1  A    between atoms: C3_3  and  C5_5 
REMARK    2  A    between atoms: C4_4  and  C5_5 
REMARK    3  A    between atoms: C5_5  and  O6_6 
ROOT
HETATM    1  C5  UNL     1     -34.103  15.202  -5.365  1.00 20.00     0.132 C 
ENDROOT
BRANCH   1   2
HETATM    2  C3  UNL     1     -33.756  14.996  -3.932  1.00 20.00     0.015 A 
HETATM    3  C1  UNL     1     -33.330  16.160  -3.081  1.00 20.00     0.007 A 
HETATM    4  C2  UNL     1     -34.666  15.510  -2.851  1.00 20.00     0.007 A 
ENDBRANCH   1   2
BRANCH   1   5
HETATM    5  C4  UNL     1     -35.478  14.625  -5.695  1.00 20.00     0.117 C 
HETATM    6 BR7  UNL     1     -36.750  16.056  -6.078  1.00 20.00    -0.094 Br
ENDBRANCH   1   5
BRANCH   1   7
HETATM    7  O6  UNL     1     -33.134  14.546  -6.187  1.00 20.00    -0.394 OA
HETATM    8  H16 UNL     1     -33.006  13.666  -5.805  1.00 20.00     0.210 HD
ENDBRANCH   1   7
TORSDOF 3
ENDMDL
MODEL 6
REMARK VINA RESULT:      -3.8     16.699     17.091
REMARK  3 active torsions:
REMARK  status: ('A' for Active; 'I' for Inactive)
REMARK    1  A    between atoms: C3_3  and  C5_5 
REMARK    2  A    between atoms: C4_4  and  C5_5 
REMARK    3  A    between atoms: C5_5  and  O6_6 
ROOT
HETATM    1  C5  UNL     1     -23.657  16.877   9.713  1.00 20.00     0.132 C 
ENDROOT
BRANCH   1   2
HETATM    2  C3  UNL     1     -23.679  18.334   9.408  1.00 20.00     0.015 A 
HETATM    3  C1  UNL     1     -24.280  18.830   8.122  1.00 20.00     0.007 A 
HETATM    4  C2  UNL     1     -24.978  19.092   9.427  1.00 20.00     0.007 A 
ENDBRANCH   1   2
BRANCH   1   5
HETATM    5  C4  UNL     1     -23.853  16.616  11.204  1.00 20.00     0.117 C 
HETATM    6 BR7  UNL     1     -22.690  17.772  12.264  1.00 20.00    -0.094 Br
ENDBRANCH   1   5
BRANCH   1   7
HETATM    7  O6  UNL     1     -22.393  16.331   9.325  1.00 20.00    -0.394 OA
HETATM    8  H16 UNL     1     -22.588  15.546   8.795  1.00 20.00     0.210 HD
ENDBRANCH   1   7
TORSDOF 3
ENDMDL
MODEL 7
REMARK VINA RESULT:      -3.8     16.845     17.352
REMARK  3 active torsions:
REMARK  status: ('A' for Active; 'I' for Inactive)
REMARK    1  A    between atoms: C3_3  and  C5_5 
REMARK    2  A    between atoms: C4_4  and  C5_5 
REMARK    3  A    between atoms: C5_5  and  O6_6 
ROOT
HETATM    1  C5  UNL     1     -23.930  17.019  11.374  1.00 20.00     0.132 C 
ENDROOT
BRANCH   1   2
HETATM    2  C3  UNL     1     -22.793  17.435  10.506  1.00 20.00     0.015 A 
HETATM    3  C1  UNL     1     -22.790  17.088   9.043  1.00 20.00     0.007 A 
HETATM    4  C2  UNL     1     -22.982  18.514   9.477  1.00 20.00     0.007 A 
ENDBRANCH   1   2
BRANCH   1   5
HETATM    5  C4  UNL     1     -24.338  18.136  12.332  1.00 20.00     0.117 C 
HETATM    6 BR7  UNL     1     -26.082  18.861  11.840  1.00 20.00    -0.094 Br
ENDBRANCH   1   5
BRANCH   1   7
HETATM    7  O6  UNL     1     -23.542  15.882  12.150  1.00 20.00    -0.394 OA
HETATM    8  H16 UNL     1     -24.147  15.851  12.905  1.00 20.00     0.210 HD
ENDBRANCH   1   7
TORSDOF 3
ENDMDL
MODEL 8
REMARK VINA RESULT:      -3.7     12.200     12.902
REMARK  3 active torsions:
REMARK  status: ('A' for Active; 'I' for Inactive)
REMARK    1  A    between atoms: C3_3  and  C5_5 
REMARK    2  A    between atoms: C4_4  and  C5_5 
REMARK    3  A    between atoms: C5_5  and  O6_6 
ROOT
HETATM    1  C5  UNL     1     -33.901  15.015  -4.595  1.00 20.00     0.132 C 
ENDROOT
BRANCH   1   2
HETATM    2  C3  UNL     1     -33.172  15.739  -3.518  1.00 20.00     0.015 A 
HETATM    3  C1  UNL     1     -33.278  17.234  -3.404  1.00 20.00     0.007 A 
HETATM    4  C2  UNL     1     -33.927  16.354  -2.373  1.00 20.00     0.007 A 
ENDBRANCH   1   2
BRANCH   1   5
HETATM    5  C4  UNL     1     -34.787  13.910  -4.024  1.00 20.00     0.117 C 
HETATM    6 BR7  UNL     1     -36.658  14.222  -4.482  1.00 20.00    -0.094 Br
ENDBRANCH   1   5
BRANCH   1   7
HETATM    7  O6  UNL     1     -32.957  14.416  -5.487  1.00 20.00    -0.394 OA
HETATM    8  H16 UNL     1     -33.459  14.144  -6.269  1.00 20.00     0.210 HD
ENDBRANCH   1   7
TORSDOF 3
ENDMDL
MODEL 9
REMARK VINA RESULT:      -3.7      9.254      9.553
REMARK  3 active torsions:
REMARK  status: ('A' for Active; 'I' for Inactive)
REMARK    1  A    between atoms: C3_3  and  C5_5 
REMARK    2  A    between atoms: C4_4  and  C5_5 
REMARK    3  A    between atoms: C5_5  and  O6_6 
ROOT
HETATM    1  C5  UNL     1     -41.514   5.556  -1.120  1.00 20.00     0.132 C 
ENDROOT
BRANCH   1   2
HETATM    2  C3  UNL     1     -41.425   6.042   0.284  1.00 20.00     0.015 A 
HETATM    3  C1  UNL     1     -41.291   7.512   0.570  1.00 20.00     0.007 A 
HETATM    4  C2  UNL     1     -42.571   6.797   0.898  1.00 20.00     0.007 A 
ENDBRANCH   1   2
BRANCH   1   5
HETATM    5  C4  UNL     1     -42.853   4.874  -1.391  1.00 20.00     0.117 C 
HETATM    6 BR7  UNL     1     -42.644   3.449  -2.709  1.00 20.00    -0.094 Br
ENDBRANCH   1   5
BRANCH   1   7
HETATM    7  O6  UNL     1     -40.471   4.607  -1.360  1.00 20.00    -0.394 OA
HETATM    8  H16 UNL     1     -40.870   3.732  -1.250  1.00 20.00     0.210 HD
ENDBRANCH   1   7
TORSDOF 3
ENDMDL
