MODEL 1
REMARK VINA RESULT:      -5.4      0.000      0.000
REMARK  1 active torsions:
REMARK  status: ('A' for Active; 'I' for Inactive)
REMARK    1  A    between atoms: C6_6  and  C11_11 
ROOT
HETATM    1  C1  UNL     1     -32.404  18.776   1.169  1.00 20.00    -0.004 C 
HETATM    2  C2  UNL     1     -33.738  18.240   1.084  1.00 20.00    -0.003 C 
HETATM    3  C3  UNL     1     -31.569  18.720   0.123  1.00 20.00    -0.025 C 
HETATM    4  C4  UNL     1     -34.272  17.879  -0.092  1.00 20.00    -0.013 C 
HETATM    5  C7  UNL     1     -31.976  18.107  -1.190  1.00 20.00     0.044 C 
HETATM    6  C11 UNL     1     -33.519  17.994  -1.408  1.00 20.00    -0.000 C 
HETATM    7  C12 UNL     1     -34.037  19.248  -2.137  1.00 20.00     0.025 C 
ENDROOT
BRANCH   6   8
HETATM    8  C6  UNL     1     -33.798  16.795  -2.280  1.00 20.00    -0.071 C 
HETATM    9  C5  UNL     1     -33.024  16.312  -3.259  1.00 20.00    -0.023 C 
HETATM   10  C8  UNL     1     -33.609  15.086  -3.876  1.00 20.00     0.027 C 
HETATM   11  C10 UNL     1     -35.039  15.082  -3.338  1.00 20.00     0.008 C 
HETATM   12  C9  UNL     1     -35.029  15.966  -2.089  1.00 20.00     0.035 C 
ENDBRANCH   6   8
TORSDOF 1
ENDMDL
MODEL 2
REMARK VINA RESULT:      -5.3      0.818      4.412
REMARK  1 active torsions:
REMARK  status: ('A' for Active; 'I' for Inactive)
REMARK    1  A    between atoms: C6_6  and  C11_11 
ROOT
HETATM    1  C1  UNL     1     -34.587  15.496  -3.137  1.00 20.00    -0.004 C 
HETATM    2  C2  UNL     1     -33.240  15.947  -3.376  1.00 20.00    -0.003 C 
HETATM    3  C3  UNL     1     -35.300  15.966  -2.106  1.00 20.00    -0.025 C 
HETATM    4  C4  UNL     1     -32.733  17.006  -2.729  1.00 20.00    -0.013 C 
HETATM    5  C7  UNL     1     -34.742  16.987  -1.151  1.00 20.00     0.044 C 
HETATM    6  C11 UNL     1     -33.524  17.797  -1.698  1.00 20.00    -0.000 C 
HETATM    7  C12 UNL     1     -34.017  19.089  -2.375  1.00 20.00     0.025 C 
ENDROOT
BRANCH   6   8
HETATM    8  C6  UNL     1     -32.638  18.182  -0.539  1.00 20.00    -0.071 C 
HETATM    9  C5  UNL     1     -31.311  18.354  -0.561  1.00 20.00    -0.023 C 
HETATM   10  C8  UNL     1     -30.783  18.772   0.769  1.00 20.00     0.027 C 
HETATM   11  C10 UNL     1     -31.963  18.508   1.703  1.00 20.00     0.008 C 
HETATM   12  C9  UNL     1     -33.208  18.456   0.816  1.00 20.00     0.035 C 
ENDBRANCH   6   8
TORSDOF 1
ENDMDL
MODEL 3
REMARK VINA RESULT:      -5.3      0.969      1.256
REMARK  1 active torsions:
REMARK  status: ('A' for Active; 'I' for Inactive)
REMARK    1  A    between atoms: C6_6  and  C11_11 
ROOT
HETATM    1  C1  UNL     1     -34.055  18.213   0.958  1.00 20.00    -0.004 C 
HETATM    2  C2  UNL     1     -35.157  17.367   0.579  1.00 20.00    -0.003 C 
HETATM    3  C3  UNL     1     -33.041  18.446   0.115  1.00 20.00    -0.025 C 
HETATM    4  C4  UNL     1     -35.328  16.971  -0.691  1.00 20.00    -0.013 C 
HETATM    5  C7  UNL     1     -32.999  17.849  -1.266  1.00 20.00     0.044 C 
HETATM    6  C11 UNL     1     -34.381  17.368  -1.813  1.00 20.00    -0.000 C 
HETATM    7  C12 UNL     1     -35.049  18.503  -2.612  1.00 20.00     0.025 C 
ENDROOT
BRANCH   6   8
HETATM    8  C6  UNL     1     -34.155  16.206  -2.746  1.00 20.00    -0.071 C 
HETATM    9  C5  UNL     1     -33.058  15.955  -3.470  1.00 20.00    -0.023 C 
HETATM   10  C8  UNL     1     -33.183  14.688  -4.248  1.00 20.00     0.027 C 
HETATM   11  C10 UNL     1     -34.673  14.369  -4.142  1.00 20.00     0.008 C 
HETATM   12  C9  UNL     1     -35.192  15.143  -2.929  1.00 20.00     0.035 C 
ENDBRANCH   6   8
TORSDOF 1
ENDMDL
MODEL 4
REMARK VINA RESULT:      -5.3      1.651      5.410
REMARK  1 active torsions:
REMARK  status: ('A' for Active; 'I' for Inactive)
REMARK    1  A    between atoms: C6_6  and  C11_11 
ROOT
HETATM    1  C1  UNL     1     -35.970  14.379  -6.149  1.00 20.00    -0.004 C 
HETATM    2  C2  UNL     1     -36.018  13.765  -4.848  1.00 20.00    -0.003 C 
HETATM    3  C3  UNL     1     -35.294  15.518  -6.351  1.00 20.00    -0.025 C 
HETATM    4  C4  UNL     1     -35.213  14.170  -3.854  1.00 20.00    -0.013 C 
HETATM    5  C7  UNL     1     -34.548  16.209  -5.242  1.00 20.00     0.044 C 
HETATM    6  C11 UNL     1     -34.210  15.301  -4.017  1.00 20.00    -0.000 C 
HETATM    7  C12 UNL     1     -32.817  14.670  -4.202  1.00 20.00     0.025 C 
ENDROOT
BRANCH   6   8
HETATM    8  C6  UNL     1     -34.177  16.157  -2.775  1.00 20.00    -0.071 C 
HETATM    9  C5  UNL     1     -35.149  16.296  -1.866  1.00 20.00    -0.023 C 
HETATM   10  C8  UNL     1     -34.742  17.197  -0.749  1.00 20.00     0.027 C 
HETATM   11  C10 UNL     1     -33.474  17.856  -1.289  1.00 20.00     0.008 C 
HETATM   12  C9  UNL     1     -32.962  16.948  -2.409  1.00 20.00     0.035 C 
ENDBRANCH   6   8
TORSDOF 1
ENDMDL
MODEL 5
REMARK VINA RESULT:      -5.3      0.837      4.578
REMARK  1 active torsions:
REMARK  status: ('A' for Active; 'I' for Inactive)
REMARK    1  A    between atoms: C6_6  and  C11_11 
ROOT
HETATM    1  C1  UNL     1     -34.476  15.508  -3.148  1.00 20.00    -0.004 C 
HETATM    2  C2  UNL     1     -33.142  16.021  -3.333  1.00 20.00    -0.003 C 
HETATM    3  C3  UNL     1     -35.241  15.927  -2.132  1.00 20.00    -0.025 C 
HETATM    4  C4  UNL     1     -32.703  17.087  -2.650  1.00 20.00    -0.013 C 
HETATM    5  C7  UNL     1     -34.759  16.950  -1.140  1.00 20.00     0.044 C 
HETATM    6  C11 UNL     1     -33.559  17.822  -1.630  1.00 20.00    -0.000 C 
HETATM    7  C12 UNL     1     -34.086  19.106  -2.299  1.00 20.00     0.025 C 
ENDROOT
BRANCH   6   8
HETATM    8  C6  UNL     1     -32.729  18.220  -0.436  1.00 20.00    -0.071 C 
HETATM    9  C5  UNL     1     -33.165  18.452   0.808  1.00 20.00    -0.023 C 
HETATM   10  C8  UNL     1     -32.047  18.786   1.736  1.00 20.00     0.027 C 
HETATM   11  C10 UNL     1     -30.881  19.049   0.784  1.00 20.00     0.008 C 
HETATM   12  C9  UNL     1     -31.244  18.367  -0.536  1.00 20.00     0.035 C 
ENDBRANCH   6   8
TORSDOF 1
ENDMDL
MODEL 6
REMARK VINA RESULT:      -4.9      1.448      5.152
REMARK  1 active torsions:
REMARK  status: ('A' for Active; 'I' for Inactive)
REMARK    1  A    between atoms: C6_6  and  C11_11 
ROOT
HETATM    1  C1  UNL     1     -36.210  13.656  -4.502  1.00 20.00    -0.004 C 
HETATM    2  C2  UNL     1     -34.834  13.634  -4.076  1.00 20.00    -0.003 C 
HETATM    3  C3  UNL     1     -37.001  14.702  -4.230  1.00 20.00    -0.025 C 
HETATM    4  C4  UNL     1     -34.233  14.735  -3.603  1.00 20.00    -0.013 C 
HETATM    5  C7  UNL     1     -36.500  15.905  -3.476  1.00 20.00     0.044 C 
HETATM    6  C11 UNL     1     -34.947  16.071  -3.467  1.00 20.00    -0.000 C 
HETATM    7  C12 UNL     1     -34.509  16.958  -4.648  1.00 20.00     0.025 C 
ENDROOT
BRANCH   6   8
HETATM    8  C6  UNL     1     -34.540  16.757  -2.187  1.00 20.00    -0.071 C 
HETATM    9  C5  UNL     1     -35.283  16.912  -1.085  1.00 20.00    -0.023 C 
HETATM   10  C8  UNL     1     -34.531  17.609  -0.001  1.00 20.00     0.027 C 
HETATM   11  C10 UNL     1     -33.307  18.156  -0.734  1.00 20.00     0.008 C 
HETATM   12  C9  UNL     1     -33.170  17.331  -2.015  1.00 20.00     0.035 C 
ENDBRANCH   6   8
TORSDOF 1
ENDMDL
MODEL 7
REMARK VINA RESULT:      -4.8      2.057      5.684
REMARK  1 active torsions:
REMARK  status: ('A' for Active; 'I' for Inactive)
REMARK    1  A    between atoms: C6_6  and  C11_11 
ROOT
HETATM    1  C1  UNL     1     -35.411  15.292  -7.309  1.00 20.00    -0.004 C 
HETATM    2  C2  UNL     1     -36.415  15.729  -6.373  1.00 20.00    -0.003 C 
HETATM    3  C3  UNL     1     -34.170  14.996  -6.903  1.00 20.00    -0.025 C 
HETATM    4  C4  UNL     1     -36.223  15.638  -5.050  1.00 20.00    -0.013 C 
HETATM    5  C7  UNL     1     -33.760  15.096  -5.458  1.00 20.00     0.044 C 
HETATM    6  C11 UNL     1     -34.944  15.085  -4.440  1.00 20.00    -0.000 C 
HETATM    7  C12 UNL     1     -35.228  13.641  -3.984  1.00 20.00     0.025 C 
ENDROOT
BRANCH   6   8
HETATM    8  C6  UNL     1     -34.548  15.891  -3.228  1.00 20.00    -0.071 C 
HETATM    9  C5  UNL     1     -35.335  16.246  -2.204  1.00 20.00    -0.023 C 
HETATM   10  C8  UNL     1     -34.584  17.009  -1.166  1.00 20.00     0.027 C 
HETATM   11  C10 UNL     1     -33.275  17.353  -1.875  1.00 20.00     0.008 C 
HETATM   12  C9  UNL     1     -33.143  16.365  -3.034  1.00 20.00     0.035 C 
ENDBRANCH   6   8
TORSDOF 1
ENDMDL
MODEL 8
REMARK VINA RESULT:      -4.7      2.313      4.275
REMARK  1 active torsions:
REMARK  status: ('A' for Active; 'I' for Inactive)
REMARK    1  A    between atoms: C6_6  and  C11_11 
ROOT
HETATM    1  C1  UNL     1     -34.427  16.992  -1.547  1.00 20.00    -0.004 C 
HETATM    2  C2  UNL     1     -33.191  16.826  -2.268  1.00 20.00    -0.003 C 
HETATM    3  C3  UNL     1     -35.605  16.725  -2.125  1.00 20.00    -0.025 C 
HETATM    4  C4  UNL     1     -33.151  16.189  -3.447  1.00 20.00    -0.013 C 
HETATM    5  C7  UNL     1     -35.703  16.235  -3.544  1.00 20.00     0.044 C 
HETATM    6  C11 UNL     1     -34.390  15.610  -4.113  1.00 20.00    -0.000 C 
HETATM    7  C12 UNL     1     -34.386  14.089  -3.868  1.00 20.00     0.025 C 
ENDROOT
BRANCH   6   8
HETATM    8  C6  UNL     1     -34.345  15.846  -5.602  1.00 20.00    -0.071 C 
HETATM    9  C5  UNL     1     -34.028  14.957  -6.550  1.00 20.00    -0.023 C 
HETATM   10  C8  UNL     1     -34.130  15.542  -7.918  1.00 20.00     0.027 C 
HETATM   11  C10 UNL     1     -34.243  17.041  -7.640  1.00 20.00     0.008 C 
HETATM   12  C9  UNL     1     -34.708  17.173  -6.189  1.00 20.00     0.035 C 
ENDBRANCH   6   8
TORSDOF 1
ENDMDL
MODEL 9
REMARK VINA RESULT:      -4.6      1.543      2.685
REMARK  1 active torsions:
REMARK  status: ('A' for Active; 'I' for Inactive)
REMARK    1  A    between atoms: C6_6  and  C11_11 
ROOT
HETATM    1  C1  UNL     1     -36.415  19.047  -0.764  1.00 20.00    -0.004 C 
HETATM    2  C2  UNL     1     -35.961  19.263  -2.114  1.00 20.00    -0.003 C 
HETATM    3  C3  UNL     1     -36.072  17.942  -0.089  1.00 20.00    -0.025 C 
HETATM    4  C4  UNL     1     -35.006  18.497  -2.661  1.00 20.00    -0.013 C 
HETATM    5  C7  UNL     1     -35.197  16.878  -0.694  1.00 20.00     0.044 C 
HETATM    6  C11 UNL     1     -34.344  17.348  -1.915  1.00 20.00    -0.000 C 
HETATM    7  C12 UNL     1     -32.965  17.835  -1.433  1.00 20.00     0.025 C 
ENDROOT
BRANCH   6   8
HETATM    8  C6  UNL     1     -34.132  16.175  -2.839  1.00 20.00    -0.071 C 
HETATM    9  C5  UNL     1     -33.012  15.863  -3.502  1.00 20.00    -0.023 C 
HETATM   10  C8  UNL     1     -33.165  14.606  -4.290  1.00 20.00     0.027 C 
HETATM   11  C10 UNL     1     -34.674  14.371  -4.268  1.00 20.00     0.008 C 
HETATM   12  C9  UNL     1     -35.215  15.173  -3.083  1.00 20.00     0.035 C 
ENDBRANCH   6   8
TORSDOF 1
ENDMDL
