MODEL 1
REMARK VINA RESULT:      -5.3      0.000      0.000
REMARK  0 active torsions:
REMARK  status: ('A' for Active; 'I' for Inactive)
ROOT
HETATM    1  C1  UNL     1     -33.811   6.667   4.266  1.00 20.00     0.078 C 
HETATM    2  C2  UNL     1     -33.041   5.482   2.325  1.00 20.00     0.152 C 
HETATM    3  C3  UNL     1     -32.989   6.645   3.219  1.00 20.00     0.134 C 
HETATM    4  C4  UNL     1     -34.122   4.190   3.959  1.00 20.00     0.213 C 
HETATM    5  C5  UNL     1     -34.695   5.490   4.538  1.00 20.00     0.217 C 
HETATM    6  N6  UNL     1     -33.586   4.347   2.592  1.00 20.00    -0.294 NA
HETATM    7  F7  UNL     1     -32.207   7.674   2.858  1.00 20.00    -0.205 F 
HETATM    8  F8  UNL     1     -35.921   5.700   3.978  1.00 20.00    -0.219 F 
HETATM    9 CL9  UNL     1     -34.927   5.298   6.299  1.00 20.00    -0.076 Cl
ENDROOT
TORSDOF 0
ENDMDL
MODEL 2
REMARK VINA RESULT:      -4.2      9.022      9.560
REMARK  0 active torsions:
REMARK  status: ('A' for Active; 'I' for Inactive)
ROOT
HETATM    1  C1  UNL     1     -41.096   7.097  -0.818  1.00 20.00     0.078 C 
HETATM    2  C2  UNL     1     -42.559   5.300  -0.191  1.00 20.00     0.152 C 
HETATM    3  C3  UNL     1     -41.279   5.781  -0.723  1.00 20.00     0.134 C 
HETATM    4  C4  UNL     1     -43.019   7.388   0.775  1.00 20.00     0.213 C 
HETATM    5  C5  UNL     1     -42.152   8.030  -0.315  1.00 20.00     0.217 C 
HETATM    6  N6  UNL     1     -43.417   6.001   0.463  1.00 20.00    -0.294 NA
HETATM    7  F7  UNL     1     -40.419   4.868  -1.201  1.00 20.00    -0.205 F 
HETATM    8  F8  UNL     1     -42.968   8.394  -1.347  1.00 20.00    -0.219 F 
HETATM    9 CL9  UNL     1     -41.396   9.514   0.330  1.00 20.00    -0.076 Cl
ENDROOT
TORSDOF 0
ENDMDL
MODEL 3
REMARK VINA RESULT:      -4.2     16.649     17.592
REMARK  0 active torsions:
REMARK  status: ('A' for Active; 'I' for Inactive)
ROOT
HETATM    1  C1  UNL     1     -23.794  16.880   9.753  1.00 20.00     0.078 C 
HETATM    2  C2  UNL     1     -23.225  17.150  12.069  1.00 20.00     0.152 C 
HETATM    3  C3  UNL     1     -24.017  16.511  11.013  1.00 20.00     0.134 C 
HETATM    4  C4  UNL     1     -21.609  17.858  10.521  1.00 20.00     0.213 C 
HETATM    5  C5  UNL     1     -22.707  17.863   9.451  1.00 20.00     0.217 C 
HETATM    6  N6  UNL     1     -22.138  17.819  11.899  1.00 20.00    -0.294 NA
HETATM    7  F7  UNL     1     -25.007  15.685  11.389  1.00 20.00    -0.205 F 
HETATM    8  F8  UNL     1     -23.233  19.120   9.387  1.00 20.00    -0.219 F 
HETATM    9 CL9  UNL     1     -21.981  17.496   7.860  1.00 20.00    -0.076 Cl
ENDROOT
TORSDOF 0
ENDMDL
MODEL 4
REMARK VINA RESULT:      -4.1     16.548     17.149
REMARK  0 active torsions:
REMARK  status: ('A' for Active; 'I' for Inactive)
ROOT
HETATM    1  C1  UNL     1     -24.197  16.830  10.162  1.00 20.00     0.078 C 
HETATM    2  C2  UNL     1     -21.992  17.745  10.406  1.00 20.00     0.152 C 
HETATM    3  C3  UNL     1     -23.127  17.351   9.565  1.00 20.00     0.134 C 
HETATM    4  C4  UNL     1     -23.340  17.778  12.327  1.00 20.00     0.213 C 
HETATM    5  C5  UNL     1     -24.239  16.734  11.655  1.00 20.00     0.217 C 
HETATM    6  N6  UNL     1     -22.018  17.911  11.683  1.00 20.00    -0.294 NA
HETATM    7  F7  UNL     1     -22.971  17.422   8.234  1.00 20.00    -0.205 F 
HETATM    8  F8  UNL     1     -23.817  15.496  12.045  1.00 20.00    -0.219 F 
HETATM    9 CL9  UNL     1     -25.917  16.943  12.231  1.00 20.00    -0.076 Cl
ENDROOT
TORSDOF 0
ENDMDL
MODEL 5
REMARK VINA RESULT:      -4.1     17.021     17.284
REMARK  0 active torsions:
REMARK  status: ('A' for Active; 'I' for Inactive)
ROOT
HETATM    1  C1  UNL     1     -24.493  18.182  10.317  1.00 20.00     0.078 C 
HETATM    2  C2  UNL     1     -24.057  18.759   8.028  1.00 20.00     0.152 C 
HETATM    3  C3  UNL     1     -24.931  18.771   9.206  1.00 20.00     0.134 C 
HETATM    4  C4  UNL     1     -22.176  18.279   9.347  1.00 20.00     0.213 C 
HETATM    5  C5  UNL     1     -23.114  17.603  10.354  1.00 20.00     0.217 C 
HETATM    6  N6  UNL     1     -22.797  18.495   8.025  1.00 20.00    -0.294 NA
HETATM    7  F7  UNL     1     -26.172  19.263   9.057  1.00 20.00    -0.205 F 
HETATM    8  F8  UNL     1     -23.170  16.272  10.054  1.00 20.00    -0.219 F 
HETATM    9 CL9  UNL     1     -22.430  17.763  11.996  1.00 20.00    -0.076 Cl
ENDROOT
TORSDOF 0
ENDMDL
MODEL 6
REMARK VINA RESULT:      -4.0     16.935     17.200
REMARK  0 active torsions:
REMARK  status: ('A' for Active; 'I' for Inactive)
ROOT
HETATM    1  C1  UNL     1     -22.798  17.056   9.692  1.00 20.00     0.078 C 
HETATM    2  C2  UNL     1     -23.739  18.939   8.537  1.00 20.00     0.152 C 
HETATM    3  C3  UNL     1     -22.872  17.755   8.561  1.00 20.00     0.134 C 
HETATM    4  C4  UNL     1     -24.910  18.202  10.433  1.00 20.00     0.213 C 
HETATM    5  C5  UNL     1     -23.645  17.448  10.862  1.00 20.00     0.217 C 
HETATM    6  N6  UNL     1     -24.658  19.219   9.394  1.00 20.00    -0.294 NA
HETATM    7  F7  UNL     1     -22.109  17.519   7.482  1.00 20.00    -0.205 F 
HETATM    8  F8  UNL     1     -22.929  18.260  11.693  1.00 20.00    -0.219 F 
HETATM    9 CL9  UNL     1     -24.111  15.994  11.789  1.00 20.00    -0.076 Cl
ENDROOT
TORSDOF 0
ENDMDL
MODEL 7
REMARK VINA RESULT:      -4.0     16.442     17.024
REMARK  0 active torsions:
REMARK  status: ('A' for Active; 'I' for Inactive)
ROOT
HETATM    1  C1  UNL     1     -25.186  18.657  10.743  1.00 20.00     0.078 C 
HETATM    2  C2  UNL     1     -25.396  16.797  12.246  1.00 20.00     0.152 C 
HETATM    3  C3  UNL     1     -25.884  18.076  11.717  1.00 20.00     0.134 C 
HETATM    4  C4  UNL     1     -24.066  16.442  10.345  1.00 20.00     0.213 C 
HETATM    5  C5  UNL     1     -23.988  17.964  10.175  1.00 20.00     0.217 C 
HETATM    6  N6  UNL     1     -24.529  16.028  11.685  1.00 20.00    -0.294 NA
HETATM    7  F7  UNL     1     -26.933  18.645  12.332  1.00 20.00    -0.205 F 
HETATM    8  F8  UNL     1     -22.862  18.406  10.807  1.00 20.00    -0.219 F 
HETATM    9 CL9  UNL     1     -23.826  18.355   8.439  1.00 20.00    -0.076 Cl
ENDROOT
TORSDOF 0
ENDMDL
MODEL 8
REMARK VINA RESULT:      -4.0     12.630     13.409
REMARK  0 active torsions:
REMARK  status: ('A' for Active; 'I' for Inactive)
ROOT
HETATM    1  C1  UNL     1     -34.164  15.709  -4.815  1.00 20.00     0.078 C 
HETATM    2  C2  UNL     1     -35.634  13.868  -4.357  1.00 20.00     0.152 C 
HETATM    3  C3  UNL     1     -34.794  14.979  -3.897  1.00 20.00     0.134 C 
HETATM    4  C4  UNL     1     -35.748  14.763  -6.523  1.00 20.00     0.213 C 
HETATM    5  C5  UNL     1     -34.390  15.428  -6.267  1.00 20.00     0.217 C 
HETATM    6  N6  UNL     1     -36.064  13.692  -5.557  1.00 20.00    -0.294 NA
HETATM    7  F7  UNL     1     -34.608  15.114  -2.574  1.00 20.00    -0.205 F 
HETATM    8  F8  UNL     1     -33.415  14.592  -6.728  1.00 20.00    -0.219 F 
HETATM    9 CL9  UNL     1     -34.292  16.946  -7.203  1.00 20.00    -0.076 Cl
ENDROOT
TORSDOF 0
ENDMDL
MODEL 9
REMARK VINA RESULT:      -3.9      2.485      3.404
REMARK  0 active torsions:
REMARK  status: ('A' for Active; 'I' for Inactive)
ROOT
HETATM    1  C1  UNL     1     -33.538   5.450   3.335  1.00 20.00     0.078 C 
HETATM    2  C2  UNL     1     -34.824   4.941   5.296  1.00 20.00     0.152 C 
HETATM    3  C3  UNL     1     -34.193   4.529   4.037  1.00 20.00     0.134 C 
HETATM    4  C4  UNL     1     -33.493   6.870   5.409  1.00 20.00     0.213 C 
HETATM    5  C5  UNL     1     -33.401   6.837   3.879  1.00 20.00     0.217 C 
HETATM    6  N6  UNL     1     -34.577   6.024   5.946  1.00 20.00    -0.294 NA
HETATM    7  F7  UNL     1     -34.422   3.278   3.605  1.00 20.00    -0.205 F 
HETATM    8  F8  UNL     1     -34.395   7.625   3.377  1.00 20.00    -0.219 F 
HETATM    9 CL9  UNL     1     -31.840   7.540   3.367  1.00 20.00    -0.076 Cl
ENDROOT
TORSDOF 0
ENDMDL
