MODEL 1
REMARK VINA RESULT:      -5.0      0.000      0.000
REMARK  1 active torsions:
REMARK  status: ('A' for Active; 'I' for Inactive)
REMARK    1  A    between atoms: C2_2  and  C4_4 
ROOT
HETATM    1  C1  UNL     1     -33.148   6.678   3.044  1.00 20.00    -0.102 C 
HETATM    2  C2  UNL     1     -33.893   6.104   3.789  1.00 20.00     0.008 C 
HETATM    3  C3  UNL     1     -32.241   7.379   2.136  1.00 20.00     0.112 C 
ENDROOT
BRANCH   2   4
HETATM    4  C4  UNL     1     -34.794   5.409   4.689  1.00 20.00     0.459 C 
HETATM    5  F5  UNL     1     -34.776   5.970   5.918  1.00 20.00    -0.159 F 
HETATM    6  F6  UNL     1     -34.439   4.111   4.818  1.00 20.00    -0.159 F 
HETATM    7  F7  UNL     1     -36.064   5.451   4.229  1.00 20.00    -0.159 F 
ENDBRANCH   2   4
TORSDOF 1
ENDMDL
MODEL 2
REMARK VINA RESULT:      -5.0      0.027      1.436
REMARK  1 active torsions:
REMARK  status: ('A' for Active; 'I' for Inactive)
REMARK    1  A    between atoms: C2_2  and  C4_4 
ROOT
HETATM    1  C1  UNL     1     -33.147   6.681   3.025  1.00 20.00    -0.102 C 
HETATM    2  C2  UNL     1     -33.884   6.100   3.773  1.00 20.00     0.008 C 
HETATM    3  C3  UNL     1     -32.249   7.390   2.114  1.00 20.00     0.112 C 
ENDROOT
BRANCH   2   4
HETATM    4  C4  UNL     1     -34.775   5.397   4.676  1.00 20.00     0.459 C 
HETATM    5  F5  UNL     1     -34.419   4.098   4.791  1.00 20.00    -0.159 F 
HETATM    6  F6  UNL     1     -36.049   5.443   4.228  1.00 20.00    -0.159 F 
HETATM    7  F7  UNL     1     -34.745   5.949   5.910  1.00 20.00    -0.159 F 
ENDBRANCH   2   4
TORSDOF 1
ENDMDL
MODEL 3
REMARK VINA RESULT:      -4.3      2.817      3.800
REMARK  1 active torsions:
REMARK  status: ('A' for Active; 'I' for Inactive)
REMARK    1  A    between atoms: C2_2  and  C4_4 
ROOT
HETATM    1  C1  UNL     1     -34.177   6.047   4.874  1.00 20.00    -0.102 C 
HETATM    2  C2  UNL     1     -33.512   6.432   3.951  1.00 20.00     0.008 C 
HETATM    3  C3  UNL     1     -34.986   5.579   5.998  1.00 20.00     0.112 C 
ENDROOT
BRANCH   2   4
HETATM    4  C4  UNL     1     -32.709   6.897   2.835  1.00 20.00     0.459 C 
HETATM    5  F5  UNL     1     -33.346   7.878   2.159  1.00 20.00    -0.159 F 
HETATM    6  F6  UNL     1     -32.458   5.889   1.971  1.00 20.00    -0.159 F 
HETATM    7  F7  UNL     1     -31.524   7.386   3.265  1.00 20.00    -0.159 F 
ENDBRANCH   2   4
TORSDOF 1
ENDMDL
MODEL 4
REMARK VINA RESULT:      -4.3      2.817      3.797
REMARK  1 active torsions:
REMARK  status: ('A' for Active; 'I' for Inactive)
REMARK    1  A    between atoms: C2_2  and  C4_4 
ROOT
HETATM    1  C1  UNL     1     -34.177   6.048   4.873  1.00 20.00    -0.102 C 
HETATM    2  C2  UNL     1     -33.512   6.433   3.950  1.00 20.00     0.008 C 
HETATM    3  C3  UNL     1     -34.986   5.580   5.998  1.00 20.00     0.112 C 
ENDROOT
BRANCH   2   4
HETATM    4  C4  UNL     1     -32.709   6.897   2.835  1.00 20.00     0.459 C 
HETATM    5  F5  UNL     1     -32.457   5.890   1.970  1.00 20.00    -0.159 F 
HETATM    6  F6  UNL     1     -31.525   7.385   3.265  1.00 20.00    -0.159 F 
HETATM    7  F7  UNL     1     -33.346   7.879   2.158  1.00 20.00    -0.159 F 
ENDBRANCH   2   4
TORSDOF 1
ENDMDL
MODEL 5
REMARK VINA RESULT:      -3.9      2.681      3.536
REMARK  1 active torsions:
REMARK  status: ('A' for Active; 'I' for Inactive)
REMARK    1  A    between atoms: C2_2  and  C4_4 
ROOT
HETATM    1  C1  UNL     1     -32.950   8.355   0.808  1.00 20.00    -0.102 C 
HETATM    2  C2  UNL     1     -32.772   7.686   1.788  1.00 20.00     0.008 C 
HETATM    3  C3  UNL     1     -33.167   9.171  -0.386  1.00 20.00     0.112 C 
ENDROOT
BRANCH   2   4
HETATM    4  C4  UNL     1     -32.557   6.876   2.973  1.00 20.00     0.459 C 
HETATM    5  F5  UNL     1     -32.404   5.574   2.645  1.00 20.00    -0.159 F 
HETATM    6  F6  UNL     1     -33.606   6.973   3.819  1.00 20.00    -0.159 F 
HETATM    7  F7  UNL     1     -31.447   7.274   3.634  1.00 20.00    -0.159 F 
ENDBRANCH   2   4
TORSDOF 1
ENDMDL
MODEL 6
REMARK VINA RESULT:      -3.9      2.603      3.587
REMARK  1 active torsions:
REMARK  status: ('A' for Active; 'I' for Inactive)
REMARK    1  A    between atoms: C2_2  and  C4_4 
ROOT
HETATM    1  C1  UNL     1     -34.452   5.423   4.839  1.00 20.00    -0.102 C 
HETATM    2  C2  UNL     1     -33.935   5.407   3.756  1.00 20.00     0.008 C 
HETATM    3  C3  UNL     1     -35.082   5.444   6.158  1.00 20.00     0.112 C 
ENDROOT
BRANCH   2   4
HETATM    4  C4  UNL     1     -33.310   5.386   2.447  1.00 20.00     0.459 C 
HETATM    5  F5  UNL     1     -34.241   5.402   1.467  1.00 20.00    -0.159 F 
HETATM    6  F6  UNL     1     -32.558   4.274   2.290  1.00 20.00    -0.159 F 
HETATM    7  F7  UNL     1     -32.508   6.461   2.278  1.00 20.00    -0.159 F 
ENDBRANCH   2   4
TORSDOF 1
ENDMDL
MODEL 7
REMARK VINA RESULT:      -3.9      4.354      5.137
REMARK  1 active torsions:
REMARK  status: ('A' for Active; 'I' for Inactive)
REMARK    1  A    between atoms: C2_2  and  C4_4 
ROOT
HETATM    1  C1  UNL     1     -33.093   7.109   2.703  1.00 20.00    -0.102 C 
HETATM    2  C2  UNL     1     -32.875   7.708   1.685  1.00 20.00     0.008 C 
HETATM    3  C3  UNL     1     -33.359   6.380   3.942  1.00 20.00     0.112 C 
ENDROOT
BRANCH   2   4
HETATM    4  C4  UNL     1     -32.612   8.432   0.456  1.00 20.00     0.459 C 
HETATM    5  F5  UNL     1     -33.591   8.215  -0.450  1.00 20.00    -0.159 F 
HETATM    6  F6  UNL     1     -31.441   8.039  -0.093  1.00 20.00    -0.159 F 
HETATM    7  F7  UNL     1     -32.541   9.762   0.685  1.00 20.00    -0.159 F 
ENDBRANCH   2   4
TORSDOF 1
ENDMDL
MODEL 8
REMARK VINA RESULT:      -3.8      1.606      1.678
REMARK  1 active torsions:
REMARK  status: ('A' for Active; 'I' for Inactive)
REMARK    1  A    between atoms: C2_2  and  C4_4 
ROOT
HETATM    1  C1  UNL     1     -33.722   5.428   3.404  1.00 20.00    -0.102 C 
HETATM    2  C2  UNL     1     -34.066   5.520   4.550  1.00 20.00     0.008 C 
HETATM    3  C3  UNL     1     -33.304   5.316   2.007  1.00 20.00     0.112 C 
ENDROOT
BRANCH   2   4
HETATM    4  C4  UNL     1     -34.482   5.631   5.936  1.00 20.00     0.459 C 
HETATM    5  F5  UNL     1     -34.400   6.911   6.363  1.00 20.00    -0.159 F 
HETATM    6  F6  UNL     1     -33.699   4.873   6.735  1.00 20.00    -0.159 F 
HETATM    7  F7  UNL     1     -35.761   5.220   6.090  1.00 20.00    -0.159 F 
ENDBRANCH   2   4
TORSDOF 1
ENDMDL
MODEL 9
REMARK VINA RESULT:      -3.6     11.505     12.193
REMARK  1 active torsions:
REMARK  status: ('A' for Active; 'I' for Inactive)
REMARK    1  A    between atoms: C2_2  and  C4_4 
ROOT
HETATM    1  C1  UNL     1     -34.928  16.140  -1.935  1.00 20.00    -0.102 C 
HETATM    2  C2  UNL     1     -34.634  15.425  -2.854  1.00 20.00     0.008 C 
HETATM    3  C3  UNL     1     -35.287  17.010  -0.817  1.00 20.00     0.112 C 
ENDROOT
BRANCH   2   4
HETATM    4  C4  UNL     1     -34.278  14.561  -3.964  1.00 20.00     0.459 C 
HETATM    5  F5  UNL     1     -32.937  14.517  -4.129  1.00 20.00    -0.159 F 
HETATM    6  F6  UNL     1     -34.826  15.007  -5.116  1.00 20.00    -0.159 F 
HETATM    7  F7  UNL     1     -34.715  13.300  -3.753  1.00 20.00    -0.159 F 
ENDBRANCH   2   4
TORSDOF 1
ENDMDL
