MODEL 1
REMARK VINA RESULT:      -4.9      0.000      0.000
REMARK  0 active torsions:
REMARK  status: ('A' for Active; 'I' for Inactive)
ROOT
HETATM    1  C1  UNL     1     -33.751  14.054  -4.372  1.00 20.00     0.047 C 
HETATM    2  C2  UNL     1     -33.124  15.140  -3.903  1.00 20.00    -0.014 C 
HETATM    3  C3  UNL     1     -35.209  13.900  -4.122  1.00 20.00     0.149 C 
HETATM    4  C4  UNL     1     -35.952  15.020  -3.412  1.00 20.00     0.084 C 
HETATM    5  C5  UNL     1     -35.054  15.779  -2.437  1.00 20.00     0.021 C 
HETATM    6  C6  UNL     1     -32.918  17.247  -2.453  1.00 20.00     0.014 A 
HETATM    7  C7  UNL     1     -33.698  17.617  -3.679  1.00 20.00     0.014 A 
HETATM    8  C8  UNL     1     -33.784  16.210  -3.130  1.00 20.00    -0.022 A 
HETATM    9  O9  UNL     1     -35.796  12.904  -4.542  1.00 20.00    -0.293 OA
ENDROOT
TORSDOF 0
ENDMDL
MODEL 2
REMARK VINA RESULT:      -4.7     16.224     17.574
REMARK  0 active torsions:
REMARK  status: ('A' for Active; 'I' for Inactive)
ROOT
HETATM    1  C1  UNL     1     -24.267  18.648   8.526  1.00 20.00     0.047 C 
HETATM    2  C2  UNL     1     -24.764  18.584   9.769  1.00 20.00    -0.014 C 
HETATM    3  C3  UNL     1     -22.975  17.975   8.232  1.00 20.00     0.149 C 
HETATM    4  C4  UNL     1     -22.302  17.170   9.332  1.00 20.00     0.084 C 
HETATM    5  C5  UNL     1     -22.612  17.721  10.721  1.00 20.00     0.021 C 
HETATM    6  C6  UNL     1     -24.642  18.105  12.287  1.00 20.00     0.014 A 
HETATM    7  C7  UNL     1     -24.883  16.798  11.589  1.00 20.00     0.014 A 
HETATM    8  C8  UNL     1     -24.102  17.891  10.891  1.00 20.00    -0.022 A 
HETATM    9  O9  UNL     1     -22.505  18.032   7.097  1.00 20.00    -0.293 OA
ENDROOT
TORSDOF 0
ENDMDL
MODEL 3
REMARK VINA RESULT:      -4.5     16.119     17.436
REMARK  0 active torsions:
REMARK  status: ('A' for Active; 'I' for Inactive)
ROOT
HETATM    1  C1  UNL     1     -22.621  17.454   8.282  1.00 20.00     0.047 C 
HETATM    2  C2  UNL     1     -22.561  16.970   9.529  1.00 20.00    -0.014 C 
HETATM    3  C3  UNL     1     -23.619  18.511   7.968  1.00 20.00     0.149 C 
HETATM    4  C4  UNL     1     -24.481  19.061   9.092  1.00 20.00     0.084 C 
HETATM    5  C5  UNL     1     -24.741  18.022  10.180  1.00 20.00     0.021 C 
HETATM    6  C6  UNL     1     -23.431  16.610  11.916  1.00 20.00     0.014 A 
HETATM    7  C7  UNL     1     -22.769  17.956  11.874  1.00 20.00     0.014 A 
HETATM    8  C8  UNL     1     -23.438  17.408  10.632  1.00 20.00    -0.022 A 
HETATM    9  O9  UNL     1     -23.690  18.960   6.824  1.00 20.00    -0.293 OA
ENDROOT
TORSDOF 0
ENDMDL
MODEL 4
REMARK VINA RESULT:      -4.4     11.222     12.137
REMARK  0 active torsions:
REMARK  status: ('A' for Active; 'I' for Inactive)
ROOT
HETATM    1  C1  UNL     1     -32.806   7.465   3.671  1.00 20.00     0.047 C 
HETATM    2  C2  UNL     1     -33.530   6.786   4.570  1.00 20.00    -0.014 C 
HETATM    3  C3  UNL     1     -32.615   6.885   2.315  1.00 20.00     0.149 C 
HETATM    4  C4  UNL     1     -33.314   5.579   1.972  1.00 20.00     0.084 C 
HETATM    5  C5  UNL     1     -33.505   4.689   3.197  1.00 20.00     0.021 C 
HETATM    6  C6  UNL     1     -34.729   4.708   5.482  1.00 20.00     0.014 A 
HETATM    7  C7  UNL     1     -35.651   5.367   4.499  1.00 20.00     0.014 A 
HETATM    8  C8  UNL     1     -34.153   5.473   4.313  1.00 20.00    -0.022 A 
HETATM    9  O9  UNL     1     -31.946   7.495   1.482  1.00 20.00    -0.293 OA
ENDROOT
TORSDOF 0
ENDMDL
MODEL 5
REMARK VINA RESULT:      -4.3      1.158      2.081
REMARK  0 active torsions:
REMARK  status: ('A' for Active; 'I' for Inactive)
ROOT
HETATM    1  C1  UNL     1     -36.754  15.826  -4.157  1.00 20.00     0.047 C 
HETATM    2  C2  UNL     1     -35.719  16.616  -3.847  1.00 20.00    -0.014 C 
HETATM    3  C3  UNL     1     -36.541  14.357  -4.230  1.00 20.00     0.149 C 
HETATM    4  C4  UNL     1     -35.175  13.796  -3.873  1.00 20.00     0.084 C 
HETATM    5  C5  UNL     1     -34.049  14.778  -4.188  1.00 20.00     0.021 C 
HETATM    6  C6  UNL     1     -33.231  17.136  -3.487  1.00 20.00     0.014 A 
HETATM    7  C7  UNL     1     -33.739  16.473  -2.240  1.00 20.00     0.014 A 
HETATM    8  C8  UNL     1     -34.352  16.126  -3.580  1.00 20.00    -0.022 A 
HETATM    9  O9  UNL     1     -37.483  13.620  -4.521  1.00 20.00    -0.293 OA
ENDROOT
TORSDOF 0
ENDMDL
MODEL 6
REMARK VINA RESULT:      -4.3     11.597     12.395
REMARK  0 active torsions:
REMARK  status: ('A' for Active; 'I' for Inactive)
ROOT
HETATM    1  C1  UNL     1     -33.579   5.550   2.583  1.00 20.00     0.047 C 
HETATM    2  C2  UNL     1     -34.264   5.096   3.640  1.00 20.00    -0.014 C 
HETATM    3  C3  UNL     1     -32.723   6.755   2.744  1.00 20.00     0.149 C 
HETATM    4  C4  UNL     1     -32.593   7.382   4.123  1.00 20.00     0.084 C 
HETATM    5  C5  UNL     1     -33.849   7.181   4.968  1.00 20.00     0.021 C 
HETATM    6  C6  UNL     1     -35.245   5.259   6.006  1.00 20.00     0.014 A 
HETATM    7  C7  UNL     1     -33.805   4.860   6.140  1.00 20.00     0.014 A 
HETATM    8  C8  UNL     1     -34.241   5.723   4.976  1.00 20.00    -0.022 A 
HETATM    9  O9  UNL     1     -32.094   7.187   1.779  1.00 20.00    -0.293 OA
ENDROOT
TORSDOF 0
ENDMDL
MODEL 7
REMARK VINA RESULT:      -4.3     11.130     11.777
REMARK  0 active torsions:
REMARK  status: ('A' for Active; 'I' for Inactive)
ROOT
HETATM    1  C1  UNL     1     -34.072   4.607   3.395  1.00 20.00     0.047 C 
HETATM    2  C2  UNL     1     -33.294   5.328   2.578  1.00 20.00    -0.014 C 
HETATM    3  C3  UNL     1     -34.576   5.233   4.646  1.00 20.00     0.149 C 
HETATM    4  C4  UNL     1     -34.257   6.695   4.914  1.00 20.00     0.084 C 
HETATM    5  C5  UNL     1     -32.925   7.116   4.296  1.00 20.00     0.021 C 
HETATM    6  C6  UNL     1     -31.809   7.330   1.966  1.00 20.00     0.014 A 
HETATM    7  C7  UNL     1     -33.237   7.758   1.795  1.00 20.00     0.014 A 
HETATM    8  C8  UNL     1     -32.882   6.721   2.839  1.00 20.00    -0.022 A 
HETATM    9  O9  UNL     1     -35.287   4.580   5.409  1.00 20.00    -0.293 OA
ENDROOT
TORSDOF 0
ENDMDL
MODEL 8
REMARK VINA RESULT:      -4.3     16.632     17.396
REMARK  0 active torsions:
REMARK  status: ('A' for Active; 'I' for Inactive)
ROOT
HETATM    1  C1  UNL     1     -25.134  19.263   9.465  1.00 20.00     0.047 C 
HETATM    2  C2  UNL     1     -24.074  18.907   8.729  1.00 20.00    -0.014 C 
HETATM    3  C3  UNL     1     -25.360  18.592  10.773  1.00 20.00     0.149 C 
HETATM    4  C4  UNL     1     -24.336  17.581  11.264  1.00 20.00     0.084 C 
HETATM    5  C5  UNL     1     -23.638  16.862  10.111  1.00 20.00     0.021 C 
HETATM    6  C6  UNL     1     -22.101  17.393   8.092  1.00 20.00     0.014 A 
HETATM    7  C7  UNL     1     -21.648  18.277   9.217  1.00 20.00     0.014 A 
HETATM    8  C8  UNL     1     -23.102  17.867   9.121  1.00 20.00    -0.022 A 
HETATM    9  O9  UNL     1     -26.334  18.905  11.456  1.00 20.00    -0.293 OA
ENDROOT
TORSDOF 0
ENDMDL
MODEL 9
REMARK VINA RESULT:      -4.3      2.155      3.801
REMARK  0 active torsions:
REMARK  status: ('A' for Active; 'I' for Inactive)
ROOT
HETATM    1  C1  UNL     1     -34.823  16.335  -2.182  1.00 20.00     0.047 C 
HETATM    2  C2  UNL     1     -35.629  15.502  -2.853  1.00 20.00    -0.014 C 
HETATM    3  C3  UNL     1     -33.409  16.477  -2.620  1.00 20.00     0.149 C 
HETATM    4  C4  UNL     1     -32.950  15.733  -3.863  1.00 20.00     0.084 C 
HETATM    5  C5  UNL     1     -33.719  14.430  -4.072  1.00 20.00     0.021 C 
HETATM    6  C6  UNL     1     -36.140  13.615  -4.516  1.00 20.00     0.014 A 
HETATM    7  C7  UNL     1     -35.964  14.879  -5.306  1.00 20.00     0.014 A 
HETATM    8  C8  UNL     1     -35.205  14.690  -4.010  1.00 20.00    -0.022 A 
HETATM    9  O9  UNL     1     -32.656  17.234  -2.008  1.00 20.00    -0.293 OA
ENDROOT
TORSDOF 0
ENDMDL
