MODEL 1
REMARK VINA RESULT:      -3.8      0.000      0.000
REMARK  3 active torsions:
REMARK  status: ('A' for Active; 'I' for Inactive)
REMARK    1  A    between atoms: C5_5  and  C8_8 
REMARK    2  A    between atoms: C6_6  and  C7_7 
REMARK    3  A    between atoms: C6_6  and  C8_8 
ROOT
HETATM    1  C4  UNL     1     -32.760  14.422  -4.400  1.00 20.00     0.032 C 
HETATM    2  C8  UNL     1     -34.214  14.902  -4.560  1.00 20.00     0.033 C 
HETATM    3 CL9  UNL     1     -34.458  15.140  -6.339  1.00 20.00    -0.120 Cl
ENDROOT
BRANCH   2   4
HETATM    4  C5  UNL     1     -35.204  13.809  -4.097  1.00 20.00     0.021 C 
HETATM    5  C1  UNL     1     -36.668  14.079  -4.427  1.00 20.00     0.007 C 
ENDBRANCH   2   4
BRANCH   2   6
HETATM    6  C6  UNL     1     -34.374  16.259  -3.822  1.00 20.00     0.029 C 
BRANCH   6   7
HETATM    7  C7  UNL     1     -33.993  16.356  -2.325  1.00 20.00    -0.021 C 
HETATM    8  C2  UNL     1     -32.928  17.449  -2.151  1.00 20.00     0.009 C 
HETATM    9  C3  UNL     1     -35.165  16.651  -1.392  1.00 20.00     0.009 C 
ENDBRANCH   6   7
ENDBRANCH   2   6
TORSDOF 3
ENDMDL
MODEL 2
REMARK VINA RESULT:      -3.7     16.024     17.988
REMARK  3 active torsions:
REMARK  status: ('A' for Active; 'I' for Inactive)
REMARK    1  A    between atoms: C5_5  and  C8_8 
REMARK    2  A    between atoms: C6_6  and  C7_7 
REMARK    3  A    between atoms: C6_6  and  C8_8 
ROOT
HETATM    1  C4  UNL     1     -24.327  16.282  10.767  1.00 20.00     0.032 C 
HETATM    2  C8  UNL     1     -24.800  17.637  11.326  1.00 20.00     0.033 C 
HETATM    3 CL9  UNL     1     -26.320  17.283  12.246  1.00 20.00    -0.120 Cl
ENDROOT
BRANCH   2   4
HETATM    4  C5  UNL     1     -23.771  18.204  12.329  1.00 20.00     0.021 C 
HETATM    5  C1  UNL     1     -22.374  17.601  12.236  1.00 20.00     0.007 C 
ENDBRANCH   2   4
BRANCH   2   6
HETATM    6  C6  UNL     1     -25.116  18.582  10.135  1.00 20.00     0.029 C 
BRANCH   6   7
HETATM    7  C7  UNL     1     -24.291  18.458   8.831  1.00 20.00    -0.021 C 
HETATM    8  C2  UNL     1     -25.134  18.975   7.656  1.00 20.00     0.009 C 
HETATM    9  C3  UNL     1     -22.959  19.204   8.852  1.00 20.00     0.009 C 
ENDBRANCH   6   7
ENDBRANCH   2   6
TORSDOF 3
ENDMDL
MODEL 3
REMARK VINA RESULT:      -3.7      1.632      2.434
REMARK  3 active torsions:
REMARK  status: ('A' for Active; 'I' for Inactive)
REMARK    1  A    between atoms: C5_5  and  C8_8 
REMARK    2  A    between atoms: C6_6  and  C7_7 
REMARK    3  A    between atoms: C6_6  and  C8_8 
ROOT
HETATM    1  C4  UNL     1     -37.316  14.380  -4.335  1.00 20.00     0.032 C 
HETATM    2  C8  UNL     1     -35.832  14.678  -4.617  1.00 20.00     0.033 C 
HETATM    3 CL9  UNL     1     -34.913  13.272  -3.941  1.00 20.00    -0.120 Cl
ENDROOT
BRANCH   2   4
HETATM    4  C5  UNL     1     -35.563  14.722  -6.138  1.00 20.00     0.021 C 
HETATM    5  C1  UNL     1     -34.127  15.045  -6.534  1.00 20.00     0.007 C 
ENDBRANCH   2   4
BRANCH   2   6
HETATM    6  C6  UNL     1     -35.434  15.976  -3.864  1.00 20.00     0.029 C 
BRANCH   6   7
HETATM    7  C7  UNL     1     -34.551  15.876  -2.597  1.00 20.00    -0.021 C 
HETATM    8  C2  UNL     1     -33.158  16.439  -2.913  1.00 20.00     0.009 C 
HETATM    9  C3  UNL     1     -35.113  16.599  -1.375  1.00 20.00     0.009 C 
ENDBRANCH   6   7
ENDBRANCH   2   6
TORSDOF 3
ENDMDL
MODEL 4
REMARK VINA RESULT:      -3.6      1.405      1.756
REMARK  3 active torsions:
REMARK  status: ('A' for Active; 'I' for Inactive)
REMARK    1  A    between atoms: C5_5  and  C8_8 
REMARK    2  A    between atoms: C6_6  and  C7_7 
REMARK    3  A    between atoms: C6_6  and  C8_8 
ROOT
HETATM    1  C4  UNL     1     -35.119  13.831  -4.112  1.00 20.00     0.032 C 
HETATM    2  C8  UNL     1     -34.185  14.924  -4.662  1.00 20.00     0.033 C 
HETATM    3 CL9  UNL     1     -32.502  14.329  -4.356  1.00 20.00    -0.120 Cl
ENDROOT
BRANCH   2   4
HETATM    4  C5  UNL     1     -34.355  15.071  -6.191  1.00 20.00     0.021 C 
HETATM    5  C1  UNL     1     -35.770  14.844  -6.711  1.00 20.00     0.007 C 
ENDBRANCH   2   4
BRANCH   2   6
HETATM    6  C6  UNL     1     -34.431  16.234  -3.866  1.00 20.00     0.029 C 
BRANCH   6   7
HETATM    7  C7  UNL     1     -34.003  16.310  -2.381  1.00 20.00    -0.021 C 
HETATM    8  C2  UNL     1     -32.940  17.406  -2.223  1.00 20.00     0.009 C 
HETATM    9  C3  UNL     1     -35.146  16.582  -1.406  1.00 20.00     0.009 C 
ENDBRANCH   6   7
ENDBRANCH   2   6
TORSDOF 3
ENDMDL
MODEL 5
REMARK VINA RESULT:      -3.6      1.086      1.609
REMARK  3 active torsions:
REMARK  status: ('A' for Active; 'I' for Inactive)
REMARK    1  A    between atoms: C5_5  and  C8_8 
REMARK    2  A    between atoms: C6_6  and  C7_7 
REMARK    3  A    between atoms: C6_6  and  C8_8 
ROOT
HETATM    1  C4  UNL     1     -33.836  14.828  -5.871  1.00 20.00     0.032 C 
HETATM    2  C8  UNL     1     -34.709  15.134  -4.640  1.00 20.00     0.033 C 
HETATM    3 CL9  UNL     1     -35.717  16.566  -5.099  1.00 20.00    -0.120 Cl
ENDROOT
BRANCH   2   4
HETATM    4  C5  UNL     1     -35.672  13.962  -4.347  1.00 20.00     0.021 C 
HETATM    5  C1  UNL     1     -37.153  14.323  -4.349  1.00 20.00     0.007 C 
ENDBRANCH   2   4
BRANCH   2   6
HETATM    6  C6  UNL     1     -33.780  15.505  -3.452  1.00 20.00     0.029 C 
BRANCH   6   7
HETATM    7  C7  UNL     1     -34.075  16.783  -2.631  1.00 20.00    -0.021 C 
HETATM    8  C2  UNL     1     -35.078  16.441  -1.519  1.00 20.00     0.009 C 
HETATM    9  C3  UNL     1     -32.843  17.433  -2.005  1.00 20.00     0.009 C 
ENDBRANCH   6   7
ENDBRANCH   2   6
TORSDOF 3
ENDMDL
MODEL 6
REMARK VINA RESULT:      -3.5      1.467      2.598
REMARK  3 active torsions:
REMARK  status: ('A' for Active; 'I' for Inactive)
REMARK    1  A    between atoms: C5_5  and  C8_8 
REMARK    2  A    between atoms: C6_6  and  C7_7 
REMARK    3  A    between atoms: C6_6  and  C8_8 
ROOT
HETATM    1  C4  UNL     1     -36.044  16.631  -4.552  1.00 20.00     0.032 C 
HETATM    2  C8  UNL     1     -35.305  15.351  -4.119  1.00 20.00     0.033 C 
HETATM    3 CL9  UNL     1     -36.513  14.011  -4.279  1.00 20.00    -0.120 Cl
ENDROOT
BRANCH   2   4
HETATM    4  C5  UNL     1     -34.137  15.042  -5.082  1.00 20.00     0.021 C 
HETATM    5  C1  UNL     1     -32.887  14.469  -4.423  1.00 20.00     0.007 C 
ENDBRANCH   2   4
BRANCH   2   6
HETATM    6  C6  UNL     1     -34.881  15.501  -2.633  1.00 20.00     0.029 C 
BRANCH   6   7
HETATM    7  C7  UNL     1     -34.639  16.916  -2.054  1.00 20.00    -0.021 C 
HETATM    8  C2  UNL     1     -35.242  16.988  -0.643  1.00 20.00     0.009 C 
HETATM    9  C3  UNL     1     -33.170  17.329  -1.988  1.00 20.00     0.009 C 
ENDBRANCH   6   7
ENDBRANCH   2   6
TORSDOF 3
ENDMDL
MODEL 7
REMARK VINA RESULT:      -3.5      1.362      2.376
REMARK  3 active torsions:
REMARK  status: ('A' for Active; 'I' for Inactive)
REMARK    1  A    between atoms: C5_5  and  C8_8 
REMARK    2  A    between atoms: C6_6  and  C7_7 
REMARK    3  A    between atoms: C6_6  and  C8_8 
ROOT
HETATM    1  C4  UNL     1     -35.773  13.961  -4.380  1.00 20.00     0.032 C 
HETATM    2  C8  UNL     1     -34.783  15.108  -4.108  1.00 20.00     0.033 C 
HETATM    3 CL9  UNL     1     -33.146  14.448  -4.515  1.00 20.00    -0.120 Cl
ENDROOT
BRANCH   2   4
HETATM    4  C5  UNL     1     -35.053  16.300  -5.053  1.00 20.00     0.021 C 
HETATM    5  C1  UNL     1     -34.511  16.140  -6.469  1.00 20.00     0.007 C 
ENDBRANCH   2   4
BRANCH   2   6
HETATM    6  C6  UNL     1     -34.843  15.467  -2.598  1.00 20.00     0.029 C 
BRANCH   6   7
HETATM    7  C7  UNL     1     -34.516  16.912  -2.150  1.00 20.00    -0.021 C 
HETATM    8  C2  UNL     1     -35.092  17.142  -0.745  1.00 20.00     0.009 C 
HETATM    9  C3  UNL     1     -33.027  17.248  -2.137  1.00 20.00     0.009 C 
ENDBRANCH   6   7
ENDBRANCH   2   6
TORSDOF 3
ENDMDL
MODEL 8
REMARK VINA RESULT:      -3.4     10.967     11.659
REMARK  3 active torsions:
REMARK  status: ('A' for Active; 'I' for Inactive)
REMARK    1  A    between atoms: C5_5  and  C8_8 
REMARK    2  A    between atoms: C6_6  and  C7_7 
REMARK    3  A    between atoms: C6_6  and  C8_8 
ROOT
HETATM    1  C4  UNL     1     -32.673   5.259   2.411  1.00 20.00     0.032 C 
HETATM    2  C8  UNL     1     -32.964   6.756   2.623  1.00 20.00     0.033 C 
HETATM    3 CL9  UNL     1     -31.430   7.465   3.273  1.00 20.00    -0.120 Cl
ENDROOT
BRANCH   2   4
HETATM    4  C5  UNL     1     -33.263   7.451   1.275  1.00 20.00     0.021 C 
HETATM    5  C1  UNL     1     -32.657   8.840   1.113  1.00 20.00     0.007 C 
ENDBRANCH   2   4
BRANCH   2   6
HETATM    6  C6  UNL     1     -34.096   6.897   3.677  1.00 20.00     0.029 C 
BRANCH   6   7
HETATM    7  C7  UNL     1     -34.131   5.929   4.884  1.00 20.00    -0.021 C 
HETATM    8  C2  UNL     1     -34.129   6.750   6.182  1.00 20.00     0.009 C 
HETATM    9  C3  UNL     1     -35.327   4.980   4.899  1.00 20.00     0.009 C 
ENDBRANCH   6   7
ENDBRANCH   2   6
TORSDOF 3
ENDMDL
MODEL 9
REMARK VINA RESULT:      -3.4     11.559     12.273
REMARK  3 active torsions:
REMARK  status: ('A' for Active; 'I' for Inactive)
REMARK    1  A    between atoms: C5_5  and  C8_8 
REMARK    2  A    between atoms: C6_6  and  C7_7 
REMARK    3  A    between atoms: C6_6  and  C8_8 
ROOT
HETATM    1  C4  UNL     1     -33.871   4.407   3.459  1.00 20.00     0.032 C 
HETATM    2  C8  UNL     1     -34.530   5.620   4.139  1.00 20.00     0.033 C 
HETATM    3 CL9  UNL     1     -36.301   5.474   3.792  1.00 20.00    -0.120 Cl
ENDROOT
BRANCH   2   4
HETATM    4  C5  UNL     1     -34.349   5.553   5.672  1.00 20.00     0.021 C 
HETATM    5  C1  UNL     1     -33.968   6.870   6.339  1.00 20.00     0.007 C 
ENDBRANCH   2   4
BRANCH   2   6
HETATM    6  C6  UNL     1     -33.973   6.916   3.490  1.00 20.00     0.029 C 
BRANCH   6   7
HETATM    7  C7  UNL     1     -32.566   6.897   2.847  1.00 20.00    -0.021 C 
HETATM    8  C2  UNL     1     -32.636   7.572   1.469  1.00 20.00     0.009 C 
HETATM    9  C3  UNL     1     -31.481   7.578   3.678  1.00 20.00     0.009 C 
ENDBRANCH   6   7
ENDBRANCH   2   6
TORSDOF 3
ENDMDL
