MODEL 1
REMARK VINA RESULT:      -5.0      0.000      0.000
REMARK  0 active torsions:
REMARK  status: ('A' for Active; 'I' for Inactive)
ROOT
HETATM    1  C1  UNL     1     -32.990   6.868   4.813  1.00 20.00     0.008 C 
HETATM    2  C2  UNL     1     -34.163   6.821   5.793  1.00 20.00     0.030 C 
HETATM    3  C3  UNL     1     -33.439   6.689   3.366  1.00 20.00     0.081 C 
HETATM    4  C4  UNL     1     -34.810   5.448   5.973  1.00 20.00     0.270 C 
HETATM    5  C5  UNL     1     -34.242   4.271   3.931  1.00 20.00     0.348 C 
HETATM    6  C6  UNL     1     -33.622   5.242   2.934  1.00 20.00     0.269 C 
HETATM    7  N7  UNL     1     -35.312   4.835   4.745  1.00 20.00     0.089 N 
HETATM    8  F8  UNL     1     -32.399   4.745   2.588  1.00 20.00    -0.204 F 
HETATM    9  F9  UNL     1     -34.359   5.231   1.789  1.00 20.00    -0.204 F 
HETATM   10  H20 UNL     1     -36.015   4.123   4.960  1.00 20.00     0.316 HD
ENDROOT
TORSDOF 0
ENDMDL
MODEL 2
REMARK VINA RESULT:      -4.9      1.167      2.283
REMARK  0 active torsions:
REMARK  status: ('A' for Active; 'I' for Inactive)
ROOT
HETATM    1  C1  UNL     1     -35.264   4.936   4.780  1.00 20.00     0.008 C 
HETATM    2  C2  UNL     1     -34.689   5.648   6.005  1.00 20.00     0.030 C 
HETATM    3  C3  UNL     1     -34.174   4.331   3.900  1.00 20.00     0.081 C 
HETATM    4  C4  UNL     1     -33.946   6.951   5.715  1.00 20.00     0.270 C 
HETATM    5  C5  UNL     1     -33.271   6.727   3.397  1.00 20.00     0.348 C 
HETATM    6  C6  UNL     1     -33.537   5.305   2.921  1.00 20.00     0.269 C 
HETATM    7  N7  UNL     1     -32.828   6.832   4.782  1.00 20.00     0.089 N 
HETATM    8  F8  UNL     1     -34.342   5.388   1.821  1.00 20.00    -0.204 F 
HETATM    9  F9  UNL     1     -32.369   4.760   2.480  1.00 20.00    -0.204 F 
HETATM   10  H20 UNL     1     -32.179   7.616   4.895  1.00 20.00     0.316 HD
ENDROOT
TORSDOF 0
ENDMDL
MODEL 3
REMARK VINA RESULT:      -4.7      1.616      2.048
REMARK  0 active torsions:
REMARK  status: ('A' for Active; 'I' for Inactive)
ROOT
HETATM    1  C1  UNL     1     -33.843   6.540   5.399  1.00 20.00     0.008 C 
HETATM    2  C2  UNL     1     -34.859   5.414   5.203  1.00 20.00     0.030 C 
HETATM    3  C3  UNL     1     -33.725   7.433   4.167  1.00 20.00     0.081 C 
HETATM    4  C4  UNL     1     -34.438   4.318   4.224  1.00 20.00     0.270 C 
HETATM    5  C5  UNL     1     -32.799   5.407   2.808  1.00 20.00     0.348 C 
HETATM    6  C6  UNL     1     -32.791   6.904   3.090  1.00 20.00     0.269 C 
HETATM    7  N7  UNL     1     -34.114   4.782   2.877  1.00 20.00     0.089 N 
HETATM    8  F8  UNL     1     -31.514   7.248   3.429  1.00 20.00    -0.204 F 
HETATM    9  F9  UNL     1     -33.055   7.574   1.933  1.00 20.00    -0.204 F 
HETATM   10  H20 UNL     1     -34.183   4.012   2.205  1.00 20.00     0.316 HD
ENDROOT
TORSDOF 0
ENDMDL
MODEL 4
REMARK VINA RESULT:      -4.5      2.454      3.510
REMARK  0 active torsions:
REMARK  status: ('A' for Active; 'I' for Inactive)
ROOT
HETATM    1  C1  UNL     1     -33.858   4.324   3.561  1.00 20.00     0.008 C 
HETATM    2  C2  UNL     1     -33.589   5.469   2.584  1.00 20.00     0.030 C 
HETATM    3  C3  UNL     1     -34.951   4.668   4.568  1.00 20.00     0.081 C 
HETATM    4  C4  UNL     1     -32.900   6.693   3.187  1.00 20.00     0.270 C 
HETATM    5  C5  UNL     1     -33.430   6.549   5.548  1.00 20.00     0.348 C 
HETATM    6  C6  UNL     1     -34.471   5.460   5.775  1.00 20.00     0.269 C 
HETATM    7  N7  UNL     1     -33.600   7.306   4.313  1.00 20.00     0.089 N 
HETATM    8  F8  UNL     1     -33.950   4.581   6.680  1.00 20.00    -0.204 F 
HETATM    9  F9  UNL     1     -35.560   6.009   6.382  1.00 20.00    -0.204 F 
HETATM   10  H20 UNL     1     -33.298   8.276   4.440  1.00 20.00     0.316 HD
ENDROOT
TORSDOF 0
ENDMDL
MODEL 5
REMARK VINA RESULT:      -4.5     17.009     17.486
REMARK  0 active torsions:
REMARK  status: ('A' for Active; 'I' for Inactive)
ROOT
HETATM    1  C1  UNL     1     -22.873  18.541   9.378  1.00 20.00     0.008 C 
HETATM    2  C2  UNL     1     -24.264  18.804   8.800  1.00 20.00     0.030 C 
HETATM    3  C3  UNL     1     -22.794  17.204  10.108  1.00 20.00     0.081 C 
HETATM    4  C4  UNL     1     -25.355  19.096   9.829  1.00 20.00     0.270 C 
HETATM    5  C5  UNL     1     -24.515  18.080  11.864  1.00 20.00     0.348 C 
HETATM    6  C6  UNL     1     -23.285  17.239  11.548  1.00 20.00     0.269 C 
HETATM    7  N7  UNL     1     -25.549  18.056  10.837  1.00 20.00     0.089 N 
HETATM    8  F8  UNL     1     -22.265  17.698  12.332  1.00 20.00    -0.204 F 
HETATM    9  F9  UNL     1     -23.509  15.958  11.951  1.00 20.00    -0.204 F 
HETATM   10  H20 UNL     1     -26.478  18.133  11.259  1.00 20.00     0.316 HD
ENDROOT
TORSDOF 0
ENDMDL
MODEL 6
REMARK VINA RESULT:      -4.4     17.012     17.579
REMARK  0 active torsions:
REMARK  status: ('A' for Active; 'I' for Inactive)
ROOT
HETATM    1  C1  UNL     1     -23.550  17.089  11.961  1.00 20.00     0.008 C 
HETATM    2  C2  UNL     1     -24.677  18.053  12.332  1.00 20.00     0.030 C 
HETATM    3  C3  UNL     1     -22.424  17.781  11.199  1.00 20.00     0.081 C 
HETATM    4  C4  UNL     1     -25.527  18.545  11.160  1.00 20.00     0.270 C 
HETATM    5  C5  UNL     1     -24.075  18.271   9.238  1.00 20.00     0.348 C 
HETATM    6  C6  UNL     1     -22.667  17.925   9.704  1.00 20.00     0.269 C 
HETATM    7  N7  UNL     1     -24.785  19.214  10.094  1.00 20.00     0.089 N 
HETATM    8  F8  UNL     1     -22.316  16.750   9.103  1.00 20.00    -0.204 F 
HETATM    9  F9  UNL     1     -21.799  18.857   9.221  1.00 20.00    -0.204 F 
HETATM   10  H20 UNL     1     -25.408  19.806   9.539  1.00 20.00     0.316 HD
ENDROOT
TORSDOF 0
ENDMDL
MODEL 7
REMARK VINA RESULT:      -4.3      1.727      2.697
REMARK  0 active torsions:
REMARK  status: ('A' for Active; 'I' for Inactive)
ROOT
HETATM    1  C1  UNL     1     -33.995   4.716   2.751  1.00 20.00     0.008 C 
HETATM    2  C2  UNL     1     -34.433   4.295   4.154  1.00 20.00     0.030 C 
HETATM    3  C3  UNL     1     -32.651   5.438   2.758  1.00 20.00     0.081 C 
HETATM    4  C4  UNL     1     -34.847   5.439   5.080  1.00 20.00     0.270 C 
HETATM    5  C5  UNL     1     -33.716   7.371   4.151  1.00 20.00     0.348 C 
HETATM    6  C6  UNL     1     -32.733   6.924   3.077  1.00 20.00     0.269 C 
HETATM    7  N7  UNL     1     -33.830   6.466   5.288  1.00 20.00     0.089 N 
HETATM    8  F8  UNL     1     -33.054   7.587   1.929  1.00 20.00    -0.204 F 
HETATM    9  F9  UNL     1     -31.485   7.354   3.412  1.00 20.00    -0.204 F 
HETATM   10  H20 UNL     1     -34.017   6.989   6.148  1.00 20.00     0.316 HD
ENDROOT
TORSDOF 0
ENDMDL
MODEL 8
REMARK VINA RESULT:      -4.3      2.288      3.157
REMARK  0 active torsions:
REMARK  status: ('A' for Active; 'I' for Inactive)
ROOT
HETATM    1  C1  UNL     1     -33.604   7.328   4.183  1.00 20.00     0.008 C 
HETATM    2  C2  UNL     1     -32.862   6.663   3.023  1.00 20.00     0.030 C 
HETATM    3  C3  UNL     1     -33.476   6.537   5.481  1.00 20.00     0.081 C 
HETATM    4  C4  UNL     1     -33.485   5.366   2.507  1.00 20.00     0.270 C 
HETATM    5  C5  UNL     1     -34.787   4.563   4.388  1.00 20.00     0.348 C 
HETATM    6  C6  UNL     1     -34.467   5.393   5.625  1.00 20.00     0.269 C 
HETATM    7  N7  UNL     1     -33.649   4.316   3.510  1.00 20.00     0.089 N 
HETATM    8  F8  UNL     1     -35.645   5.907   6.085  1.00 20.00    -0.204 F 
HETATM    9  F9  UNL     1     -34.019   4.565   6.609  1.00 20.00    -0.204 F 
HETATM   10  H20 UNL     1     -33.732   3.400   3.061  1.00 20.00     0.316 HD
ENDROOT
TORSDOF 0
ENDMDL
MODEL 9
REMARK VINA RESULT:      -4.2     16.113     16.791
REMARK  0 active torsions:
REMARK  status: ('A' for Active; 'I' for Inactive)
ROOT
HETATM    1  C1  UNL     1     -25.040  18.454  11.941  1.00 20.00     0.008 C 
HETATM    2  C2  UNL     1     -25.481  17.043  12.332  1.00 20.00     0.030 C 
HETATM    3  C3  UNL     1     -25.151  18.699  10.439  1.00 20.00     0.081 C 
HETATM    4  C4  UNL     1     -24.541  15.920  11.896  1.00 20.00     0.270 C 
HETATM    5  C5  UNL     1     -23.330  16.876  10.025  1.00 20.00     0.348 C 
HETATM    6  C6  UNL     1     -23.963  18.203   9.628  1.00 20.00     0.269 C 
HETATM    7  N7  UNL     1     -24.277  15.856  10.460  1.00 20.00     0.089 N 
HETATM    8  F8  UNL     1     -22.985  19.154   9.685  1.00 20.00    -0.204 F 
HETATM    9  F9  UNL     1     -24.339  18.142   8.321  1.00 20.00    -0.204 F 
HETATM   10  H20 UNL     1     -23.949  14.923  10.196  1.00 20.00     0.316 HD
ENDROOT
TORSDOF 0
ENDMDL
