MODEL 1
REMARK VINA RESULT:      -4.1      0.000      0.000
REMARK  0 active torsions:
REMARK  status: ('A' for Active; 'I' for Inactive)
ROOT
HETATM    1  C1  UNL     1     -23.923  16.659   9.770  1.00 20.00     0.078 C 
HETATM    2  C2  UNL     1     -23.155  17.182  11.983  1.00 20.00     0.152 C 
HETATM    3  C3  UNL     1     -24.008  16.407  11.074  1.00 20.00     0.134 C 
HETATM    4  C4  UNL     1     -21.740  17.811  10.224  1.00 20.00     0.213 C 
HETATM    5  C5  UNL     1     -22.919  17.645   9.259  1.00 20.00     0.217 C 
HETATM    6  N6  UNL     1     -22.128  17.881  11.643  1.00 20.00    -0.294 NA
HETATM    7  F7  UNL     1     -24.907  15.575  11.622  1.00 20.00    -0.205 F 
HETATM    8  F8  UNL     1     -22.417  17.221   8.064  1.00 20.00    -0.219 F 
HETATM    9 CL9  UNL     1     -23.737  19.212   8.991  1.00 20.00    -0.076 Cl
ENDROOT
TORSDOF 0
ENDMDL
MODEL 2
REMARK VINA RESULT:      -4.1      2.240      3.401
REMARK  0 active torsions:
REMARK  status: ('A' for Active; 'I' for Inactive)
ROOT
HETATM    1  C1  UNL     1     -23.639  17.017  10.046  1.00 20.00     0.078 C 
HETATM    2  C2  UNL     1     -25.121  18.905  10.089  1.00 20.00     0.152 C 
HETATM    3  C3  UNL     1     -24.294  17.944   9.350  1.00 20.00     0.134 C 
HETATM    4  C4  UNL     1     -25.163  17.518  11.977  1.00 20.00     0.213 C 
HETATM    5  C5  UNL     1     -23.823  16.922  11.529  1.00 20.00     0.217 C 
HETATM    6  N6  UNL     1     -25.513  18.784  11.310  1.00 20.00    -0.294 NA
HETATM    7  F7  UNL     1     -24.154  18.129   8.028  1.00 20.00    -0.205 F 
HETATM    8  F8  UNL     1     -23.803  15.615  11.918  1.00 20.00    -0.219 F 
HETATM    9 CL9  UNL     1     -22.463  17.759  12.332  1.00 20.00    -0.076 Cl
ENDROOT
TORSDOF 0
ENDMDL
MODEL 3
REMARK VINA RESULT:      -4.1     23.639     23.771
REMARK  0 active torsions:
REMARK  status: ('A' for Active; 'I' for Inactive)
ROOT
HETATM    1  C1  UNL     1     -42.879   7.462   0.758  1.00 20.00     0.078 C 
HETATM    2  C2  UNL     1     -41.277   5.909  -0.127  1.00 20.00     0.152 C 
HETATM    3  C3  UNL     1     -42.375   6.230   0.792  1.00 20.00     0.134 C 
HETATM    4  C4  UNL     1     -41.782   7.754  -1.480  1.00 20.00     0.213 C 
HETATM    5  C5  UNL     1     -42.385   8.448  -0.254  1.00 20.00     0.217 C 
HETATM    6  N6  UNL     1     -40.930   6.596  -1.160  1.00 20.00    -0.294 NA
HETATM    7  F7  UNL     1     -42.727   5.299   1.692  1.00 20.00    -0.205 F 
HETATM    8  F8  UNL     1     -43.415   9.229  -0.686  1.00 20.00    -0.219 F 
HETATM    9 CL9  UNL     1     -41.175   9.511   0.524  1.00 20.00    -0.076 Cl
ENDROOT
TORSDOF 0
ENDMDL
MODEL 4
REMARK VINA RESULT:      -4.1     23.671     24.019
REMARK  0 active torsions:
REMARK  status: ('A' for Active; 'I' for Inactive)
ROOT
HETATM    1  C1  UNL     1     -41.119   7.077  -1.041  1.00 20.00     0.078 C 
HETATM    2  C2  UNL     1     -42.244   5.359   0.201  1.00 20.00     0.152 C 
HETATM    3  C3  UNL     1     -41.175   5.789  -0.708  1.00 20.00     0.134 C 
HETATM    4  C4  UNL     1     -42.611   7.559   0.919  1.00 20.00     0.213 C 
HETATM    5  C5  UNL     1     -42.074   8.054  -0.428  1.00 20.00     0.217 C 
HETATM    6  N6  UNL     1     -42.966   6.130   0.939  1.00 20.00    -0.294 NA
HETATM    7  F7  UNL     1     -40.390   4.840  -1.240  1.00 20.00    -0.205 F 
HETATM    8  F8  UNL     1     -41.446   9.244  -0.210  1.00 20.00    -0.219 F 
HETATM    9 CL9  UNL     1     -43.417   8.339  -1.573  1.00 20.00    -0.076 Cl
ENDROOT
TORSDOF 0
ENDMDL
MODEL 5
REMARK VINA RESULT:      -4.1      2.104      3.350
REMARK  0 active torsions:
REMARK  status: ('A' for Active; 'I' for Inactive)
ROOT
HETATM    1  C1  UNL     1     -24.630  18.198  10.219  1.00 20.00     0.078 C 
HETATM    2  C2  UNL     1     -22.253  17.858  10.242  1.00 20.00     0.152 C 
HETATM    3  C3  UNL     1     -23.483  18.248   9.543  1.00 20.00     0.134 C 
HETATM    4  C4  UNL     1     -23.278  18.125  12.332  1.00 20.00     0.213 C 
HETATM    5  C5  UNL     1     -24.630  17.835  11.671  1.00 20.00     0.217 C 
HETATM    6  N6  UNL     1     -22.113  17.741  11.517  1.00 20.00    -0.294 NA
HETATM    7  F7  UNL     1     -23.396  18.519   8.231  1.00 20.00    -0.205 F 
HETATM    8  F8  UNL     1     -25.577  18.559  12.332  1.00 20.00    -0.219 F 
HETATM    9 CL9  UNL     1     -25.048  16.104  11.831  1.00 20.00    -0.076 Cl
ENDROOT
TORSDOF 0
ENDMDL
MODEL 6
REMARK VINA RESULT:      -4.1     23.165     23.935
REMARK  0 active torsions:
REMARK  status: ('A' for Active; 'I' for Inactive)
ROOT
HETATM    1  C1  UNL     1     -41.167   7.514   0.437  1.00 20.00     0.078 C 
HETATM    2  C2  UNL     1     -42.939   8.756  -0.601  1.00 20.00     0.152 C 
HETATM    3  C3  UNL     1     -41.702   8.707   0.187  1.00 20.00     0.134 C 
HETATM    4  C4  UNL     1     -42.586   6.588  -1.415  1.00 20.00     0.213 C 
HETATM    5  C5  UNL     1     -41.777   6.279  -0.150  1.00 20.00     0.217 C 
HETATM    6  N6  UNL     1     -43.417   7.799  -1.319  1.00 20.00    -0.294 NA
HETATM    7  F7  UNL     1     -41.248   9.858   0.707  1.00 20.00    -0.205 F 
HETATM    8  F8  UNL     1     -40.799   5.393  -0.491  1.00 20.00    -0.219 F 
HETATM    9 CL9  UNL     1     -42.814   5.508   1.085  1.00 20.00    -0.076 Cl
ENDROOT
TORSDOF 0
ENDMDL
MODEL 7
REMARK VINA RESULT:      -4.1     16.502     17.374
REMARK  0 active torsions:
REMARK  status: ('A' for Active; 'I' for Inactive)
ROOT
HETATM    1  C1  UNL     1     -33.850   6.583   4.502  1.00 20.00     0.078 C 
HETATM    2  C2  UNL     1     -32.919   5.643   2.499  1.00 20.00     0.152 C 
HETATM    3  C3  UNL     1     -32.948   6.689   3.528  1.00 20.00     0.134 C 
HETATM    4  C4  UNL     1     -34.121   4.170   3.868  1.00 20.00     0.213 C 
HETATM    5  C5  UNL     1     -34.740   5.382   4.574  1.00 20.00     0.217 C 
HETATM    6  N6  UNL     1     -33.477   4.485   2.582  1.00 20.00    -0.294 NA
HETATM    7  F7  UNL     1     -32.143   7.750   3.361  1.00 20.00    -0.205 F 
HETATM    8  F8  UNL     1     -34.952   5.037   5.876  1.00 20.00    -0.219 F 
HETATM    9 CL9  UNL     1     -36.320   5.792   3.847  1.00 20.00    -0.076 Cl
ENDROOT
TORSDOF 0
ENDMDL
MODEL 8
REMARK VINA RESULT:      -4.0      1.927      3.441
REMARK  0 active torsions:
REMARK  status: ('A' for Active; 'I' for Inactive)
ROOT
HETATM    1  C1  UNL     1     -22.799  16.887   9.524  1.00 20.00     0.078 C 
HETATM    2  C2  UNL     1     -23.705  18.956   8.710  1.00 20.00     0.152 C 
HETATM    3  C3  UNL     1     -22.869  17.764   8.524  1.00 20.00     0.134 C 
HETATM    4  C4  UNL     1     -24.859  17.951  10.485  1.00 20.00     0.213 C 
HETATM    5  C5  UNL     1     -23.623  17.087  10.758  1.00 20.00     0.217 C 
HETATM    6  N6  UNL     1     -24.603  19.116   9.621  1.00 20.00    -0.294 NA
HETATM    7  F7  UNL     1     -22.134  17.687   7.404  1.00 20.00    -0.205 F 
HETATM    8  F8  UNL     1     -24.056  15.883  11.228  1.00 20.00    -0.219 F 
HETATM    9 CL9  UNL     1     -22.599  17.837  12.017  1.00 20.00    -0.076 Cl
ENDROOT
TORSDOF 0
ENDMDL
MODEL 9
REMARK VINA RESULT:      -4.0      2.247      3.367
REMARK  0 active torsions:
REMARK  status: ('A' for Active; 'I' for Inactive)
ROOT
HETATM    1  C1  UNL     1     -24.510  18.396   9.571  1.00 20.00     0.078 C 
HETATM    2  C2  UNL     1     -22.576  17.750   8.303  1.00 20.00     0.152 C 
HETATM    3  C3  UNL     1     -23.878  18.420   8.399  1.00 20.00     0.134 C 
HETATM    4  C4  UNL     1     -22.327  17.757  10.633  1.00 20.00     0.213 C 
HETATM    5  C5  UNL     1     -23.854  17.773  10.764  1.00 20.00     0.217 C 
HETATM    6  N6  UNL     1     -21.840  17.382   9.294  1.00 20.00    -0.294 NA
HETATM    7  F7  UNL     1     -24.409  18.916   7.270  1.00 20.00    -0.205 F 
HETATM    8  F8  UNL     1     -24.164  18.480  11.888  1.00 20.00    -0.219 F 
HETATM    9 CL9  UNL     1     -24.484  16.112  10.965  1.00 20.00    -0.076 Cl
ENDROOT
TORSDOF 0
ENDMDL
