MODEL 1
REMARK VINA RESULT:      -4.6      0.000      0.000
REMARK  1 active torsions:
REMARK  status: ('A' for Active; 'I' for Inactive)
REMARK    1  A    between atoms: C5_5  and  C7_7 
ROOT
HETATM    1  C1  UNL     1     -24.538  18.297   8.583  1.00 20.00     0.019 C 
HETATM    2  C2  UNL     1     -24.388  16.184  11.259  1.00 20.00     0.292 C 
HETATM    3  C3  UNL     1     -23.242  17.667  12.178  1.00 20.00     0.292 C 
HETATM    4  C4  UNL     1     -25.483  19.263   9.279  1.00 20.00     0.075 C 
HETATM    5  C5  UNL     1     -23.385  18.038   9.555  1.00 20.00     0.037 C 
HETATM    6  C6  UNL     1     -24.065  17.653  10.867  1.00 20.00     0.066 C 
HETATM    7  N8  UNL     1     -23.168  16.192  12.094  1.00 20.00     0.086 N 
HETATM    8  S10 UNL     1     -25.602  18.695  11.002  1.00 20.00    -0.155 SA
HETATM    9  H22 UNL     1     -23.254  15.707  12.986  1.00 20.00     0.316 HD
ENDROOT
BRANCH   5  10
HETATM   10  C7  UNL     1     -22.413  16.998   9.017  1.00 20.00     0.228 C 
HETATM   11  F9  UNL     1     -22.095  17.331   7.742  1.00 20.00    -0.255 F 
ENDBRANCH   5  10
TORSDOF 1
ENDMDL
MODEL 2
REMARK VINA RESULT:      -4.2      2.239      3.003
REMARK  1 active torsions:
REMARK  status: ('A' for Active; 'I' for Inactive)
REMARK    1  A    between atoms: C5_5  and  C7_7 
ROOT
HETATM    1  C1  UNL     1     -25.123  18.491  10.917  1.00 20.00     0.019 C 
HETATM    2  C2  UNL     1     -21.834  18.284  10.026  1.00 20.00     0.292 C 
HETATM    3  C3  UNL     1     -22.465  16.911   8.585  1.00 20.00     0.292 C 
HETATM    4  C4  UNL     1     -25.511  19.261   9.666  1.00 20.00     0.075 C 
HETATM    5  C5  UNL     1     -24.316  17.278  10.450  1.00 20.00     0.037 C 
HETATM    6  C6  UNL     1     -23.245  17.858   9.528  1.00 20.00     0.066 C 
HETATM    7  N8  UNL     1     -21.322  16.992   9.521  1.00 20.00     0.086 N 
HETATM    8  S10 UNL     1     -24.038  19.263   8.599  1.00 20.00    -0.155 SA
HETATM    9  H22 UNL     1     -20.407  17.036   9.078  1.00 20.00     0.316 HD
ENDROOT
BRANCH   5  10
HETATM   10  C7  UNL     1     -23.773  16.473  11.622  1.00 20.00     0.228 C 
HETATM   11  F9  UNL     1     -24.405  15.274  11.643  1.00 20.00    -0.255 F 
ENDBRANCH   5  10
TORSDOF 1
ENDMDL
MODEL 3
REMARK VINA RESULT:      -4.2      1.819      2.144
REMARK  1 active torsions:
REMARK  status: ('A' for Active; 'I' for Inactive)
REMARK    1  A    between atoms: C5_5  and  C7_7 
ROOT
HETATM    1  C1  UNL     1     -26.002  19.223  10.040  1.00 20.00     0.019 C 
HETATM    2  C2  UNL     1     -23.965  16.485  10.059  1.00 20.00     0.292 C 
HETATM    3  C3  UNL     1     -22.493  17.769  10.795  1.00 20.00     0.292 C 
HETATM    4  C4  UNL     1     -26.120  19.263  11.555  1.00 20.00     0.075 C 
HETATM    5  C5  UNL     1     -24.509  19.119   9.723  1.00 20.00     0.037 C 
HETATM    6  C6  UNL     1     -24.013  17.951  10.573  1.00 20.00     0.066 C 
HETATM    7  N8  UNL     1     -22.523  16.679   9.796  1.00 20.00     0.086 N 
HETATM    8  S10 UNL     1     -24.945  18.026  12.184  1.00 20.00    -0.155 SA
HETATM    9  H22 UNL     1     -21.934  15.878  10.017  1.00 20.00     0.316 HD
ENDROOT
BRANCH   5  10
HETATM   10  C7  UNL     1     -24.256  18.966   8.230  1.00 20.00     0.228 C 
HETATM   11  F9  UNL     1     -25.397  18.519   7.649  1.00 20.00    -0.255 F 
ENDBRANCH   5  10
TORSDOF 1
ENDMDL
MODEL 4
REMARK VINA RESULT:      -4.0      2.431      2.993
REMARK  1 active torsions:
REMARK  status: ('A' for Active; 'I' for Inactive)
REMARK    1  A    between atoms: C5_5  and  C7_7 
ROOT
HETATM    1  C1  UNL     1     -23.956  19.263   8.838  1.00 20.00     0.019 C 
HETATM    2  C2  UNL     1     -23.071  17.633  11.703  1.00 20.00     0.292 C 
HETATM    3  C3  UNL     1     -24.292  16.082  11.022  1.00 20.00     0.292 C 
HETATM    4  C4  UNL     1     -23.119  18.355   7.952  1.00 20.00     0.075 C 
HETATM    5  C5  UNL     1     -24.792  18.347   9.734  1.00 20.00     0.037 C 
HETATM    6  C6  UNL     1     -23.782  17.377  10.345  1.00 20.00     0.066 C 
HETATM    7  N8  UNL     1     -24.059  16.729  12.332  1.00 20.00     0.086 N 
HETATM    8  S10 UNL     1     -22.517  17.018   9.027  1.00 20.00    -0.155 SA
HETATM    9  H22 UNL     1     -23.682  16.115  13.053  1.00 20.00     0.316 HD
ENDROOT
BRANCH   5  10
HETATM   10  C7  UNL     1     -25.605  19.136  10.750  1.00 20.00     0.228 C 
HETATM   11  F9  UNL     1     -26.643  18.364  11.157  1.00 20.00    -0.255 F 
ENDBRANCH   5  10
TORSDOF 1
ENDMDL
MODEL 5
REMARK VINA RESULT:      -3.8      2.028      2.760
REMARK  1 active torsions:
REMARK  status: ('A' for Active; 'I' for Inactive)
REMARK    1  A    between atoms: C5_5  and  C7_7 
ROOT
HETATM    1  C1  UNL     1     -22.712  18.654   9.497  1.00 20.00     0.019 C 
HETATM    2  C2  UNL     1     -25.176  18.654  11.859  1.00 20.00     0.292 C 
HETATM    3  C3  UNL     1     -25.296  16.597  11.520  1.00 20.00     0.292 C 
HETATM    4  C4  UNL     1     -21.709  17.964  10.407  1.00 20.00     0.075 C 
HETATM    5  C5  UNL     1     -23.998  17.828   9.561  1.00 20.00     0.037 C 
HETATM    6  C6  UNL     1     -24.282  17.669  11.053  1.00 20.00     0.066 C 
HETATM    7  N8  UNL     1     -26.282  17.682  11.721  1.00 20.00     0.086 N 
HETATM    8  S10 UNL     1     -22.634  17.479  11.896  1.00 20.00    -0.155 SA
HETATM    9  H22 UNL     1     -26.869  17.580  12.547  1.00 20.00     0.316 HD
ENDROOT
BRANCH   5  10
HETATM   10  C7  UNL     1     -25.125  18.473   8.768  1.00 20.00     0.228 C 
HETATM   11  F9  UNL     1     -24.736  18.567   7.473  1.00 20.00    -0.255 F 
ENDBRANCH   5  10
TORSDOF 1
ENDMDL
MODEL 6
REMARK VINA RESULT:      -3.8     16.924     17.995
REMARK  1 active torsions:
REMARK  status: ('A' for Active; 'I' for Inactive)
REMARK    1  A    between atoms: C5_5  and  C7_7 
ROOT
HETATM    1  C1  UNL     1     -33.296  16.404  -2.878  1.00 20.00     0.019 C 
HETATM    2  C2  UNL     1     -35.787  16.228  -5.205  1.00 20.00     0.292 C 
HETATM    3  C3  UNL     1     -36.584  14.705  -4.020  1.00 20.00     0.292 C 
HETATM    4  C4  UNL     1     -34.193  17.040  -1.829  1.00 20.00     0.075 C 
HETATM    5  C5  UNL     1     -34.047  15.181  -3.409  1.00 20.00     0.037 C 
HETATM    6  C6  UNL     1     -35.430  15.709  -3.784  1.00 20.00     0.066 C 
HETATM    7  N8  UNL     1     -36.407  14.912  -5.474  1.00 20.00     0.086 N 
HETATM    8  S10 UNL     1     -35.878  16.993  -2.512  1.00 20.00    -0.155 SA
HETATM    9  H22 UNL     1     -37.272  14.946  -6.011  1.00 20.00     0.316 HD
ENDROOT
BRANCH   5  10
HETATM   10  C7  UNL     1     -33.297  14.507  -4.549  1.00 20.00     0.228 C 
HETATM   11  F9  UNL     1     -31.977  14.490  -4.240  1.00 20.00    -0.255 F 
ENDBRANCH   5  10
TORSDOF 1
ENDMDL
MODEL 7
REMARK VINA RESULT:      -3.8     18.145     19.259
REMARK  1 active torsions:
REMARK  status: ('A' for Active; 'I' for Inactive)
REMARK    1  A    between atoms: C5_5  and  C7_7 
ROOT
HETATM    1  C1  UNL     1     -34.836  15.390  -3.063  1.00 20.00     0.019 C 
HETATM    2  C2  UNL     1     -34.075  14.998  -6.367  1.00 20.00     0.292 C 
HETATM    3  C3  UNL     1     -35.918  15.902  -6.746  1.00 20.00     0.292 C 
HETATM    4  C4  UNL     1     -34.627  16.895  -3.097  1.00 20.00     0.075 C 
HETATM    5  C5  UNL     1     -35.754  15.051  -4.239  1.00 20.00     0.037 C 
HETATM    6  C6  UNL     1     -35.098  15.719  -5.446  1.00 20.00     0.066 C 
HETATM    7  N8  UNL     1     -35.180  14.755  -7.319  1.00 20.00     0.086 N 
HETATM    8  S10 UNL     1     -34.382  17.329  -4.846  1.00 20.00    -0.155 SA
HETATM    9  H22 UNL     1     -34.930  14.853  -8.302  1.00 20.00     0.316 HD
ENDROOT
BRANCH   5  10
HETATM   10  C7  UNL     1     -35.960  13.550  -4.382  1.00 20.00     0.228 C 
HETATM   11  F9  UNL     1     -34.929  12.918  -3.769  1.00 20.00    -0.255 F 
ENDBRANCH   5  10
TORSDOF 1
ENDMDL
MODEL 8
REMARK VINA RESULT:      -3.7     17.934     19.010
REMARK  1 active torsions:
REMARK  status: ('A' for Active; 'I' for Inactive)
REMARK    1  A    between atoms: C5_5  and  C7_7 
ROOT
HETATM    1  C1  UNL     1     -33.722  14.824  -4.520  1.00 20.00     0.019 C 
HETATM    2  C2  UNL     1     -37.080  14.271  -4.263  1.00 20.00     0.292 C 
HETATM    3  C3  UNL     1     -37.301  16.277  -4.798  1.00 20.00     0.292 C 
HETATM    4  C4  UNL     1     -33.756  14.910  -6.037  1.00 20.00     0.075 C 
HETATM    5  C5  UNL     1     -34.824  15.752  -4.006  1.00 20.00     0.037 C 
HETATM    6  C6  UNL     1     -36.072  15.336  -4.781  1.00 20.00     0.066 C 
HETATM    7  N8  UNL     1     -37.943  15.383  -3.809  1.00 20.00     0.086 N 
HETATM    8  S10 UNL     1     -35.515  14.893  -6.501  1.00 20.00    -0.155 SA
HETATM    9  H22 UNL     1     -38.941  15.236  -3.949  1.00 20.00     0.316 HD
ENDROOT
BRANCH   5  10
HETATM   10  C7  UNL     1     -34.966  15.680  -2.493  1.00 20.00     0.228 C 
HETATM   11  F9  UNL     1     -33.856  16.223  -1.934  1.00 20.00    -0.255 F 
ENDBRANCH   5  10
TORSDOF 1
ENDMDL
MODEL 9
REMARK VINA RESULT:      -3.6     17.346     18.422
REMARK  1 active torsions:
REMARK  status: ('A' for Active; 'I' for Inactive)
REMARK    1  A    between atoms: C5_5  and  C7_7 
ROOT
HETATM    1  C1  UNL     1     -34.161  16.275  -2.281  1.00 20.00     0.019 C 
HETATM    2  C2  UNL     1     -36.014  16.694  -5.116  1.00 20.00     0.292 C 
HETATM    3  C3  UNL     1     -37.448  15.501  -4.178  1.00 20.00     0.292 C 
HETATM    4  C4  UNL     1     -35.057  17.177  -1.449  1.00 20.00     0.075 C 
HETATM    5  C5  UNL     1     -35.082  15.285  -2.996  1.00 20.00     0.037 C 
HETATM    6  C6  UNL     1     -36.144  16.157  -3.663  1.00 20.00     0.066 C 
HETATM    7  N8  UNL     1     -36.898  15.590  -5.548  1.00 20.00     0.086 N 
HETATM    8  S10 UNL     1     -36.491  17.567  -2.498  1.00 20.00    -0.155 SA
HETATM    9  H22 UNL     1     -37.576  15.838  -6.267  1.00 20.00     0.316 HD
ENDROOT
BRANCH   5  10
HETATM   10  C7  UNL     1     -34.313  14.384  -3.951  1.00 20.00     0.228 C 
HETATM   11  F9  UNL     1     -34.739  13.109  -3.770  1.00 20.00    -0.255 F 
ENDBRANCH   5  10
TORSDOF 1
ENDMDL
