MODEL 1
REMARK VINA RESULT:      -5.2      0.000      0.000
REMARK  3 active torsions:
REMARK  status: ('A' for Active; 'I' for Inactive)
REMARK    1  A    between atoms: C3_3  and  C8_8 
REMARK    2  A    between atoms: C6_6  and  C7_7 
REMARK    3  A    between atoms: C7_7  and  C8_8 
ROOT
HETATM    1  C5  UNL     1     -33.528   5.043   2.436  1.00 20.00     0.010 C 
HETATM    2  C8  UNL     1     -33.134   5.998   3.564  1.00 20.00    -0.014 C 
ENDROOT
BRANCH   2   3
HETATM    3  C3  UNL     1     -34.348   6.268   4.458  1.00 20.00    -0.011 A 
HETATM    4  C1  UNL     1     -34.728   5.289   5.536  1.00 20.00     0.005 A 
HETATM    5  C2  UNL     1     -34.156   6.630   5.905  1.00 20.00     0.005 A 
ENDBRANCH   2   3
BRANCH   2   6
HETATM    6  C7  UNL     1     -32.568   7.328   3.037  1.00 20.00     0.004 C 
BRANCH   6   7
HETATM    7  C6  UNL     1     -32.434   7.373   1.513  1.00 20.00    -0.004 C 
HETATM    8  C4  UNL     1     -32.865   8.724   0.959  1.00 20.00     0.005 C 
ENDBRANCH   6   7
ENDBRANCH   2   6
TORSDOF 3
ENDMDL
MODEL 2
REMARK VINA RESULT:      -4.5      0.946      3.913
REMARK  3 active torsions:
REMARK  status: ('A' for Active; 'I' for Inactive)
REMARK    1  A    between atoms: C3_3  and  C8_8 
REMARK    2  A    between atoms: C6_6  and  C7_7 
REMARK    3  A    between atoms: C7_7  and  C8_8 
ROOT
HETATM    1  C5  UNL     1     -33.339   4.273   2.606  1.00 20.00     0.010 C 
HETATM    2  C8  UNL     1     -33.622   5.776   2.634  1.00 20.00    -0.014 C 
ENDROOT
BRANCH   2   3
HETATM    3  C3  UNL     1     -32.359   6.546   2.238  1.00 20.00    -0.011 A 
HETATM    4  C1  UNL     1     -32.468   7.897   1.586  1.00 20.00     0.005 A 
HETATM    5  C2  UNL     1     -31.957   7.781   2.996  1.00 20.00     0.005 A 
ENDBRANCH   2   3
BRANCH   2   6
HETATM    6  C7  UNL     1     -34.116   6.256   4.010  1.00 20.00     0.004 C 
BRANCH   6   7
HETATM    7  C6  UNL     1     -35.069   5.272   4.693  1.00 20.00    -0.004 C 
HETATM    8  C4  UNL     1     -34.771   5.156   6.182  1.00 20.00     0.005 C 
ENDBRANCH   6   7
ENDBRANCH   2   6
TORSDOF 3
ENDMDL
MODEL 3
REMARK VINA RESULT:      -4.4      0.937      1.743
REMARK  3 active torsions:
REMARK  status: ('A' for Active; 'I' for Inactive)
REMARK    1  A    between atoms: C3_3  and  C8_8 
REMARK    2  A    between atoms: C6_6  and  C7_7 
REMARK    3  A    between atoms: C7_7  and  C8_8 
ROOT
HETATM    1  C5  UNL     1     -33.277   7.170   5.328  1.00 20.00     0.010 C 
HETATM    2  C8  UNL     1     -34.019   6.752   4.057  1.00 20.00    -0.014 C 
ENDROOT
BRANCH   2   3
HETATM    3  C3  UNL     1     -34.980   5.603   4.376  1.00 20.00    -0.011 A 
HETATM    4  C1  UNL     1     -34.481   4.184   4.408  1.00 20.00     0.005 A 
HETATM    5  C2  UNL     1     -34.877   4.872   5.686  1.00 20.00     0.005 A 
ENDBRANCH   2   3
BRANCH   2   6
HETATM    6  C7  UNL     1     -33.061   6.333   2.928  1.00 20.00     0.004 C 
BRANCH   6   7
HETATM    7  C6  UNL     1     -32.133   7.459   2.466  1.00 20.00    -0.004 C 
HETATM    8  C4  UNL     1     -32.664   8.135   1.211  1.00 20.00     0.005 C 
ENDBRANCH   6   7
ENDBRANCH   2   6
TORSDOF 3
ENDMDL
MODEL 4
REMARK VINA RESULT:      -4.1      0.932      3.584
REMARK  3 active torsions:
REMARK  status: ('A' for Active; 'I' for Inactive)
REMARK    1  A    between atoms: C3_3  and  C8_8 
REMARK    2  A    between atoms: C6_6  and  C7_7 
REMARK    3  A    between atoms: C7_7  and  C8_8 
ROOT
HETATM    1  C5  UNL     1     -32.443   7.540   2.206  1.00 20.00     0.010 C 
HETATM    2  C8  UNL     1     -32.956   6.542   3.245  1.00 20.00    -0.014 C 
ENDROOT
BRANCH   2   3
HETATM    3  C3  UNL     1     -33.645   5.371   2.539  1.00 20.00    -0.011 A 
HETATM    4  C1  UNL     1     -32.918   4.068   2.347  1.00 20.00     0.005 A 
HETATM    5  C2  UNL     1     -34.062   4.155   3.320  1.00 20.00     0.005 A 
ENDBRANCH   2   3
BRANCH   2   6
HETATM    6  C7  UNL     1     -33.926   7.187   4.252  1.00 20.00     0.004 C 
BRANCH   6   7
HETATM    7  C6  UNL     1     -33.657   6.782   5.703  1.00 20.00    -0.004 C 
HETATM    8  C4  UNL     1     -34.652   5.734   6.179  1.00 20.00     0.005 C 
ENDBRANCH   6   7
ENDBRANCH   2   6
TORSDOF 3
ENDMDL
MODEL 5
REMARK VINA RESULT:      -4.0      1.141      4.381
REMARK  3 active torsions:
REMARK  status: ('A' for Active; 'I' for Inactive)
REMARK    1  A    between atoms: C3_3  and  C8_8 
REMARK    2  A    between atoms: C6_6  and  C7_7 
REMARK    3  A    between atoms: C7_7  and  C8_8 
ROOT
HETATM    1  C5  UNL     1     -31.784   7.724   3.433  1.00 20.00     0.010 C 
HETATM    2  C8  UNL     1     -32.410   7.066   2.203  1.00 20.00    -0.014 C 
ENDROOT
BRANCH   2   3
HETATM    3  C3  UNL     1     -33.264   8.089   1.449  1.00 20.00    -0.011 A 
HETATM    4  C1  UNL     1     -32.615   9.269   0.778  1.00 20.00     0.005 A 
HETATM    5  C2  UNL     1     -33.206   8.162  -0.052  1.00 20.00     0.005 A 
ENDBRANCH   2   3
BRANCH   2   6
HETATM    6  C7  UNL     1     -33.266   5.838   2.565  1.00 20.00     0.004 C 
BRANCH   6   7
HETATM    7  C6  UNL     1     -34.065   6.012   3.860  1.00 20.00    -0.004 C 
HETATM    8  C4  UNL     1     -34.721   4.705   4.284  1.00 20.00     0.005 C 
ENDBRANCH   6   7
ENDBRANCH   2   6
TORSDOF 3
ENDMDL
MODEL 6
REMARK VINA RESULT:      -3.9      1.417      2.430
REMARK  3 active torsions:
REMARK  status: ('A' for Active; 'I' for Inactive)
REMARK    1  A    between atoms: C3_3  and  C8_8 
REMARK    2  A    between atoms: C6_6  and  C7_7 
REMARK    3  A    between atoms: C7_7  and  C8_8 
ROOT
HETATM    1  C5  UNL     1     -32.024   7.801   4.056  1.00 20.00     0.010 C 
HETATM    2  C8  UNL     1     -32.865   7.146   2.960  1.00 20.00    -0.014 C 
ENDROOT
BRANCH   2   3
HETATM    3  C3  UNL     1     -32.916   5.632   3.184  1.00 20.00    -0.011 A 
HETATM    4  C1  UNL     1     -34.217   4.960   3.529  1.00 20.00     0.005 A 
HETATM    5  C2  UNL     1     -33.592   4.740   2.179  1.00 20.00     0.005 A 
ENDBRANCH   2   3
BRANCH   2   6
HETATM    6  C7  UNL     1     -32.330   7.446   1.548  1.00 20.00     0.004 C 
BRANCH   6   7
HETATM    7  C6  UNL     1     -32.766   8.811   1.008  1.00 20.00    -0.004 C 
HETATM    8  C4  UNL     1     -33.441   8.679  -0.349  1.00 20.00     0.005 C 
ENDBRANCH   6   7
ENDBRANCH   2   6
TORSDOF 3
ENDMDL
MODEL 7
REMARK VINA RESULT:      -3.8     10.607     11.589
REMARK  3 active torsions:
REMARK  status: ('A' for Active; 'I' for Inactive)
REMARK    1  A    between atoms: C3_3  and  C8_8 
REMARK    2  A    between atoms: C6_6  and  C7_7 
REMARK    3  A    between atoms: C7_7  and  C8_8 
ROOT
HETATM    1  C5  UNL     1     -32.735  14.581  -4.449  1.00 20.00     0.010 C 
HETATM    2  C8  UNL     1     -34.120  15.038  -3.990  1.00 20.00    -0.014 C 
ENDROOT
BRANCH   2   3
HETATM    3  C3  UNL     1     -33.996  15.832  -2.687  1.00 20.00    -0.011 A 
HETATM    4  C1  UNL     1     -34.432  17.270  -2.630  1.00 20.00     0.005 A 
HETATM    5  C2  UNL     1     -35.227  16.213  -1.913  1.00 20.00     0.005 A 
ENDBRANCH   2   3
BRANCH   2   6
HETATM    6  C7  UNL     1     -35.093  13.861  -3.794  1.00 20.00     0.004 C 
BRANCH   6   7
HETATM    7  C6  UNL     1     -36.345  13.952  -4.670  1.00 20.00    -0.004 C 
HETATM    8  C4  UNL     1     -36.288  15.161  -5.593  1.00 20.00     0.005 C 
ENDBRANCH   6   7
ENDBRANCH   2   6
TORSDOF 3
ENDMDL
MODEL 8
REMARK VINA RESULT:      -3.8     15.523     16.669
REMARK  3 active torsions:
REMARK  status: ('A' for Active; 'I' for Inactive)
REMARK    1  A    between atoms: C3_3  and  C8_8 
REMARK    2  A    between atoms: C6_6  and  C7_7 
REMARK    3  A    between atoms: C7_7  and  C8_8 
ROOT
HETATM    1  C5  UNL     1     -21.777  17.245   8.537  1.00 20.00     0.010 C 
HETATM    2  C8  UNL     1     -22.957  17.633   9.430  1.00 20.00    -0.014 C 
ENDROOT
BRANCH   2   3
HETATM    3  C3  UNL     1     -23.594  18.925   8.910  1.00 20.00    -0.011 A 
HETATM    4  C1  UNL     1     -24.664  18.871   7.855  1.00 20.00     0.005 A 
HETATM    5  C2  UNL     1     -25.015  19.263   9.264  1.00 20.00     0.005 A 
ENDBRANCH   2   3
BRANCH   2   6
HETATM    6  C7  UNL     1     -22.546  17.810  10.903  1.00 20.00     0.004 C 
BRANCH   6   7
HETATM    7  C6  UNL     1     -23.435  17.037  11.881  1.00 20.00    -0.004 C 
HETATM    8  C4  UNL     1     -24.377  16.094  11.146  1.00 20.00     0.005 C 
ENDBRANCH   6   7
ENDBRANCH   2   6
TORSDOF 3
ENDMDL
MODEL 9
REMARK VINA RESULT:      -3.8     10.840     11.909
REMARK  3 active torsions:
REMARK  status: ('A' for Active; 'I' for Inactive)
REMARK    1  A    between atoms: C3_3  and  C8_8 
REMARK    2  A    between atoms: C6_6  and  C7_7 
REMARK    3  A    between atoms: C7_7  and  C8_8 
ROOT
HETATM    1  C5  UNL     1     -33.012  17.675  -2.781  1.00 20.00     0.010 C 
HETATM    2  C8  UNL     1     -33.642  16.299  -2.564  1.00 20.00    -0.014 C 
ENDROOT
BRANCH   2   3
HETATM    3  C3  UNL     1     -33.936  15.646  -3.917  1.00 20.00    -0.011 A 
HETATM    4  C1  UNL     1     -33.133  14.461  -4.378  1.00 20.00     0.005 A 
HETATM    5  C2  UNL     1     -34.572  14.285  -3.979  1.00 20.00     0.005 A 
ENDBRANCH   2   3
BRANCH   2   6
HETATM    6  C7  UNL     1     -34.931  16.367  -1.726  1.00 20.00     0.004 C 
BRANCH   6   7
HETATM    7  C6  UNL     1     -34.978  17.566  -0.775  1.00 20.00    -0.004 C 
HETATM    8  C4  UNL     1     -35.515  17.166   0.592  1.00 20.00     0.005 C 
ENDBRANCH   6   7
ENDBRANCH   2   6
TORSDOF 3
ENDMDL
