MODEL 1
REMARK VINA RESULT:      -4.5      0.000      0.000
REMARK  3 active torsions:
REMARK  status: ('A' for Active; 'I' for Inactive)
REMARK    1  A    between atoms: C1_1  and  C3_3 
REMARK    2  A    between atoms: C2_2  and  C9_9 
REMARK    3  A    between atoms: C3_3  and  O11_11 
ROOT
HETATM    1  C1  UNL     1     -36.228  14.983  -5.440  1.00 20.00     0.085 C 
HETATM    2  C2  UNL     1     -35.249  15.879  -5.197  1.00 20.00    -0.070 C 
HETATM    3  C4  UNL     1     -35.043  17.094  -6.077  1.00 20.00     0.044 C 
ENDROOT
BRANCH   2   4
HETATM    4  C9  UNL     1     -34.275  15.742  -3.995  1.00 20.00    -0.028 C 
HETATM    5  C5  UNL     1     -33.293  14.575  -4.237  1.00 20.00     0.019 C 
HETATM    6  C6  UNL     1     -34.979  15.453  -2.645  1.00 20.00     0.019 C 
HETATM    7  C7  UNL     1     -33.478  17.050  -3.818  1.00 20.00     0.019 C 
ENDBRANCH   2   4
BRANCH   1   8
HETATM    8  C3  UNL     1     -36.496  13.768  -4.629  1.00 20.00     0.282 C 
HETATM    9  O10 UNL     1     -35.850  12.733  -4.657  1.00 20.00    -0.260 OA
BRANCH   8  10
HETATM   10  O11 UNL     1     -37.571  14.037  -3.840  1.00 20.00    -0.323 OA
HETATM   11  C8  UNL     1     -38.600  14.824  -4.450  1.00 20.00     0.213 C 
ENDBRANCH   8  10
ENDBRANCH   1   8
TORSDOF 3
ENDMDL
MODEL 2
REMARK VINA RESULT:      -4.5      1.008      2.062
REMARK  3 active torsions:
REMARK  status: ('A' for Active; 'I' for Inactive)
REMARK    1  A    between atoms: C1_1  and  C3_3 
REMARK    2  A    between atoms: C2_2  and  C9_9 
REMARK    3  A    between atoms: C3_3  and  O11_11 
ROOT
HETATM    1  C1  UNL     1     -36.231  14.777  -3.338  1.00 20.00     0.085 C 
HETATM    2  C2  UNL     1     -35.185  15.569  -3.024  1.00 20.00    -0.070 C 
HETATM    3  C4  UNL     1     -35.140  16.358  -1.732  1.00 20.00     0.044 C 
ENDROOT
BRANCH   2   4
HETATM    4  C9  UNL     1     -33.946  15.719  -3.950  1.00 20.00    -0.028 C 
HETATM    5  C5  UNL     1     -34.354  16.394  -5.278  1.00 20.00     0.019 C 
HETATM    6  C6  UNL     1     -33.277  14.374  -4.326  1.00 20.00     0.019 C 
HETATM    7  C7  UNL     1     -32.873  16.578  -3.251  1.00 20.00     0.019 C 
ENDBRANCH   2   4
BRANCH   1   8
HETATM    8  C3  UNL     1     -36.352  13.973  -4.581  1.00 20.00     0.282 C 
HETATM    9  O10 UNL     1     -35.938  12.837  -4.740  1.00 20.00    -0.260 OA
BRANCH   8  10
HETATM   10  O11 UNL     1     -37.025  14.731  -5.489  1.00 20.00    -0.323 OA
HETATM   11  C8  UNL     1     -38.068  15.551  -4.953  1.00 20.00     0.213 C 
ENDBRANCH   8  10
ENDBRANCH   1   8
TORSDOF 3
ENDMDL
MODEL 3
REMARK VINA RESULT:      -4.4      0.106      1.318
REMARK  3 active torsions:
REMARK  status: ('A' for Active; 'I' for Inactive)
REMARK    1  A    between atoms: C1_1  and  C3_3 
REMARK    2  A    between atoms: C2_2  and  C9_9 
REMARK    3  A    between atoms: C3_3  and  O11_11 
ROOT
HETATM    1  C1  UNL     1     -36.230  15.010  -5.411  1.00 20.00     0.085 C 
HETATM    2  C2  UNL     1     -35.235  15.880  -5.140  1.00 20.00    -0.070 C 
HETATM    3  C4  UNL     1     -35.011  17.122  -5.977  1.00 20.00     0.044 C 
ENDROOT
BRANCH   2   4
HETATM    4  C9  UNL     1     -34.260  15.685  -3.947  1.00 20.00    -0.028 C 
HETATM    5  C5  UNL     1     -35.054  15.444  -2.645  1.00 20.00     0.019 C 
HETATM    6  C6  UNL     1     -33.337  16.901  -3.683  1.00 20.00     0.019 C 
HETATM    7  C7  UNL     1     -33.344  14.473  -4.216  1.00 20.00     0.019 C 
ENDBRANCH   2   4
BRANCH   1   8
HETATM    8  C3  UNL     1     -36.516  13.773  -4.641  1.00 20.00     0.282 C 
HETATM    9  O10 UNL     1     -35.859  12.745  -4.671  1.00 20.00    -0.260 OA
BRANCH   8  10
HETATM   10  O11 UNL     1     -37.625  14.011  -3.889  1.00 20.00    -0.323 OA
HETATM   11  C8  UNL     1     -38.562  14.936  -4.450  1.00 20.00     0.213 C 
ENDBRANCH   8  10
ENDBRANCH   1   8
TORSDOF 3
ENDMDL
MODEL 4
REMARK VINA RESULT:      -4.4      0.141      1.288
REMARK  3 active torsions:
REMARK  status: ('A' for Active; 'I' for Inactive)
REMARK    1  A    between atoms: C1_1  and  C3_3 
REMARK    2  A    between atoms: C2_2  and  C9_9 
REMARK    3  A    between atoms: C3_3  and  O11_11 
ROOT
HETATM    1  C1  UNL     1     -36.294  15.109  -5.374  1.00 20.00     0.085 C 
HETATM    2  C2  UNL     1     -35.297  15.972  -5.085  1.00 20.00    -0.070 C 
HETATM    3  C4  UNL     1     -35.106  17.259  -5.860  1.00 20.00     0.044 C 
ENDROOT
BRANCH   2   4
HETATM    4  C9  UNL     1     -34.287  15.721  -3.933  1.00 20.00    -0.028 C 
HETATM    5  C5  UNL     1     -33.361  16.946  -3.761  1.00 20.00     0.019 C 
HETATM    6  C6  UNL     1     -33.362  14.499  -4.162  1.00 20.00     0.019 C 
HETATM    7  C7  UNL     1     -35.049  15.470  -2.616  1.00 20.00     0.019 C 
ENDBRANCH   2   4
BRANCH   1   8
HETATM    8  C3  UNL     1     -36.549  13.830  -4.664  1.00 20.00     0.282 C 
HETATM    9  O10 UNL     1     -35.886  12.811  -4.768  1.00 20.00    -0.260 OA
BRANCH   8  10
HETATM   10  O11 UNL     1     -37.635  14.018  -3.867  1.00 20.00    -0.323 OA
HETATM   11  C8  UNL     1     -38.652  14.871  -4.404  1.00 20.00     0.213 C 
ENDBRANCH   8  10
ENDBRANCH   1   8
TORSDOF 3
ENDMDL
MODEL 5
REMARK VINA RESULT:      -4.0      1.484      2.480
REMARK  3 active torsions:
REMARK  status: ('A' for Active; 'I' for Inactive)
REMARK    1  A    between atoms: C1_1  and  C3_3 
REMARK    2  A    between atoms: C2_2  and  C9_9 
REMARK    3  A    between atoms: C3_3  and  O11_11 
ROOT
HETATM    1  C1  UNL     1     -36.730  15.615  -3.485  1.00 20.00     0.085 C 
HETATM    2  C2  UNL     1     -35.387  15.609  -3.355  1.00 20.00    -0.070 C 
HETATM    3  C4  UNL     1     -34.685  16.429  -2.293  1.00 20.00     0.044 C 
ENDROOT
BRANCH   2   4
HETATM    4  C9  UNL     1     -34.466  14.754  -4.267  1.00 20.00    -0.028 C 
HETATM    5  C5  UNL     1     -32.984  15.097  -3.999  1.00 20.00     0.019 C 
HETATM    6  C6  UNL     1     -34.703  14.974  -5.782  1.00 20.00     0.019 C 
HETATM    7  C7  UNL     1     -34.700  13.255  -3.987  1.00 20.00     0.019 C 
ENDBRANCH   2   4
BRANCH   1   8
HETATM    8  C3  UNL     1     -37.494  14.842  -4.497  1.00 20.00     0.282 C 
HETATM    9  O10 UNL     1     -37.849  13.679  -4.389  1.00 20.00    -0.260 OA
BRANCH   8  10
HETATM   10  O11 UNL     1     -37.740  15.676  -5.543  1.00 20.00    -0.323 OA
HETATM   11  C8  UNL     1     -38.614  16.775  -5.262  1.00 20.00     0.213 C 
ENDBRANCH   8  10
ENDBRANCH   1   8
TORSDOF 3
ENDMDL
MODEL 6
REMARK VINA RESULT:      -4.0      1.143      2.160
REMARK  3 active torsions:
REMARK  status: ('A' for Active; 'I' for Inactive)
REMARK    1  A    between atoms: C1_1  and  C3_3 
REMARK    2  A    between atoms: C2_2  and  C9_9 
REMARK    3  A    between atoms: C3_3  and  O11_11 
ROOT
HETATM    1  C1  UNL     1     -36.278  15.936  -5.231  1.00 20.00     0.085 C 
HETATM    2  C2  UNL     1     -35.340  16.658  -4.584  1.00 20.00    -0.070 C 
HETATM    3  C4  UNL     1     -35.223  18.158  -4.763  1.00 20.00     0.044 C 
ENDROOT
BRANCH   2   4
HETATM    4  C9  UNL     1     -34.324  16.014  -3.601  1.00 20.00    -0.028 C 
HETATM    5  C5  UNL     1     -33.155  16.987  -3.331  1.00 20.00     0.019 C 
HETATM    6  C6  UNL     1     -33.692  14.699  -4.122  1.00 20.00     0.019 C 
HETATM    7  C7  UNL     1     -35.027  15.681  -2.269  1.00 20.00     0.019 C 
ENDBRANCH   2   4
BRANCH   1   8
HETATM    8  C3  UNL     1     -36.458  14.467  -5.111  1.00 20.00     0.282 C 
HETATM    9  O10 UNL     1     -37.029  13.889  -4.201  1.00 20.00    -0.260 OA
BRANCH   8  10
HETATM   10  O11 UNL     1     -35.892  13.898  -6.210  1.00 20.00    -0.323 OA
HETATM   11  C8  UNL     1     -35.782  14.750  -7.356  1.00 20.00     0.213 C 
ENDBRANCH   8  10
ENDBRANCH   1   8
TORSDOF 3
ENDMDL
MODEL 7
REMARK VINA RESULT:      -3.9      1.181      2.267
REMARK  3 active torsions:
REMARK  status: ('A' for Active; 'I' for Inactive)
REMARK    1  A    between atoms: C1_1  and  C3_3 
REMARK    2  A    between atoms: C2_2  and  C9_9 
REMARK    3  A    between atoms: C3_3  and  O11_11 
ROOT
HETATM    1  C1  UNL     1     -36.176  15.078  -3.811  1.00 20.00     0.085 C 
HETATM    2  C2  UNL     1     -35.490  16.044  -4.456  1.00 20.00    -0.070 C 
HETATM    3  C4  UNL     1     -35.125  17.350  -3.781  1.00 20.00     0.044 C 
ENDROOT
BRANCH   2   4
HETATM    4  C9  UNL     1     -35.011  15.886  -5.925  1.00 20.00    -0.028 C 
HETATM    5  C5  UNL     1     -34.510  17.242  -6.470  1.00 20.00     0.019 C 
HETATM    6  C6  UNL     1     -36.115  15.401  -6.898  1.00 20.00     0.019 C 
HETATM    7  C7  UNL     1     -33.865  14.856  -5.992  1.00 20.00     0.019 C 
ENDBRANCH   2   4
BRANCH   1   8
HETATM    8  C3  UNL     1     -36.573  13.773  -4.400  1.00 20.00     0.282 C 
HETATM    9  O10 UNL     1     -35.825  12.837  -4.631  1.00 20.00    -0.260 OA
BRANCH   8  10
HETATM   10  O11 UNL     1     -37.917  13.814  -4.606  1.00 20.00    -0.323 OA
HETATM   11  C8  UNL     1     -38.582  14.976  -4.099  1.00 20.00     0.213 C 
ENDBRANCH   8  10
ENDBRANCH   1   8
TORSDOF 3
ENDMDL
MODEL 8
REMARK VINA RESULT:      -3.9      1.110      1.319
REMARK  3 active torsions:
REMARK  status: ('A' for Active; 'I' for Inactive)
REMARK    1  A    between atoms: C1_1  and  C3_3 
REMARK    2  A    between atoms: C2_2  and  C9_9 
REMARK    3  A    between atoms: C3_3  and  O11_11 
ROOT
HETATM    1  C1  UNL     1     -36.647  15.704  -5.339  1.00 20.00     0.085 C 
HETATM    2  C2  UNL     1     -35.336  15.901  -5.085  1.00 20.00    -0.070 C 
HETATM    3  C4  UNL     1     -34.454  16.703  -6.019  1.00 20.00     0.044 C 
ENDROOT
BRANCH   2   4
HETATM    4  C9  UNL     1     -34.640  15.338  -3.816  1.00 20.00    -0.028 C 
HETATM    5  C5  UNL     1     -34.646  13.794  -3.847  1.00 20.00     0.019 C 
HETATM    6  C6  UNL     1     -35.322  15.754  -2.489  1.00 20.00     0.019 C 
HETATM    7  C7  UNL     1     -33.183  15.840  -3.753  1.00 20.00     0.019 C 
ENDBRANCH   2   4
BRANCH   1   8
HETATM    8  C3  UNL     1     -37.578  14.933  -4.477  1.00 20.00     0.282 C 
HETATM    9  O10 UNL     1     -37.659  13.717  -4.423  1.00 20.00    -0.260 OA
BRANCH   8  10
HETATM   10  O11 UNL     1     -38.296  15.832  -3.751  1.00 20.00    -0.323 OA
HETATM   11  C8  UNL     1     -39.660  15.998  -4.153  1.00 20.00     0.213 C 
ENDBRANCH   8  10
ENDBRANCH   1   8
TORSDOF 3
ENDMDL
MODEL 9
REMARK VINA RESULT:      -3.8      1.355      2.425
REMARK  3 active torsions:
REMARK  status: ('A' for Active; 'I' for Inactive)
REMARK    1  A    between atoms: C1_1  and  C3_3 
REMARK    2  A    between atoms: C2_2  and  C9_9 
REMARK    3  A    between atoms: C3_3  and  O11_11 
ROOT
HETATM    1  C1  UNL     1     -35.023  14.222  -4.808  1.00 20.00     0.085 C 
HETATM    2  C2  UNL     1     -34.068  14.950  -4.193  1.00 20.00    -0.070 C 
HETATM    3  C4  UNL     1     -32.606  14.558  -4.248  1.00 20.00     0.044 C 
ENDROOT
BRANCH   2   4
HETATM    4  C9  UNL     1     -34.390  16.246  -3.401  1.00 20.00    -0.028 C 
HETATM    5  C5  UNL     1     -35.163  15.902  -2.109  1.00 20.00     0.019 C 
HETATM    6  C6  UNL     1     -35.266  17.259  -4.181  1.00 20.00     0.019 C 
HETATM    7  C7  UNL     1     -33.080  16.972  -3.032  1.00 20.00     0.019 C 
ENDBRANCH   2   4
BRANCH   1   8
HETATM    8  C3  UNL     1     -36.474  14.537  -4.802  1.00 20.00     0.282 C 
HETATM    9  O10 UNL     1     -37.253  14.301  -3.892  1.00 20.00    -0.260 OA
BRANCH   8  10
HETATM   10  O11 UNL     1     -36.760  15.153  -5.981  1.00 20.00    -0.323 OA
HETATM   11  C8  UNL     1     -35.883  14.838  -7.068  1.00 20.00     0.213 C 
ENDBRANCH   8  10
ENDBRANCH   1   8
TORSDOF 3
ENDMDL
