MODEL 1
REMARK VINA RESULT:      -4.2      0.000      0.000
REMARK  1 active torsions:
REMARK  status: ('A' for Active; 'I' for Inactive)
REMARK    1  A    between atoms: C1_1  and  C4_4 
ROOT
HETATM    1  C2  UNL     1     -22.663  17.613  11.856  1.00 20.00     0.173 C 
HETATM    2  C3  UNL     1     -24.383  16.336  10.941  1.00 20.00     0.173 C 
HETATM    3  C4  UNL     1     -22.442  17.006   9.324  1.00 20.00     0.060 A 
HETATM    4  C5  UNL     1     -22.759  17.993  10.420  1.00 20.00     0.027 A 
HETATM    5  C6  UNL     1     -23.848  17.183   9.840  1.00 20.00     0.027 A 
HETATM    6  O8  UNL     1     -23.429  16.403  12.018  1.00 20.00    -0.390 OA
ENDROOT
BRANCH   3   7
HETATM    7  C1  UNL     1     -22.104  17.508   7.988  1.00 20.00     0.236 C 
HETATM    8  O7  UNL     1     -21.660  16.799   7.091  1.00 20.00    -0.306 OA
ENDBRANCH   3   7
TORSDOF 1
ENDMDL
MODEL 2
REMARK VINA RESULT:      -4.1     15.821     16.509
REMARK  1 active torsions:
REMARK  status: ('A' for Active; 'I' for Inactive)
REMARK    1  A    between atoms: C1_1  and  C4_4 
ROOT
HETATM    1  C2  UNL     1     -34.059   6.590   6.015  1.00 20.00     0.173 C 
HETATM    2  C3  UNL     1     -35.109   4.787   4.979  1.00 20.00     0.173 C 
HETATM    3  C4  UNL     1     -33.228   5.981   3.614  1.00 20.00     0.060 A 
HETATM    4  C5  UNL     1     -34.021   6.857   4.551  1.00 20.00     0.027 A 
HETATM    5  C6  UNL     1     -34.686   5.714   3.894  1.00 20.00     0.027 A 
HETATM    6  O8  UNL     1     -34.424   5.205   6.175  1.00 20.00    -0.390 OA
ENDROOT
BRANCH   3   7
HETATM    7  C1  UNL     1     -32.840   6.510   2.301  1.00 20.00     0.236 C 
HETATM    8  O7  UNL     1     -32.269   7.583   2.146  1.00 20.00    -0.306 OA
ENDBRANCH   3   7
TORSDOF 1
ENDMDL
MODEL 3
REMARK VINA RESULT:      -4.0     17.163     18.078
REMARK  1 active torsions:
REMARK  status: ('A' for Active; 'I' for Inactive)
REMARK    1  A    between atoms: C1_1  and  C4_4 
ROOT
HETATM    1  C2  UNL     1     -33.334  16.685  -3.653  1.00 20.00     0.173 C 
HETATM    2  C3  UNL     1     -34.709  16.433  -1.790  1.00 20.00     0.173 C 
HETATM    3  C4  UNL     1     -34.898  14.592  -3.635  1.00 20.00     0.060 A 
HETATM    4  C5  UNL     1     -34.560  15.980  -4.119  1.00 20.00     0.027 A 
HETATM    5  C6  UNL     1     -35.431  15.819  -2.938  1.00 20.00     0.027 A 
HETATM    6  O8  UNL     1     -33.347  16.633  -2.213  1.00 20.00    -0.390 OA
ENDROOT
BRANCH   3   7
HETATM    7  C1  UNL     1     -35.819  13.766  -4.425  1.00 20.00     0.236 C 
HETATM    8  O7  UNL     1     -35.775  12.541  -4.450  1.00 20.00    -0.306 OA
ENDBRANCH   3   7
TORSDOF 1
ENDMDL
MODEL 4
REMARK VINA RESULT:      -3.9      1.632      1.910
REMARK  1 active torsions:
REMARK  status: ('A' for Active; 'I' for Inactive)
REMARK    1  A    between atoms: C1_1  and  C4_4 
ROOT
HETATM    1  C2  UNL     1     -25.347  18.184  11.484  1.00 20.00     0.173 C 
HETATM    2  C3  UNL     1     -24.588  15.982  11.494  1.00 20.00     0.173 C 
HETATM    3  C4  UNL     1     -22.936  17.779  10.560  1.00 20.00     0.060 A 
HETATM    4  C5  UNL     1     -24.403  18.053  10.340  1.00 20.00     0.027 A 
HETATM    5  C6  UNL     1     -23.922  16.658  10.347  1.00 20.00     0.027 A 
HETATM    6  O8  UNL     1     -25.160  17.020  12.313  1.00 20.00    -0.390 OA
ENDROOT
BRANCH   3   7
HETATM    7  C1  UNL     1     -21.983  18.103   9.493  1.00 20.00     0.236 C 
HETATM    8  O7  UNL     1     -21.916  19.203   8.957  1.00 20.00    -0.306 OA
ENDBRANCH   3   7
TORSDOF 1
ENDMDL
MODEL 5
REMARK VINA RESULT:      -3.9      1.301      3.676
REMARK  1 active torsions:
REMARK  status: ('A' for Active; 'I' for Inactive)
REMARK    1  A    between atoms: C1_1  and  C4_4 
ROOT
HETATM    1  C2  UNL     1     -23.840  18.926   8.340  1.00 20.00     0.173 C 
HETATM    2  C3  UNL     1     -22.015  17.492   8.141  1.00 20.00     0.173 C 
HETATM    3  C4  UNL     1     -23.763  16.904   9.992  1.00 20.00     0.060 A 
HETATM    4  C5  UNL     1     -23.583  18.372   9.697  1.00 20.00     0.027 A 
HETATM    5  C6  UNL     1     -22.426  17.463   9.571  1.00 20.00     0.027 A 
HETATM    6  O8  UNL     1     -23.087  18.120   7.412  1.00 20.00    -0.390 OA
ENDROOT
BRANCH   3   7
HETATM    7  C1  UNL     1     -23.948  16.474  11.383  1.00 20.00     0.236 C 
HETATM    8  O7  UNL     1     -24.637  15.513  11.707  1.00 20.00    -0.306 OA
ENDBRANCH   3   7
TORSDOF 1
ENDMDL
MODEL 6
REMARK VINA RESULT:      -3.8     22.911     23.795
REMARK  1 active torsions:
REMARK  status: ('A' for Active; 'I' for Inactive)
REMARK    1  A    between atoms: C1_1  and  C4_4 
ROOT
HETATM    1  C2  UNL     1     -41.165   5.507  -0.842  1.00 20.00     0.173 C 
HETATM    2  C3  UNL     1     -43.303   5.867   0.008  1.00 20.00     0.173 C 
HETATM    3  C4  UNL     1     -41.747   7.960  -0.154  1.00 20.00     0.060 A 
HETATM    4  C5  UNL     1     -41.059   6.645   0.113  1.00 20.00     0.027 A 
HETATM    5  C6  UNL     1     -42.414   6.873   0.651  1.00 20.00     0.027 A 
HETATM    6  O8  UNL     1     -42.569   5.309  -1.098  1.00 20.00    -0.390 OA
ENDROOT
BRANCH   3   7
HETATM    7  C1  UNL     1     -41.272   9.166   0.533  1.00 20.00     0.236 C 
HETATM    8  O7  UNL     1     -41.654  10.297   0.256  1.00 20.00    -0.306 OA
ENDBRANCH   3   7
TORSDOF 1
ENDMDL
MODEL 7
REMARK VINA RESULT:      -3.8     17.644     18.594
REMARK  1 active torsions:
REMARK  status: ('A' for Active; 'I' for Inactive)
REMARK    1  A    between atoms: C1_1  and  C4_4 
ROOT
HETATM    1  C2  UNL     1     -34.713  16.507  -2.482  1.00 20.00     0.173 C 
HETATM    2  C3  UNL     1     -33.077  15.553  -3.838  1.00 20.00     0.173 C 
HETATM    3  C4  UNL     1     -35.550  14.877  -4.345  1.00 20.00     0.060 A 
HETATM    4  C5  UNL     1     -35.230  15.176  -2.901  1.00 20.00     0.027 A 
HETATM    5  C6  UNL     1     -34.193  14.571  -3.761  1.00 20.00     0.027 A 
HETATM    6  O8  UNL     1     -33.585  16.801  -3.329  1.00 20.00    -0.390 OA
ENDROOT
BRANCH   3   7
HETATM    7  C1  UNL     1     -36.457  13.767  -4.659  1.00 20.00     0.236 C 
HETATM    8  O7  UNL     1     -37.659  13.787  -4.417  1.00 20.00    -0.306 OA
ENDBRANCH   3   7
TORSDOF 1
ENDMDL
MODEL 8
REMARK VINA RESULT:      -3.7     23.030     23.871
REMARK  1 active torsions:
REMARK  status: ('A' for Active; 'I' for Inactive)
REMARK    1  A    between atoms: C1_1  and  C4_4 
ROOT
HETATM    1  C2  UNL     1     -43.416   7.788   0.892  1.00 20.00     0.173 C 
HETATM    2  C3  UNL     1     -41.575   9.044   0.213  1.00 20.00     0.173 C 
HETATM    3  C4  UNL     1     -41.738   6.612  -0.730  1.00 20.00     0.060 A 
HETATM    4  C5  UNL     1     -42.308   6.824   0.651  1.00 20.00     0.027 A 
HETATM    5  C6  UNL     1     -41.141   7.620   0.221  1.00 20.00     0.027 A 
HETATM    6  O8  UNL     1     -43.013   9.041   0.304  1.00 20.00    -0.390 OA
ENDROOT
BRANCH   3   7
HETATM    7  C1  UNL     1     -40.999   5.376  -1.014  1.00 20.00     0.236 C 
HETATM    8  O7  UNL     1     -41.421   4.490  -1.749  1.00 20.00    -0.306 OA
ENDBRANCH   3   7
TORSDOF 1
ENDMDL
MODEL 9
REMARK VINA RESULT:      -3.7     17.420     18.091
REMARK  1 active torsions:
REMARK  status: ('A' for Active; 'I' for Inactive)
REMARK    1  A    between atoms: C1_1  and  C4_4 
ROOT
HETATM    1  C2  UNL     1     -35.305  16.988  -2.256  1.00 20.00     0.173 C 
HETATM    2  C3  UNL     1     -33.457  17.107  -3.669  1.00 20.00     0.173 C 
HETATM    3  C4  UNL     1     -34.938  14.963  -3.866  1.00 20.00     0.060 A 
HETATM    4  C5  UNL     1     -34.860  15.588  -2.495  1.00 20.00     0.027 A 
HETATM    5  C6  UNL     1     -33.689  15.663  -3.391  1.00 20.00     0.027 A 
HETATM    6  O8  UNL     1     -34.636  17.809  -3.233  1.00 20.00    -0.390 OA
ENDROOT
BRANCH   3   7
HETATM    7  C1  UNL     1     -34.934  13.500  -3.984  1.00 20.00     0.236 C 
HETATM    8  O7  UNL     1     -35.858  12.859  -4.472  1.00 20.00    -0.306 OA
ENDBRANCH   3   7
TORSDOF 1
ENDMDL
