MODEL 1
REMARK VINA RESULT:      -3.6      0.000      0.000
REMARK  1 active torsions:
REMARK  status: ('A' for Active; 'I' for Inactive)
REMARK    1  A    between atoms: C5_5  and  C6_6 
ROOT
HETATM    1  C1  UNL     1     -22.459  17.343   9.066  1.00 20.00     0.011 C 
HETATM    2  C2  UNL     1     -23.288  18.365   8.280  1.00 20.00     0.011 C 
HETATM    3  C3  UNL     1     -22.070  17.806  10.469  1.00 20.00     0.075 C 
HETATM    4  C4  UNL     1     -24.779  18.419   8.596  1.00 20.00     0.075 C 
HETATM    5  C5  UNL     1     -24.796  17.294  11.120  1.00 20.00     0.122 C 
HETATM    6  S7  UNL     1     -23.127  17.242  11.845  1.00 20.00    -0.152 SA
HETATM    7  S8  UNL     1     -25.172  18.877  10.309  1.00 20.00    -0.152 SA
ENDROOT
BRANCH   5   8
HETATM    8  C6  UNL     1     -25.810  17.076  12.242  1.00 20.00     0.140 C 
HETATM    9 CL9  UNL     1     -27.075  18.315  12.169  1.00 20.00    -0.128 Cl
ENDBRANCH   5   8
TORSDOF 1
ENDMDL
MODEL 2
REMARK VINA RESULT:      -3.2     17.931     19.062
REMARK  1 active torsions:
REMARK  status: ('A' for Active; 'I' for Inactive)
REMARK    1  A    between atoms: C5_5  and  C6_6 
ROOT
HETATM    1  C1  UNL     1     -33.291  15.942  -3.304  1.00 20.00     0.011 C 
HETATM    2  C2  UNL     1     -34.443  15.891  -2.295  1.00 20.00     0.011 C 
HETATM    3  C3  UNL     1     -33.287  14.783  -4.300  1.00 20.00     0.075 C 
HETATM    4  C4  UNL     1     -35.797  16.399  -2.780  1.00 20.00     0.075 C 
HETATM    5  C5  UNL     1     -35.475  16.147  -5.513  1.00 20.00     0.122 C 
HETATM    6  S7  UNL     1     -34.050  15.093  -5.928  1.00 20.00    -0.152 SA
HETATM    7  S8  UNL     1     -36.498  15.467  -4.172  1.00 20.00    -0.152 SA
ENDROOT
BRANCH   5   8
HETATM    8  C6  UNL     1     -36.346  16.285  -6.760  1.00 20.00     0.140 C 
HETATM    9 CL9  UNL     1     -35.959  14.999  -7.918  1.00 20.00    -0.128 Cl
ENDBRANCH   5   8
TORSDOF 1
ENDMDL
MODEL 3
REMARK VINA RESULT:      -3.2     16.562     17.809
REMARK  1 active torsions:
REMARK  status: ('A' for Active; 'I' for Inactive)
REMARK    1  A    between atoms: C5_5  and  C6_6 
ROOT
HETATM    1  C1  UNL     1     -34.797  13.654  -4.003  1.00 20.00     0.011 C 
HETATM    2  C2  UNL     1     -36.125  13.849  -4.743  1.00 20.00     0.011 C 
HETATM    3  C3  UNL     1     -33.792  14.783  -4.223  1.00 20.00     0.075 C 
HETATM    4  C4  UNL     1     -37.139  14.781  -4.087  1.00 20.00     0.075 C 
HETATM    5  C5  UNL     1     -35.470  16.280  -2.473  1.00 20.00     0.122 C 
HETATM    6  S7  UNL     1     -33.723  16.086  -2.948  1.00 20.00    -0.152 SA
HETATM    7  S8  UNL     1     -36.577  16.497  -3.900  1.00 20.00    -0.152 SA
ENDROOT
BRANCH   5   8
HETATM    8  C6  UNL     1     -35.588  17.514  -1.581  1.00 20.00     0.140 C 
HETATM    9 CL9  UNL     1     -35.455  17.048   0.124  1.00 20.00    -0.128 Cl
ENDBRANCH   5   8
TORSDOF 1
ENDMDL
MODEL 4
REMARK VINA RESULT:      -3.2     17.355     18.392
REMARK  1 active torsions:
REMARK  status: ('A' for Active; 'I' for Inactive)
REMARK    1  A    between atoms: C5_5  and  C6_6 
ROOT
HETATM    1  C1  UNL     1     -34.024  16.709  -2.324  1.00 20.00     0.011 C 
HETATM    2  C2  UNL     1     -32.942  16.227  -3.296  1.00 20.00     0.011 C 
HETATM    3  C3  UNL     1     -35.158  17.486  -2.993  1.00 20.00     0.075 C 
HETATM    4  C4  UNL     1     -33.250  14.956  -4.081  1.00 20.00     0.075 C 
HETATM    5  C5  UNL     1     -36.010  14.936  -3.937  1.00 20.00     0.122 C 
HETATM    6  S7  UNL     1     -36.668  16.549  -3.405  1.00 20.00    -0.152 SA
HETATM    7  S8  UNL     1     -34.691  15.079  -5.180  1.00 20.00    -0.152 SA
ENDROOT
BRANCH   5   8
HETATM    8  C6  UNL     1     -37.157  14.130  -4.543  1.00 20.00     0.140 C 
HETATM    9 CL9  UNL     1     -38.710  14.880  -4.137  1.00 20.00    -0.128 Cl
ENDBRANCH   5   8
TORSDOF 1
ENDMDL
MODEL 5
REMARK VINA RESULT:      -3.1     15.227     16.170
REMARK  1 active torsions:
REMARK  status: ('A' for Active; 'I' for Inactive)
REMARK    1  A    between atoms: C5_5  and  C6_6 
ROOT
HETATM    1  C1  UNL     1     -34.154  17.763   0.010  1.00 20.00     0.011 C 
HETATM    2  C2  UNL     1     -33.166  18.848  -0.430  1.00 20.00     0.011 C 
HETATM    3  C3  UNL     1     -35.350  17.597  -0.926  1.00 20.00     0.075 C 
HETATM    4  C4  UNL     1     -32.168  18.460  -1.515  1.00 20.00     0.075 C 
HETATM    5  C5  UNL     1     -33.489  16.324  -2.667  1.00 20.00     0.122 C 
HETATM    6  S7  UNL     1     -35.241  16.271  -2.174  1.00 20.00    -0.152 SA
HETATM    7  S8  UNL     1     -32.921  17.995  -3.101  1.00 20.00    -0.152 SA
ENDROOT
BRANCH   5   8
HETATM    8  C6  UNL     1     -33.310  15.423  -3.889  1.00 20.00     0.140 C 
HETATM    9 CL9  UNL     1     -34.415  14.041  -3.793  1.00 20.00    -0.128 Cl
ENDBRANCH   5   8
TORSDOF 1
ENDMDL
MODEL 6
REMARK VINA RESULT:      -3.1     18.044     19.449
REMARK  1 active torsions:
REMARK  status: ('A' for Active; 'I' for Inactive)
REMARK    1  A    between atoms: C5_5  and  C6_6 
ROOT
HETATM    1  C1  UNL     1     -34.758  14.199  -3.783  1.00 20.00     0.011 C 
HETATM    2  C2  UNL     1     -34.413  15.487  -3.028  1.00 20.00     0.011 C 
HETATM    3  C3  UNL     1     -36.008  14.307  -4.656  1.00 20.00     0.075 C 
HETATM    4  C4  UNL     1     -33.678  16.564  -3.818  1.00 20.00     0.075 C 
HETATM    5  C5  UNL     1     -34.352  15.837  -6.398  1.00 20.00     0.122 C 
HETATM    6  S7  UNL     1     -35.748  14.669  -6.425  1.00 20.00    -0.152 SA
HETATM    7  S8  UNL     1     -34.599  17.218  -5.240  1.00 20.00    -0.152 SA
ENDROOT
BRANCH   5   8
HETATM    8  C6  UNL     1     -34.183  16.413  -7.803  1.00 20.00     0.140 C 
HETATM    9 CL9  UNL     1     -33.786  18.138  -7.711  1.00 20.00    -0.128 Cl
ENDBRANCH   5   8
TORSDOF 1
ENDMDL
MODEL 7
REMARK VINA RESULT:      -3.1     17.045     18.417
REMARK  1 active torsions:
REMARK  status: ('A' for Active; 'I' for Inactive)
REMARK    1  A    between atoms: C5_5  and  C6_6 
ROOT
HETATM    1  C1  UNL     1     -36.571  15.470  -5.529  1.00 20.00     0.011 C 
HETATM    2  C2  UNL     1     -35.615  14.644  -6.397  1.00 20.00     0.011 C 
HETATM    3  C3  UNL     1     -36.649  15.005  -4.076  1.00 20.00     0.075 C 
HETATM    4  C4  UNL     1     -34.132  14.982  -6.286  1.00 20.00     0.075 C 
HETATM    5  C5  UNL     1     -34.083  16.215  -3.814  1.00 20.00     0.122 C 
HETATM    6  S7  UNL     1     -35.606  15.890  -2.870  1.00 20.00    -0.152 SA
HETATM    7  S8  UNL     1     -33.423  14.732  -4.633  1.00 20.00    -0.152 SA
ENDROOT
BRANCH   5   8
HETATM    8  C6  UNL     1     -33.024  16.741  -2.846  1.00 20.00     0.140 C 
HETATM    9 CL9  UNL     1     -33.801  17.414  -1.402  1.00 20.00    -0.128 Cl
ENDBRANCH   5   8
TORSDOF 1
ENDMDL
MODEL 8
REMARK VINA RESULT:      -3.1     17.587     18.846
REMARK  1 active torsions:
REMARK  status: ('A' for Active; 'I' for Inactive)
REMARK    1  A    between atoms: C5_5  and  C6_6 
ROOT
HETATM    1  C1  UNL     1     -33.550  14.836  -4.337  1.00 20.00     0.011 C 
HETATM    2  C2  UNL     1     -33.401  16.008  -3.360  1.00 20.00     0.011 C 
HETATM    3  C3  UNL     1     -34.591  13.802  -3.911  1.00 20.00     0.075 C 
HETATM    4  C4  UNL     1     -34.440  17.119  -3.466  1.00 20.00     0.075 C 
HETATM    5  C5  UNL     1     -36.497  15.761  -4.715  1.00 20.00     0.122 C 
HETATM    6  S7  UNL     1     -36.255  13.959  -4.644  1.00 20.00    -0.152 SA
HETATM    7  S8  UNL     1     -36.146  16.591  -3.136  1.00 20.00    -0.152 SA
ENDROOT
BRANCH   5   8
HETATM    8  C6  UNL     1     -37.955  16.033  -5.086  1.00 20.00     0.140 C 
HETATM    9 CL9  UNL     1     -39.019  14.888  -4.251  1.00 20.00    -0.128 Cl
ENDBRANCH   5   8
TORSDOF 1
ENDMDL
MODEL 9
REMARK VINA RESULT:      -3.1     13.653     15.059
REMARK  1 active torsions:
REMARK  status: ('A' for Active; 'I' for Inactive)
REMARK    1  A    between atoms: C5_5  and  C6_6 
ROOT
HETATM    1  C1  UNL     1     -33.347  16.364  -2.896  1.00 20.00     0.011 C 
HETATM    2  C2  UNL     1     -34.834  16.203  -2.562  1.00 20.00     0.011 C 
HETATM    3  C3  UNL     1     -32.937  17.799  -3.225  1.00 20.00     0.075 C 
HETATM    4  C4  UNL     1     -35.257  16.570  -1.144  1.00 20.00     0.075 C 
HETATM    5  C5  UNL     1     -33.180  18.243  -0.421  1.00 20.00     0.122 C 
HETATM    6  S7  UNL     1     -32.213  18.780  -1.867  1.00 20.00    -0.152 SA
HETATM    7  S8  UNL     1     -34.975  18.308  -0.699  1.00 20.00    -0.152 SA
ENDROOT
BRANCH   5   8
HETATM    8  C6  UNL     1     -32.840  19.166   0.749  1.00 20.00     0.140 C 
HETATM    9 CL9  UNL     1     -31.646  18.394   1.807  1.00 20.00    -0.128 Cl
ENDBRANCH   5   8
TORSDOF 1
ENDMDL
