MODEL 1
REMARK VINA RESULT:      -4.4      0.000      0.000
REMARK  1 active torsions:
REMARK  status: ('A' for Active; 'I' for Inactive)
REMARK    1  A    between atoms: C1_1  and  C3_3 
ROOT
HETATM    1  C1  UNL     1     -34.351   6.030   4.384  1.00 20.00     0.072 C 
HETATM    2  C2  UNL     1     -34.297   4.995   3.548  1.00 20.00     0.189 C 
HETATM    3  F4  UNL     1     -34.164   3.733   3.995  1.00 20.00    -0.220 F 
ENDROOT
BRANCH   1   4
HETATM    4  C3  UNL     1     -34.273   5.917   5.868  1.00 20.00     0.378 C 
HETATM    5  F5  UNL     1     -34.388   7.120   6.490  1.00 20.00    -0.210 F 
HETATM    6  F6  UNL     1     -35.285   5.144   6.344  1.00 20.00    -0.210 F 
ENDBRANCH   1   4
TORSDOF 1
ENDMDL
MODEL 2
REMARK VINA RESULT:      -4.4      1.404      3.004
REMARK  1 active torsions:
REMARK  status: ('A' for Active; 'I' for Inactive)
REMARK    1  A    between atoms: C1_1  and  C3_3 
ROOT
HETATM    1  C1  UNL     1     -34.750   5.541   5.736  1.00 20.00     0.072 C 
HETATM    2  C2  UNL     1     -33.991   6.520   6.228  1.00 20.00     0.189 C 
HETATM    3  F4  UNL     1     -33.254   7.311   5.426  1.00 20.00    -0.220 F 
ENDROOT
BRANCH   1   4
HETATM    4  C3  UNL     1     -34.869   5.217   4.287  1.00 20.00     0.378 C 
HETATM    5  F5  UNL     1     -34.528   3.931   4.010  1.00 20.00    -0.210 F 
HETATM    6  F6  UNL     1     -36.153   5.368   3.866  1.00 20.00    -0.210 F 
ENDBRANCH   1   4
TORSDOF 1
ENDMDL
MODEL 3
REMARK VINA RESULT:      -4.3      1.651      1.909
REMARK  1 active torsions:
REMARK  status: ('A' for Active; 'I' for Inactive)
REMARK    1  A    between atoms: C1_1  and  C3_3 
ROOT
HETATM    1  C1  UNL     1     -33.933   6.521   4.385  1.00 20.00     0.072 C 
HETATM    2  C2  UNL     1     -33.165   6.548   3.297  1.00 20.00     0.189 C 
HETATM    3  F4  UNL     1     -33.121   5.512   2.439  1.00 20.00    -0.220 F 
ENDROOT
BRANCH   1   4
HETATM    4  C3  UNL     1     -34.805   5.376   4.770  1.00 20.00     0.378 C 
HETATM    5  F5  UNL     1     -35.075   5.350   6.102  1.00 20.00    -0.210 F 
HETATM    6  F6  UNL     1     -36.007   5.456   4.140  1.00 20.00    -0.210 F 
ENDBRANCH   1   4
TORSDOF 1
ENDMDL
MODEL 4
REMARK VINA RESULT:      -4.2      1.549      2.926
REMARK  1 active torsions:
REMARK  status: ('A' for Active; 'I' for Inactive)
REMARK    1  A    between atoms: C1_1  and  C3_3 
ROOT
HETATM    1  C1  UNL     1     -34.721   4.820   4.753  1.00 20.00     0.072 C 
HETATM    2  C2  UNL     1     -34.819   5.310   5.989  1.00 20.00     0.189 C 
HETATM    3  F4  UNL     1     -34.475   6.579   6.274  1.00 20.00    -0.220 F 
ENDROOT
BRANCH   1   4
HETATM    4  C3  UNL     1     -34.234   5.596   3.578  1.00 20.00     0.378 C 
HETATM    5  F5  UNL     1     -33.283   6.506   3.913  1.00 20.00    -0.210 F 
HETATM    6  F6  UNL     1     -33.664   4.770   2.661  1.00 20.00    -0.210 F 
ENDBRANCH   1   4
TORSDOF 1
ENDMDL
MODEL 5
REMARK VINA RESULT:      -4.1      1.457      1.936
REMARK  1 active torsions:
REMARK  status: ('A' for Active; 'I' for Inactive)
REMARK    1  A    between atoms: C1_1  and  C3_3 
ROOT
HETATM    1  C1  UNL     1     -34.424   4.714   4.003  1.00 20.00     0.072 C 
HETATM    2  C2  UNL     1     -33.676   5.015   2.942  1.00 20.00     0.189 C 
HETATM    3  F4  UNL     1     -33.230   6.266   2.726  1.00 20.00    -0.220 F 
ENDROOT
BRANCH   1   4
HETATM    4  C3  UNL     1     -34.842   5.696   5.043  1.00 20.00     0.378 C 
HETATM    5  F5  UNL     1     -35.206   5.099   6.208  1.00 20.00    -0.210 F 
HETATM    6  F6  UNL     1     -33.817   6.535   5.349  1.00 20.00    -0.210 F 
ENDBRANCH   1   4
TORSDOF 1
ENDMDL
MODEL 6
REMARK VINA RESULT:      -4.0      1.966      2.814
REMARK  1 active torsions:
REMARK  status: ('A' for Active; 'I' for Inactive)
REMARK    1  A    between atoms: C1_1  and  C3_3 
ROOT
HETATM    1  C1  UNL     1     -33.605   5.501   2.738  1.00 20.00     0.072 C 
HETATM    2  C2  UNL     1     -32.732   6.507   2.690  1.00 20.00     0.189 C 
HETATM    3  F4  UNL     1     -32.405   7.210   3.790  1.00 20.00    -0.220 F 
ENDROOT
BRANCH   1   4
HETATM    4  C3  UNL     1     -34.300   5.050   3.976  1.00 20.00     0.378 C 
HETATM    5  F5  UNL     1     -35.612   5.404   3.996  1.00 20.00    -0.210 F 
HETATM    6  F6  UNL     1     -34.271   3.695   4.076  1.00 20.00    -0.210 F 
ENDBRANCH   1   4
TORSDOF 1
ENDMDL
MODEL 7
REMARK VINA RESULT:      -3.9      2.118      3.223
REMARK  1 active torsions:
REMARK  status: ('A' for Active; 'I' for Inactive)
REMARK    1  A    between atoms: C1_1  and  C3_3 
ROOT
HETATM    1  C1  UNL     1     -34.057   6.399   4.129  1.00 20.00     0.072 C 
HETATM    2  C2  UNL     1     -34.784   5.504   4.797  1.00 20.00     0.189 C 
HETATM    3  F4  UNL     1     -34.697   4.187   4.534  1.00 20.00    -0.220 F 
ENDROOT
BRANCH   1   4
HETATM    4  C3  UNL     1     -33.094   6.058   3.044  1.00 20.00     0.378 C 
HETATM    5  F5  UNL     1     -33.611   5.181   2.144  1.00 20.00    -0.210 F 
HETATM    6  F6  UNL     1     -32.752   7.169   2.339  1.00 20.00    -0.210 F 
ENDBRANCH   1   4
TORSDOF 1
ENDMDL
MODEL 8
REMARK VINA RESULT:      -3.8      2.239      2.954
REMARK  1 active torsions:
REMARK  status: ('A' for Active; 'I' for Inactive)
REMARK    1  A    between atoms: C1_1  and  C3_3 
ROOT
HETATM    1  C1  UNL     1     -33.736   6.484   4.513  1.00 20.00     0.072 C 
HETATM    2  C2  UNL     1     -34.798   5.799   4.937  1.00 20.00     0.189 C 
HETATM    3  F4  UNL     1     -35.523   5.034   4.101  1.00 20.00    -0.220 F 
ENDROOT
BRANCH   1   4
HETATM    4  C3  UNL     1     -33.243   6.485   3.108  1.00 20.00     0.378 C 
HETATM    5  F5  UNL     1     -32.059   7.138   2.970  1.00 20.00    -0.210 F 
HETATM    6  F6  UNL     1     -33.028   5.214   2.674  1.00 20.00    -0.210 F 
ENDBRANCH   1   4
TORSDOF 1
ENDMDL
MODEL 9
REMARK VINA RESULT:      -3.7      3.086      3.550
REMARK  1 active torsions:
REMARK  status: ('A' for Active; 'I' for Inactive)
REMARK    1  A    between atoms: C1_1  and  C3_3 
ROOT
HETATM    1  C1  UNL     1     -33.441   6.314   3.284  1.00 20.00     0.072 C 
HETATM    2  C2  UNL     1     -33.717   5.039   3.010  1.00 20.00     0.189 C 
HETATM    3  F4  UNL     1     -32.945   4.313   2.181  1.00 20.00    -0.220 F 
ENDROOT
BRANCH   1   4
HETATM    4  C3  UNL     1     -32.283   7.063   2.720  1.00 20.00     0.378 C 
HETATM    5  F5  UNL     1     -32.663   8.020   1.833  1.00 20.00    -0.210 F 
HETATM    6  F6  UNL     1     -31.602   7.706   3.705  1.00 20.00    -0.210 F 
ENDBRANCH   1   4
TORSDOF 1
ENDMDL
