MODEL 1
REMARK VINA RESULT:      -4.4      0.000      0.000
REMARK  2 active torsions:
REMARK  status: ('A' for Active; 'I' for Inactive)
REMARK    1  A    between atoms: C2_2  and  C9_9 
REMARK    2  A    between atoms: C3_3  and  C6_6 
ROOT
HETATM    1  C1  UNL     1     -33.846   4.917   3.328  1.00 20.00     0.079 A 
HETATM    2  C2  UNL     1     -33.921   6.113   4.012  1.00 20.00     0.045 A 
HETATM    3  C3  UNL     1     -32.939   6.836   2.188  1.00 20.00     0.079 A 
HETATM    4  N10 UNL     1     -33.401   7.214   3.359  1.00 20.00    -0.249 NA
HETATM    5  S11 UNL     1     -33.098   5.170   1.806  1.00 20.00    -0.084 SA
ENDROOT
BRANCH   2   6
HETATM    6  C9  UNL     1     -34.517   6.308   5.394  1.00 20.00     0.030 C 
HETATM    7  C7  UNL     1     -33.631   7.201   6.267  1.00 20.00     0.016 C 
HETATM    8  C8  UNL     1     -34.789   4.969   6.083  1.00 20.00     0.016 C 
ENDBRANCH   2   6
BRANCH   3   9
HETATM    9  C6  UNL     1     -32.291   7.832   1.213  1.00 20.00     0.045 A 
HETATM   10  C4  UNL     1     -32.893   9.212   1.083  1.00 20.00     0.012 A 
HETATM   11  C5  UNL     1     -33.053   8.226  -0.031  1.00 20.00     0.012 A 
ENDBRANCH   3   9
TORSDOF 2
ENDMDL
MODEL 2
REMARK VINA RESULT:      -4.1     10.847     11.911
REMARK  2 active torsions:
REMARK  status: ('A' for Active; 'I' for Inactive)
REMARK    1  A    between atoms: C2_2  and  C9_9 
REMARK    2  A    between atoms: C3_3  and  C6_6 
ROOT
HETATM    1  C1  UNL     1     -35.273  16.185  -1.944  1.00 20.00     0.079 A 
HETATM    2  C2  UNL     1     -34.173  16.121  -2.773  1.00 20.00     0.045 A 
HETATM    3  C3  UNL     1     -33.444  17.644  -1.373  1.00 20.00     0.079 A 
HETATM    4  N10 UNL     1     -33.123  16.958  -2.446  1.00 20.00    -0.249 NA
HETATM    5  S11 UNL     1     -34.993  17.333  -0.702  1.00 20.00    -0.084 SA
ENDROOT
BRANCH   2   6
HETATM    6  C9  UNL     1     -34.029  15.224  -3.988  1.00 20.00     0.030 C 
HETATM    7  C7  UNL     1     -34.951  14.005  -3.899  1.00 20.00     0.016 C 
HETATM    8  C8  UNL     1     -32.576  14.794  -4.201  1.00 20.00     0.016 C 
ENDBRANCH   2   6
BRANCH   3   9
HETATM    9  C6  UNL     1     -32.483  18.670  -0.750  1.00 20.00     0.045 A 
HETATM   10  C4  UNL     1     -31.066  18.242  -0.444  1.00 20.00     0.012 A 
HETATM   11  C5  UNL     1     -32.031  18.465   0.678  1.00 20.00     0.012 A 
ENDBRANCH   3   9
TORSDOF 2
ENDMDL
MODEL 3
REMARK VINA RESULT:      -4.1     10.828     12.060
REMARK  2 active torsions:
REMARK  status: ('A' for Active; 'I' for Inactive)
REMARK    1  A    between atoms: C2_2  and  C9_9 
REMARK    2  A    between atoms: C3_3  and  C6_6 
ROOT
HETATM    1  C1  UNL     1     -35.229  16.247  -1.903  1.00 20.00     0.079 A 
HETATM    2  C2  UNL     1     -34.091  16.218  -2.681  1.00 20.00     0.045 A 
HETATM    3  C3  UNL     1     -33.446  17.711  -1.209  1.00 20.00     0.079 A 
HETATM    4  N10 UNL     1     -33.068  17.057  -2.285  1.00 20.00    -0.249 NA
HETATM    5  S11 UNL     1     -35.020  17.364  -0.619  1.00 20.00    -0.084 SA
ENDROOT
BRANCH   2   6
HETATM    6  C9  UNL     1     -33.880  15.355  -3.912  1.00 20.00     0.030 C 
HETATM    7  C7  UNL     1     -34.189  16.126  -5.198  1.00 20.00     0.016 C 
HETATM    8  C8  UNL     1     -34.698  14.064  -3.841  1.00 20.00     0.016 C 
ENDBRANCH   2   6
BRANCH   3   9
HETATM    9  C6  UNL     1     -32.528  18.730  -0.515  1.00 20.00     0.045 A 
HETATM   10  C4  UNL     1     -31.067  18.385  -0.339  1.00 20.00     0.012 A 
HETATM   11  C5  UNL     1     -31.975  18.394   0.851  1.00 20.00     0.012 A 
ENDBRANCH   3   9
TORSDOF 2
ENDMDL
MODEL 4
REMARK VINA RESULT:      -4.0     11.217     12.103
REMARK  2 active torsions:
REMARK  status: ('A' for Active; 'I' for Inactive)
REMARK    1  A    between atoms: C2_2  and  C9_9 
REMARK    2  A    between atoms: C3_3  and  C6_6 
ROOT
HETATM    1  C1  UNL     1     -35.403  17.003  -0.776  1.00 20.00     0.079 A 
HETATM    2  C2  UNL     1     -34.391  16.992  -1.712  1.00 20.00     0.045 A 
HETATM    3  C3  UNL     1     -33.385  18.163  -0.153  1.00 20.00     0.079 A 
HETATM    4  N10 UNL     1     -33.233  17.657  -1.356  1.00 20.00    -0.249 NA
HETATM    5  S11 UNL     1     -34.896  17.877   0.610  1.00 20.00    -0.084 SA
ENDROOT
BRANCH   2   6
HETATM    6  C9  UNL     1     -34.449  16.321  -3.072  1.00 20.00     0.030 C 
HETATM    7  C7  UNL     1     -35.486  15.195  -3.099  1.00 20.00     0.016 C 
HETATM    8  C8  UNL     1     -33.074  15.806  -3.504  1.00 20.00     0.016 C 
ENDBRANCH   2   6
BRANCH   3   9
HETATM    9  C6  UNL     1     -32.270  18.967   0.535  1.00 20.00     0.045 A 
HETATM   10  C4  UNL     1     -30.833  18.585   0.268  1.00 20.00     0.012 A 
HETATM   11  C5  UNL     1     -31.443  18.290   1.602  1.00 20.00     0.012 A 
ENDBRANCH   3   9
TORSDOF 2
ENDMDL
MODEL 5
REMARK VINA RESULT:      -4.0     10.808     11.832
REMARK  2 active torsions:
REMARK  status: ('A' for Active; 'I' for Inactive)
REMARK    1  A    between atoms: C2_2  and  C9_9 
REMARK    2  A    between atoms: C3_3  and  C6_6 
ROOT
HETATM    1  C1  UNL     1     -33.038  16.434  -3.071  1.00 20.00     0.079 A 
HETATM    2  C2  UNL     1     -34.123  15.587  -3.157  1.00 20.00     0.045 A 
HETATM    3  C3  UNL     1     -34.841  16.880  -1.537  1.00 20.00     0.079 A 
HETATM    4  N10 UNL     1     -35.157  15.842  -2.278  1.00 20.00    -0.249 NA
HETATM    5  S11 UNL     1     -33.314  17.601  -1.845  1.00 20.00    -0.084 SA
ENDROOT
BRANCH   2   6
HETATM    6  C9  UNL     1     -34.265  14.423  -4.121  1.00 20.00     0.030 C 
HETATM    7  C7  UNL     1     -33.762  14.788  -5.520  1.00 20.00     0.016 C 
HETATM    8  C8  UNL     1     -35.706  13.911  -4.176  1.00 20.00     0.016 C 
ENDBRANCH   2   6
BRANCH   3   9
HETATM    9  C6  UNL     1     -35.788  17.421  -0.454  1.00 20.00     0.045 A 
HETATM   10  C4  UNL     1     -35.348  18.615   0.362  1.00 20.00     0.012 A 
HETATM   11  C5  UNL     1     -35.395  17.260   0.997  1.00 20.00     0.012 A 
ENDBRANCH   3   9
TORSDOF 2
ENDMDL
MODEL 6
REMARK VINA RESULT:      -4.0     14.930     15.853
REMARK  2 active torsions:
REMARK  status: ('A' for Active; 'I' for Inactive)
REMARK    1  A    between atoms: C2_2  and  C9_9 
REMARK    2  A    between atoms: C3_3  and  C6_6 
ROOT
HETATM    1  C1  UNL     1     -22.311  17.093   9.343  1.00 20.00     0.079 A 
HETATM    2  C2  UNL     1     -23.437  17.401  10.078  1.00 20.00     0.045 A 
HETATM    3  C3  UNL     1     -23.969  18.426   8.213  1.00 20.00     0.079 A 
HETATM    4  N10 UNL     1     -24.388  18.166   9.431  1.00 20.00    -0.249 NA
HETATM    5  S11 UNL     1     -22.439  17.781   7.777  1.00 20.00    -0.084 SA
ENDROOT
BRANCH   2   6
HETATM    6  C9  UNL     1     -23.705  16.975  11.509  1.00 20.00     0.030 C 
HETATM    7  C7  UNL     1     -24.514  15.676  11.567  1.00 20.00     0.016 C 
HETATM    8  C8  UNL     1     -24.395  18.084  12.307  1.00 20.00     0.016 C 
ENDBRANCH   2   6
BRANCH   3   9
HETATM    9  C6  UNL     1     -24.805  19.263   7.230  1.00 20.00     0.045 A 
HETATM   10  C4  UNL     1     -26.311  19.210   7.334  1.00 20.00     0.012 A 
HETATM   11  C5  UNL     1     -25.624  18.544   6.183  1.00 20.00     0.012 A 
ENDBRANCH   3   9
TORSDOF 2
ENDMDL
MODEL 7
REMARK VINA RESULT:      -3.9     10.741     11.373
REMARK  2 active torsions:
REMARK  status: ('A' for Active; 'I' for Inactive)
REMARK    1  A    between atoms: C2_2  and  C9_9 
REMARK    2  A    between atoms: C3_3  and  C6_6 
ROOT
HETATM    1  C1  UNL     1     -33.101  16.778  -2.704  1.00 20.00     0.079 A 
HETATM    2  C2  UNL     1     -34.244  16.821  -1.934  1.00 20.00     0.045 A 
HETATM    3  C3  UNL     1     -34.816  15.188  -3.282  1.00 20.00     0.079 A 
HETATM    4  N10 UNL     1     -35.228  15.911  -2.265  1.00 20.00    -0.249 NA
HETATM    5  S11 UNL     1     -33.252  15.550  -3.891  1.00 20.00    -0.084 SA
ENDROOT
BRANCH   2   6
HETATM    6  C9  UNL     1     -34.498  17.771  -0.778  1.00 20.00     0.030 C 
HETATM    7  C7  UNL     1     -33.189  18.265  -0.158  1.00 20.00     0.016 C 
HETATM    8  C8  UNL     1     -35.399  17.136   0.284  1.00 20.00     0.016 C 
ENDBRANCH   2   6
BRANCH   3   9
HETATM    9  C6  UNL     1     -35.686  14.078  -3.894  1.00 20.00     0.045 A 
HETATM   10  C4  UNL     1     -35.969  14.115  -5.377  1.00 20.00     0.012 A 
HETATM   11  C5  UNL     1     -37.062  14.437  -4.406  1.00 20.00     0.012 A 
ENDBRANCH   3   9
TORSDOF 2
ENDMDL
MODEL 8
REMARK VINA RESULT:      -3.8     11.144     11.739
REMARK  2 active torsions:
REMARK  status: ('A' for Active; 'I' for Inactive)
REMARK    1  A    between atoms: C2_2  and  C9_9 
REMARK    2  A    between atoms: C3_3  and  C6_6 
ROOT
HETATM    1  C1  UNL     1     -34.707  17.310  -0.706  1.00 20.00     0.079 A 
HETATM    2  C2  UNL     1     -33.429  17.736  -0.999  1.00 20.00     0.045 A 
HETATM    3  C3  UNL     1     -33.810  16.562  -2.812  1.00 20.00     0.079 A 
HETATM    4  N10 UNL     1     -32.914  17.308  -2.207  1.00 20.00    -0.249 NA
HETATM    5  S11 UNL     1     -35.298  16.334  -1.986  1.00 20.00    -0.084 SA
ENDROOT
BRANCH   2   6
HETATM    6  C9  UNL     1     -32.565  18.620  -0.119  1.00 20.00     0.030 C 
HETATM    7  C7  UNL     1     -31.075  18.337  -0.329  1.00 20.00     0.016 C 
HETATM    8  C8  UNL     1     -32.942  18.483   1.358  1.00 20.00     0.016 C 
ENDBRANCH   2   6
BRANCH   3   9
HETATM    9  C6  UNL     1     -33.542  15.927  -4.187  1.00 20.00     0.045 A 
HETATM   10  C4  UNL     1     -34.385  14.749  -4.617  1.00 20.00     0.012 A 
HETATM   11  C5  UNL     1     -32.953  14.537  -4.239  1.00 20.00     0.012 A 
ENDBRANCH   3   9
TORSDOF 2
ENDMDL
MODEL 9
REMARK VINA RESULT:      -3.8     11.205     11.851
REMARK  2 active torsions:
REMARK  status: ('A' for Active; 'I' for Inactive)
REMARK    1  A    between atoms: C2_2  and  C9_9 
REMARK    2  A    between atoms: C3_3  and  C6_6 
ROOT
HETATM    1  C1  UNL     1     -34.444  18.081   1.279  1.00 20.00     0.079 A 
HETATM    2  C2  UNL     1     -33.221  18.361   0.707  1.00 20.00     0.045 A 
HETATM    3  C3  UNL     1     -34.220  17.508  -1.050  1.00 20.00     0.079 A 
HETATM    4  N10 UNL     1     -33.091  18.033  -0.629  1.00 20.00    -0.249 NA
HETATM    5  S11 UNL     1     -35.482  17.380   0.107  1.00 20.00    -0.084 SA
ENDROOT
BRANCH   2   6
HETATM    6  C9  UNL     1     -32.034  18.987   1.414  1.00 20.00     0.030 C 
HETATM    7  C7  UNL     1     -30.716  18.640   0.716  1.00 20.00     0.016 C 
HETATM    8  C8  UNL     1     -31.988  18.593   2.892  1.00 20.00     0.016 C 
ENDBRANCH   2   6
BRANCH   3   9
HETATM    9  C6  UNL     1     -34.402  17.035  -2.502  1.00 20.00     0.045 A 
HETATM   10  C4  UNL     1     -34.857  15.615  -2.749  1.00 20.00     0.012 A 
HETATM   11  C5  UNL     1     -33.444  16.004  -3.052  1.00 20.00     0.012 A 
ENDBRANCH   3   9
TORSDOF 2
ENDMDL
