MODEL 1
REMARK VINA RESULT:      -4.5      0.000      0.000
REMARK  0 active torsions:
REMARK  status: ('A' for Active; 'I' for Inactive)
ROOT
HETATM    1  C1  UNL     1     -34.971   5.237   5.393  1.00 20.00     0.184 A 
HETATM    2  C2  UNL     1     -34.203   6.415   5.343  1.00 20.00     0.175 A 
HETATM    3  C3  UNL     1     -33.523   6.333   4.153  1.00 20.00     0.162 A 
HETATM    4  C4  UNL     1     -33.478   4.605   2.318  1.00 20.00     0.181 C 
HETATM    5  N5  UNL     1     -34.796   4.462   4.318  1.00 20.00    -0.181 NA
HETATM    6  N6  UNL     1     -33.910   5.155   3.584  1.00 20.00    -0.260 N 
HETATM    7  F7  UNL     1     -34.149   7.388   6.246  1.00 20.00    -0.201 F 
HETATM    8 CL8  UNL     1     -32.412   7.365   3.399  1.00 20.00    -0.059 Cl
ENDROOT
TORSDOF 0
ENDMDL
MODEL 2
REMARK VINA RESULT:      -4.1      1.708      1.995
REMARK  0 active torsions:
REMARK  status: ('A' for Active; 'I' for Inactive)
ROOT
HETATM    1  C1  UNL     1     -34.582   4.486   3.829  1.00 20.00     0.184 A 
HETATM    2  C2  UNL     1     -34.658   5.221   5.026  1.00 20.00     0.175 A 
HETATM    3  C3  UNL     1     -33.871   6.325   4.803  1.00 20.00     0.162 A 
HETATM    4  C4  UNL     1     -32.512   7.091   2.823  1.00 20.00     0.181 C 
HETATM    5  N5  UNL     1     -33.807   5.073   2.912  1.00 20.00    -0.181 NA
HETATM    6  N6  UNL     1     -33.390   6.188   3.534  1.00 20.00    -0.260 N 
HETATM    7  F7  UNL     1     -35.339   4.916   6.126  1.00 20.00    -0.201 F 
HETATM    8 CL8  UNL     1     -33.471   7.657   5.769  1.00 20.00    -0.059 Cl
ENDROOT
TORSDOF 0
ENDMDL
MODEL 3
REMARK VINA RESULT:      -3.9      1.933      2.646
REMARK  0 active torsions:
REMARK  status: ('A' for Active; 'I' for Inactive)
ROOT
HETATM    1  C1  UNL     1     -32.773   6.114   2.415  1.00 20.00     0.184 A 
HETATM    2  C2  UNL     1     -32.550   6.977   3.505  1.00 20.00     0.175 A 
HETATM    3  C3  UNL     1     -33.470   6.585   4.447  1.00 20.00     0.162 A 
HETATM    4  C4  UNL     1     -35.240   4.791   4.476  1.00 20.00     0.181 C 
HETATM    5  N5  UNL     1     -33.758   5.240   2.643  1.00 20.00    -0.181 NA
HETATM    6  N6  UNL     1     -34.161   5.552   3.886  1.00 20.00    -0.260 N 
HETATM    7  F7  UNL     1     -31.652   7.951   3.600  1.00 20.00    -0.201 F 
HETATM    8 CL8  UNL     1     -33.813   7.144   6.008  1.00 20.00    -0.059 Cl
ENDROOT
TORSDOF 0
ENDMDL
MODEL 4
REMARK VINA RESULT:      -3.9      2.128      2.767
REMARK  0 active torsions:
REMARK  status: ('A' for Active; 'I' for Inactive)
ROOT
HETATM    1  C1  UNL     1     -34.737   4.527   4.119  1.00 20.00     0.184 A 
HETATM    2  C2  UNL     1     -33.828   5.042   3.176  1.00 20.00     0.175 A 
HETATM    3  C3  UNL     1     -33.338   6.185   3.759  1.00 20.00     0.162 A 
HETATM    4  C4  UNL     1     -33.786   7.313   5.968  1.00 20.00     0.181 C 
HETATM    5  N5  UNL     1     -34.821   5.282   5.219  1.00 20.00    -0.181 NA
HETATM    6  N6  UNL     1     -33.960   6.282   4.969  1.00 20.00    -0.260 N 
HETATM    7  F7  UNL     1     -33.516   4.536   1.988  1.00 20.00    -0.201 F 
HETATM    8 CL8  UNL     1     -32.212   7.339   3.240  1.00 20.00    -0.059 Cl
ENDROOT
TORSDOF 0
ENDMDL
MODEL 5
REMARK VINA RESULT:      -3.8      2.159      2.455
REMARK  0 active torsions:
REMARK  status: ('A' for Active; 'I' for Inactive)
ROOT
HETATM    1  C1  UNL     1     -34.010   6.854   5.995  1.00 20.00     0.184 A 
HETATM    2  C2  UNL     1     -34.532   5.650   5.488  1.00 20.00     0.175 A 
HETATM    3  C3  UNL     1     -34.010   5.556   4.221  1.00 20.00     0.162 A 
HETATM    4  C4  UNL     1     -32.469   7.036   2.884  1.00 20.00     0.181 C 
HETATM    5  N5  UNL     1     -33.216   7.481   5.121  1.00 20.00    -0.181 NA
HETATM    6  N6  UNL     1     -33.237   6.667   4.052  1.00 20.00    -0.260 N 
HETATM    7  F7  UNL     1     -35.347   4.797   6.098  1.00 20.00    -0.201 F 
HETATM    8 CL8  UNL     1     -34.179   4.394   3.000  1.00 20.00    -0.059 Cl
ENDROOT
TORSDOF 0
ENDMDL
MODEL 6
REMARK VINA RESULT:      -3.7      2.784      3.654
REMARK  0 active torsions:
REMARK  status: ('A' for Active; 'I' for Inactive)
ROOT
HETATM    1  C1  UNL     1     -32.528   6.508   2.561  1.00 20.00     0.184 A 
HETATM    2  C2  UNL     1     -33.378   5.389   2.636  1.00 20.00     0.175 A 
HETATM    3  C3  UNL     1     -33.981   5.498   3.865  1.00 20.00     0.162 A 
HETATM    4  C4  UNL     1     -33.792   7.187   5.726  1.00 20.00     0.181 C 
HETATM    5  N5  UNL     1     -32.582   7.272   3.656  1.00 20.00    -0.181 NA
HETATM    6  N6  UNL     1     -33.474   6.631   4.430  1.00 20.00    -0.260 N 
HETATM    7  F7  UNL     1     -33.556   4.441   1.723  1.00 20.00    -0.201 F 
HETATM    8 CL8  UNL     1     -35.120   4.535   4.667  1.00 20.00    -0.059 Cl
ENDROOT
TORSDOF 0
ENDMDL
MODEL 7
REMARK VINA RESULT:      -3.7     16.713     17.019
REMARK  0 active torsions:
REMARK  status: ('A' for Active; 'I' for Inactive)
ROOT
HETATM    1  C1  UNL     1     -22.103  17.708   8.460  1.00 20.00     0.184 A 
HETATM    2  C2  UNL     1     -22.852  17.921   9.632  1.00 20.00     0.175 A 
HETATM    3  C3  UNL     1     -24.007  18.523   9.198  1.00 20.00     0.162 A 
HETATM    4  C4  UNL     1     -24.839  19.196   6.916  1.00 20.00     0.181 C 
HETATM    5  N5  UNL     1     -22.731  18.140   7.362  1.00 20.00    -0.181 NA
HETATM    6  N6  UNL     1     -23.885  18.631   7.844  1.00 20.00    -0.260 N 
HETATM    7  F7  UNL     1     -22.515  17.609  10.879  1.00 20.00    -0.201 F 
HETATM    8 CL8  UNL     1     -25.382  19.079  10.016  1.00 20.00    -0.059 Cl
ENDROOT
TORSDOF 0
ENDMDL
MODEL 8
REMARK VINA RESULT:      -3.7     16.211     16.533
REMARK  0 active torsions:
REMARK  status: ('A' for Active; 'I' for Inactive)
ROOT
HETATM    1  C1  UNL     1     -24.236  16.208  11.516  1.00 20.00     0.184 A 
HETATM    2  C2  UNL     1     -23.863  16.809  10.300  1.00 20.00     0.175 A 
HETATM    3  C3  UNL     1     -24.544  18.001  10.282  1.00 20.00     0.162 A 
HETATM    4  C4  UNL     1     -26.138  19.091  11.901  1.00 20.00     0.181 C 
HETATM    5  N5  UNL     1     -25.089  16.957  12.221  1.00 20.00    -0.181 NA
HETATM    6  N6  UNL     1     -25.257  18.040  11.444  1.00 20.00    -0.260 N 
HETATM    7  F7  UNL     1     -23.037  16.329   9.376  1.00 20.00    -0.201 F 
HETATM    8 CL8  UNL     1     -24.608  19.263   9.153  1.00 20.00    -0.059 Cl
ENDROOT
TORSDOF 0
ENDMDL
MODEL 9
REMARK VINA RESULT:      -3.6     16.905     17.328
REMARK  0 active torsions:
REMARK  status: ('A' for Active; 'I' for Inactive)
ROOT
HETATM    1  C1  UNL     1     -22.901  18.071   8.903  1.00 20.00     0.184 A 
HETATM    2  C2  UNL     1     -24.241  18.296   9.272  1.00 20.00     0.175 A 
HETATM    3  C3  UNL     1     -24.239  18.208  10.643  1.00 20.00     0.162 A 
HETATM    4  C4  UNL     1     -22.423  17.762  12.332  1.00 20.00     0.181 C 
HETATM    5  N5  UNL     1     -22.106  17.856   9.955  1.00 20.00    -0.181 NA
HETATM    6  N6  UNL     1     -22.949  17.945  10.998  1.00 20.00    -0.260 N 
HETATM    7  F7  UNL     1     -25.274  18.538   8.473  1.00 20.00    -0.201 F 
HETATM    8 CL8  UNL     1     -25.469  18.360  11.798  1.00 20.00    -0.059 Cl
ENDROOT
TORSDOF 0
ENDMDL
