MODEL 1
REMARK VINA RESULT:      -4.3      0.000      0.000
REMARK  0 active torsions:
REMARK  status: ('A' for Active; 'I' for Inactive)
ROOT
HETATM    1  C1  UNL     1     -23.456  18.131   9.704  1.00 20.00     0.094 A 
HETATM    2  C2  UNL     1     -22.650  17.911   8.572  1.00 20.00     0.073 A 
HETATM    3  C3  UNL     1     -24.612  18.679   9.202  1.00 20.00     0.225 A 
HETATM    4  C4  UNL     1     -21.295  17.333   8.516  1.00 20.00     0.074 C 
HETATM    5  C5  UNL     1     -25.381  19.262   6.890  1.00 20.00     0.183 C 
HETATM    6  N6  UNL     1     -23.242  18.288   7.435  1.00 20.00    -0.174 NA
HETATM    7  N7  UNL     1     -24.433  18.750   7.852  1.00 20.00    -0.247 N 
HETATM    8  F8  UNL     1     -25.687  19.067   9.886  1.00 20.00    -0.183 F 
HETATM    9 BR9  UNL     1     -23.025  17.752  11.477  1.00 20.00    -0.044 Br
ENDROOT
TORSDOF 0
ENDMDL
MODEL 2
REMARK VINA RESULT:      -4.1      1.720      3.007
REMARK  0 active torsions:
REMARK  status: ('A' for Active; 'I' for Inactive)
ROOT
HETATM    1  C1  UNL     1     -24.611  18.709   9.315  1.00 20.00     0.094 A 
HETATM    2  C2  UNL     1     -24.401  18.761   7.924  1.00 20.00     0.073 A 
HETATM    3  C3  UNL     1     -23.453  18.166   9.817  1.00 20.00     0.225 A 
HETATM    4  C4  UNL     1     -25.316  19.261   6.882  1.00 20.00     0.074 C 
HETATM    5  C5  UNL     1     -21.326  17.366   8.764  1.00 20.00     0.183 C 
HETATM    6  N6  UNL     1     -23.205  18.288   7.565  1.00 20.00    -0.174 NA
HETATM    7  N7  UNL     1     -22.652  17.934   8.738  1.00 20.00    -0.247 N 
HETATM    8  F8  UNL     1     -23.166  17.910  11.093  1.00 20.00    -0.183 F 
HETATM    9 BR9  UNL     1     -26.131  19.263  10.240  1.00 20.00    -0.044 Br
ENDROOT
TORSDOF 0
ENDMDL
MODEL 3
REMARK VINA RESULT:      -4.0      2.668      3.251
REMARK  0 active torsions:
REMARK  status: ('A' for Active; 'I' for Inactive)
ROOT
HETATM    1  C1  UNL     1     -23.438  18.129  10.175  1.00 20.00     0.094 A 
HETATM    2  C2  UNL     1     -23.274  18.063  11.572  1.00 20.00     0.073 A 
HETATM    3  C3  UNL     1     -24.762  18.456  10.001  1.00 20.00     0.225 A 
HETATM    4  C4  UNL     1     -22.049  17.754  12.332  1.00 20.00     0.074 C 
HETATM    5  C5  UNL     1     -26.655  18.885  11.584  1.00 20.00     0.183 C 
HETATM    6  N6  UNL     1     -24.402  18.324  12.238  1.00 20.00    -0.174 NA
HETATM    7  N7  UNL     1     -25.288  18.560  11.255  1.00 20.00    -0.247 N 
HETATM    8  F8  UNL     1     -25.406  18.631   8.848  1.00 20.00    -0.183 F 
HETATM    9 BR9  UNL     1     -22.133  17.836   8.878  1.00 20.00    -0.044 Br
ENDROOT
TORSDOF 0
ENDMDL
MODEL 4
REMARK VINA RESULT:      -3.9      2.411      3.032
REMARK  0 active torsions:
REMARK  status: ('A' for Active; 'I' for Inactive)
ROOT
HETATM    1  C1  UNL     1     -23.846  18.408   8.854  1.00 20.00     0.094 A 
HETATM    2  C2  UNL     1     -22.595  17.762   8.839  1.00 20.00     0.073 A 
HETATM    3  C3  UNL     1     -24.177  18.483  10.185  1.00 20.00     0.225 A 
HETATM    4  C4  UNL     1     -21.760  17.420   7.673  1.00 20.00     0.074 C 
HETATM    5  C5  UNL     1     -23.040  17.741  12.290  1.00 20.00     0.183 C 
HETATM    6  N6  UNL     1     -22.161  17.449  10.062  1.00 20.00    -0.174 NA
HETATM    7  N7  UNL     1     -23.145  17.901  10.859  1.00 20.00    -0.247 N 
HETATM    8  F8  UNL     1     -25.280  19.011  10.715  1.00 20.00    -0.183 F 
HETATM    9 BR9  UNL     1     -24.812  19.014   7.380  1.00 20.00    -0.044 Br
ENDROOT
TORSDOF 0
ENDMDL
MODEL 5
REMARK VINA RESULT:      -3.9      1.882      2.908
REMARK  0 active torsions:
REMARK  status: ('A' for Active; 'I' for Inactive)
ROOT
HETATM    1  C1  UNL     1     -23.988  18.151  10.563  1.00 20.00     0.094 A 
HETATM    2  C2  UNL     1     -25.247  18.777  10.638  1.00 20.00     0.073 A 
HETATM    3  C3  UNL     1     -23.649  18.220   9.233  1.00 20.00     0.225 A 
HETATM    4  C4  UNL     1     -26.088  18.993  11.829  1.00 20.00     0.074 C 
HETATM    5  C5  UNL     1     -24.787  19.162   7.210  1.00 20.00     0.183 C 
HETATM    6  N6  UNL     1     -25.679  19.210   9.451  1.00 20.00    -0.174 NA
HETATM    7  N7  UNL     1     -24.685  18.858   8.617  1.00 20.00    -0.247 N 
HETATM    8  F8  UNL     1     -22.540  17.758   8.656  1.00 20.00    -0.183 F 
HETATM    9 BR9  UNL     1     -23.021  17.407  11.972  1.00 20.00    -0.044 Br
ENDROOT
TORSDOF 0
ENDMDL
MODEL 6
REMARK VINA RESULT:      -3.9      2.477      3.380
REMARK  0 active torsions:
REMARK  status: ('A' for Active; 'I' for Inactive)
ROOT
HETATM    1  C1  UNL     1     -23.380  17.924   9.511  1.00 20.00     0.094 A 
HETATM    2  C2  UNL     1     -24.483  18.663   9.043  1.00 20.00     0.073 A 
HETATM    3  C3  UNL     1     -23.657  17.696  10.837  1.00 20.00     0.225 A 
HETATM    4  C4  UNL     1     -24.725  19.179   7.683  1.00 20.00     0.074 C 
HETATM    5  C5  UNL     1     -25.567  18.321  12.332  1.00 20.00     0.183 C 
HETATM    6  N6  UNL     1     -25.392  18.891   9.995  1.00 20.00    -0.174 NA
HETATM    7  N7  UNL     1     -24.861  18.291  11.074  1.00 20.00    -0.247 N 
HETATM    8  F8  UNL     1     -22.906  17.036  11.718  1.00 20.00    -0.183 F 
HETATM    9 BR9  UNL     1     -21.892  17.387   8.525  1.00 20.00    -0.044 Br
ENDROOT
TORSDOF 0
ENDMDL
MODEL 7
REMARK VINA RESULT:      -3.9      4.076      5.190
REMARK  0 active torsions:
REMARK  status: ('A' for Active; 'I' for Inactive)
ROOT
HETATM    1  C1  UNL     1     -26.667  19.096   4.610  1.00 20.00     0.094 A 
HETATM    2  C2  UNL     1     -25.297  19.147   4.291  1.00 20.00     0.073 A 
HETATM    3  C3  UNL     1     -26.697  18.995   5.980  1.00 20.00     0.225 A 
HETATM    4  C4  UNL     1     -24.675  19.261   2.959  1.00 20.00     0.074 C 
HETATM    5  C5  UNL     1     -24.918  18.900   7.741  1.00 20.00     0.183 C 
HETATM    6  N6  UNL     1     -24.513  19.083   5.370  1.00 20.00    -0.174 NA
HETATM    7  N7  UNL     1     -25.393  18.992   6.381  1.00 20.00    -0.247 N 
HETATM    8  F8  UNL     1     -27.773  18.913   6.761  1.00 20.00    -0.183 F 
HETATM    9 BR9  UNL     1     -28.098  19.155   3.417  1.00 20.00    -0.044 Br
ENDROOT
TORSDOF 0
ENDMDL
MODEL 8
REMARK VINA RESULT:      -3.6     16.623     17.075
REMARK  0 active torsions:
REMARK  status: ('A' for Active; 'I' for Inactive)
ROOT
HETATM    1  C1  UNL     1     -33.345   6.304   3.366  1.00 20.00     0.094 A 
HETATM    2  C2  UNL     1     -33.706   4.979   3.056  1.00 20.00     0.073 A 
HETATM    3  C3  UNL     1     -33.839   6.507   4.633  1.00 20.00     0.225 A 
HETATM    4  C4  UNL     1     -33.429   4.225   1.820  1.00 20.00     0.074 C 
HETATM    5  C5  UNL     1     -35.110   5.065   6.239  1.00 20.00     0.183 C 
HETATM    6  N6  UNL     1     -34.378   4.383   4.044  1.00 20.00    -0.174 NA
HETATM    7  N7  UNL     1     -34.442   5.336   4.988  1.00 20.00    -0.247 N 
HETATM    8  F8  UNL     1     -33.754   7.616   5.366  1.00 20.00    -0.183 F 
HETATM    9 BR9  UNL     1     -32.406   7.493   2.281  1.00 20.00    -0.044 Br
ENDROOT
TORSDOF 0
ENDMDL
MODEL 9
REMARK VINA RESULT:      -3.6     14.560     15.632
REMARK  0 active torsions:
REMARK  status: ('A' for Active; 'I' for Inactive)
ROOT
HETATM    1  C1  UNL     1     -34.473  16.647  -1.842  1.00 20.00     0.094 A 
HETATM    2  C2  UNL     1     -33.179  17.078  -2.189  1.00 20.00     0.073 A 
HETATM    3  C3  UNL     1     -34.768  15.669  -2.761  1.00 20.00     0.225 A 
HETATM    4  C4  UNL     1     -32.357  18.114  -1.537  1.00 20.00     0.074 C 
HETATM    5  C5  UNL     1     -33.513  14.684  -4.692  1.00 20.00     0.183 C 
HETATM    6  N6  UNL     1     -32.685  16.429  -3.247  1.00 20.00    -0.174 NA
HETATM    7  N7  UNL     1     -33.674  15.578  -3.571  1.00 20.00    -0.247 N 
HETATM    8  F8  UNL     1     -35.889  14.955  -2.852  1.00 20.00    -0.183 F 
HETATM    9 BR9  UNL     1     -35.527  17.281  -0.441  1.00 20.00    -0.044 Br
ENDROOT
TORSDOF 0
ENDMDL
