MODEL 1
REMARK VINA RESULT:      -4.4      0.000      0.000
REMARK  1 active torsions:
REMARK  status: ('A' for Active; 'I' for Inactive)
REMARK    1  A    between atoms: CA_4  and  C_5 
ROOT
HETATM    1  C1  UNK A   1     -35.152  16.296  -2.260  1.00 20.00     0.013 A 
HETATM    2  C2  UNK A   1     -35.517  17.273  -1.192  1.00 20.00     0.066 C 
ATOM      3  N   VAL A   1     -36.032  15.571  -2.885  1.00 20.00    -0.255 NA
ATOM      4  CA  VAL A   1     -35.291  14.829  -3.765  1.00 20.00     0.096 A 
ATOM      5  CB  VAL A   1     -33.975  15.063  -3.714  1.00 20.00    -0.047 A 
ATOM      6  CG1 VAL A   1     -32.847  14.480  -4.487  1.00 20.00     0.046 C 
ATOM      7  CG2 VAL A   1     -33.716  16.103  -2.671  1.00 20.00     0.090 A 
ENDROOT
BRANCH   4   8
ATOM      8  C   VAL A   1     -35.947  13.879  -4.656  1.00 20.00     0.290 C 
ATOM      9  O   VAL A   1     -35.914  12.665  -4.476  1.00 20.00    -0.300 OA
ENDBRANCH   4   8
TORSDOF 1
ENDMDL
MODEL 2
REMARK VINA RESULT:      -4.4     11.596     11.778
REMARK  1 active torsions:
REMARK  status: ('A' for Active; 'I' for Inactive)
REMARK    1  A    between atoms: CA_4  and  C_5 
ROOT
HETATM    1  C1  UNK A   1     -34.315   5.712   4.848  1.00 20.00     0.013 A 
HETATM    2  C2  UNK A   1     -35.031   5.677   6.157  1.00 20.00     0.066 C 
ATOM      3  N   VAL A   1     -33.653   6.751   4.431  1.00 20.00    -0.255 NA
ATOM      4  CA  VAL A   1     -33.161   6.369   3.213  1.00 20.00     0.096 A 
ATOM      5  CB  VAL A   1     -33.492   5.124   2.849  1.00 20.00    -0.047 A 
ATOM      6  CG1 VAL A   1     -33.166   4.345   1.626  1.00 20.00     0.046 C 
ATOM      7  CG2 VAL A   1     -34.328   4.518   3.929  1.00 20.00     0.090 A 
ENDROOT
BRANCH   4   8
ATOM      8  C   VAL A   1     -32.350   7.293   2.428  1.00 20.00     0.290 C 
ATOM      9  O   VAL A   1     -32.768   7.853   1.418  1.00 20.00    -0.300 OA
ENDBRANCH   4   8
TORSDOF 1
ENDMDL
MODEL 3
REMARK VINA RESULT:      -4.2      1.073      1.096
REMARK  1 active torsions:
REMARK  status: ('A' for Active; 'I' for Inactive)
REMARK    1  A    between atoms: CA_4  and  C_5 
ROOT
HETATM    1  C1  UNK A   1     -34.360  16.179  -2.721  1.00 20.00     0.013 A 
HETATM    2  C2  UNK A   1     -34.087  17.015  -1.515  1.00 20.00     0.066 C 
ATOM      3  N   VAL A   1     -35.319  15.303  -2.772  1.00 20.00    -0.255 NA
ATOM      4  CA  VAL A   1     -35.222  14.771  -4.029  1.00 20.00     0.096 A 
ATOM      5  CB  VAL A   1     -34.233  15.284  -4.771  1.00 20.00    -0.047 A 
ATOM      6  CG1 VAL A   1     -33.799  14.987  -6.161  1.00 20.00     0.046 C 
ATOM      7  CG2 VAL A   1     -33.517  16.317  -3.962  1.00 20.00     0.090 A 
ENDROOT
BRANCH   4   8
ATOM      8  C   VAL A   1     -36.152  13.734  -4.460  1.00 20.00     0.290 C 
ATOM      9  O   VAL A   1     -35.846  12.545  -4.513  1.00 20.00    -0.300 OA
ENDBRANCH   4   8
TORSDOF 1
ENDMDL
MODEL 4
REMARK VINA RESULT:      -4.1     16.510     17.450
REMARK  1 active torsions:
REMARK  status: ('A' for Active; 'I' for Inactive)
REMARK    1  A    between atoms: CA_4  and  C_5 
ROOT
HETATM    1  C1  UNK A   1     -24.291  18.156  10.921  1.00 20.00     0.013 A 
HETATM    2  C2  UNK A   1     -24.764  18.039  12.332  1.00 20.00     0.066 C 
ATOM      3  N   VAL A   1     -23.149  17.684  10.517  1.00 20.00    -0.255 NA
ATOM      4  CA  VAL A   1     -23.107  17.997   9.186  1.00 20.00     0.096 A 
ATOM      5  CB  VAL A   1     -24.185  18.652   8.739  1.00 20.00    -0.047 A 
ATOM      6  CG1 VAL A   1     -24.526  19.164   7.386  1.00 20.00     0.046 C 
ATOM      7  CG2 VAL A   1     -25.133  18.843   9.879  1.00 20.00     0.090 A 
ENDROOT
BRANCH   4   8
ATOM      8  C   VAL A   1     -21.952  17.620   8.380  1.00 20.00     0.290 C 
ATOM      9  O   VAL A   1     -21.976  16.691   7.576  1.00 20.00    -0.300 OA
ENDBRANCH   4   8
TORSDOF 1
ENDMDL
MODEL 5
REMARK VINA RESULT:      -4.0     16.785     17.684
REMARK  1 active torsions:
REMARK  status: ('A' for Active; 'I' for Inactive)
REMARK    1  A    between atoms: CA_4  and  C_5 
ROOT
HETATM    1  C1  UNK A   1     -24.631  17.971  11.203  1.00 20.00     0.013 A 
HETATM    2  C2  UNK A   1     -25.565  17.687  12.332  1.00 20.00     0.066 C 
ATOM      3  N   VAL A   1     -25.022  18.483  10.073  1.00 20.00    -0.255 NA
ATOM      4  CA  VAL A   1     -23.875  18.578   9.332  1.00 20.00     0.096 A 
ATOM      5  CB  VAL A   1     -22.775  18.143   9.958  1.00 20.00    -0.047 A 
ATOM      6  CG1 VAL A   1     -21.359  18.075   9.513  1.00 20.00     0.046 C 
ATOM      7  CG2 VAL A   1     -23.160  17.670  11.324  1.00 20.00     0.090 A 
ENDROOT
BRANCH   4   8
ATOM      8  C   VAL A   1     -23.920  19.119   7.979  1.00 20.00     0.290 C 
ATOM      9  O   VAL A   1     -23.504  18.503   7.001  1.00 20.00    -0.300 OA
ENDBRANCH   4   8
TORSDOF 1
ENDMDL
MODEL 6
REMARK VINA RESULT:      -4.0      3.185      4.719
REMARK  1 active torsions:
REMARK  status: ('A' for Active; 'I' for Inactive)
REMARK    1  A    between atoms: CA_4  and  C_5 
ROOT
HETATM    1  C1  UNK A   1     -33.747  15.779  -3.188  1.00 20.00     0.013 A 
HETATM    2  C2  UNK A   1     -33.646  14.756  -4.270  1.00 20.00     0.066 C 
ATOM      3  N   VAL A   1     -32.826  16.670  -2.970  1.00 20.00    -0.255 NA
ATOM      4  CA  VAL A   1     -33.303  17.395  -1.912  1.00 20.00     0.096 A 
ATOM      5  CB  VAL A   1     -34.495  16.990  -1.457  1.00 20.00    -0.047 A 
ATOM      6  CG1 VAL A   1     -35.343  17.499  -0.348  1.00 20.00     0.046 C 
ATOM      7  CG2 VAL A   1     -34.948  15.826  -2.280  1.00 20.00     0.090 A 
ENDROOT
BRANCH   4   8
ATOM      8  C   VAL A   1     -32.526  18.506  -1.374  1.00 20.00     0.290 C 
ATOM      9  O   VAL A   1     -31.316  18.437  -1.175  1.00 20.00    -0.300 OA
ENDBRANCH   4   8
TORSDOF 1
ENDMDL
MODEL 7
REMARK VINA RESULT:      -3.9      2.658      3.703
REMARK  1 active torsions:
REMARK  status: ('A' for Active; 'I' for Inactive)
REMARK    1  A    between atoms: CA_4  and  C_5 
ROOT
HETATM    1  C1  UNK A   1     -39.026  15.085  -4.311  1.00 20.00     0.013 A 
HETATM    2  C2  UNK A   1     -40.505  14.961  -4.470  1.00 20.00     0.066 C 
ATOM      3  N   VAL A   1     -38.216  14.074  -4.421  1.00 20.00    -0.255 NA
ATOM      4  CA  VAL A   1     -36.976  14.612  -4.208  1.00 20.00     0.096 A 
ATOM      5  CB  VAL A   1     -36.979  15.928  -3.967  1.00 20.00    -0.047 A 
ATOM      6  CG1 VAL A   1     -35.866  16.874  -3.690  1.00 20.00     0.046 C 
ATOM      7  CG2 VAL A   1     -38.391  16.417  -4.006  1.00 20.00     0.090 A 
ENDROOT
BRANCH   4   8
ATOM      8  C   VAL A   1     -35.791  13.763  -4.255  1.00 20.00     0.290 C 
ATOM      9  O   VAL A   1     -35.838  12.568  -4.534  1.00 20.00    -0.300 OA
ENDBRANCH   4   8
TORSDOF 1
ENDMDL
MODEL 8
REMARK VINA RESULT:      -3.9     15.603     16.659
REMARK  1 active torsions:
REMARK  status: ('A' for Active; 'I' for Inactive)
REMARK    1  A    between atoms: CA_4  and  C_5 
ROOT
HETATM    1  C1  UNK A   1     -22.708  18.084   8.795  1.00 20.00     0.013 A 
HETATM    2  C2  UNK A   1     -21.295  17.603   8.806  1.00 20.00     0.066 C 
ATOM      3  N   VAL A   1     -23.329  18.430   7.707  1.00 20.00    -0.255 NA
ATOM      4  CA  VAL A   1     -24.575  18.800   8.134  1.00 20.00     0.096 A 
ATOM      5  CB  VAL A   1     -24.759  18.698   9.456  1.00 20.00    -0.047 A 
ATOM      6  CG1 VAL A   1     -25.943  18.995  10.303  1.00 20.00     0.046 C 
ATOM      7  CG2 VAL A   1     -23.495  18.193  10.075  1.00 20.00     0.090 A 
ENDROOT
BRANCH   4   8
ATOM      8  C   VAL A   1     -25.573  19.258   7.174  1.00 20.00     0.290 C 
ATOM      9  O   VAL A   1     -25.592  18.886   6.004  1.00 20.00    -0.300 OA
ENDBRANCH   4   8
TORSDOF 1
ENDMDL
MODEL 9
REMARK VINA RESULT:      -3.9      2.138      3.403
REMARK  1 active torsions:
REMARK  status: ('A' for Active; 'I' for Inactive)
REMARK    1  A    between atoms: CA_4  and  C_5 
ROOT
HETATM    1  C1  UNK A   1     -34.549  15.107  -6.252  1.00 20.00     0.013 A 
HETATM    2  C2  UNK A   1     -33.793  15.065  -7.538  1.00 20.00     0.066 C 
ATOM      3  N   VAL A   1     -35.828  14.887  -6.176  1.00 20.00    -0.255 NA
ATOM      4  CA  VAL A   1     -36.114  15.019  -4.844  1.00 20.00     0.096 A 
ATOM      5  CB  VAL A   1     -35.057  15.316  -4.080  1.00 20.00    -0.047 A 
ATOM      6  CG1 VAL A   1     -34.942  15.539  -2.615  1.00 20.00     0.046 C 
ATOM      7  CG2 VAL A   1     -33.848  15.414  -4.954  1.00 20.00     0.090 A 
ENDROOT
BRANCH   4   8
ATOM      8  C   VAL A   1     -37.480  14.839  -4.366  1.00 20.00     0.290 C 
ATOM      9  O   VAL A   1     -38.045  13.748  -4.361  1.00 20.00    -0.300 OA
ENDBRANCH   4   8
TORSDOF 1
ENDMDL
