MODEL 1
REMARK VINA RESULT:      -4.4      0.000      0.000
REMARK  2 active torsions:
REMARK  status: ('A' for Active; 'I' for Inactive)
REMARK    1  A    between atoms: C2_2  and  C9_9 
REMARK    2  A    between atoms: C3_3  and  C10_10 
ROOT
HETATM    1  C1  UNL     1     -35.147  16.383  -1.836  1.00 20.00     0.079 A 
HETATM    2  C2  UNL     1     -34.097  16.467  -2.725  1.00 20.00     0.046 A 
HETATM    3  C3  UNL     1     -33.339  17.838  -1.190  1.00 20.00     0.079 A 
HETATM    4  N11 UNL     1     -33.059  17.301  -2.357  1.00 20.00    -0.249 NA
HETATM    5  S12 UNL     1     -34.832  17.384  -0.479  1.00 20.00    -0.084 SA
ENDROOT
BRANCH   3   6
HETATM    6  C10 UNL     1     -32.342  18.858  -0.471  1.00 20.00     0.045 C 
HETATM    7  C7  UNL     1     -32.567  19.124   1.045  1.00 20.00     0.011 C 
HETATM    8  C4  UNL     1     -31.409  18.153   1.338  1.00 20.00     0.002 C 
HETATM    9  C8  UNL     1     -30.901  18.421  -0.090  1.00 20.00     0.011 C 
ENDBRANCH   3   6
BRANCH   2  10
HETATM   10  C9  UNL     1     -34.075  15.688  -4.044  1.00 20.00     0.038 A 
HETATM   11  C5  UNL     1     -34.457  14.224  -4.033  1.00 20.00     0.011 A 
HETATM   12  C6  UNL     1     -33.027  14.614  -4.240  1.00 20.00     0.011 A 
ENDBRANCH   2  10
TORSDOF 2
ENDMDL
MODEL 2
REMARK VINA RESULT:      -4.4     14.393     15.472
REMARK  2 active torsions:
REMARK  status: ('A' for Active; 'I' for Inactive)
REMARK    1  A    between atoms: C2_2  and  C9_9 
REMARK    2  A    between atoms: C3_3  and  C10_10 
ROOT
HETATM    1  C1  UNL     1     -25.450  16.742  12.310  1.00 20.00     0.079 A 
HETATM    2  C2  UNL     1     -25.991  17.925  11.853  1.00 20.00     0.046 A 
HETATM    3  C3  UNL     1     -24.111  17.966  10.724  1.00 20.00     0.079 A 
HETATM    4  N11 UNL     1     -25.225  18.629  10.944  1.00 20.00    -0.249 NA
HETATM    5  S12 UNL     1     -23.920  16.490  11.576  1.00 20.00    -0.084 SA
ENDROOT
BRANCH   3   6
HETATM    6  C10 UNL     1     -22.996  18.505   9.717  1.00 20.00     0.045 C 
HETATM    7  C7  UNL     1     -21.643  17.737   9.675  1.00 20.00     0.011 C 
HETATM    8  C4  UNL     1     -22.131  17.043   8.392  1.00 20.00     0.002 C 
HETATM    9  C8  UNL     1     -23.101  18.222   8.193  1.00 20.00     0.011 C 
ENDBRANCH   3   6
BRANCH   2  10
HETATM   10  C9  UNL     1     -27.358  18.436  12.321  1.00 20.00     0.038 A 
HETATM   11  C5  UNL     1     -28.530  17.480  12.332  1.00 20.00     0.011 A 
HETATM   12  C6  UNL     1     -28.474  18.569  11.307  1.00 20.00     0.011 A 
ENDBRANCH   2  10
TORSDOF 2
ENDMDL
MODEL 3
REMARK VINA RESULT:      -4.2      1.091      5.225
REMARK  2 active torsions:
REMARK  status: ('A' for Active; 'I' for Inactive)
REMARK    1  A    between atoms: C2_2  and  C9_9 
REMARK    2  A    between atoms: C3_3  and  C10_10 
ROOT
HETATM    1  C1  UNL     1     -34.765  17.847  -1.361  1.00 20.00     0.079 A 
HETATM    2  C2  UNL     1     -33.407  17.758  -1.586  1.00 20.00     0.046 A 
HETATM    3  C3  UNL     1     -34.055  16.053  -2.804  1.00 20.00     0.079 A 
HETATM    4  N11 UNL     1     -32.998  16.730  -2.412  1.00 20.00    -0.249 NA
HETATM    5  S12 UNL     1     -35.571  16.598  -2.216  1.00 20.00    -0.084 SA
ENDROOT
BRANCH   3   6
HETATM    6  C10 UNL     1     -33.934  14.792  -3.775  1.00 20.00     0.045 C 
HETATM    7  C7  UNL     1     -35.242  14.013  -4.097  1.00 20.00     0.011 C 
HETATM    8  C4  UNL     1     -35.292  14.752  -5.447  1.00 20.00     0.002 C 
HETATM    9  C8  UNL     1     -33.776  14.985  -5.308  1.00 20.00     0.011 C 
ENDBRANCH   3   6
BRANCH   2  10
HETATM   10  C9  UNL     1     -32.407  18.735  -0.959  1.00 20.00     0.038 A 
HETATM   11  C5  UNL     1     -31.076  18.204  -0.473  1.00 20.00     0.011 A 
HETATM   12  C6  UNL     1     -32.111  18.627   0.521  1.00 20.00     0.011 A 
ENDBRANCH   2  10
TORSDOF 2
ENDMDL
MODEL 4
REMARK VINA RESULT:      -4.1      0.872      5.032
REMARK  2 active torsions:
REMARK  status: ('A' for Active; 'I' for Inactive)
REMARK    1  A    between atoms: C2_2  and  C9_9 
REMARK    2  A    between atoms: C3_3  and  C10_10 
ROOT
HETATM    1  C1  UNL     1     -34.467  17.870   0.025  1.00 20.00     0.079 A 
HETATM    2  C2  UNL     1     -33.207  18.157  -0.456  1.00 20.00     0.046 A 
HETATM    3  C3  UNL     1     -33.999  17.107  -2.211  1.00 20.00     0.079 A 
HETATM    4  N11 UNL     1     -32.936  17.719  -1.738  1.00 20.00    -0.249 NA
HETATM    5  S12 UNL     1     -35.359  17.020  -1.168  1.00 20.00    -0.084 SA
ENDROOT
BRANCH   3   6
HETATM    6  C10 UNL     1     -34.024  16.477  -3.678  1.00 20.00     0.045 C 
HETATM    7  C7  UNL     1     -33.214  15.169  -3.905  1.00 20.00     0.011 C 
HETATM    8  C4  UNL     1     -34.536  14.388  -3.802  1.00 20.00     0.002 C 
HETATM    9  C8  UNL     1     -35.265  15.690  -4.181  1.00 20.00     0.011 C 
ENDBRANCH   3   6
BRANCH   2  10
HETATM   10  C9  UNL     1     -32.164  18.912   0.375  1.00 20.00     0.038 A 
HETATM   11  C5  UNL     1     -30.707  18.528   0.239  1.00 20.00     0.011 A 
HETATM   12  C6  UNL     1     -31.450  18.179   1.490  1.00 20.00     0.011 A 
ENDBRANCH   2  10
TORSDOF 2
ENDMDL
MODEL 5
REMARK VINA RESULT:      -4.1      2.020      2.561
REMARK  2 active torsions:
REMARK  status: ('A' for Active; 'I' for Inactive)
REMARK    1  A    between atoms: C2_2  and  C9_9 
REMARK    2  A    between atoms: C3_3  and  C10_10 
ROOT
HETATM    1  C1  UNL     1     -33.175  16.104  -3.337  1.00 20.00     0.079 A 
HETATM    2  C2  UNL     1     -34.382  15.483  -3.097  1.00 20.00     0.046 A 
HETATM    3  C3  UNL     1     -34.539  17.090  -1.613  1.00 20.00     0.079 A 
HETATM    4  N11 UNL     1     -35.165  16.046  -2.109  1.00 20.00    -0.249 NA
HETATM    5  S12 UNL     1     -33.004  17.451  -2.289  1.00 20.00    -0.084 SA
ENDROOT
BRANCH   3   6
HETATM    6  C10 UNL     1     -35.171  17.975  -0.445  1.00 20.00     0.045 C 
HETATM    7  C7  UNL     1     -35.486  17.259   0.900  1.00 20.00     0.011 C 
HETATM    8  C4  UNL     1     -34.188  17.860   1.468  1.00 20.00     0.002 C 
HETATM    9  C8  UNL     1     -34.285  18.946   0.382  1.00 20.00     0.011 C 
ENDBRANCH   3   6
BRANCH   2  10
HETATM   10  C9  UNL     1     -34.834  14.241  -3.874  1.00 20.00     0.038 A 
HETATM   11  C5  UNL     1     -35.240  14.396  -5.323  1.00 20.00     0.011 A 
HETATM   12  C6  UNL     1     -36.285  14.127  -4.287  1.00 20.00     0.011 A 
ENDBRANCH   2  10
TORSDOF 2
ENDMDL
MODEL 6
REMARK VINA RESULT:      -4.0      2.260      5.609
REMARK  2 active torsions:
REMARK  status: ('A' for Active; 'I' for Inactive)
REMARK    1  A    between atoms: C2_2  and  C9_9 
REMARK    2  A    between atoms: C3_3  and  C10_10 
ROOT
HETATM    1  C1  UNL     1     -33.684  17.561  -1.728  1.00 20.00     0.079 A 
HETATM    2  C2  UNL     1     -34.881  16.961  -1.398  1.00 20.00     0.046 A 
HETATM    3  C3  UNL     1     -34.290  15.635  -3.043  1.00 20.00     0.079 A 
HETATM    4  N11 UNL     1     -35.231  15.857  -2.151  1.00 20.00    -0.249 NA
HETATM    5  S12 UNL     1     -32.958  16.716  -3.032  1.00 20.00    -0.084 SA
ENDROOT
BRANCH   3   6
HETATM    6  C10 UNL     1     -34.382  14.425  -4.080  1.00 20.00     0.045 C 
HETATM    7  C7  UNL     1     -35.785  13.798  -4.319  1.00 20.00     0.011 C 
HETATM    8  C4  UNL     1     -35.875  14.612  -5.622  1.00 20.00     0.002 C 
HETATM    9  C8  UNL     1     -34.337  14.689  -5.610  1.00 20.00     0.011 C 
ENDBRANCH   3   6
BRANCH   2  10
HETATM   10  C9  UNL     1     -35.775  17.482  -0.268  1.00 20.00     0.038 A 
HETATM   11  C5  UNL     1     -35.298  18.657   0.557  1.00 20.00     0.011 A 
HETATM   12  C6  UNL     1     -35.327  17.290   1.164  1.00 20.00     0.011 A 
ENDBRANCH   2  10
TORSDOF 2
ENDMDL
MODEL 7
REMARK VINA RESULT:      -4.0      1.697      5.448
REMARK  2 active torsions:
REMARK  status: ('A' for Active; 'I' for Inactive)
REMARK    1  A    between atoms: C2_2  and  C9_9 
REMARK    2  A    between atoms: C3_3  and  C10_10 
ROOT
HETATM    1  C1  UNL     1     -31.808  18.935   0.182  1.00 20.00     0.079 A 
HETATM    2  C2  UNL     1     -32.928  18.532   0.878  1.00 20.00     0.046 A 
HETATM    3  C3  UNL     1     -33.573  17.963  -1.139  1.00 20.00     0.079 A 
HETATM    4  N11 UNL     1     -33.941  17.976   0.123  1.00 20.00    -0.249 NA
HETATM    5  S12 UNL     1     -32.021  18.605  -1.488  1.00 20.00    -0.084 SA
ENDROOT
BRANCH   3   6
HETATM    6  C10 UNL     1     -34.518  17.381  -2.287  1.00 20.00     0.045 C 
HETATM    7  C7  UNL     1     -33.849  17.015  -3.643  1.00 20.00     0.011 C 
HETATM    8  C4  UNL     1     -33.873  15.541  -3.202  1.00 20.00     0.002 C 
HETATM    9  C8  UNL     1     -35.013  15.909  -2.235  1.00 20.00     0.011 C 
ENDBRANCH   3   6
BRANCH   2  10
HETATM   10  C9  UNL     1     -33.050  18.692   2.398  1.00 20.00     0.038 A 
HETATM   11  C5  UNL     1     -31.790  18.858   3.217  1.00 20.00     0.011 A 
HETATM   12  C6  UNL     1     -32.555  17.575   3.291  1.00 20.00     0.011 A 
ENDBRANCH   2  10
TORSDOF 2
ENDMDL
MODEL 8
REMARK VINA RESULT:      -4.0     10.973     12.139
REMARK  2 active torsions:
REMARK  status: ('A' for Active; 'I' for Inactive)
REMARK    1  A    between atoms: C2_2  and  C9_9 
REMARK    2  A    between atoms: C3_3  and  C10_10 
ROOT
HETATM    1  C1  UNL     1     -33.934   4.649   3.101  1.00 20.00     0.079 A 
HETATM    2  C2  UNL     1     -34.170   5.743   3.907  1.00 20.00     0.046 A 
HETATM    3  C3  UNL     1     -32.984   6.731   2.349  1.00 20.00     0.079 A 
HETATM    4  N11 UNL     1     -33.625   6.937   3.478  1.00 20.00    -0.249 NA
HETATM    5  S12 UNL     1     -32.995   5.124   1.747  1.00 20.00    -0.084 SA
ENDROOT
BRANCH   3   6
HETATM    6  C10 UNL     1     -32.234   7.911   1.579  1.00 20.00     0.045 C 
HETATM    7  C7  UNL     1     -32.019   7.739   0.048  1.00 20.00     0.011 C 
HETATM    8  C4  UNL     1     -33.222   8.672  -0.178  1.00 20.00     0.002 C 
HETATM    9  C8  UNL     1     -32.978   9.231   1.236  1.00 20.00     0.011 C 
ENDBRANCH   3   6
BRANCH   2  10
HETATM   10  C9  UNL     1     -34.984   5.647   5.202  1.00 20.00     0.038 A 
HETATM   11  C5  UNL     1     -34.471   6.352   6.438  1.00 20.00     0.011 A 
HETATM   12  C6  UNL     1     -34.417   4.859   6.363  1.00 20.00     0.011 A 
ENDBRANCH   2  10
TORSDOF 2
ENDMDL
MODEL 9
REMARK VINA RESULT:      -4.0     13.270     14.949
REMARK  2 active torsions:
REMARK  status: ('A' for Active; 'I' for Inactive)
REMARK    1  A    between atoms: C2_2  and  C9_9 
REMARK    2  A    between atoms: C3_3  and  C10_10 
ROOT
HETATM    1  C1  UNL     1     -27.269  17.371  12.331  1.00 20.00     0.079 A 
HETATM    2  C2  UNL     1     -27.417  18.514  11.575  1.00 20.00     0.046 A 
HETATM    3  C3  UNL     1     -25.270  18.192  11.267  1.00 20.00     0.079 A 
HETATM    4  N11 UNL     1     -26.272  18.987  10.964  1.00 20.00    -0.249 NA
HETATM    5  S12 UNL     1     -25.633  16.857  12.281  1.00 20.00    -0.084 SA
ENDROOT
BRANCH   3   6
HETATM    6  C10 UNL     1     -23.793  18.454  10.719  1.00 20.00     0.045 C 
HETATM    7  C7  UNL     1     -22.745  17.323  10.929  1.00 20.00     0.011 C 
HETATM    8  C4  UNL     1     -22.963  16.915   9.461  1.00 20.00     0.002 C 
HETATM    9  C8  UNL     1     -23.479  18.342   9.202  1.00 20.00     0.011 C 
ENDBRANCH   3   6
BRANCH   2  10
HETATM   10  C9  UNL     1     -28.766  19.224  11.418  1.00 20.00     0.038 A 
HETATM   11  C5  UNL     1     -30.032  18.396  11.428  1.00 20.00     0.011 A 
HETATM   12  C6  UNL     1     -29.560  19.010  10.148  1.00 20.00     0.011 A 
ENDBRANCH   2  10
TORSDOF 2
ENDMDL
