MODEL 1
REMARK VINA RESULT:      -4.3      0.000      0.000
REMARK  0 active torsions:
REMARK  status: ('A' for Active; 'I' for Inactive)
ROOT
HETATM    1  C1  UNL     1     -33.012   6.250   3.696  1.00 20.00     0.016 C 
HETATM    2  C2  UNL     1     -34.086   6.795   4.631  1.00 20.00     0.016 C 
HETATM    3  C3  UNL     1     -33.850   5.345   2.796  1.00 20.00     0.122 C 
HETATM    4  C4  UNL     1     -34.976   5.565   4.843  1.00 20.00     0.122 C 
HETATM    5  C5  UNL     1     -32.243   7.318   2.933  1.00 20.00     0.013 C 
HETATM    6  C6  UNL     1     -33.552   7.457   5.891  1.00 20.00     0.013 C 
HETATM    7  C7  UNL     1     -33.060   4.216   2.156  1.00 20.00     0.040 C 
HETATM    8  C8  UNL     1     -34.590   4.656   6.003  1.00 20.00     0.040 C 
HETATM    9  O9  UNL     1     -34.878   4.786   3.633  1.00 20.00    -0.381 OA
ENDROOT
TORSDOF 0
ENDMDL
MODEL 2
REMARK VINA RESULT:      -4.2     16.893     17.435
REMARK  0 active torsions:
REMARK  status: ('A' for Active; 'I' for Inactive)
ROOT
HETATM    1  C1  UNL     1     -24.375  18.186  10.117  1.00 20.00     0.016 C 
HETATM    2  C2  UNL     1     -23.667  19.073   9.100  1.00 20.00     0.016 C 
HETATM    3  C3  UNL     1     -23.258  17.970  11.135  1.00 20.00     0.122 C 
HETATM    4  C4  UNL     1     -22.263  18.459   9.067  1.00 20.00     0.122 C 
HETATM    5  C5  UNL     1     -25.630  18.800  10.718  1.00 20.00     0.013 C 
HETATM    6  C6  UNL     1     -24.376  19.190   7.759  1.00 20.00     0.013 C 
HETATM    7  C7  UNL     1     -23.405  16.695  11.947  1.00 20.00     0.040 C 
HETATM    8  C8  UNL     1     -22.051  17.333   8.061  1.00 20.00     0.040 C 
HETATM    9  O9  UNL     1     -22.034  17.911  10.382  1.00 20.00    -0.381 OA
ENDROOT
TORSDOF 0
ENDMDL
MODEL 3
REMARK VINA RESULT:      -3.9     16.499     16.973
REMARK  0 active torsions:
REMARK  status: ('A' for Active; 'I' for Inactive)
ROOT
HETATM    1  C1  UNL     1     -24.921  18.332   9.968  1.00 20.00     0.016 C 
HETATM    2  C2  UNL     1     -23.483  17.979  10.329  1.00 20.00     0.016 C 
HETATM    3  C3  UNL     1     -25.400  18.952  11.279  1.00 20.00     0.122 C 
HETATM    4  C4  UNL     1     -23.629  17.497  11.777  1.00 20.00     0.122 C 
HETATM    5  C5  UNL     1     -25.058  19.262   8.773  1.00 20.00     0.013 C 
HETATM    6  C6  UNL     1     -22.809  17.011   9.368  1.00 20.00     0.013 C 
HETATM    7  C7  UNL     1     -26.904  18.874  11.481  1.00 20.00     0.040 C 
HETATM    8  C8  UNL     1     -23.918  16.012  11.959  1.00 20.00     0.040 C 
HETATM    9  O9  UNL     1     -24.744  18.225  12.332  1.00 20.00    -0.381 OA
ENDROOT
TORSDOF 0
ENDMDL
MODEL 4
REMARK VINA RESULT:      -3.9     12.173     12.841
REMARK  0 active torsions:
REMARK  status: ('A' for Active; 'I' for Inactive)
ROOT
HETATM    1  C1  UNL     1     -35.248  15.444  -3.980  1.00 20.00     0.016 C 
HETATM    2  C2  UNL     1     -34.640  15.672  -2.600  1.00 20.00     0.016 C 
HETATM    3  C3  UNL     1     -34.070  14.802  -4.709  1.00 20.00     0.122 C 
HETATM    4  C4  UNL     1     -33.209  16.098  -2.951  1.00 20.00     0.122 C 
HETATM    5  C5  UNL     1     -36.501  14.581  -3.978  1.00 20.00     0.013 C 
HETATM    6  C6  UNL     1     -35.422  16.629  -1.715  1.00 20.00     0.013 C 
HETATM    7  C7  UNL     1     -34.109  14.983  -6.216  1.00 20.00     0.040 C 
HETATM    8  C8  UNL     1     -32.992  17.590  -3.168  1.00 20.00     0.040 C 
HETATM    9  O9  UNL     1     -32.885  15.430  -4.188  1.00 20.00    -0.381 OA
ENDROOT
TORSDOF 0
ENDMDL
MODEL 5
REMARK VINA RESULT:      -3.8     11.934     13.040
REMARK  0 active torsions:
REMARK  status: ('A' for Active; 'I' for Inactive)
ROOT
HETATM    1  C1  UNL     1     -35.969  16.003  -4.524  1.00 20.00     0.016 C 
HETATM    2  C2  UNL     1     -35.418  15.180  -3.365  1.00 20.00     0.016 C 
HETATM    3  C3  UNL     1     -36.120  14.924  -5.594  1.00 20.00     0.122 C 
HETATM    4  C4  UNL     1     -34.468  14.216  -4.086  1.00 20.00     0.122 C 
HETATM    5  C5  UNL     1     -37.268  16.731  -4.213  1.00 20.00     0.013 C 
HETATM    6  C6  UNL     1     -34.807  16.000  -2.240  1.00 20.00     0.013 C 
HETATM    7  C7  UNL     1     -36.075  15.460  -7.015  1.00 20.00     0.040 C 
HETATM    8  C8  UNL     1     -33.036  14.704  -4.270  1.00 20.00     0.040 C 
HETATM    9  O9  UNL     1     -35.027  14.009  -5.400  1.00 20.00    -0.381 OA
ENDROOT
TORSDOF 0
ENDMDL
MODEL 6
REMARK VINA RESULT:      -3.8     16.055     16.841
REMARK  0 active torsions:
REMARK  status: ('A' for Active; 'I' for Inactive)
ROOT
HETATM    1  C1  UNL     1     -23.872  17.967   9.715  1.00 20.00     0.016 C 
HETATM    2  C2  UNL     1     -23.757  18.112  11.228  1.00 20.00     0.016 C 
HETATM    3  C3  UNL     1     -24.812  19.125   9.387  1.00 20.00     0.122 C 
HETATM    4  C4  UNL     1     -25.187  18.502  11.618  1.00 20.00     0.122 C 
HETATM    5  C5  UNL     1     -22.544  18.038   8.976  1.00 20.00     0.013 C 
HETATM    6  C6  UNL     1     -23.179  16.898  11.938  1.00 20.00     0.013 C 
HETATM    7  C7  UNL     1     -25.599  18.932   8.103  1.00 20.00     0.040 C 
HETATM    8  C8  UNL     1     -26.135  17.346  11.916  1.00 20.00     0.040 C 
HETATM    9  O9  UNL     1     -25.727  19.224  10.492  1.00 20.00    -0.381 OA
ENDROOT
TORSDOF 0
ENDMDL
MODEL 7
REMARK VINA RESULT:      -3.7     12.102     13.065
REMARK  0 active torsions:
REMARK  status: ('A' for Active; 'I' for Inactive)
ROOT
HETATM    1  C1  UNL     1     -35.505  15.673  -3.606  1.00 20.00     0.016 C 
HETATM    2  C2  UNL     1     -34.896  14.396  -4.173  1.00 20.00     0.016 C 
HETATM    3  C3  UNL     1     -36.994  15.385  -3.787  1.00 20.00     0.122 C 
HETATM    4  C4  UNL     1     -35.815  14.109  -5.365  1.00 20.00     0.122 C 
HETATM    5  C5  UNL     1     -35.117  15.967  -2.165  1.00 20.00     0.013 C 
HETATM    6  C6  UNL     1     -33.410  14.488  -4.483  1.00 20.00     0.013 C 
HETATM    7  C7  UNL     1     -37.853  16.633  -3.887  1.00 20.00     0.040 C 
HETATM    8  C8  UNL     1     -35.413  14.751  -6.687  1.00 20.00     0.040 C 
HETATM    9  O9  UNL     1     -37.111  14.632  -5.007  1.00 20.00    -0.381 OA
ENDROOT
TORSDOF 0
ENDMDL
MODEL 8
REMARK VINA RESULT:      -3.6     12.021     12.901
REMARK  0 active torsions:
REMARK  status: ('A' for Active; 'I' for Inactive)
ROOT
HETATM    1  C1  UNL     1     -34.558  16.207  -3.345  1.00 20.00     0.016 C 
HETATM    2  C2  UNL     1     -34.326  14.733  -3.656  1.00 20.00     0.016 C 
HETATM    3  C3  UNL     1     -36.030  16.185  -2.940  1.00 20.00     0.122 C 
HETATM    4  C4  UNL     1     -35.641  14.343  -4.341  1.00 20.00     0.122 C 
HETATM    5  C5  UNL     1     -33.643  16.772  -2.268  1.00 20.00     0.013 C 
HETATM    6  C6  UNL     1     -33.055  14.444  -4.440  1.00 20.00     0.013 C 
HETATM    7  C7  UNL     1     -36.740  17.514  -3.137  1.00 20.00     0.040 C 
HETATM    8  C8  UNL     1     -35.688  14.537  -5.852  1.00 20.00     0.040 C 
HETATM    9  O9  UNL     1     -36.659  15.188  -3.765  1.00 20.00    -0.381 OA
ENDROOT
TORSDOF 0
ENDMDL
MODEL 9
REMARK VINA RESULT:      -3.6     12.142     12.889
REMARK  0 active torsions:
REMARK  status: ('A' for Active; 'I' for Inactive)
ROOT
HETATM    1  C1  UNL     1     -34.050  15.336  -4.108  1.00 20.00     0.016 C 
HETATM    2  C2  UNL     1     -35.401  14.643  -4.238  1.00 20.00     0.016 C 
HETATM    3  C3  UNL     1     -34.117  15.823  -2.662  1.00 20.00     0.122 C 
HETATM    4  C4  UNL     1     -36.316  15.581  -3.442  1.00 20.00     0.122 C 
HETATM    5  C5  UNL     1     -32.855  14.438  -4.389  1.00 20.00     0.013 C 
HETATM    6  C6  UNL     1     -35.827  14.350  -5.668  1.00 20.00     0.013 C 
HETATM    7  C7  UNL     1     -33.236  17.028  -2.379  1.00 20.00     0.040 C 
HETATM    8  C8  UNL     1     -36.953  16.718  -4.231  1.00 20.00     0.040 C 
HETATM    9  O9  UNL     1     -35.490  16.174  -2.419  1.00 20.00    -0.381 OA
ENDROOT
TORSDOF 0
ENDMDL
