MODEL 1
REMARK VINA RESULT:      -5.3      0.000      0.000
REMARK  2 active torsions:
REMARK  status: ('A' for Active; 'I' for Inactive)
REMARK    1  A    between atoms: C1_1  and  C3_3 
REMARK    2  A    between atoms: C3_3  and  C4_4 
ROOT
HETATM    1  C3  UNL     1     -34.494   5.389   4.526  1.00 20.00     0.319 C 
HETATM    2  F7  UNL     1     -34.203   4.073   4.283  1.00 20.00    -0.209 F 
HETATM    3 CL12 UNL     1     -36.115   5.690   3.823  1.00 20.00    -0.067 Cl
ENDROOT
BRANCH   1   4
HETATM    4  C1  UNL     1     -33.469   6.282   3.864  1.00 20.00     0.143 C 
HETATM    5  C2  UNL     1     -33.061   6.159   2.594  1.00 20.00     0.289 C 
HETATM    6  F5  UNL     1     -32.140   7.002   2.083  1.00 20.00    -0.171 F 
HETATM    7  F6  UNL     1     -33.566   5.188   1.802  1.00 20.00    -0.171 F 
HETATM    8 CL11 UNL     1     -32.782   7.551   4.838  1.00 20.00    -0.078 Cl
ENDBRANCH   1   4
BRANCH   1   9
HETATM    9  C4  UNL     1     -34.550   5.531   6.040  1.00 20.00     0.443 C 
HETATM   10  F8  UNL     1     -35.657   4.930   6.536  1.00 20.00    -0.166 F 
HETATM   11  F9  UNL     1     -34.579   6.819   6.442  1.00 20.00    -0.166 F 
HETATM   12  F10 UNL     1     -33.481   4.942   6.621  1.00 20.00    -0.166 F 
ENDBRANCH   1   9
TORSDOF 2
ENDMDL
MODEL 2
REMARK VINA RESULT:      -5.1      1.568      2.646
REMARK  2 active torsions:
REMARK  status: ('A' for Active; 'I' for Inactive)
REMARK    1  A    between atoms: C1_1  and  C3_3 
REMARK    2  A    between atoms: C3_3  and  C4_4 
ROOT
HETATM    1  C3  UNL     1     -34.135   6.358   4.379  1.00 20.00     0.319 C 
HETATM    2  F7  UNL     1     -35.088   7.313   4.141  1.00 20.00    -0.209 F 
HETATM    3 CL12 UNL     1     -33.151   6.954   5.754  1.00 20.00    -0.067 Cl
ENDROOT
BRANCH   1   4
HETATM    4  C1  UNL     1     -33.262   6.175   3.159  1.00 20.00     0.143 C 
HETATM    5  C2  UNL     1     -32.452   7.116   2.656  1.00 20.00     0.289 C 
HETATM    6  F5  UNL     1     -31.704   6.866   1.561  1.00 20.00    -0.171 F 
HETATM    7  F6  UNL     1     -32.368   8.333   3.238  1.00 20.00    -0.171 F 
HETATM    8 CL11 UNL     1     -33.329   4.627   2.366  1.00 20.00    -0.078 Cl
ENDBRANCH   1   4
BRANCH   1   9
HETATM    9  C4  UNL     1     -34.893   5.105   4.789  1.00 20.00     0.443 C 
HETATM   10  F8  UNL     1     -35.239   5.160   6.097  1.00 20.00    -0.166 F 
HETATM   11  F9  UNL     1     -34.173   3.978   4.611  1.00 20.00    -0.166 F 
HETATM   12  F10 UNL     1     -36.037   4.979   4.080  1.00 20.00    -0.166 F 
ENDBRANCH   1   9
TORSDOF 2
ENDMDL
MODEL 3
REMARK VINA RESULT:      -4.8      1.289      2.487
REMARK  2 active torsions:
REMARK  status: ('A' for Active; 'I' for Inactive)
REMARK    1  A    between atoms: C1_1  and  C3_3 
REMARK    2  A    between atoms: C3_3  and  C4_4 
ROOT
HETATM    1  C3  UNL     1     -33.939   6.489   4.493  1.00 20.00     0.319 C 
HETATM    2  F7  UNL     1     -34.948   7.276   4.004  1.00 20.00    -0.209 F 
HETATM    3 CL12 UNL     1     -32.469   7.515   4.536  1.00 20.00    -0.067 Cl
ENDROOT
BRANCH   1   4
HETATM    4  C1  UNL     1     -33.715   5.301   3.586  1.00 20.00     0.143 C 
HETATM    5  C2  UNL     1     -33.117   5.362   2.389  1.00 20.00     0.289 C 
HETATM    6  F5  UNL     1     -32.957   4.249   1.643  1.00 20.00    -0.171 F 
HETATM    7  F6  UNL     1     -32.662   6.540   1.907  1.00 20.00    -0.171 F 
HETATM    8 CL11 UNL     1     -34.282   3.756   4.154  1.00 20.00    -0.078 Cl
ENDBRANCH   1   4
BRANCH   1   9
HETATM    9  C4  UNL     1     -34.352   6.115   5.909  1.00 20.00     0.443 C 
HETATM   10  F8  UNL     1     -33.425   5.312   6.482  1.00 20.00    -0.166 F 
HETATM   11  F9  UNL     1     -35.532   5.462   5.953  1.00 20.00    -0.166 F 
HETATM   12  F10 UNL     1     -34.461   7.215   6.687  1.00 20.00    -0.166 F 
ENDBRANCH   1   9
TORSDOF 2
ENDMDL
MODEL 4
REMARK VINA RESULT:      -4.8      9.032      9.692
REMARK  2 active torsions:
REMARK  status: ('A' for Active; 'I' for Inactive)
REMARK    1  A    between atoms: C1_1  and  C3_3 
REMARK    2  A    between atoms: C3_3  and  C4_4 
ROOT
HETATM    1  C3  UNL     1     -41.526   6.281   0.137  1.00 20.00     0.319 C 
HETATM    2  F7  UNL     1     -40.487   6.564   0.984  1.00 20.00    -0.209 F 
HETATM    3 CL12 UNL     1     -40.853   5.254  -1.169  1.00 20.00    -0.067 Cl
ENDROOT
BRANCH   1   4
HETATM    4  C1  UNL     1     -42.088   7.557  -0.447  1.00 20.00     0.143 C 
HETATM    5  C2  UNL     1     -42.966   7.609  -1.457  1.00 20.00     0.289 C 
HETATM    6  F5  UNL     1     -43.417   8.794  -1.916  1.00 20.00    -0.171 F 
HETATM    7  F6  UNL     1     -43.417   6.472  -2.033  1.00 20.00    -0.171 F 
HETATM    8 CL11 UNL     1     -41.542   9.053   0.256  1.00 20.00    -0.078 Cl
ENDBRANCH   1   4
BRANCH   1   9
HETATM    9  C4  UNL     1     -42.529   5.484   0.959  1.00 20.00     0.443 C 
HETATM   10  F8  UNL     1     -43.318   4.734   0.155  1.00 20.00    -0.166 F 
HETATM   11  F9  UNL     1     -43.340   6.271   1.697  1.00 20.00    -0.166 F 
HETATM   12  F10 UNL     1     -41.898   4.637   1.802  1.00 20.00    -0.166 F 
ENDBRANCH   1   9
TORSDOF 2
ENDMDL
MODEL 5
REMARK VINA RESULT:      -4.8     12.496     13.312
REMARK  2 active torsions:
REMARK  status: ('A' for Active; 'I' for Inactive)
REMARK    1  A    between atoms: C1_1  and  C3_3 
REMARK    2  A    between atoms: C3_3  and  C4_4 
ROOT
HETATM    1  C3  UNL     1     -34.807  15.698  -4.815  1.00 20.00     0.319 C 
HETATM    2  F7  UNL     1     -34.544  17.036  -4.946  1.00 20.00    -0.209 F 
HETATM    3 CL12 UNL     1     -34.306  14.928  -6.355  1.00 20.00    -0.067 Cl
ENDROOT
BRANCH   1   4
HETATM    4  C1  UNL     1     -36.285  15.475  -4.583  1.00 20.00     0.143 C 
HETATM    5  C2  UNL     1     -36.871  14.272  -4.520  1.00 20.00     0.289 C 
HETATM    6  F5  UNL     1     -38.200  14.166  -4.308  1.00 20.00    -0.171 F 
HETATM    7  F6  UNL     1     -36.142  13.144  -4.668  1.00 20.00    -0.171 F 
HETATM    8 CL11 UNL     1     -37.275  16.894  -4.387  1.00 20.00    -0.078 Cl
ENDBRANCH   1   4
BRANCH   1   9
HETATM    9  C4  UNL     1     -33.923  15.207  -3.679  1.00 20.00     0.443 C 
HETATM   10  F8  UNL     1     -33.513  13.937  -3.905  1.00 20.00    -0.166 F 
HETATM   11  F9  UNL     1     -34.553  15.219  -2.485  1.00 20.00    -0.166 F 
HETATM   12  F10 UNL     1     -32.813  15.971  -3.566  1.00 20.00    -0.166 F 
ENDBRANCH   1   9
TORSDOF 2
ENDMDL
MODEL 6
REMARK VINA RESULT:      -4.7     12.112     13.052
REMARK  2 active torsions:
REMARK  status: ('A' for Active; 'I' for Inactive)
REMARK    1  A    between atoms: C1_1  and  C3_3 
REMARK    2  A    between atoms: C3_3  and  C4_4 
ROOT
HETATM    1  C3  UNL     1     -35.765  15.414  -4.547  1.00 20.00     0.319 C 
HETATM    2  F7  UNL     1     -35.716  16.066  -5.751  1.00 20.00    -0.209 F 
HETATM    3 CL12 UNL     1     -36.906  16.336  -3.517  1.00 20.00    -0.067 Cl
ENDROOT
BRANCH   1   4
HETATM    4  C1  UNL     1     -34.394  15.392  -3.909  1.00 20.00     0.143 C 
HETATM    5  C2  UNL     1     -33.278  14.974  -4.521  1.00 20.00     0.289 C 
HETATM    6  F5  UNL     1     -32.094  14.988  -3.875  1.00 20.00    -0.171 F 
HETATM    7  F6  UNL     1     -33.319  14.532  -5.797  1.00 20.00    -0.171 F 
HETATM    8 CL11 UNL     1     -34.281  15.949  -2.264  1.00 20.00    -0.078 Cl
ENDBRANCH   1   4
BRANCH   1   9
HETATM    9  C4  UNL     1     -36.331  14.034  -4.842  1.00 20.00     0.443 C 
HETATM   10  F8  UNL     1     -35.732  13.096  -4.072  1.00 20.00    -0.166 F 
HETATM   11  F9  UNL     1     -36.162  13.664  -6.129  1.00 20.00    -0.166 F 
HETATM   12  F10 UNL     1     -37.655  13.986  -4.571  1.00 20.00    -0.166 F 
ENDBRANCH   1   9
TORSDOF 2
ENDMDL
MODEL 7
REMARK VINA RESULT:      -4.6     16.039     17.019
REMARK  2 active torsions:
REMARK  status: ('A' for Active; 'I' for Inactive)
REMARK    1  A    between atoms: C1_1  and  C3_3 
REMARK    2  A    between atoms: C3_3  and  C4_4 
ROOT
HETATM    1  C3  UNL     1     -23.492  17.032  10.357  1.00 20.00     0.319 C 
HETATM    2  F7  UNL     1     -23.480  16.047   9.406  1.00 20.00    -0.209 F 
HETATM    3 CL12 UNL     1     -23.624  16.206  11.943  1.00 20.00    -0.067 Cl
ENDROOT
BRANCH   1   4
HETATM    4  C1  UNL     1     -24.679  17.945  10.149  1.00 20.00     0.143 C 
HETATM    5  C2  UNL     1     -25.048  18.454   8.966  1.00 20.00     0.289 C 
HETATM    6  F5  UNL     1     -26.124  19.262   8.871  1.00 20.00    -0.171 F 
HETATM    7  F6  UNL     1     -24.349  18.164   7.846  1.00 20.00    -0.171 F 
HETATM    8 CL11 UNL     1     -25.617  18.354  11.558  1.00 20.00    -0.078 Cl
ENDBRANCH   1   4
BRANCH   1   9
HETATM    9  C4  UNL     1     -22.147  17.734  10.249  1.00 20.00     0.443 C 
HETATM   10  F8  UNL     1     -21.573  17.861  11.469  1.00 20.00    -0.166 F 
HETATM   11  F9  UNL     1     -22.246  18.972   9.721  1.00 20.00    -0.166 F 
HETATM   12  F10 UNL     1     -21.293  17.025   9.478  1.00 20.00    -0.166 F 
ENDBRANCH   1   9
TORSDOF 2
ENDMDL
MODEL 8
REMARK VINA RESULT:      -4.6      8.985      9.581
REMARK  2 active torsions:
REMARK  status: ('A' for Active; 'I' for Inactive)
REMARK    1  A    between atoms: C1_1  and  C3_3 
REMARK    2  A    between atoms: C3_3  and  C4_4 
ROOT
HETATM    1  C3  UNL     1     -42.090   5.890  -0.421  1.00 20.00     0.319 C 
HETATM    2  F7  UNL     1     -40.770   5.530  -0.491  1.00 20.00    -0.209 F 
HETATM    3 CL12 UNL     1     -42.897   5.138  -1.833  1.00 20.00    -0.067 Cl
ENDROOT
BRANCH   1   4
HETATM    4  C1  UNL     1     -42.226   7.394  -0.487  1.00 20.00     0.143 C 
HETATM    5  C2  UNL     1     -41.560   8.253   0.297  1.00 20.00     0.289 C 
HETATM    6  F5  UNL     1     -41.743   9.583   0.169  1.00 20.00    -0.171 F 
HETATM    7  F6  UNL     1     -40.693   7.800   1.230  1.00 20.00    -0.171 F 
HETATM    8 CL11 UNL     1     -43.331   8.035  -1.669  1.00 20.00    -0.078 Cl
ENDBRANCH   1   4
BRANCH   1   9
HETATM    9  C4  UNL     1     -42.621   5.278   0.867  1.00 20.00     0.443 C 
HETATM   10  F8  UNL     1     -43.417   4.216   0.600  1.00 20.00    -0.166 F 
HETATM   11  F9  UNL     1     -43.347   6.151   1.598  1.00 20.00    -0.166 F 
HETATM   12  F10 UNL     1     -41.609   4.832   1.644  1.00 20.00    -0.166 F 
ENDBRANCH   1   9
TORSDOF 2
ENDMDL
MODEL 9
REMARK VINA RESULT:      -4.6     12.431     13.536
REMARK  2 active torsions:
REMARK  status: ('A' for Active; 'I' for Inactive)
REMARK    1  A    between atoms: C1_1  and  C3_3 
REMARK    2  A    between atoms: C3_3  and  C4_4 
ROOT
HETATM    1  C3  UNL     1     -34.305  16.240  -4.442  1.00 20.00     0.319 C 
HETATM    2  F7  UNL     1     -34.034  16.942  -5.587  1.00 20.00    -0.209 F 
HETATM    3 CL12 UNL     1     -36.083  16.019  -4.390  1.00 20.00    -0.067 Cl
ENDROOT
BRANCH   1   4
HETATM    4  C1  UNL     1     -33.845  17.018  -3.230  1.00 20.00     0.143 C 
HETATM    5  C2  UNL     1     -34.183  16.726  -1.967  1.00 20.00     0.289 C 
HETATM    6  F5  UNL     1     -33.724  17.475  -0.942  1.00 20.00    -0.171 F 
HETATM    7  F6  UNL     1     -34.988  15.674  -1.696  1.00 20.00    -0.171 F 
HETATM    8 CL11 UNL     1     -32.806  18.384  -3.517  1.00 20.00    -0.078 Cl
ENDBRANCH   1   4
BRANCH   1   9
HETATM    9  C4  UNL     1     -33.620  14.892  -4.607  1.00 20.00     0.443 C 
HETATM   10  F8  UNL     1     -32.386  14.910  -4.051  1.00 20.00    -0.166 F 
HETATM   11  F9  UNL     1     -33.472  14.537  -5.901  1.00 20.00    -0.166 F 
HETATM   12  F10 UNL     1     -34.321  13.915  -3.990  1.00 20.00    -0.166 F 
ENDBRANCH   1   9
TORSDOF 2
ENDMDL
