MODEL 1
REMARK VINA RESULT:      -3.9      0.000      0.000
REMARK  1 active torsions:
REMARK  status: ('A' for Active; 'I' for Inactive)
REMARK    1  A    between atoms: C4_4  and  C10_10 
ROOT
HETATM    1  C1  UNL     1     -33.342  18.084   0.652  1.00 20.00     0.016 C 
HETATM    2  C2  UNL     1     -34.701  18.203  -0.027  1.00 20.00     0.017 C 
HETATM    3  C3  UNL     1     -32.456  18.818  -0.353  1.00 20.00     0.122 C 
HETATM    4  C4  UNL     1     -34.335  18.013  -1.503  1.00 20.00     0.129 C 
HETATM    5  C5  UNL     1     -33.287  18.677   2.052  1.00 20.00     0.013 C 
HETATM    6  C6  UNL     1     -35.766  17.267   0.522  1.00 20.00     0.013 C 
HETATM    7  C7  UNL     1     -30.999  18.394  -0.309  1.00 20.00     0.040 C 
HETATM    8  O11 UNL     1     -32.995  18.524  -1.654  1.00 20.00    -0.380 OA
ENDROOT
BRANCH   4   9
HETATM    9  C10 UNL     1     -34.336  16.576  -2.011  1.00 20.00     0.007 C 
HETATM   10  C8  UNL     1     -35.644  16.260  -2.736  1.00 20.00     0.012 C 
HETATM   11  C9  UNL     1     -33.141  16.328  -2.930  1.00 20.00     0.012 C 
ENDBRANCH   4   9
TORSDOF 1
ENDMDL
MODEL 2
REMARK VINA RESULT:      -3.9      3.505      6.143
REMARK  1 active torsions:
REMARK  status: ('A' for Active; 'I' for Inactive)
REMARK    1  A    between atoms: C4_4  and  C10_10 
ROOT
HETATM    1  C1  UNL     1     -35.961  16.065  -6.352  1.00 20.00     0.016 C 
HETATM    2  C2  UNL     1     -36.623  15.720  -5.023  1.00 20.00     0.017 C 
HETATM    3  C3  UNL     1     -35.056  14.851  -6.544  1.00 20.00     0.122 C 
HETATM    4  C4  UNL     1     -35.463  15.090  -4.246  1.00 20.00     0.129 C 
HETATM    5  C5  UNL     1     -36.936  16.280  -7.501  1.00 20.00     0.013 C 
HETATM    6  C6  UNL     1     -37.326  16.886  -4.345  1.00 20.00     0.013 C 
HETATM    7  C7  UNL     1     -33.848  15.120  -7.423  1.00 20.00     0.040 C 
HETATM    8  O11 UNL     1     -34.609  14.471  -5.230  1.00 20.00    -0.380 OA
ENDROOT
BRANCH   4   9
HETATM    9  C10 UNL     1     -34.602  16.053  -3.436  1.00 20.00     0.007 C 
HETATM   10  C8  UNL     1     -35.003  16.025  -1.961  1.00 20.00     0.012 C 
HETATM   11  C9  UNL     1     -33.121  15.716  -3.594  1.00 20.00     0.012 C 
ENDBRANCH   4   9
TORSDOF 1
ENDMDL
MODEL 3
REMARK VINA RESULT:      -3.9      2.118      4.556
REMARK  1 active torsions:
REMARK  status: ('A' for Active; 'I' for Inactive)
REMARK    1  A    between atoms: C4_4  and  C10_10 
ROOT
HETATM    1  C1  UNL     1     -35.319  15.931  -3.703  1.00 20.00     0.016 C 
HETATM    2  C2  UNL     1     -34.569  15.901  -2.377  1.00 20.00     0.017 C 
HETATM    3  C3  UNL     1     -34.193  15.591  -4.676  1.00 20.00     0.122 C 
HETATM    4  C4  UNL     1     -33.227  16.535  -2.758  1.00 20.00     0.129 C 
HETATM    5  C5  UNL     1     -36.495  14.969  -3.780  1.00 20.00     0.013 C 
HETATM    6  C6  UNL     1     -35.309  16.551  -1.218  1.00 20.00     0.013 C 
HETATM    7  C7  UNL     1     -34.426  16.101  -6.087  1.00 20.00     0.040 C 
HETATM    8  O11 UNL     1     -33.003  16.200  -4.143  1.00 20.00    -0.380 OA
ENDROOT
BRANCH   4   9
HETATM    9  C10 UNL     1     -33.148  18.053  -2.637  1.00 20.00     0.007 C 
HETATM   10  C8  UNL     1     -32.170  18.457  -1.534  1.00 20.00     0.012 C 
HETATM   11  C9  UNL     1     -32.740  18.679  -3.969  1.00 20.00     0.012 C 
ENDBRANCH   4   9
TORSDOF 1
ENDMDL
MODEL 4
REMARK VINA RESULT:      -3.8      2.365      5.535
REMARK  1 active torsions:
REMARK  status: ('A' for Active; 'I' for Inactive)
REMARK    1  A    between atoms: C4_4  and  C10_10 
ROOT
HETATM    1  C1  UNL     1     -35.570  15.067  -4.612  1.00 20.00     0.016 C 
HETATM    2  C2  UNL     1     -34.149  15.610  -4.707  1.00 20.00     0.017 C 
HETATM    3  C3  UNL     1     -36.371  16.366  -4.584  1.00 20.00     0.122 C 
HETATM    4  C4  UNL     1     -34.215  16.832  -3.785  1.00 20.00     0.129 C 
HETATM    5  C5  UNL     1     -35.963  14.139  -5.751  1.00 20.00     0.013 C 
HETATM    6  C6  UNL     1     -33.062  14.595  -4.392  1.00 20.00     0.013 C 
HETATM    7  C7  UNL     1     -37.727  16.236  -3.914  1.00 20.00     0.040 C 
HETATM    8  O11 UNL     1     -35.572  17.316  -3.855  1.00 20.00    -0.380 OA
ENDROOT
BRANCH   4   9
HETATM    9  C10 UNL     1     -33.897  16.578  -2.316  1.00 20.00     0.007 C 
HETATM   10  C8  UNL     1     -32.756  17.480  -1.846  1.00 20.00     0.012 C 
HETATM   11  C9  UNL     1     -35.138  16.791  -1.451  1.00 20.00     0.012 C 
ENDBRANCH   4   9
TORSDOF 1
ENDMDL
MODEL 5
REMARK VINA RESULT:      -3.8      2.930      4.313
REMARK  1 active torsions:
REMARK  status: ('A' for Active; 'I' for Inactive)
REMARK    1  A    between atoms: C4_4  and  C10_10 
ROOT
HETATM    1  C1  UNL     1     -34.046  16.204  -3.005  1.00 20.00     0.016 C 
HETATM    2  C2  UNL     1     -35.341  16.934  -3.343  1.00 20.00     0.017 C 
HETATM    3  C3  UNL     1     -33.600  15.755  -4.394  1.00 20.00     0.122 C 
HETATM    4  C4  UNL     1     -35.927  16.043  -4.443  1.00 20.00     0.129 C 
HETATM    5  C5  UNL     1     -33.014  17.059  -2.285  1.00 20.00     0.013 C 
HETATM    6  C6  UNL     1     -36.245  17.203  -2.150  1.00 20.00     0.013 C 
HETATM    7  C7  UNL     1     -32.700  14.532  -4.384  1.00 20.00     0.040 C 
HETATM    8  O11 UNL     1     -34.802  15.451  -5.124  1.00 20.00    -0.380 OA
ENDROOT
BRANCH   4   9
HETATM    9  C10 UNL     1     -36.826  14.906  -3.973  1.00 20.00     0.007 C 
HETATM   10  C8  UNL     1     -38.279  15.166  -4.371  1.00 20.00     0.012 C 
HETATM   11  C9  UNL     1     -36.348  13.570  -4.539  1.00 20.00     0.012 C 
ENDBRANCH   4   9
TORSDOF 1
ENDMDL
MODEL 6
REMARK VINA RESULT:      -3.8      2.926      4.849
REMARK  1 active torsions:
REMARK  status: ('A' for Active; 'I' for Inactive)
REMARK    1  A    between atoms: C4_4  and  C10_10 
ROOT
HETATM    1  C1  UNL     1     -34.069  15.337  -4.092  1.00 20.00     0.016 C 
HETATM    2  C2  UNL     1     -35.413  14.624  -4.181  1.00 20.00     0.017 C 
HETATM    3  C3  UNL     1     -34.101  15.828  -2.647  1.00 20.00     0.122 C 
HETATM    4  C4  UNL     1     -36.317  15.552  -3.363  1.00 20.00     0.129 C 
HETATM    5  C5  UNL     1     -32.870  14.454  -4.404  1.00 20.00     0.013 C 
HETATM    6  C6  UNL     1     -35.876  14.320  -5.597  1.00 20.00     0.013 C 
HETATM    7  C7  UNL     1     -33.230  17.046  -2.394  1.00 20.00     0.040 C 
HETATM    8  O11 UNL     1     -35.472  16.161  -2.365  1.00 20.00    -0.380 OA
ENDROOT
BRANCH   4   9
HETATM    9  C10 UNL     1     -36.993  16.677  -4.137  1.00 20.00     0.007 C 
HETATM   10  C8  UNL     1     -38.501  16.439  -4.230  1.00 20.00     0.012 C 
HETATM   11  C9  UNL     1     -36.705  18.029  -3.486  1.00 20.00     0.012 C 
ENDBRANCH   4   9
TORSDOF 1
ENDMDL
MODEL 7
REMARK VINA RESULT:      -3.7      3.380      5.365
REMARK  1 active torsions:
REMARK  status: ('A' for Active; 'I' for Inactive)
REMARK    1  A    between atoms: C4_4  and  C10_10 
ROOT
HETATM    1  C1  UNL     1     -35.273  16.211  -3.130  1.00 20.00     0.016 C 
HETATM    2  C2  UNL     1     -34.412  15.136  -3.782  1.00 20.00     0.017 C 
HETATM    3  C3  UNL     1     -36.661  15.796  -3.612  1.00 20.00     0.122 C 
HETATM    4  C4  UNL     1     -35.090  14.972  -5.147  1.00 20.00     0.129 C 
HETATM    5  C5  UNL     1     -35.154  16.275  -1.615  1.00 20.00     0.013 C 
HETATM    6  C6  UNL     1     -32.924  15.449  -3.810  1.00 20.00     0.013 C 
HETATM    7  C7  UNL     1     -37.662  16.937  -3.654  1.00 20.00     0.040 C 
HETATM    8  O11 UNL     1     -36.485  15.272  -4.941  1.00 20.00    -0.380 OA
ENDROOT
BRANCH   4   9
HETATM    9  C10 UNL     1     -34.585  15.888  -6.256  1.00 20.00     0.007 C 
HETATM   10  C8  UNL     1     -33.831  15.086  -7.317  1.00 20.00     0.012 C 
HETATM   11  C9  UNL     1     -35.743  16.656  -6.890  1.00 20.00     0.012 C 
ENDBRANCH   4   9
TORSDOF 1
ENDMDL
MODEL 8
REMARK VINA RESULT:      -3.7      3.098      5.033
REMARK  1 active torsions:
REMARK  status: ('A' for Active; 'I' for Inactive)
REMARK    1  A    between atoms: C4_4  and  C10_10 
ROOT
HETATM    1  C1  UNL     1     -36.216  16.857  -3.187  1.00 20.00     0.016 C 
HETATM    2  C2  UNL     1     -35.160  15.985  -2.518  1.00 20.00     0.017 C 
HETATM    3  C3  UNL     1     -37.074  15.794  -3.868  1.00 20.00     0.122 C 
HETATM    4  C4  UNL     1     -34.923  14.905  -3.578  1.00 20.00     0.129 C 
HETATM    5  C5  UNL     1     -36.997  17.742  -2.228  1.00 20.00     0.013 C 
HETATM    6  C6  UNL     1     -33.927  16.737  -2.044  1.00 20.00     0.013 C 
HETATM    7  C7  UNL     1     -37.838  16.305  -5.077  1.00 20.00     0.040 C 
HETATM    8  O11 UNL     1     -36.171  14.754  -4.285  1.00 20.00    -0.380 OA
ENDROOT
BRANCH   4   9
HETATM    9  C10 UNL     1     -33.847  15.213  -4.614  1.00 20.00     0.007 C 
HETATM   10  C8  UNL     1     -32.617  14.333  -4.392  1.00 20.00     0.012 C 
HETATM   11  C9  UNL     1     -34.391  15.024  -6.029  1.00 20.00     0.012 C 
ENDBRANCH   4   9
TORSDOF 1
ENDMDL
MODEL 9
REMARK VINA RESULT:      -3.7      2.247      3.769
REMARK  1 active torsions:
REMARK  status: ('A' for Active; 'I' for Inactive)
REMARK    1  A    between atoms: C4_4  and  C10_10 
ROOT
HETATM    1  C1  UNL     1     -33.810  17.489  -2.573  1.00 20.00     0.016 C 
HETATM    2  C2  UNL     1     -33.847  15.968  -2.663  1.00 20.00     0.017 C 
HETATM    3  C3  UNL     1     -34.912  17.741  -1.547  1.00 20.00     0.122 C 
HETATM    4  C4  UNL     1     -35.350  15.682  -2.582  1.00 20.00     0.129 C 
HETATM    5  C5  UNL     1     -32.461  18.060  -2.165  1.00 20.00     0.013 C 
HETATM    6  C6  UNL     1     -33.121  15.388  -3.867  1.00 20.00     0.013 C 
HETATM    7  C7  UNL     1     -35.544  19.117  -1.651  1.00 20.00     0.040 C 
HETATM    8  O11 UNL     1     -35.918  16.739  -1.782  1.00 20.00    -0.380 OA
ENDROOT
BRANCH   4   9
HETATM    9  C10 UNL     1     -36.098  15.664  -3.910  1.00 20.00     0.007 C 
HETATM   10  C8  UNL     1     -36.546  14.244  -4.258  1.00 20.00     0.012 C 
HETATM   11  C9  UNL     1     -37.298  16.608  -3.867  1.00 20.00     0.012 C 
ENDBRANCH   4   9
TORSDOF 1
ENDMDL
