MODEL 1
REMARK VINA RESULT:      -4.2      0.000      0.000
REMARK  0 active torsions:
REMARK  status: ('A' for Active; 'I' for Inactive)
ROOT
HETATM    1  C1  UNL     1     -23.032  17.566   9.861  1.00 20.00     0.017 C 
HETATM    2  C2  UNL     1     -24.144  18.610   9.849  1.00 20.00     0.027 C 
HETATM    3  C3  UNL     1     -23.094  17.051  11.300  1.00 20.00     0.123 C 
HETATM    4  C4  UNL     1     -25.185  17.937  10.733  1.00 20.00     0.197 C 
HETATM    5  C5  UNL     1     -21.678  18.081   9.399  1.00 20.00     0.013 C 
HETATM    6  C6  UNL     1     -24.663  18.946   8.457  1.00 20.00     0.014 C 
HETATM    7  C7  UNL     1     -22.299  17.845  12.329  1.00 20.00     0.040 C 
HETATM    8  O8  UNL     1     -24.485  17.113  11.674  1.00 20.00    -0.369 OA
HETATM    9 BR9  UNL     1     -26.260  19.248  11.682  1.00 20.00    -0.061 Br
ENDROOT
TORSDOF 0
ENDMDL
MODEL 2
REMARK VINA RESULT:      -3.9     16.771     18.050
REMARK  0 active torsions:
REMARK  status: ('A' for Active; 'I' for Inactive)
ROOT
HETATM    1  C1  UNL     1     -34.823  14.634  -3.534  1.00 20.00     0.017 C 
HETATM    2  C2  UNL     1     -34.757  16.074  -3.034  1.00 20.00     0.027 C 
HETATM    3  C3  UNL     1     -33.667  14.592  -4.536  1.00 20.00     0.123 C 
HETATM    4  C4  UNL     1     -33.251  16.297  -2.988  1.00 20.00     0.197 C 
HETATM    5  C5  UNL     1     -36.182  14.215  -4.072  1.00 20.00     0.013 C 
HETATM    6  C6  UNL     1     -35.439  16.294  -1.690  1.00 20.00     0.014 C 
HETATM    7  C7  UNL     1     -33.991  15.051  -5.952  1.00 20.00     0.040 C 
HETATM    8  O8  UNL     1     -32.661  15.477  -4.005  1.00 20.00    -0.369 OA
HETATM    9 BR9  UNL     1     -32.803  18.160  -3.307  1.00 20.00    -0.061 Br
ENDROOT
TORSDOF 0
ENDMDL
MODEL 3
REMARK VINA RESULT:      -3.8     16.967     18.269
REMARK  0 active torsions:
REMARK  status: ('A' for Active; 'I' for Inactive)
ROOT
HETATM    1  C1  UNL     1     -34.050  15.905  -2.669  1.00 20.00     0.017 C 
HETATM    2  C2  UNL     1     -33.910  15.389  -4.097  1.00 20.00     0.027 C 
HETATM    3  C3  UNL     1     -35.546  16.216  -2.587  1.00 20.00     0.123 C 
HETATM    4  C4  UNL     1     -35.207  14.606  -4.252  1.00 20.00     0.197 C 
HETATM    5  C5  UNL     1     -33.114  17.051  -2.318  1.00 20.00     0.013 C 
HETATM    6  C6  UNL     1     -32.666  14.542  -4.331  1.00 20.00     0.014 C 
HETATM    7  C7  UNL     1     -35.970  17.594  -3.080  1.00 20.00     0.040 C 
HETATM    8  O8  UNL     1     -36.192  15.233  -3.419  1.00 20.00    -0.369 OA
HETATM    9 BR9  UNL     1     -35.815  14.604  -6.097  1.00 20.00    -0.061 Br
ENDROOT
TORSDOF 0
ENDMDL
MODEL 4
REMARK VINA RESULT:      -3.6     18.099     19.414
REMARK  0 active torsions:
REMARK  status: ('A' for Active; 'I' for Inactive)
ROOT
HETATM    1  C1  UNL     1     -35.205  15.147  -3.475  1.00 20.00     0.017 C 
HETATM    2  C2  UNL     1     -34.181  15.286  -4.596  1.00 20.00     0.027 C 
HETATM    3  C3  UNL     1     -36.508  15.517  -4.186  1.00 20.00     0.123 C 
HETATM    4  C4  UNL     1     -34.975  14.758  -5.783  1.00 20.00     0.197 C 
HETATM    5  C5  UNL     1     -34.883  15.948  -2.223  1.00 20.00     0.013 C 
HETATM    6  C6  UNL     1     -32.886  14.521  -4.351  1.00 20.00     0.014 C 
HETATM    7  C7  UNL     1     -36.839  17.003  -4.244  1.00 20.00     0.040 C 
HETATM    8  O8  UNL     1     -36.358  15.046  -5.539  1.00 20.00    -0.369 OA
HETATM    9 BR9  UNL     1     -34.413  15.601  -7.441  1.00 20.00    -0.061 Br
ENDROOT
TORSDOF 0
ENDMDL
MODEL 5
REMARK VINA RESULT:      -3.6     18.118     19.140
REMARK  0 active torsions:
REMARK  status: ('A' for Active; 'I' for Inactive)
ROOT
HETATM    1  C1  UNL     1     -34.270  15.588  -3.617  1.00 20.00     0.017 C 
HETATM    2  C2  UNL     1     -34.592  16.588  -4.724  1.00 20.00     0.027 C 
HETATM    3  C3  UNL     1     -34.590  14.252  -4.293  1.00 20.00     0.123 C 
HETATM    4  C4  UNL     1     -34.103  15.830  -5.952  1.00 20.00     0.197 C 
HETATM    5  C5  UNL     1     -34.984  15.853  -2.301  1.00 20.00     0.013 C 
HETATM    6  C6  UNL     1     -33.920  17.943  -4.547  1.00 20.00     0.014 C 
HETATM    7  C7  UNL     1     -36.042  13.798  -4.221  1.00 20.00     0.040 C 
HETATM    8  O8  UNL     1     -34.251  14.430  -5.682  1.00 20.00    -0.369 OA
HETATM    9 BR9  UNL     1     -35.131  16.306  -7.530  1.00 20.00    -0.061 Br
ENDROOT
TORSDOF 0
ENDMDL
MODEL 6
REMARK VINA RESULT:      -3.6     17.016     18.446
REMARK  0 active torsions:
REMARK  status: ('A' for Active; 'I' for Inactive)
ROOT
HETATM    1  C1  UNL     1     -34.328  14.788  -3.765  1.00 20.00     0.017 C 
HETATM    2  C2  UNL     1     -35.324  15.445  -4.715  1.00 20.00     0.027 C 
HETATM    3  C3  UNL     1     -34.327  15.759  -2.583  1.00 20.00     0.123 C 
HETATM    4  C4  UNL     1     -36.354  15.982  -3.731  1.00 20.00     0.197 C 
HETATM    5  C5  UNL     1     -32.970  14.492  -4.381  1.00 20.00     0.013 C 
HETATM    6  C6  UNL     1     -35.916  14.493  -5.746  1.00 20.00     0.014 C 
HETATM    7  C7  UNL     1     -33.374  16.943  -2.692  1.00 20.00     0.040 C 
HETATM    8  O8  UNL     1     -35.669  16.279  -2.507  1.00 20.00    -0.369 OA
HETATM    9 BR9  UNL     1     -37.208  17.590  -4.410  1.00 20.00    -0.061 Br
ENDROOT
TORSDOF 0
ENDMDL
MODEL 7
REMARK VINA RESULT:      -3.4     13.991     15.282
REMARK  0 active torsions:
REMARK  status: ('A' for Active; 'I' for Inactive)
ROOT
HETATM    1  C1  UNL     1     -33.581  18.631  -0.176  1.00 20.00     0.017 C 
HETATM    2  C2  UNL     1     -34.059  17.396  -0.932  1.00 20.00     0.027 C 
HETATM    3  C3  UNL     1     -32.260  18.945  -0.881  1.00 20.00     0.123 C 
HETATM    4  C4  UNL     1     -33.622  17.736  -2.351  1.00 20.00     0.197 C 
HETATM    5  C5  UNL     1     -33.502  18.456   1.332  1.00 20.00     0.013 C 
HETATM    6  C6  UNL     1     -35.555  17.135  -0.810  1.00 20.00     0.014 C 
HETATM    7  C7  UNL     1     -31.033  18.207  -0.361  1.00 20.00     0.040 C 
HETATM    8  O8  UNL     1     -32.454  18.563  -2.257  1.00 20.00    -0.369 OA
HETATM    9 BR9  UNL     1     -33.209  16.132  -3.366  1.00 20.00    -0.061 Br
ENDROOT
TORSDOF 0
ENDMDL
MODEL 8
REMARK VINA RESULT:      -3.4     17.776     19.179
REMARK  0 active torsions:
REMARK  status: ('A' for Active; 'I' for Inactive)
ROOT
HETATM    1  C1  UNL     1     -34.049  15.768  -4.447  1.00 20.00     0.017 C 
HETATM    2  C2  UNL     1     -35.258  15.799  -3.518  1.00 20.00     0.027 C 
HETATM    3  C3  UNL     1     -34.688  16.042  -5.810  1.00 20.00     0.123 C 
HETATM    4  C4  UNL     1     -36.077  16.920  -4.144  1.00 20.00     0.197 C 
HETATM    5  C5  UNL     1     -33.212  14.502  -4.350  1.00 20.00     0.013 C 
HETATM    6  C6  UNL     1     -34.909  16.054  -2.057  1.00 20.00     0.014 C 
HETATM    7  C7  UNL     1     -35.233  14.827  -6.550  1.00 20.00     0.040 C 
HETATM    8  O8  UNL     1     -35.791  16.931  -5.549  1.00 20.00    -0.369 OA
HETATM    9 BR9  UNL     1     -37.979  16.646  -3.863  1.00 20.00    -0.061 Br
ENDROOT
TORSDOF 0
ENDMDL
MODEL 9
REMARK VINA RESULT:      -3.3     16.463     18.084
REMARK  0 active torsions:
REMARK  status: ('A' for Active; 'I' for Inactive)
ROOT
HETATM    1  C1  UNL     1     -34.119  15.828  -4.203  1.00 20.00     0.017 C 
HETATM    2  C2  UNL     1     -34.164  16.456  -2.813  1.00 20.00     0.027 C 
HETATM    3  C3  UNL     1     -35.604  15.741  -4.561  1.00 20.00     0.123 C 
HETATM    4  C4  UNL     1     -35.317  17.437  -2.974  1.00 20.00     0.197 C 
HETATM    5  C5  UNL     1     -33.340  14.525  -4.282  1.00 20.00     0.013 C 
HETATM    6  C6  UNL     1     -32.861  17.123  -2.393  1.00 20.00     0.014 C 
HETATM    7  C7  UNL     1     -36.338  14.498  -4.073  1.00 20.00     0.040 C 
HETATM    8  O8  UNL     1     -36.220  16.888  -3.944  1.00 20.00    -0.369 OA
HETATM    9 BR9  UNL     1     -36.250  17.713  -1.293  1.00 20.00    -0.061 Br
ENDROOT
TORSDOF 0
ENDMDL
