MODEL 1
REMARK VINA RESULT:      -4.2      0.000      0.000
REMARK  1 active torsions:
REMARK  status: ('A' for Active; 'I' for Inactive)
REMARK    1  A    between atoms: C4_4  and  C10_10 
ROOT
HETATM    1  C1  UNL     1     -35.363  14.800  -5.272  1.00 20.00     0.016 C 
HETATM    2  C2  UNL     1     -33.973  15.365  -4.960  1.00 20.00     0.017 C 
HETATM    3  C3  UNL     1     -36.189  16.088  -5.239  1.00 20.00     0.122 C 
HETATM    4  C4  UNL     1     -34.255  16.544  -4.016  1.00 20.00     0.129 C 
HETATM    5  C5  UNL     1     -35.843  13.723  -4.299  1.00 20.00     0.013 C 
HETATM    6  C6  UNL     1     -32.915  14.369  -4.509  1.00 20.00     0.013 C 
HETATM    7  C7  UNL     1     -37.688  15.933  -5.062  1.00 20.00     0.040 C 
HETATM    8  O11 UNL     1     -35.655  16.859  -4.152  1.00 20.00    -0.380 OA
ENDROOT
BRANCH   4   9
HETATM    9  C10 UNL     1     -33.958  16.336  -2.539  1.00 20.00     0.007 C 
HETATM   10  C8  UNL     1     -32.936  17.359  -2.041  1.00 20.00     0.012 C 
HETATM   11  C9  UNL     1     -35.240  16.419  -1.711  1.00 20.00     0.012 C 
ENDBRANCH   4   9
TORSDOF 1
ENDMDL
MODEL 2
REMARK VINA RESULT:      -4.0      1.554      3.080
REMARK  1 active torsions:
REMARK  status: ('A' for Active; 'I' for Inactive)
REMARK    1  A    between atoms: C4_4  and  C10_10 
ROOT
HETATM    1  C1  UNL     1     -35.295  15.611  -3.265  1.00 20.00     0.016 C 
HETATM    2  C2  UNL     1     -34.716  16.132  -1.945  1.00 20.00     0.017 C 
HETATM    3  C3  UNL     1     -34.013  15.129  -3.948  1.00 20.00     0.122 C 
HETATM    4  C4  UNL     1     -33.331  16.669  -2.333  1.00 20.00     0.129 C 
HETATM    5  C5  UNL     1     -36.079  16.651  -4.067  1.00 20.00     0.013 C 
HETATM    6  C6  UNL     1     -35.602  17.060  -1.128  1.00 20.00     0.013 C 
HETATM    7  C7  UNL     1     -34.069  14.944  -5.453  1.00 20.00     0.040 C 
HETATM    8  O11 UNL     1     -33.013  16.106  -3.622  1.00 20.00    -0.380 OA
ENDROOT
BRANCH   4   9
HETATM    9  C10 UNL     1     -33.172  18.179  -2.425  1.00 20.00     0.007 C 
HETATM   10  C8  UNL     1     -32.060  18.666  -1.495  1.00 20.00     0.012 C 
HETATM   11  C9  UNL     1     -32.889  18.609  -3.864  1.00 20.00     0.012 C 
ENDBRANCH   4   9
TORSDOF 1
ENDMDL
MODEL 3
REMARK VINA RESULT:      -4.0      1.807      3.320
REMARK  1 active torsions:
REMARK  status: ('A' for Active; 'I' for Inactive)
REMARK    1  A    between atoms: C4_4  and  C10_10 
ROOT
HETATM    1  C1  UNL     1     -35.941  14.926  -3.481  1.00 20.00     0.016 C 
HETATM    2  C2  UNL     1     -34.668  14.562  -4.252  1.00 20.00     0.017 C 
HETATM    3  C3  UNL     1     -36.996  14.296  -4.393  1.00 20.00     0.122 C 
HETATM    4  C4  UNL     1     -35.104  14.596  -5.725  1.00 20.00     0.129 C 
HETATM    5  C5  UNL     1     -36.133  16.424  -3.243  1.00 20.00     0.013 C 
HETATM    6  C6  UNL     1     -33.408  15.337  -3.897  1.00 20.00     0.013 C 
HETATM    7  C7  UNL     1     -38.421  14.796  -4.237  1.00 20.00     0.040 C 
HETATM    8  O11 UNL     1     -36.544  14.546  -5.733  1.00 20.00    -0.380 OA
ENDROOT
BRANCH   4   9
HETATM    9  C10 UNL     1     -34.667  15.796  -6.551  1.00 20.00     0.007 C 
HETATM   10  C8  UNL     1     -33.876  15.351  -7.782  1.00 20.00     0.012 C 
HETATM   11  C9  UNL     1     -35.874  16.636  -6.969  1.00 20.00     0.012 C 
ENDBRANCH   4   9
TORSDOF 1
ENDMDL
MODEL 4
REMARK VINA RESULT:      -4.0      1.268      3.466
REMARK  1 active torsions:
REMARK  status: ('A' for Active; 'I' for Inactive)
REMARK    1  A    between atoms: C4_4  and  C10_10 
ROOT
HETATM    1  C1  UNL     1     -34.091  15.968  -2.518  1.00 20.00     0.016 C 
HETATM    2  C2  UNL     1     -34.303  14.907  -3.604  1.00 20.00     0.017 C 
HETATM    3  C3  UNL     1     -35.537  16.414  -2.292  1.00 20.00     0.122 C 
HETATM    4  C4  UNL     1     -35.498  15.437  -4.411  1.00 20.00     0.129 C 
HETATM    5  C5  UNL     1     -33.141  17.099  -2.914  1.00 20.00     0.013 C 
HETATM    6  C6  UNL     1     -33.077  14.487  -4.399  1.00 20.00     0.013 C 
HETATM    7  C7  UNL     1     -35.740  17.758  -1.616  1.00 20.00     0.040 C 
HETATM    8  O11 UNL     1     -36.139  16.438  -3.596  1.00 20.00    -0.380 OA
ENDROOT
BRANCH   4   9
HETATM    9  C10 UNL     1     -35.200  16.053  -5.769  1.00 20.00     0.007 C 
HETATM   10  C8  UNL     1     -35.780  15.195  -6.895  1.00 20.00     0.012 C 
HETATM   11  C9  UNL     1     -35.746  17.479  -5.850  1.00 20.00     0.012 C 
ENDBRANCH   4   9
TORSDOF 1
ENDMDL
MODEL 5
REMARK VINA RESULT:      -3.9      1.115      3.653
REMARK  1 active torsions:
REMARK  status: ('A' for Active; 'I' for Inactive)
REMARK    1  A    between atoms: C4_4  and  C10_10 
ROOT
HETATM    1  C1  UNL     1     -34.428  14.969  -3.231  1.00 20.00     0.016 C 
HETATM    2  C2  UNL     1     -35.890  14.869  -3.681  1.00 20.00     0.017 C 
HETATM    3  C3  UNL     1     -34.421  16.385  -2.652  1.00 20.00     0.122 C 
HETATM    4  C4  UNL     1     -36.245  16.303  -4.105  1.00 20.00     0.129 C 
HETATM    5  C5  UNL     1     -33.405  14.743  -4.344  1.00 20.00     0.013 C 
HETATM    6  C6  UNL     1     -36.227  13.763  -4.668  1.00 20.00     0.013 C 
HETATM    7  C7  UNL     1     -33.068  17.053  -2.494  1.00 20.00     0.040 C 
HETATM    8  O11 UNL     1     -35.241  17.166  -3.536  1.00 20.00    -0.380 OA
ENDROOT
BRANCH   4   9
HETATM    9  C10 UNL     1     -36.323  16.586  -5.597  1.00 20.00     0.007 C 
HETATM   10  C8  UNL     1     -37.751  16.947  -6.009  1.00 20.00     0.012 C 
HETATM   11  C9  UNL     1     -35.357  17.704  -5.989  1.00 20.00     0.012 C 
ENDBRANCH   4   9
TORSDOF 1
ENDMDL
MODEL 6
REMARK VINA RESULT:      -3.7      1.614      2.843
REMARK  1 active torsions:
REMARK  status: ('A' for Active; 'I' for Inactive)
REMARK    1  A    between atoms: C4_4  and  C10_10 
ROOT
HETATM    1  C1  UNL     1     -35.861  14.762  -6.466  1.00 20.00     0.016 C 
HETATM    2  C2  UNL     1     -35.913  14.328  -4.998  1.00 20.00     0.017 C 
HETATM    3  C3  UNL     1     -34.357  14.996  -6.624  1.00 20.00     0.122 C 
HETATM    4  C4  UNL     1     -34.784  15.130  -4.334  1.00 20.00     0.129 C 
HETATM    5  C5  UNL     1     -36.722  15.981  -6.799  1.00 20.00     0.013 C 
HETATM    6  C6  UNL     1     -37.273  14.377  -4.318  1.00 20.00     0.013 C 
HETATM    7  C7  UNL     1     -33.917  15.856  -7.794  1.00 20.00     0.040 C 
HETATM    8  O11 UNL     1     -33.932  15.606  -5.395  1.00 20.00    -0.380 OA
ENDROOT
BRANCH   4   9
HETATM    9  C10 UNL     1     -35.188  16.322  -3.481  1.00 20.00     0.007 C 
HETATM   10  C8  UNL     1     -34.794  16.104  -2.019  1.00 20.00     0.012 C 
HETATM   11  C9  UNL     1     -34.559  17.610  -4.014  1.00 20.00     0.012 C 
ENDBRANCH   4   9
TORSDOF 1
ENDMDL
MODEL 7
REMARK VINA RESULT:      -3.7      1.535      4.070
REMARK  1 active torsions:
REMARK  status: ('A' for Active; 'I' for Inactive)
REMARK    1  A    between atoms: C4_4  and  C10_10 
ROOT
HETATM    1  C1  UNL     1     -33.957  18.464  -2.406  1.00 20.00     0.016 C 
HETATM    2  C2  UNL     1     -35.115  17.469  -2.281  1.00 20.00     0.017 C 
HETATM    3  C3  UNL     1     -33.919  18.642  -3.925  1.00 20.00     0.122 C 
HETATM    4  C4  UNL     1     -35.007  16.612  -3.552  1.00 20.00     0.129 C 
HETATM    5  C5  UNL     1     -32.639  17.983  -1.798  1.00 20.00     0.013 C 
HETATM    6  C6  UNL     1     -35.234  16.719  -0.963  1.00 20.00     0.013 C 
HETATM    7  C7  UNL     1     -32.638  19.204  -4.515  1.00 20.00     0.040 C 
HETATM    8  O11 UNL     1     -34.167  17.338  -4.471  1.00 20.00    -0.380 OA
ENDROOT
BRANCH   4   9
HETATM    9  C10 UNL     1     -34.438  15.210  -3.397  1.00 20.00     0.007 C 
HETATM   10  C8  UNL     1     -35.415  14.164  -3.936  1.00 20.00     0.012 C 
HETATM   11  C9  UNL     1     -33.088  15.090  -4.103  1.00 20.00     0.012 C 
ENDBRANCH   4   9
TORSDOF 1
ENDMDL
MODEL 8
REMARK VINA RESULT:      -3.7      1.326      3.676
REMARK  1 active torsions:
REMARK  status: ('A' for Active; 'I' for Inactive)
REMARK    1  A    between atoms: C4_4  and  C10_10 
ROOT
HETATM    1  C1  UNL     1     -34.190  16.359  -2.057  1.00 20.00     0.016 C 
HETATM    2  C2  UNL     1     -34.700  15.363  -3.103  1.00 20.00     0.017 C 
HETATM    3  C3  UNL     1     -35.520  16.928  -1.557  1.00 20.00     0.122 C 
HETATM    4  C4  UNL     1     -35.967  16.028  -3.663  1.00 20.00     0.129 C 
HETATM    5  C5  UNL     1     -33.224  17.412  -2.602  1.00 20.00     0.013 C 
HETATM    6  C6  UNL     1     -33.688  14.861  -4.120  1.00 20.00     0.013 C 
HETATM    7  C7  UNL     1     -35.464  18.259  -0.830  1.00 20.00     0.040 C 
HETATM    8  O11 UNL     1     -36.347  17.053  -2.724  1.00 20.00    -0.380 OA
ENDROOT
BRANCH   4   9
HETATM    9  C10 UNL     1     -35.865  16.664  -5.041  1.00 20.00     0.007 C 
HETATM   10  C8  UNL     1     -36.857  16.020  -6.011  1.00 20.00     0.012 C 
HETATM   11  C9  UNL     1     -36.099  18.172  -4.962  1.00 20.00     0.012 C 
ENDBRANCH   4   9
TORSDOF 1
ENDMDL
MODEL 9
REMARK VINA RESULT:      -3.7      1.556      2.846
REMARK  1 active torsions:
REMARK  status: ('A' for Active; 'I' for Inactive)
REMARK    1  A    between atoms: C4_4  and  C10_10 
ROOT
HETATM    1  C1  UNL     1     -34.395  15.336  -3.053  1.00 20.00     0.016 C 
HETATM    2  C2  UNL     1     -33.366  16.321  -3.617  1.00 20.00     0.017 C 
HETATM    3  C3  UNL     1     -34.981  14.785  -4.355  1.00 20.00     0.122 C 
HETATM    4  C4  UNL     1     -34.014  16.834  -4.912  1.00 20.00     0.129 C 
HETATM    5  C5  UNL     1     -35.429  15.966  -2.119  1.00 20.00     0.013 C 
HETATM    6  C6  UNL     1     -32.830  17.374  -2.660  1.00 20.00     0.013 C 
HETATM    7  C7  UNL     1     -36.335  14.105  -4.261  1.00 20.00     0.040 C 
HETATM    8  O11 UNL     1     -35.069  15.909  -5.243  1.00 20.00    -0.380 OA
ENDROOT
BRANCH   4   9
HETATM    9  C10 UNL     1     -34.604  18.235  -4.885  1.00 20.00     0.007 C 
HETATM   10  C8  UNL     1     -33.902  19.140  -5.898  1.00 20.00     0.012 C 
HETATM   11  C9  UNL     1     -36.107  18.197  -5.157  1.00 20.00     0.012 C 
ENDBRANCH   4   9
TORSDOF 1
ENDMDL
