MODEL 1
REMARK VINA RESULT:      -4.2      0.000      0.000
REMARK  1 active torsions:
REMARK  status: ('A' for Active; 'I' for Inactive)
REMARK    1  A    between atoms: C7_7  and  N8_8 
ROOT
HETATM    1  C1  UNL     1     -34.380   6.534   5.667  1.00 20.00     0.065 C 
HETATM    2  C2  UNL     1     -33.103   6.827   4.873  1.00 20.00     0.275 C 
HETATM    3  C3  UNL     1     -33.623   5.308   3.054  1.00 20.00     0.306 C 
HETATM    4  C4  UNL     1     -35.072   5.289   5.217  1.00 20.00     0.154 A 
HETATM    5  C5  UNL     1     -34.718   4.706   3.881  1.00 20.00     0.179 A 
HETATM    6  N8  UNL     1     -33.358   6.707   3.429  1.00 20.00     0.090 N 
HETATM    7  O9  UNL     1     -34.253   4.124   5.115  1.00 20.00    -0.374 OA
ENDROOT
BRANCH   6   8
HETATM    8  C7  UNL     1     -32.226   7.228   2.662  1.00 20.00     0.268 C 
HETATM    9  C6  UNL     1     -32.689   7.951   1.443  1.00 20.00     0.037 C 
ENDBRANCH   6   8
TORSDOF 1
ENDMDL
MODEL 2
REMARK VINA RESULT:      -3.8     16.404     17.124
REMARK  1 active torsions:
REMARK  status: ('A' for Active; 'I' for Inactive)
REMARK    1  A    between atoms: C7_7  and  N8_8 
ROOT
HETATM    1  C1  UNL     1     -23.845  18.580   8.515  1.00 20.00     0.065 C 
HETATM    2  C2  UNL     1     -24.683  18.162   9.727  1.00 20.00     0.275 C 
HETATM    3  C3  UNL     1     -22.798  17.379  11.038  1.00 20.00     0.306 C 
HETATM    4  C4  UNL     1     -22.470  17.997   8.530  1.00 20.00     0.154 A 
HETATM    5  C5  UNL     1     -21.934  17.438   9.815  1.00 20.00     0.179 A 
HETATM    6  N8  UNL     1     -23.913  18.338  10.968  1.00 20.00     0.090 N 
HETATM    7  O9  UNL     1     -22.393  16.587   8.745  1.00 20.00    -0.374 OA
ENDROOT
BRANCH   6   8
HETATM    8  C7  UNL     1     -24.781  18.187  12.136  1.00 20.00     0.268 C 
HETATM    9  C6  UNL     1     -26.029  18.990  11.987  1.00 20.00     0.037 C 
ENDBRANCH   6   8
TORSDOF 1
ENDMDL
MODEL 3
REMARK VINA RESULT:      -3.6     11.722     12.999
REMARK  1 active torsions:
REMARK  status: ('A' for Active; 'I' for Inactive)
REMARK    1  A    between atoms: C7_7  and  N8_8 
ROOT
HETATM    1  C1  UNL     1     -34.213  14.650  -3.920  1.00 20.00     0.065 C 
HETATM    2  C2  UNL     1     -33.660  14.698  -5.347  1.00 20.00     0.275 C 
HETATM    3  C3  UNL     1     -35.812  14.397  -6.427  1.00 20.00     0.306 C 
HETATM    4  C4  UNL     1     -35.595  14.088  -3.850  1.00 20.00     0.154 A 
HETATM    5  C5  UNL     1     -36.409  14.008  -5.109  1.00 20.00     0.179 A 
HETATM    6  N8  UNL     1     -34.650  15.287  -6.261  1.00 20.00     0.090 N 
HETATM    7  O9  UNL     1     -35.795  12.843  -4.521  1.00 20.00    -0.374 OA
ENDROOT
BRANCH   6   8
HETATM    8  C7  UNL     1     -34.044  15.570  -7.563  1.00 20.00     0.268 C 
HETATM    9  C6  UNL     1     -34.064  17.032  -7.858  1.00 20.00     0.037 C 
ENDBRANCH   6   8
TORSDOF 1
ENDMDL
MODEL 4
REMARK VINA RESULT:      -3.6     12.039     12.446
REMARK  1 active torsions:
REMARK  status: ('A' for Active; 'I' for Inactive)
REMARK    1  A    between atoms: C7_7  and  N8_8 
ROOT
HETATM    1  C1  UNL     1     -34.808  16.266  -2.077  1.00 20.00     0.065 C 
HETATM    2  C2  UNL     1     -35.767  15.658  -3.105  1.00 20.00     0.275 C 
HETATM    3  C3  UNL     1     -34.019  14.823  -4.567  1.00 20.00     0.306 C 
HETATM    4  C4  UNL     1     -33.416  16.415  -2.596  1.00 20.00     0.154 A 
HETATM    5  C5  UNL     1     -33.015  15.648  -3.823  1.00 20.00     0.179 A 
HETATM    6  N8  UNL     1     -35.168  14.462  -3.719  1.00 20.00     0.090 N 
HETATM    7  O9  UNL     1     -33.290  17.063  -3.863  1.00 20.00    -0.374 OA
ENDROOT
BRANCH   6   8
HETATM    8  C7  UNL     1     -36.165  13.735  -4.506  1.00 20.00     0.268 C 
HETATM    9  C6  UNL     1     -37.492  14.413  -4.451  1.00 20.00     0.037 C 
ENDBRANCH   6   8
TORSDOF 1
ENDMDL
MODEL 5
REMARK VINA RESULT:      -3.5     11.862     12.203
REMARK  1 active torsions:
REMARK  status: ('A' for Active; 'I' for Inactive)
REMARK    1  A    between atoms: C7_7  and  N8_8 
ROOT
HETATM    1  C1  UNL     1     -35.952  15.275  -3.414  1.00 20.00     0.065 C 
HETATM    2  C2  UNL     1     -34.953  15.852  -2.407  1.00 20.00     0.275 C 
HETATM    3  C3  UNL     1     -33.001  15.495  -3.804  1.00 20.00     0.306 C 
HETATM    4  C4  UNL     1     -35.296  14.471  -4.488  1.00 20.00     0.154 A 
HETATM    5  C5  UNL     1     -33.819  14.623  -4.707  1.00 20.00     0.179 A 
HETATM    6  N8  UNL     1     -33.830  16.494  -3.109  1.00 20.00     0.090 N 
HETATM    7  O9  UNL     1     -34.377  13.471  -4.045  1.00 20.00    -0.374 OA
ENDROOT
BRANCH   6   8
HETATM    8  C7  UNL     1     -33.011  17.264  -2.172  1.00 20.00     0.268 C 
HETATM    9  C6  UNL     1     -33.827  17.761  -1.027  1.00 20.00     0.037 C 
ENDBRANCH   6   8
TORSDOF 1
ENDMDL
MODEL 6
REMARK VINA RESULT:      -3.5     12.104     12.949
REMARK  1 active torsions:
REMARK  status: ('A' for Active; 'I' for Inactive)
REMARK    1  A    between atoms: C7_7  and  N8_8 
ROOT
HETATM    1  C1  UNL     1     -34.583  15.466  -6.429  1.00 20.00     0.065 C 
HETATM    2  C2  UNL     1     -34.374  16.225  -5.115  1.00 20.00     0.275 C 
HETATM    3  C3  UNL     1     -35.657  14.674  -3.759  1.00 20.00     0.306 C 
HETATM    4  C4  UNL     1     -35.695  14.471  -6.355  1.00 20.00     0.154 A 
HETATM    5  C5  UNL     1     -36.196  14.044  -5.007  1.00 20.00     0.179 A 
HETATM    6  N8  UNL     1     -34.336  15.287  -3.982  1.00 20.00     0.090 N 
HETATM    7  O9  UNL     1     -36.934  14.959  -5.842  1.00 20.00    -0.374 OA
ENDROOT
BRANCH   6   8
HETATM    8  C7  UNL     1     -33.886  15.967  -2.767  1.00 20.00     0.268 C 
HETATM    9  C6  UNL     1     -35.031  16.247  -1.853  1.00 20.00     0.037 C 
ENDBRANCH   6   8
TORSDOF 1
ENDMDL
MODEL 7
REMARK VINA RESULT:      -3.5     11.560     12.305
REMARK  1 active torsions:
REMARK  status: ('A' for Active; 'I' for Inactive)
REMARK    1  A    between atoms: C7_7  and  N8_8 
ROOT
HETATM    1  C1  UNL     1     -35.025  13.518  -4.095  1.00 20.00     0.065 C 
HETATM    2  C2  UNL     1     -34.368  14.833  -3.666  1.00 20.00     0.275 C 
HETATM    3  C3  UNL     1     -36.444  16.080  -3.525  1.00 20.00     0.306 C 
HETATM    4  C4  UNL     1     -36.427  13.698  -4.578  1.00 20.00     0.154 A 
HETATM    5  C5  UNL     1     -37.149  14.972  -4.246  1.00 20.00     0.179 A 
HETATM    6  N8  UNL     1     -35.268  15.592  -2.785  1.00 20.00     0.090 N 
HETATM    7  O9  UNL     1     -36.620  14.715  -5.563  1.00 20.00    -0.374 OA
ENDROOT
BRANCH   6   8
HETATM    8  C7  UNL     1     -34.559  16.715  -2.170  1.00 20.00     0.268 C 
HETATM    9  C6  UNL     1     -33.143  16.774  -2.633  1.00 20.00     0.037 C 
ENDBRANCH   6   8
TORSDOF 1
ENDMDL
MODEL 8
REMARK VINA RESULT:      -3.5     11.904     12.942
REMARK  1 active torsions:
REMARK  status: ('A' for Active; 'I' for Inactive)
REMARK    1  A    between atoms: C7_7  and  N8_8 
ROOT
HETATM    1  C1  UNL     1     -36.103  13.890  -5.075  1.00 20.00     0.065 C 
HETATM    2  C2  UNL     1     -35.352  14.222  -3.782  1.00 20.00     0.275 C 
HETATM    3  C3  UNL     1     -34.339  16.256  -4.633  1.00 20.00     0.306 C 
HETATM    4  C4  UNL     1     -35.595  14.652  -6.255  1.00 20.00     0.154 A 
HETATM    5  C5  UNL     1     -34.747  15.868  -6.021  1.00 20.00     0.179 A 
HETATM    6  N8  UNL     1     -35.235  15.679  -3.617  1.00 20.00     0.090 N 
HETATM    7  O9  UNL     1     -34.182  14.615  -6.458  1.00 20.00    -0.374 OA
ENDROOT
BRANCH   6   8
HETATM    8  C7  UNL     1     -34.751  16.007  -2.275  1.00 20.00     0.268 C 
HETATM    9  C6  UNL     1     -33.491  16.802  -2.338  1.00 20.00     0.037 C 
ENDBRANCH   6   8
TORSDOF 1
ENDMDL
MODEL 9
REMARK VINA RESULT:      -3.4     15.875     16.315
REMARK  1 active torsions:
REMARK  status: ('A' for Active; 'I' for Inactive)
REMARK    1  A    between atoms: C7_7  and  N8_8 
ROOT
HETATM    1  C1  UNL     1     -24.071  16.335  11.672  1.00 20.00     0.065 C 
HETATM    2  C2  UNL     1     -23.929  16.615  10.173  1.00 20.00     0.275 C 
HETATM    3  C3  UNL     1     -25.073  18.754  10.240  1.00 20.00     0.306 C 
HETATM    4  C4  UNL     1     -25.092  17.202  12.332  1.00 20.00     0.154 A 
HETATM    5  C5  UNL     1     -25.555  18.442  11.624  1.00 20.00     0.179 A 
HETATM    6  N8  UNL     1     -23.810  18.061   9.931  1.00 20.00     0.090 N 
HETATM    7  O9  UNL     1     -26.370  17.254  11.696  1.00 20.00    -0.374 OA
ENDROOT
BRANCH   6   8
HETATM    8  C7  UNL     1     -23.421  18.320   8.544  1.00 20.00     0.268 C 
HETATM    9  C6  UNL     1     -22.278  17.453   8.136  1.00 20.00     0.037 C 
ENDBRANCH   6   8
TORSDOF 1
ENDMDL
