MODEL 1
REMARK VINA RESULT:      -4.9      0.000      0.000
REMARK  0 active torsions:
REMARK  status: ('A' for Active; 'I' for Inactive)
ROOT
HETATM    1  C1  UNL     1     -23.587  18.402   8.172  1.00 20.00     0.217 C 
HETATM    2  C2  UNL     1     -24.314  19.225   9.214  1.00 20.00     0.108 C 
HETATM    3  C3  UNL     1     -22.600  17.272  10.136  1.00 20.00     0.131 C 
HETATM    4  C4  UNL     1     -24.965  18.275  10.227  1.00 20.00    -0.001 C 
HETATM    5  C5  UNL     1     -23.883  17.437  10.994  1.00 20.00    -0.028 C 
HETATM    6  C6  UNL     1     -25.946  19.037  11.122  1.00 20.00     0.011 C 
HETATM    7  C7  UNL     1     -24.463  16.042  11.306  1.00 20.00     0.016 C 
HETATM    8  C8  UNL     1     -23.463  18.083  12.332  1.00 20.00     0.016 C 
HETATM    9  N9  UNL     1     -22.838  17.374   8.711  1.00 20.00    -0.360 N 
HETATM   10  O10 UNL     1     -23.660  18.644   6.971  1.00 20.00    -0.274 OA
HETATM   11  H25 UNL     1     -22.457  16.692   8.108  1.00 20.00     0.162 HD
ENDROOT
TORSDOF 0
ENDMDL
MODEL 2
REMARK VINA RESULT:      -4.7     17.441     18.513
REMARK  0 active torsions:
REMARK  status: ('A' for Active; 'I' for Inactive)
ROOT
HETATM    1  C1  UNL     1     -36.915  14.365  -4.498  1.00 20.00     0.217 C 
HETATM    2  C2  UNL     1     -36.600  15.456  -3.498  1.00 20.00     0.108 C 
HETATM    3  C3  UNL     1     -34.935  15.245  -5.687  1.00 20.00     0.131 C 
HETATM    4  C4  UNL     1     -35.114  15.369  -3.125  1.00 20.00    -0.001 C 
HETATM    5  C5  UNL     1     -34.200  15.628  -4.374  1.00 20.00    -0.028 C 
HETATM    6  C6  UNL     1     -34.815  16.253  -1.911  1.00 20.00     0.011 C 
HETATM    7  C7  UNL     1     -32.924  14.770  -4.242  1.00 20.00     0.016 C 
HETATM    8  C8  UNL     1     -33.765  17.103  -4.502  1.00 20.00     0.016 C 
HETATM    9  N9  UNL     1     -35.972  14.252  -5.502  1.00 20.00    -0.360 N 
HETATM   10  O10 UNL     1     -37.919  13.664  -4.415  1.00 20.00    -0.274 OA
HETATM   11  H25 UNL     1     -36.008  13.473  -6.107  1.00 20.00     0.162 HD
ENDROOT
TORSDOF 0
ENDMDL
MODEL 3
REMARK VINA RESULT:      -4.7     17.121     18.280
REMARK  0 active torsions:
REMARK  status: ('A' for Active; 'I' for Inactive)
ROOT
HETATM    1  C1  UNL     1     -36.736  14.411  -4.074  1.00 20.00     0.217 C 
HETATM    2  C2  UNL     1     -35.304  13.963  -3.875  1.00 20.00     0.108 C 
HETATM    3  C3  UNL     1     -35.963  16.485  -2.975  1.00 20.00     0.131 C 
HETATM    4  C4  UNL     1     -34.367  15.060  -4.400  1.00 20.00    -0.001 C 
HETATM    5  C5  UNL     1     -34.538  16.389  -3.584  1.00 20.00    -0.028 C 
HETATM    6  C6  UNL     1     -32.931  14.538  -4.491  1.00 20.00     0.011 C 
HETATM    7  C7  UNL     1     -34.314  17.586  -4.532  1.00 20.00     0.016 C 
HETATM    8  C8  UNL     1     -33.531  16.512  -2.422  1.00 20.00     0.016 C 
HETATM    9  N9  UNL     1     -36.957  15.722  -3.701  1.00 20.00    -0.360 N 
HETATM   10  O10 UNL     1     -37.604  13.664  -4.515  1.00 20.00    -0.274 OA
HETATM   11  H25 UNL     1     -37.815  16.149  -3.938  1.00 20.00     0.162 HD
ENDROOT
TORSDOF 0
ENDMDL
MODEL 4
REMARK VINA RESULT:      -4.6     17.690     18.857
REMARK  0 active torsions:
REMARK  status: ('A' for Active; 'I' for Inactive)
ROOT
HETATM    1  C1  UNL     1     -37.091  14.392  -4.236  1.00 20.00     0.217 C 
HETATM    2  C2  UNL     1     -35.870  14.012  -5.046  1.00 20.00     0.108 C 
HETATM    3  C3  UNL     1     -35.467  15.662  -2.874  1.00 20.00     0.131 C 
HETATM    4  C4  UNL     1     -35.089  15.288  -5.389  1.00 20.00    -0.001 C 
HETATM    5  C5  UNL     1     -34.564  15.996  -4.092  1.00 20.00    -0.028 C 
HETATM    6  C6  UNL     1     -34.020  14.993  -6.443  1.00 20.00     0.011 C 
HETATM    7  C7  UNL     1     -34.571  17.522  -4.321  1.00 20.00     0.016 C 
HETATM    8  C8  UNL     1     -33.123  15.581  -3.725  1.00 20.00     0.016 C 
HETATM    9  N9  UNL     1     -36.823  15.308  -3.237  1.00 20.00    -0.360 N 
HETATM   10  O10 UNL     1     -38.201  13.915  -4.453  1.00 20.00    -0.274 OA
HETATM   11  H25 UNL     1     -37.577  15.731  -2.761  1.00 20.00     0.162 HD
ENDROOT
TORSDOF 0
ENDMDL
MODEL 5
REMARK VINA RESULT:      -4.4     16.808     18.002
REMARK  0 active torsions:
REMARK  status: ('A' for Active; 'I' for Inactive)
ROOT
HETATM    1  C1  UNL     1     -35.178  16.449  -1.888  1.00 20.00     0.217 C 
HETATM    2  C2  UNL     1     -34.011  16.205  -2.820  1.00 20.00     0.108 C 
HETATM    3  C3  UNL     1     -36.537  16.086  -3.921  1.00 20.00     0.131 C 
HETATM    4  C4  UNL     1     -34.269  14.914  -3.608  1.00 20.00    -0.001 C 
HETATM    5  C5  UNL     1     -35.544  15.049  -4.513  1.00 20.00    -0.028 C 
HETATM    6  C6  UNL     1     -33.001  14.471  -4.341  1.00 20.00     0.011 C 
HETATM    7  C7  UNL     1     -36.242  13.675  -4.595  1.00 20.00     0.016 C 
HETATM    8  C8  UNL     1     -35.213  15.496  -5.952  1.00 20.00     0.016 C 
HETATM    9  N9  UNL     1     -36.407  16.260  -2.489  1.00 20.00    -0.360 N 
HETATM   10  O10 UNL     1     -35.028  16.790  -0.719  1.00 20.00    -0.274 OA
HETATM   11  H25 UNL     1     -37.218  16.243  -1.926  1.00 20.00     0.162 HD
ENDROOT
TORSDOF 0
ENDMDL
MODEL 6
REMARK VINA RESULT:      -4.4     15.430     16.514
REMARK  0 active torsions:
REMARK  status: ('A' for Active; 'I' for Inactive)
ROOT
HETATM    1  C1  UNL     1     -34.197  14.935  -3.742  1.00 20.00     0.217 C 
HETATM    2  C2  UNL     1     -35.205  15.589  -2.822  1.00 20.00     0.108 C 
HETATM    3  C3  UNL     1     -33.331  17.235  -3.998  1.00 20.00     0.131 C 
HETATM    4  C4  UNL     1     -34.454  16.471  -1.815  1.00 20.00    -0.001 C 
HETATM    5  C5  UNL     1     -33.689  17.633  -2.541  1.00 20.00    -0.028 C 
HETATM    6  C6  UNL     1     -35.392  16.918  -0.692  1.00 20.00     0.011 C 
HETATM    7  C7  UNL     1     -32.389  17.931  -1.766  1.00 20.00     0.016 C 
HETATM    8  C8  UNL     1     -34.508  18.939  -2.607  1.00 20.00     0.016 C 
HETATM    9  N9  UNL     1     -33.227  15.805  -4.200  1.00 20.00    -0.360 N 
HETATM   10  O10 UNL     1     -34.258  13.748  -4.049  1.00 20.00    -0.274 OA
HETATM   11  H25 UNL     1     -32.442  15.440  -4.675  1.00 20.00     0.162 HD
ENDROOT
TORSDOF 0
ENDMDL
MODEL 7
REMARK VINA RESULT:      -4.3     17.521     18.717
REMARK  0 active torsions:
REMARK  status: ('A' for Active; 'I' for Inactive)
ROOT
HETATM    1  C1  UNL     1     -35.785  13.863  -4.468  1.00 20.00     0.217 C 
HETATM    2  C2  UNL     1     -34.999  14.611  -3.414  1.00 20.00     0.108 C 
HETATM    3  C3  UNL     1     -36.508  16.123  -5.157  1.00 20.00     0.131 C 
HETATM    4  C4  UNL     1     -34.200  15.730  -4.095  1.00 20.00    -0.001 C 
HETATM    5  C5  UNL     1     -35.155  16.777  -4.770  1.00 20.00    -0.028 C 
HETATM    6  C6  UNL     1     -33.174  16.322  -3.126  1.00 20.00     0.011 C 
HETATM    7  C7  UNL     1     -34.475  17.321  -6.044  1.00 20.00     0.016 C 
HETATM    8  C8  UNL     1     -35.468  17.978  -3.853  1.00 20.00     0.016 C 
HETATM    9  N9  UNL     1     -36.422  14.693  -5.370  1.00 20.00    -0.360 N 
HETATM   10  O10 UNL     1     -35.847  12.637  -4.499  1.00 20.00    -0.274 OA
HETATM   11  H25 UNL     1     -36.827  14.300  -6.179  1.00 20.00     0.162 HD
ENDROOT
TORSDOF 0
ENDMDL
MODEL 8
REMARK VINA RESULT:      -4.2     17.044     18.064
REMARK  0 active torsions:
REMARK  status: ('A' for Active; 'I' for Inactive)
ROOT
HETATM    1  C1  UNL     1     -35.497  13.720  -4.323  1.00 20.00     0.217 C 
HETATM    2  C2  UNL     1     -36.346  14.940  -4.604  1.00 20.00     0.108 C 
HETATM    3  C3  UNL     1     -33.727  15.382  -3.863  1.00 20.00     0.131 C 
HETATM    4  C4  UNL     1     -36.203  15.921  -3.433  1.00 20.00    -0.001 C 
HETATM    5  C5  UNL     1     -34.725  16.427  -3.294  1.00 20.00    -0.028 C 
HETATM    6  C6  UNL     1     -37.258  17.027  -3.529  1.00 20.00     0.011 C 
HETATM    7  C7  UNL     1     -34.416  16.656  -1.800  1.00 20.00     0.016 C 
HETATM    8  C8  UNL     1     -34.474  17.756  -4.037  1.00 20.00     0.016 C 
HETATM    9  N9  UNL     1     -34.236  14.026  -3.849  1.00 20.00    -0.360 N 
HETATM   10  O10 UNL     1     -35.903  12.577  -4.511  1.00 20.00    -0.274 OA
HETATM   11  H25 UNL     1     -33.669  13.301  -3.492  1.00 20.00     0.162 HD
ENDROOT
TORSDOF 0
ENDMDL
MODEL 9
REMARK VINA RESULT:      -4.2     16.733     17.852
REMARK  0 active torsions:
REMARK  status: ('A' for Active; 'I' for Inactive)
ROOT
HETATM    1  C1  UNL     1     -33.338  16.386  -2.897  1.00 20.00     0.217 C 
HETATM    2  C2  UNL     1     -34.811  16.181  -2.617  1.00 20.00     0.108 C 
HETATM    3  C3  UNL     1     -33.617  14.428  -4.380  1.00 20.00     0.131 C 
HETATM    4  C4  UNL     1     -35.556  16.062  -3.953  1.00 20.00    -0.001 C 
HETATM    5  C5  UNL     1     -35.074  14.806  -4.760  1.00 20.00    -0.028 C 
HETATM    6  C6  UNL     1     -37.068  16.148  -3.733  1.00 20.00     0.011 C 
HETATM    7  C7  UNL     1     -35.133  15.131  -6.267  1.00 20.00     0.016 C 
HETATM    8  C8  UNL     1     -35.953  13.562  -4.512  1.00 20.00     0.016 C 
HETATM    9  N9  UNL     1     -32.843  15.542  -3.873  1.00 20.00    -0.360 N 
HETATM   10  O10 UNL     1     -32.663  17.218  -2.300  1.00 20.00    -0.274 OA
HETATM   11  H25 UNL     1     -31.939  15.705  -4.233  1.00 20.00     0.162 HD
ENDROOT
TORSDOF 0
ENDMDL
