MODEL 1
REMARK VINA RESULT:      -3.9      0.000      0.000
REMARK  2 active torsions:
REMARK  status: ('A' for Active; 'I' for Inactive)
REMARK    1  A    between atoms: C6_6  and  C7_7 
REMARK    2  A    between atoms: C6_6  and  C8_8 
ROOT
HETATM    1  C1  UNL     1     -38.415  14.741  -4.268  1.00 20.00     0.012 C 
HETATM    2  C2  UNL     1     -37.272  14.376  -4.318  1.00 20.00    -0.117 C 
HETATM    3  C7  UNL     1     -35.879  13.921  -4.377  1.00 20.00     0.103 C 
ENDROOT
BRANCH   3   4
HETATM    4  C6  UNL     1     -34.915  15.101  -4.381  1.00 20.00    -0.021 C 
HETATM    5  C4  UNL     1     -33.423  14.702  -4.183  1.00 20.00     0.011 C 
HETATM    6  C3  UNL     1     -33.285  15.885  -3.206  1.00 20.00     0.002 C 
HETATM    7  C5  UNL     1     -34.813  15.841  -3.015  1.00 20.00     0.011 C 
BRANCH   4   8
HETATM    8  C8  UNL     1     -35.164  16.023  -5.575  1.00 20.00     0.095 C 
HETATM    9 BR9  UNL     1     -34.218  15.339  -7.123  1.00 20.00    -0.096 Br
ENDBRANCH   4   8
ENDBRANCH   3   4
TORSDOF 2
ENDMDL
MODEL 2
REMARK VINA RESULT:      -3.9      1.843      3.447
REMARK  2 active torsions:
REMARK  status: ('A' for Active; 'I' for Inactive)
REMARK    1  A    between atoms: C6_6  and  C7_7 
REMARK    2  A    between atoms: C6_6  and  C8_8 
ROOT
HETATM    1  C1  UNL     1     -32.938  17.369  -2.411  1.00 20.00     0.012 C 
HETATM    2  C2  UNL     1     -33.802  16.544  -2.532  1.00 20.00    -0.117 C 
HETATM    3  C7  UNL     1     -34.859  15.537  -2.669  1.00 20.00     0.103 C 
ENDROOT
BRANCH   3   4
HETATM    4  C6  UNL     1     -34.831  14.896  -4.052  1.00 20.00    -0.021 C 
HETATM    5  C4  UNL     1     -33.426  14.385  -4.486  1.00 20.00     0.011 C 
HETATM    6  C3  UNL     1     -33.686  14.995  -5.877  1.00 20.00     0.002 C 
HETATM    7  C5  UNL     1     -34.731  15.919  -5.222  1.00 20.00     0.011 C 
BRANCH   4   8
HETATM    8  C8  UNL     1     -35.950  13.867  -4.215  1.00 20.00     0.095 C 
HETATM    9 BR9  UNL     1     -37.650  14.785  -4.375  1.00 20.00    -0.096 Br
ENDBRANCH   4   8
ENDBRANCH   3   4
TORSDOF 2
ENDMDL
MODEL 3
REMARK VINA RESULT:      -3.9      2.144      3.496
REMARK  2 active torsions:
REMARK  status: ('A' for Active; 'I' for Inactive)
REMARK    1  A    between atoms: C6_6  and  C7_7 
REMARK    2  A    between atoms: C6_6  and  C8_8 
ROOT
HETATM    1  C1  UNL     1     -33.718  18.077  -0.689  1.00 20.00     0.012 C 
HETATM    2  C2  UNL     1     -34.347  17.211  -1.234  1.00 20.00    -0.117 C 
HETATM    3  C7  UNL     1     -35.119  16.153  -1.892  1.00 20.00     0.103 C 
ENDROOT
BRANCH   3   4
HETATM    4  C6  UNL     1     -34.628  15.917  -3.315  1.00 20.00    -0.021 C 
HETATM    5  C4  UNL     1     -34.624  14.420  -3.745  1.00 20.00     0.011 C 
HETATM    6  C3  UNL     1     -33.239  14.654  -4.378  1.00 20.00     0.002 C 
HETATM    7  C5  UNL     1     -33.078  15.875  -3.452  1.00 20.00     0.011 C 
BRANCH   4   8
HETATM    8  C8  UNL     1     -35.319  16.852  -4.308  1.00 20.00     0.095 C 
HETATM    9 BR9  UNL     1     -34.109  18.289  -4.787  1.00 20.00    -0.096 Br
ENDBRANCH   4   8
ENDBRANCH   3   4
TORSDOF 2
ENDMDL
MODEL 4
REMARK VINA RESULT:      -3.9      1.997      2.528
REMARK  2 active torsions:
REMARK  status: ('A' for Active; 'I' for Inactive)
REMARK    1  A    between atoms: C6_6  and  C7_7 
REMARK    2  A    between atoms: C6_6  and  C8_8 
ROOT
HETATM    1  C1  UNL     1     -36.289  13.624  -4.546  1.00 20.00     0.012 C 
HETATM    2  C2  UNL     1     -35.276  14.160  -4.187  1.00 20.00    -0.117 C 
HETATM    3  C7  UNL     1     -34.034  14.807  -3.751  1.00 20.00     0.103 C 
ENDROOT
BRANCH   3   4
HETATM    4  C6  UNL     1     -34.301  16.213  -3.229  1.00 20.00    -0.021 C 
HETATM    5  C4  UNL     1     -33.083  16.864  -2.507  1.00 20.00     0.011 C 
HETATM    6  C3  UNL     1     -34.053  17.360  -1.418  1.00 20.00     0.002 C 
HETATM    7  C5  UNL     1     -35.030  16.251  -1.854  1.00 20.00     0.011 C 
BRANCH   4   8
HETATM    8  C8  UNL     1     -34.939  17.097  -4.300  1.00 20.00     0.095 C 
HETATM    9 BR9  UNL     1     -36.774  17.481  -3.807  1.00 20.00    -0.096 Br
ENDBRANCH   4   8
ENDBRANCH   3   4
TORSDOF 2
ENDMDL
MODEL 5
REMARK VINA RESULT:      -3.9      2.213      3.743
REMARK  2 active torsions:
REMARK  status: ('A' for Active; 'I' for Inactive)
REMARK    1  A    between atoms: C6_6  and  C7_7 
REMARK    2  A    between atoms: C6_6  and  C8_8 
ROOT
HETATM    1  C1  UNL     1     -34.318  17.851  -0.609  1.00 20.00     0.012 C 
HETATM    2  C2  UNL     1     -33.705  17.411  -1.544  1.00 20.00    -0.117 C 
HETATM    3  C7  UNL     1     -32.950  16.878  -2.682  1.00 20.00     0.103 C 
ENDROOT
BRANCH   3   4
HETATM    4  C6  UNL     1     -33.865  16.141  -3.652  1.00 20.00    -0.021 C 
HETATM    5  C4  UNL     1     -34.958  15.275  -2.960  1.00 20.00     0.011 C 
HETATM    6  C3  UNL     1     -34.648  14.157  -3.975  1.00 20.00     0.002 C 
HETATM    7  C5  UNL     1     -33.270  14.809  -4.196  1.00 20.00     0.011 C 
BRANCH   4   8
HETATM    8  C8  UNL     1     -34.400  17.076  -4.737  1.00 20.00     0.095 C 
HETATM    9 BR9  UNL     1     -36.230  17.563  -4.320  1.00 20.00    -0.096 Br
ENDBRANCH   4   8
ENDBRANCH   3   4
TORSDOF 2
ENDMDL
MODEL 6
REMARK VINA RESULT:      -3.8      1.128      2.973
REMARK  2 active torsions:
REMARK  status: ('A' for Active; 'I' for Inactive)
REMARK    1  A    between atoms: C6_6  and  C7_7 
REMARK    2  A    between atoms: C6_6  and  C8_8 
ROOT
HETATM    1  C1  UNL     1     -35.089  16.524  -1.357  1.00 20.00     0.012 C 
HETATM    2  C2  UNL     1     -34.435  16.192  -2.308  1.00 20.00    -0.117 C 
HETATM    3  C7  UNL     1     -33.630  15.792  -3.466  1.00 20.00     0.103 C 
ENDROOT
BRANCH   3   4
HETATM    4  C6  UNL     1     -34.461  14.994  -4.464  1.00 20.00    -0.021 C 
HETATM    5  C4  UNL     1     -35.946  15.450  -4.562  1.00 20.00     0.011 C 
HETATM    6  C3  UNL     1     -36.354  13.965  -4.562  1.00 20.00     0.002 C 
HETATM    7  C5  UNL     1     -34.998  13.644  -3.904  1.00 20.00     0.011 C 
BRANCH   4   8
HETATM    8  C8  UNL     1     -33.752  14.874  -5.813  1.00 20.00     0.095 C 
HETATM    9 BR9  UNL     1     -34.484  16.183  -7.042  1.00 20.00    -0.096 Br
ENDBRANCH   4   8
ENDBRANCH   3   4
TORSDOF 2
ENDMDL
MODEL 7
REMARK VINA RESULT:      -3.8      1.684      3.650
REMARK  2 active torsions:
REMARK  status: ('A' for Active; 'I' for Inactive)
REMARK    1  A    between atoms: C6_6  and  C7_7 
REMARK    2  A    between atoms: C6_6  and  C8_8 
ROOT
HETATM    1  C1  UNL     1     -32.843  17.355  -2.072  1.00 20.00     0.012 C 
HETATM    2  C2  UNL     1     -33.877  16.749  -2.157  1.00 20.00    -0.117 C 
HETATM    3  C7  UNL     1     -35.140  16.011  -2.251  1.00 20.00     0.103 C 
ENDROOT
BRANCH   3   4
HETATM    4  C6  UNL     1     -35.346  15.451  -3.654  1.00 20.00    -0.021 C 
HETATM    5  C4  UNL     1     -36.722  14.752  -3.862  1.00 20.00     0.011 C 
HETATM    6  C3  UNL     1     -35.984  13.624  -4.607  1.00 20.00     0.002 C 
HETATM    7  C5  UNL     1     -34.696  14.054  -3.879  1.00 20.00     0.011 C 
BRANCH   4   8
HETATM    8  C8  UNL     1     -34.999  16.483  -4.726  1.00 20.00     0.095 C 
HETATM    9 BR9  UNL     1     -36.541  17.613  -5.054  1.00 20.00    -0.096 Br
ENDBRANCH   4   8
ENDBRANCH   3   4
TORSDOF 2
ENDMDL
MODEL 8
REMARK VINA RESULT:      -3.7      2.408      3.362
REMARK  2 active torsions:
REMARK  status: ('A' for Active; 'I' for Inactive)
REMARK    1  A    between atoms: C6_6  and  C7_7 
REMARK    2  A    between atoms: C6_6  and  C8_8 
ROOT
HETATM    1  C1  UNL     1     -33.002  14.518  -4.460  1.00 20.00     0.012 C 
HETATM    2  C2  UNL     1     -33.923  14.862  -3.770  1.00 20.00    -0.117 C 
HETATM    3  C7  UNL     1     -35.051  15.274  -2.929  1.00 20.00     0.103 C 
ENDROOT
BRANCH   3   4
HETATM    4  C6  UNL     1     -34.887  16.712  -2.453  1.00 20.00    -0.021 C 
HETATM    5  C4  UNL     1     -33.420  17.101  -2.103  1.00 20.00     0.011 C 
HETATM    6  C3  UNL     1     -33.957  17.807  -0.843  1.00 20.00     0.002 C 
HETATM    7  C5  UNL     1     -35.215  16.923  -0.946  1.00 20.00     0.011 C 
BRANCH   4   8
HETATM    8  C8  UNL     1     -35.589  17.695  -3.390  1.00 20.00     0.095 C 
HETATM    9 BR9  UNL     1     -34.281  18.502  -4.572  1.00 20.00    -0.096 Br
ENDBRANCH   4   8
ENDBRANCH   3   4
TORSDOF 2
ENDMDL
MODEL 9
REMARK VINA RESULT:      -3.6      2.407      2.909
REMARK  2 active torsions:
REMARK  status: ('A' for Active; 'I' for Inactive)
REMARK    1  A    between atoms: C6_6  and  C7_7 
REMARK    2  A    between atoms: C6_6  and  C8_8 
ROOT
HETATM    1  C1  UNL     1     -33.884  15.078  -7.004  1.00 20.00     0.012 C 
HETATM    2  C2  UNL     1     -34.037  14.919  -5.824  1.00 20.00    -0.117 C 
HETATM    3  C7  UNL     1     -34.224  14.715  -4.384  1.00 20.00     0.103 C 
ENDROOT
BRANCH   3   4
HETATM    4  C6  UNL     1     -34.404  16.044  -3.659  1.00 20.00    -0.021 C 
HETATM    5  C4  UNL     1     -33.105  16.581  -2.988  1.00 20.00     0.011 C 
HETATM    6  C3  UNL     1     -33.949  16.940  -1.750  1.00 20.00     0.002 C 
HETATM    7  C5  UNL     1     -34.992  15.908  -2.224  1.00 20.00     0.011 C 
BRANCH   4   8
HETATM    8  C8  UNL     1     -35.125  17.067  -4.536  1.00 20.00     0.095 C 
HETATM    9 BR9  UNL     1     -37.040  16.887  -4.292  1.00 20.00    -0.096 Br
ENDBRANCH   4   8
ENDBRANCH   3   4
TORSDOF 2
ENDMDL
