MODEL 1
REMARK VINA RESULT:      -5.0      0.000      0.000
REMARK  0 active torsions:
REMARK  status: ('A' for Active; 'I' for Inactive)
ROOT
HETATM    1  C1  UNL     1     -23.071  18.259  10.079  1.00 20.00     0.105 C 
HETATM    2  C2  UNL     1     -24.157  18.732   9.439  1.00 20.00     0.056 C 
HETATM    3  C3  UNL     1     -23.197  17.836  11.497  1.00 20.00     0.196 C 
HETATM    4  C4  UNL     1     -25.611  18.522  11.228  1.00 20.00     0.035 C 
HETATM    5  C5  UNL     1     -24.577  17.848  12.086  1.00 20.00     0.205 C 
HETATM    6  C6  UNL     1     -24.138  19.171   7.995  1.00 20.00     0.072 C 
HETATM    7  C7  UNL     1     -26.982  18.761  11.816  1.00 20.00     0.068 C 
HETATM    8  N8  UNL     1     -25.401  18.901  10.007  1.00 20.00    -0.259 NA
HETATM    9  O9  UNL     1     -22.223  17.462  12.147  1.00 20.00    -0.289 OA
HETATM   10 CL10 UNL     1     -21.512  18.083   9.368  1.00 20.00    -0.078 Cl
HETATM   11 CL11 UNL     1     -25.061  16.155  12.309  1.00 20.00    -0.110 Cl
ENDROOT
TORSDOF 0
ENDMDL
MODEL 2
REMARK VINA RESULT:      -4.1     14.829     15.973
REMARK  0 active torsions:
REMARK  status: ('A' for Active; 'I' for Inactive)
ROOT
HETATM    1  C1  UNL     1     -33.648  18.079  -0.446  1.00 20.00     0.105 C 
HETATM    2  C2  UNL     1     -34.767  17.331  -0.465  1.00 20.00     0.056 C 
HETATM    3  C3  UNL     1     -32.646  17.904  -1.527  1.00 20.00     0.196 C 
HETATM    4  C4  UNL     1     -34.259  16.171  -2.402  1.00 20.00     0.035 C 
HETATM    5  C5  UNL     1     -33.017  16.982  -2.650  1.00 20.00     0.205 C 
HETATM    6  C6  UNL     1     -35.854  17.444   0.577  1.00 20.00     0.072 C 
HETATM    7  C7  UNL     1     -34.604  15.074  -3.382  1.00 20.00     0.068 C 
HETATM    8  N8  UNL     1     -35.058  16.363  -1.401  1.00 20.00    -0.259 NA
HETATM    9  O9  UNL     1     -31.577  18.512  -1.520  1.00 20.00    -0.289 OA
HETATM   10 CL10 UNL     1     -33.278  19.263   0.750  1.00 20.00    -0.078 Cl
HETATM   11 CL11 UNL     1     -33.295  17.994  -4.083  1.00 20.00    -0.110 Cl
ENDROOT
TORSDOF 0
ENDMDL
MODEL 3
REMARK VINA RESULT:      -4.0     18.450     19.393
REMARK  0 active torsions:
REMARK  status: ('A' for Active; 'I' for Inactive)
ROOT
HETATM    1  C1  UNL     1     -35.733  14.852  -3.647  1.00 20.00     0.105 C 
HETATM    2  C2  UNL     1     -35.305  16.010  -3.112  1.00 20.00     0.056 C 
HETATM    3  C3  UNL     1     -37.142  14.747  -4.104  1.00 20.00     0.196 C 
HETATM    4  C4  UNL     1     -37.316  17.138  -3.315  1.00 20.00     0.035 C 
HETATM    5  C5  UNL     1     -37.965  16.000  -4.053  1.00 20.00     0.205 C 
HETATM    6  C6  UNL     1     -33.889  16.225  -2.633  1.00 20.00     0.072 C 
HETATM    7  C7  UNL     1     -38.141  18.372  -3.037  1.00 20.00     0.068 C 
HETATM    8  N8  UNL     1     -36.086  17.127  -2.909  1.00 20.00    -0.259 NA
HETATM    9  O9  UNL     1     -37.603  13.692  -4.536  1.00 20.00    -0.289 OA
HETATM   10 CL10 UNL     1     -34.756  13.450  -3.865  1.00 20.00    -0.078 Cl
HETATM   11 CL11 UNL     1     -38.234  16.514  -5.732  1.00 20.00    -0.110 Cl
ENDROOT
TORSDOF 0
ENDMDL
MODEL 4
REMARK VINA RESULT:      -4.0     17.438     18.526
REMARK  0 active torsions:
REMARK  status: ('A' for Active; 'I' for Inactive)
ROOT
HETATM    1  C1  UNL     1     -34.792  15.543  -5.457  1.00 20.00     0.105 C 
HETATM    2  C2  UNL     1     -34.503  16.843  -5.652  1.00 20.00     0.056 C 
HETATM    3  C3  UNL     1     -34.409  14.905  -4.172  1.00 20.00     0.196 C 
HETATM    4  C4  UNL     1     -33.497  17.187  -3.596  1.00 20.00     0.035 C 
HETATM    5  C5  UNL     1     -33.833  15.803  -3.116  1.00 20.00     0.205 C 
HETATM    6  C6  UNL     1     -34.864  17.588  -6.914  1.00 20.00     0.072 C 
HETATM    7  C7  UNL     1     -32.732  18.100  -2.667  1.00 20.00     0.068 C 
HETATM    8  N8  UNL     1     -33.833  17.650  -4.759  1.00 20.00    -0.259 NA
HETATM    9  O9  UNL     1     -34.587  13.705  -3.969  1.00 20.00    -0.289 OA
HETATM   10 CL10 UNL     1     -35.601  14.534  -6.595  1.00 20.00    -0.078 Cl
HETATM   11 CL11 UNL     1     -35.052  15.943  -1.833  1.00 20.00    -0.110 Cl
ENDROOT
TORSDOF 0
ENDMDL
MODEL 5
REMARK VINA RESULT:      -3.9      2.348      2.796
REMARK  0 active torsions:
REMARK  status: ('A' for Active; 'I' for Inactive)
ROOT
HETATM    1  C1  UNL     1     -24.668  18.890   7.570  1.00 20.00     0.105 C 
HETATM    2  C2  UNL     1     -25.919  19.053   8.042  1.00 20.00     0.056 C 
HETATM    3  C3  UNL     1     -23.557  18.678   8.532  1.00 20.00     0.196 C 
HETATM    4  C4  UNL     1     -25.367  18.863  10.282  1.00 20.00     0.035 C 
HETATM    5  C5  UNL     1     -23.933  18.531   9.978  1.00 20.00     0.205 C 
HETATM    6  C6  UNL     1     -27.118  19.257   7.148  1.00 20.00     0.072 C 
HETATM    7  C7  UNL     1     -25.792  18.938  11.730  1.00 20.00     0.068 C 
HETATM    8  N8  UNL     1     -26.267  19.079   9.375  1.00 20.00    -0.259 NA
HETATM    9  O9  UNL     1     -22.389  18.592   8.159  1.00 20.00    -0.289 OA
HETATM   10 CL10 UNL     1     -24.240  18.892   5.902  1.00 20.00    -0.078 Cl
HETATM   11 CL11 UNL     1     -23.653  16.833  10.417  1.00 20.00    -0.110 Cl
ENDROOT
TORSDOF 0
ENDMDL
MODEL 6
REMARK VINA RESULT:      -3.9     19.988     20.372
REMARK  0 active torsions:
REMARK  status: ('A' for Active; 'I' for Inactive)
ROOT
HETATM    1  C1  UNL     1     -37.494  16.126  -4.528  1.00 20.00     0.105 C 
HETATM    2  C2  UNL     1     -36.609  16.991  -5.058  1.00 20.00     0.056 C 
HETATM    3  C3  UNL     1     -37.243  14.669  -4.658  1.00 20.00     0.196 C 
HETATM    4  C4  UNL     1     -35.161  15.389  -5.890  1.00 20.00     0.035 C 
HETATM    5  C5  UNL     1     -35.935  14.259  -5.269  1.00 20.00     0.205 C 
HETATM    6  C6  UNL     1     -36.763  18.490  -4.966  1.00 20.00     0.072 C 
HETATM    7  C7  UNL     1     -33.932  15.051  -6.702  1.00 20.00     0.068 C 
HETATM    8  N8  UNL     1     -35.479  16.638  -5.763  1.00 20.00    -0.259 NA
HETATM    9  O9  UNL     1     -38.052  13.836  -4.253  1.00 20.00    -0.289 OA
HETATM   10 CL10 UNL     1     -38.922  16.579  -3.678  1.00 20.00    -0.078 Cl
HETATM   11 CL11 UNL     1     -34.948  13.563  -3.967  1.00 20.00    -0.110 Cl
ENDROOT
TORSDOF 0
ENDMDL
MODEL 7
REMARK VINA RESULT:      -3.8     17.982     18.932
REMARK  0 active torsions:
REMARK  status: ('A' for Active; 'I' for Inactive)
ROOT
HETATM    1  C1  UNL     1     -34.508  15.837  -3.389  1.00 20.00     0.105 C 
HETATM    2  C2  UNL     1     -35.623  16.549  -3.136  1.00 20.00     0.056 C 
HETATM    3  C3  UNL     1     -34.629  14.533  -4.090  1.00 20.00     0.196 C 
HETATM    4  C4  UNL     1     -37.101  15.044  -4.091  1.00 20.00     0.035 C 
HETATM    5  C5  UNL     1     -35.993  14.157  -4.587  1.00 20.00     0.205 C 
HETATM    6  C6  UNL     1     -35.606  17.891  -2.446  1.00 20.00     0.072 C 
HETATM    7  C7  UNL     1     -38.527  14.633  -4.371  1.00 20.00     0.068 C 
HETATM    8  N8  UNL     1     -36.905  16.149  -3.443  1.00 20.00    -0.259 NA
HETATM    9  O9  UNL     1     -33.651  13.813  -4.283  1.00 20.00    -0.289 OA
HETATM   10 CL10 UNL     1     -32.912  16.330  -2.971  1.00 20.00    -0.078 Cl
HETATM   11 CL11 UNL     1     -35.949  14.266  -6.359  1.00 20.00    -0.110 Cl
ENDROOT
TORSDOF 0
ENDMDL
MODEL 8
REMARK VINA RESULT:      -3.7     17.528     18.680
REMARK  0 active torsions:
REMARK  status: ('A' for Active; 'I' for Inactive)
ROOT
HETATM    1  C1  UNL     1     -36.296  16.818  -2.842  1.00 20.00     0.105 C 
HETATM    2  C2  UNL     1     -35.130  16.596  -2.207  1.00 20.00     0.056 C 
HETATM    3  C3  UNL     1     -36.527  16.187  -4.166  1.00 20.00     0.196 C 
HETATM    4  C4  UNL     1     -34.216  15.226  -3.833  1.00 20.00     0.035 C 
HETATM    5  C5  UNL     1     -35.479  15.229  -4.650  1.00 20.00     0.205 C 
HETATM    6  C6  UNL     1     -34.804  17.177  -0.852  1.00 20.00     0.072 C 
HETATM    7  C7  UNL     1     -33.031  14.446  -4.352  1.00 20.00     0.068 C 
HETATM    8  N8  UNL     1     -34.086  15.846  -2.703  1.00 20.00    -0.259 NA
HETATM    9  O9  UNL     1     -37.544  16.412  -4.819  1.00 20.00    -0.289 OA
HETATM   10 CL10 UNL     1     -37.581  17.786  -2.226  1.00 20.00    -0.078 Cl
HETATM   11 CL11 UNL     1     -36.188  13.602  -4.577  1.00 20.00    -0.110 Cl
ENDROOT
TORSDOF 0
ENDMDL
MODEL 9
REMARK VINA RESULT:      -3.7     17.071     18.015
REMARK  0 active torsions:
REMARK  status: ('A' for Active; 'I' for Inactive)
ROOT
HETATM    1  C1  UNL     1     -34.451  15.167  -3.772  1.00 20.00     0.105 C 
HETATM    2  C2  UNL     1     -35.750  14.995  -4.080  1.00 20.00     0.056 C 
HETATM    3  C3  UNL     1     -34.056  16.328  -2.937  1.00 20.00     0.196 C 
HETATM    4  C4  UNL     1     -36.523  16.860  -2.948  1.00 20.00     0.035 C 
HETATM    5  C5  UNL     1     -35.166  17.170  -2.380  1.00 20.00     0.205 C 
HETATM    6  C6  UNL     1     -36.256  13.838  -4.908  1.00 20.00     0.072 C 
HETATM    7  C7  UNL     1     -37.670  17.780  -2.601  1.00 20.00     0.068 C 
HETATM    8  N8  UNL     1     -36.771  15.843  -3.711  1.00 20.00    -0.259 NA
HETATM    9  O9  UNL     1     -32.877  16.570  -2.684  1.00 20.00    -0.289 OA
HETATM   10 CL10 UNL     1     -33.177  14.118  -4.267  1.00 20.00    -0.078 Cl
HETATM   11 CL11 UNL     1     -35.218  16.870  -0.630  1.00 20.00    -0.110 Cl
ENDROOT
TORSDOF 0
ENDMDL
