MODEL 1
REMARK VINA RESULT:      -4.9      0.000      0.000
REMARK  2 active torsions:
REMARK  status: ('A' for Active; 'I' for Inactive)
REMARK    1  A    between atoms: C1_1  and  P9_9 
REMARK    2  A    between atoms: C2_2  and  P9_9 
ROOT
HETATM    1  P9  UNL     1     -34.166   6.717   4.022  1.00 20.00     0.209 P 
HETATM    2 CL10 UNL     1     -33.363   7.006   5.940  1.00 20.00    -0.077 Cl
ENDROOT
BRANCH   1   3
HETATM    3  C1  UNL     1     -32.721   6.629   3.021  1.00 20.00     0.429 C 
HETATM    4  F3  UNL     1     -33.055   7.159   1.843  1.00 20.00    -0.165 F 
HETATM    5  F4  UNL     1     -31.796   7.356   3.651  1.00 20.00    -0.165 F 
HETATM    6  F5  UNL     1     -32.370   5.346   2.918  1.00 20.00    -0.165 F 
ENDBRANCH   1   3
BRANCH   1   7
HETATM    7  C2  UNL     1     -34.741   5.054   4.104  1.00 20.00     0.429 C 
HETATM    8  F6  UNL     1     -36.071   5.121   4.019  1.00 20.00    -0.165 F 
HETATM    9  F7  UNL     1     -34.339   4.588   5.288  1.00 20.00    -0.165 F 
HETATM   10  F8  UNL     1     -34.201   4.383   3.087  1.00 20.00    -0.165 F 
ENDBRANCH   1   7
TORSDOF 2
ENDMDL
MODEL 2
REMARK VINA RESULT:      -4.9      1.940      3.546
REMARK  2 active torsions:
REMARK  status: ('A' for Active; 'I' for Inactive)
REMARK    1  A    between atoms: C1_1  and  P9_9 
REMARK    2  A    between atoms: C2_2  and  P9_9 
ROOT
HETATM    1  P9  UNL     1     -34.551   5.949   4.137  1.00 20.00     0.209 P 
HETATM    2 CL10 UNL     1     -34.185   3.899   3.876  1.00 20.00    -0.077 Cl
ENDROOT
BRANCH   1   3
HETATM    3  C1  UNL     1     -34.341   6.149   5.874  1.00 20.00     0.429 C 
HETATM    4  F3  UNL     1     -34.223   7.461   6.083  1.00 20.00    -0.165 F 
HETATM    5  F4  UNL     1     -35.446   5.651   6.433  1.00 20.00    -0.165 F 
HETATM    6  F5  UNL     1     -33.247   5.477   6.235  1.00 20.00    -0.165 F 
ENDBRANCH   1   3
BRANCH   1   7
HETATM    7  C2  UNL     1     -33.108   6.679   3.439  1.00 20.00     0.429 C 
HETATM    8  F6  UNL     1     -33.543   7.569   2.544  1.00 20.00    -0.165 F 
HETATM    9  F7  UNL     1     -32.437   5.680   2.862  1.00 20.00    -0.165 F 
HETATM   10  F8  UNL     1     -32.417   7.248   4.425  1.00 20.00    -0.165 F 
ENDBRANCH   1   7
TORSDOF 2
ENDMDL
MODEL 3
REMARK VINA RESULT:      -4.9      0.033      1.205
REMARK  2 active torsions:
REMARK  status: ('A' for Active; 'I' for Inactive)
REMARK    1  A    between atoms: C1_1  and  P9_9 
REMARK    2  A    between atoms: C2_2  and  P9_9 
ROOT
HETATM    1  P9  UNL     1     -34.160   6.716   4.009  1.00 20.00     0.209 P 
HETATM    2 CL10 UNL     1     -33.352   7.002   5.925  1.00 20.00    -0.077 Cl
ENDROOT
BRANCH   1   3
HETATM    3  C1  UNL     1     -32.717   6.624   3.004  1.00 20.00     0.429 C 
HETATM    4  F3  UNL     1     -31.789   7.355   3.624  1.00 20.00    -0.165 F 
HETATM    5  F4  UNL     1     -32.387   5.332   2.959  1.00 20.00    -0.165 F 
HETATM    6  F5  UNL     1     -33.024   7.109   1.800  1.00 20.00    -0.165 F 
ENDBRANCH   1   3
BRANCH   1   7
HETATM    7  C2  UNL     1     -34.740   5.055   4.091  1.00 20.00     0.429 C 
HETATM    8  F6  UNL     1     -36.070   5.126   4.025  1.00 20.00    -0.165 F 
HETATM    9  F7  UNL     1     -34.324   4.582   5.268  1.00 20.00    -0.165 F 
HETATM   10  F8  UNL     1     -34.215   4.386   3.065  1.00 20.00    -0.165 F 
ENDBRANCH   1   7
TORSDOF 2
ENDMDL
MODEL 4
REMARK VINA RESULT:      -4.9      2.094      3.600
REMARK  2 active torsions:
REMARK  status: ('A' for Active; 'I' for Inactive)
REMARK    1  A    between atoms: C1_1  and  P9_9 
REMARK    2  A    between atoms: C2_2  and  P9_9 
ROOT
HETATM    1  P9  UNL     1     -34.328   6.526   4.155  1.00 20.00     0.209 P 
HETATM    2 CL10 UNL     1     -32.768   5.887   2.903  1.00 20.00    -0.077 Cl
ENDROOT
BRANCH   1   3
HETATM    3  C1  UNL     1     -35.137   5.012   4.546  1.00 20.00     0.429 C 
HETATM    4  F3  UNL     1     -35.282   5.003   5.872  1.00 20.00    -0.165 F 
HETATM    5  F4  UNL     1     -36.313   5.054   3.916  1.00 20.00    -0.165 F 
HETATM    6  F5  UNL     1     -34.368   4.011   4.114  1.00 20.00    -0.165 F 
ENDBRANCH   1   3
BRANCH   1   7
HETATM    7  C2  UNL     1     -33.471   6.955   5.632  1.00 20.00     0.429 C 
HETATM    8  F6  UNL     1     -34.317   7.703   6.344  1.00 20.00    -0.165 F 
HETATM    9  F7  UNL     1     -32.399   7.649   5.243  1.00 20.00    -0.165 F 
HETATM   10  F8  UNL     1     -33.141   5.827   6.259  1.00 20.00    -0.165 F 
ENDBRANCH   1   7
TORSDOF 2
ENDMDL
MODEL 5
REMARK VINA RESULT:      -4.7     11.607     12.544
REMARK  2 active torsions:
REMARK  status: ('A' for Active; 'I' for Inactive)
REMARK    1  A    between atoms: C1_1  and  P9_9 
REMARK    2  A    between atoms: C2_2  and  P9_9 
ROOT
HETATM    1  P9  UNL     1     -34.743  15.561  -4.852  1.00 20.00     0.209 P 
HETATM    2 CL10 UNL     1     -33.730  14.883  -6.561  1.00 20.00    -0.077 Cl
ENDROOT
BRANCH   1   3
HETATM    3  C1  UNL     1     -35.616  14.120  -4.339  1.00 20.00     0.429 C 
HETATM    4  F3  UNL     1     -36.541  14.539  -3.474  1.00 20.00    -0.165 F 
HETATM    5  F4  UNL     1     -36.162  13.612  -5.446  1.00 20.00    -0.165 F 
HETATM    6  F5  UNL     1     -34.739  13.286  -3.780  1.00 20.00    -0.165 F 
ENDBRANCH   1   3
BRANCH   1   7
HETATM    7  C2  UNL     1     -33.437  15.718  -3.681  1.00 20.00     0.429 C 
HETATM    8  F6  UNL     1     -33.990  15.506  -2.484  1.00 20.00    -0.165 F 
HETATM    9  F7  UNL     1     -32.984  16.967  -3.806  1.00 20.00    -0.165 F 
HETATM   10  F8  UNL     1     -32.507  14.811  -3.978  1.00 20.00    -0.165 F 
ENDBRANCH   1   7
TORSDOF 2
ENDMDL
MODEL 6
REMARK VINA RESULT:      -4.6     11.605     12.569
REMARK  2 active torsions:
REMARK  status: ('A' for Active; 'I' for Inactive)
REMARK    1  A    between atoms: C1_1  and  P9_9 
REMARK    2  A    between atoms: C2_2  and  P9_9 
ROOT
HETATM    1  P9  UNL     1     -34.753  15.560  -4.854  1.00 20.00     0.209 P 
HETATM    2 CL10 UNL     1     -33.712  14.873  -6.543  1.00 20.00    -0.077 Cl
ENDROOT
BRANCH   1   3
HETATM    3  C1  UNL     1     -35.622  14.119  -4.338  1.00 20.00     0.429 C 
HETATM    4  F3  UNL     1     -36.544  14.536  -3.469  1.00 20.00    -0.165 F 
HETATM    5  F4  UNL     1     -36.171  13.610  -5.443  1.00 20.00    -0.165 F 
HETATM    6  F5  UNL     1     -34.742  13.285  -3.782  1.00 20.00    -0.165 F 
ENDBRANCH   1   3
BRANCH   1   7
HETATM    7  C2  UNL     1     -33.464  15.739  -3.667  1.00 20.00     0.429 C 
HETATM    8  F6  UNL     1     -33.007  16.985  -3.805  1.00 20.00    -0.165 F 
HETATM    9  F7  UNL     1     -32.541  14.831  -3.992  1.00 20.00    -0.165 F 
HETATM   10  F8  UNL     1     -33.984  15.520  -2.460  1.00 20.00    -0.165 F 
ENDBRANCH   1   7
TORSDOF 2
ENDMDL
MODEL 7
REMARK VINA RESULT:      -4.6     16.750     17.441
REMARK  2 active torsions:
REMARK  status: ('A' for Active; 'I' for Inactive)
REMARK    1  A    between atoms: C1_1  and  P9_9 
REMARK    2  A    between atoms: C2_2  and  P9_9 
ROOT
HETATM    1  P9  UNL     1     -23.624  17.245   9.984  1.00 20.00     0.209 P 
HETATM    2 CL10 UNL     1     -25.021  18.808   9.890  1.00 20.00    -0.077 Cl
ENDROOT
BRANCH   1   3
HETATM    3  C1  UNL     1     -22.336  17.830   8.935  1.00 20.00     0.429 C 
HETATM    4  F3  UNL     1     -21.317  16.984   9.095  1.00 20.00    -0.165 F 
HETATM    5  F4  UNL     1     -22.829  17.789   7.696  1.00 20.00    -0.165 F 
HETATM    6  F5  UNL     1     -22.029  19.071   9.316  1.00 20.00    -0.165 F 
ENDBRANCH   1   3
BRANCH   1   7
HETATM    7  C2  UNL     1     -22.973  17.421  11.611  1.00 20.00     0.429 C 
HETATM    8  F6  UNL     1     -23.144  16.239  12.206  1.00 20.00    -0.165 F 
HETATM    9  F7  UNL     1     -23.698  18.380  12.191  1.00 20.00    -0.165 F 
HETATM   10  F8  UNL     1     -21.688  17.755  11.506  1.00 20.00    -0.165 F 
ENDBRANCH   1   7
TORSDOF 2
ENDMDL
MODEL 8
REMARK VINA RESULT:      -4.5      8.749      9.268
REMARK  2 active torsions:
REMARK  status: ('A' for Active; 'I' for Inactive)
REMARK    1  A    between atoms: C1_1  and  P9_9 
REMARK    2  A    between atoms: C2_2  and  P9_9 
ROOT
HETATM    1  P9  UNL     1     -42.717   6.898  -0.286  1.00 20.00     0.209 P 
HETATM    2 CL10 UNL     1     -43.417   6.308   1.602  1.00 20.00    -0.077 Cl
ENDROOT
BRANCH   1   3
HETATM    3  C1  UNL     1     -41.555   8.157   0.121  1.00 20.00     0.429 C 
HETATM    4  F3  UNL     1     -42.275   9.208   0.516  1.00 20.00    -0.165 F 
HETATM    5  F4  UNL     1     -40.813   7.659   1.112  1.00 20.00    -0.165 F 
HETATM    6  F5  UNL     1     -40.833   8.417  -0.969  1.00 20.00    -0.165 F 
ENDBRANCH   1   3
BRANCH   1   7
HETATM    7  C2  UNL     1     -41.722   5.525  -0.762  1.00 20.00     0.429 C 
HETATM    8  F6  UNL     1     -42.531   4.696  -1.424  1.00 20.00    -0.165 F 
HETATM    9  F7  UNL     1     -41.278   4.986   0.375  1.00 20.00    -0.165 F 
HETATM   10  F8  UNL     1     -40.729   5.982  -1.525  1.00 20.00    -0.165 F 
ENDBRANCH   1   7
TORSDOF 2
ENDMDL
MODEL 9
REMARK VINA RESULT:      -4.5      8.434      9.546
REMARK  2 active torsions:
REMARK  status: ('A' for Active; 'I' for Inactive)
REMARK    1  A    between atoms: C1_1  and  P9_9 
REMARK    2  A    between atoms: C2_2  and  P9_9 
ROOT
HETATM    1  P9  UNL     1     -42.557   7.193   0.253  1.00 20.00     0.209 P 
HETATM    2 CL10 UNL     1     -43.412   6.715  -1.603  1.00 20.00    -0.077 Cl
ENDROOT
BRANCH   1   3
HETATM    3  C1  UNL     1     -41.235   6.035   0.366  1.00 20.00     0.429 C 
HETATM    4  F3  UNL     1     -40.251   6.660   1.015  1.00 20.00    -0.165 F 
HETATM    5  F4  UNL     1     -41.715   5.002   1.061  1.00 20.00    -0.165 F 
HETATM    6  F5  UNL     1     -40.885   5.689  -0.874  1.00 20.00    -0.165 F 
ENDBRANCH   1   3
BRANCH   1   7
HETATM    7  C2  UNL     1     -41.761   8.728  -0.085  1.00 20.00     0.429 C 
HETATM    8  F6  UNL     1     -41.257   9.144   1.078  1.00 20.00    -0.165 F 
HETATM    9  F7  UNL     1     -42.719   9.543  -0.533  1.00 20.00    -0.165 F 
HETATM   10  F8  UNL     1     -40.817   8.509  -0.999  1.00 20.00    -0.165 F 
ENDBRANCH   1   7
TORSDOF 2
ENDMDL
