MODEL 1
REMARK VINA RESULT:      -4.2      0.000      0.000
REMARK  1 active torsions:
REMARK  status: ('A' for Active; 'I' for Inactive)
REMARK    1  A    between atoms: C1_1  and  C2_2 
ROOT
HETATM    1  C1  UNL     1     -34.456   5.092   3.759  1.00 20.00     0.314 C 
HETATM    2  F3  UNL     1     -34.396   4.156   4.743  1.00 20.00    -0.228 F 
HETATM    3 CL5  UNL     1     -33.245   4.692   2.520  1.00 20.00    -0.085 Cl
ENDROOT
BRANCH   1   4
HETATM    4  C2  UNL     1     -34.184   6.461   4.349  1.00 20.00     0.314 C 
HETATM    5  F4  UNL     1     -32.961   6.893   3.940  1.00 20.00    -0.228 F 
HETATM    6 CL6  UNL     1     -34.197   6.393   6.125  1.00 20.00    -0.085 Cl
ENDBRANCH   1   4
TORSDOF 1
ENDMDL
MODEL 2
REMARK VINA RESULT:      -4.2      0.068      3.124
REMARK  1 active torsions:
REMARK  status: ('A' for Active; 'I' for Inactive)
REMARK    1  A    between atoms: C1_1  and  C2_2 
ROOT
HETATM    1  C1  UNL     1     -34.138   6.514   4.341  1.00 20.00     0.314 C 
HETATM    2  F3  UNL     1     -32.905   6.898   3.917  1.00 20.00    -0.228 F 
HETATM    3 CL5  UNL     1     -34.137   6.457   6.117  1.00 20.00    -0.085 Cl
ENDROOT
BRANCH   1   4
HETATM    4  C2  UNL     1     -34.466   5.151   3.764  1.00 20.00     0.314 C 
HETATM    5  F4  UNL     1     -34.443   4.223   4.759  1.00 20.00    -0.228 F 
HETATM    6 CL6  UNL     1     -33.275   4.689   2.529  1.00 20.00    -0.085 Cl
ENDBRANCH   1   4
TORSDOF 1
ENDMDL
MODEL 3
REMARK VINA RESULT:      -4.2      1.737      1.898
REMARK  1 active torsions:
REMARK  status: ('A' for Active; 'I' for Inactive)
REMARK    1  A    between atoms: C1_1  and  C2_2 
ROOT
HETATM    1  C1  UNL     1     -34.550   5.019   4.086  1.00 20.00     0.314 C 
HETATM    2  F3  UNL     1     -34.318   3.704   3.831  1.00 20.00    -0.228 F 
HETATM    3 CL5  UNL     1     -33.445   5.994   3.094  1.00 20.00    -0.085 Cl
ENDROOT
BRANCH   1   4
HETATM    4  C2  UNL     1     -34.327   5.293   5.560  1.00 20.00     0.314 C 
HETATM    5  F4  UNL     1     -35.486   5.079   6.239  1.00 20.00    -0.228 F 
HETATM    6 CL6  UNL     1     -33.820   6.976   5.817  1.00 20.00    -0.085 Cl
ENDBRANCH   1   4
TORSDOF 1
ENDMDL
MODEL 4
REMARK VINA RESULT:      -4.2      1.734      2.837
REMARK  1 active torsions:
REMARK  status: ('A' for Active; 'I' for Inactive)
REMARK    1  A    between atoms: C1_1  and  C2_2 
ROOT
HETATM    1  C1  UNL     1     -34.328   5.298   5.583  1.00 20.00     0.314 C 
HETATM    2  F3  UNL     1     -35.489   5.093   6.260  1.00 20.00    -0.228 F 
HETATM    3 CL5  UNL     1     -33.810   6.978   5.838  1.00 20.00    -0.085 Cl
ENDROOT
BRANCH   1   4
HETATM    4  C2  UNL     1     -34.552   5.026   4.108  1.00 20.00     0.314 C 
HETATM    5  F4  UNL     1     -34.313   3.712   3.852  1.00 20.00    -0.228 F 
HETATM    6 CL6  UNL     1     -33.454   6.007   3.115  1.00 20.00    -0.085 Cl
ENDBRANCH   1   4
TORSDOF 1
ENDMDL
MODEL 5
REMARK VINA RESULT:      -4.2      1.815      2.029
REMARK  1 active torsions:
REMARK  status: ('A' for Active; 'I' for Inactive)
REMARK    1  A    between atoms: C1_1  and  C2_2 
ROOT
HETATM    1  C1  UNL     1     -33.824   5.555   3.002  1.00 20.00     0.314 C 
HETATM    2  F3  UNL     1     -33.182   4.402   2.675  1.00 20.00    -0.228 F 
HETATM    3 CL5  UNL     1     -32.628   6.867   3.090  1.00 20.00    -0.085 Cl
ENDROOT
BRANCH   1   4
HETATM    4  C2  UNL     1     -34.524   5.381   4.335  1.00 20.00     0.314 C 
HETATM    5  F4  UNL     1     -35.868   5.484   4.155  1.00 20.00    -0.228 F 
HETATM    6 CL6  UNL     1     -34.007   6.632   5.485  1.00 20.00    -0.085 Cl
ENDBRANCH   1   4
TORSDOF 1
ENDMDL
MODEL 6
REMARK VINA RESULT:      -4.2      1.818      2.592
REMARK  1 active torsions:
REMARK  status: ('A' for Active; 'I' for Inactive)
REMARK    1  A    between atoms: C1_1  and  C2_2 
ROOT
HETATM    1  C1  UNL     1     -34.556   5.361   4.348  1.00 20.00     0.314 C 
HETATM    2  F3  UNL     1     -35.897   5.484   4.164  1.00 20.00    -0.228 F 
HETATM    3 CL5  UNL     1     -34.024   6.604   5.501  1.00 20.00    -0.085 Cl
ENDROOT
BRANCH   1   4
HETATM    4  C2  UNL     1     -33.849   5.530   3.017  1.00 20.00     0.314 C 
HETATM    5  F4  UNL     1     -33.194   4.379   2.707  1.00 20.00    -0.228 F 
HETATM    6 CL6  UNL     1     -32.666   6.853   3.097  1.00 20.00    -0.085 Cl
ENDBRANCH   1   4
TORSDOF 1
ENDMDL
MODEL 7
REMARK VINA RESULT:      -4.0      1.784      2.201
REMARK  1 active torsions:
REMARK  status: ('A' for Active; 'I' for Inactive)
REMARK    1  A    between atoms: C1_1  and  C2_2 
ROOT
HETATM    1  C1  UNL     1     -33.003   6.371   3.315  1.00 20.00     0.314 C 
HETATM    2  F3  UNL     1     -33.064   7.396   2.425  1.00 20.00    -0.228 F 
HETATM    3 CL5  UNL     1     -33.224   4.842   2.437  1.00 20.00    -0.085 Cl
ENDROOT
BRANCH   1   4
HETATM    4  C2  UNL     1     -34.085   6.547   4.361  1.00 20.00     0.314 C 
HETATM    5  F4  UNL     1     -33.522   6.968   5.526  1.00 20.00    -0.228 F 
HETATM    6 CL6  UNL     1     -34.927   5.011   4.659  1.00 20.00    -0.085 Cl
ENDBRANCH   1   4
TORSDOF 1
ENDMDL
MODEL 8
REMARK VINA RESULT:      -4.0      1.783      2.626
REMARK  1 active torsions:
REMARK  status: ('A' for Active; 'I' for Inactive)
REMARK    1  A    between atoms: C1_1  and  C2_2 
ROOT
HETATM    1  C1  UNL     1     -34.104   6.536   4.305  1.00 20.00     0.314 C 
HETATM    2  F3  UNL     1     -33.556   6.945   5.480  1.00 20.00    -0.228 F 
HETATM    3 CL5  UNL     1     -35.003   5.030   4.589  1.00 20.00    -0.085 Cl
ENDROOT
BRANCH   1   4
HETATM    4  C2  UNL     1     -33.002   6.316   3.286  1.00 20.00     0.314 C 
HETATM    5  F4  UNL     1     -33.029   7.321   2.370  1.00 20.00    -0.228 F 
HETATM    6 CL6  UNL     1     -33.228   4.770   2.441  1.00 20.00    -0.085 Cl
ENDBRANCH   1   4
TORSDOF 1
ENDMDL
MODEL 9
REMARK VINA RESULT:      -3.9      2.004      2.004
REMARK  1 active torsions:
REMARK  status: ('A' for Active; 'I' for Inactive)
REMARK    1  A    between atoms: C1_1  and  C2_2 
ROOT
HETATM    1  C1  UNL     1     -34.863   5.500   5.078  1.00 20.00     0.314 C 
HETATM    2  F3  UNL     1     -35.195   4.988   6.292  1.00 20.00    -0.228 F 
HETATM    3 CL5  UNL     1     -34.396   4.162   4.005  1.00 20.00    -0.085 Cl
ENDROOT
BRANCH   1   4
HETATM    4  C2  UNL     1     -33.716   6.478   5.241  1.00 20.00     0.314 C 
HETATM    5  F4  UNL     1     -34.151   7.571   5.925  1.00 20.00    -0.228 F 
HETATM    6 CL6  UNL     1     -33.109   7.004   3.656  1.00 20.00    -0.085 Cl
ENDBRANCH   1   4
TORSDOF 1
ENDMDL
