MODEL 1
REMARK VINA RESULT:      -2.8      0.000      0.000
REMARK  0 active torsions:
REMARK  status: ('A' for Active; 'I' for Inactive)
ROOT
HETATM    1  C1  UNL     1     -24.313  17.377  11.370  1.00 20.00     0.227 C 
HETATM    2 CL2  UNL     1     -24.710  15.670  11.646  1.00 20.00    -0.076 Cl
HETATM    3 CL3  UNL     1     -24.123  17.691   9.635  1.00 20.00    -0.076 Cl
HETATM    4 BR4  UNL     1     -25.770  18.479  12.052  1.00 20.00    -0.037 Br
HETATM    5 BR5  UNL     1     -22.629  17.782  12.268  1.00 20.00    -0.037 Br
ENDROOT
TORSDOF 0
ENDMDL
MODEL 2
REMARK VINA RESULT:      -2.8      0.025      2.748
REMARK  0 active torsions:
REMARK  status: ('A' for Active; 'I' for Inactive)
ROOT
HETATM    1  C1  UNL     1     -24.302  17.363  11.367  1.00 20.00     0.227 C 
HETATM    2 CL2  UNL     1     -24.122  17.656   9.626  1.00 20.00    -0.076 Cl
HETATM    3 CL3  UNL     1     -24.700  15.660  11.666  1.00 20.00    -0.076 Cl
HETATM    4 BR4  UNL     1     -22.614  17.777  12.251  1.00 20.00    -0.037 Br
HETATM    5 BR5  UNL     1     -25.755  18.475  12.043  1.00 20.00    -0.037 Br
ENDROOT
TORSDOF 0
ENDMDL
MODEL 3
REMARK VINA RESULT:      -2.8      1.927      2.264
REMARK  0 active torsions:
REMARK  status: ('A' for Active; 'I' for Inactive)
ROOT
HETATM    1  C1  UNL     1     -24.282  17.614  11.340  1.00 20.00     0.227 C 
HETATM    2 CL2  UNL     1     -22.862  18.001  12.332  1.00 20.00    -0.076 Cl
HETATM    3 CL3  UNL     1     -24.644  15.880  11.436  1.00 20.00    -0.076 Cl
HETATM    4 BR4  UNL     1     -25.813  18.612  12.020  1.00 20.00    -0.037 Br
HETATM    5 BR5  UNL     1     -23.895  18.073   9.484  1.00 20.00    -0.037 Br
ENDROOT
TORSDOF 0
ENDMDL
MODEL 4
REMARK VINA RESULT:      -2.8      1.925      2.452
REMARK  0 active torsions:
REMARK  status: ('A' for Active; 'I' for Inactive)
ROOT
HETATM    1  C1  UNL     1     -24.276  17.598  11.355  1.00 20.00     0.227 C 
HETATM    2 CL2  UNL     1     -24.634  15.863  11.454  1.00 20.00    -0.076 Cl
HETATM    3 CL3  UNL     1     -22.848  17.988  12.331  1.00 20.00    -0.076 Cl
HETATM    4 BR4  UNL     1     -23.910  18.059   9.496  1.00 20.00    -0.037 Br
HETATM    5 BR5  UNL     1     -25.802  18.594  12.051  1.00 20.00    -0.037 Br
ENDROOT
TORSDOF 0
ENDMDL
MODEL 5
REMARK VINA RESULT:      -2.8      1.901      2.253
REMARK  0 active torsions:
REMARK  status: ('A' for Active; 'I' for Inactive)
ROOT
HETATM    1  C1  UNL     1     -24.273  17.555  11.447  1.00 20.00     0.227 C 
HETATM    2 CL2  UNL     1     -25.484  18.542  12.289  1.00 20.00    -0.076 Cl
HETATM    3 CL3  UNL     1     -24.714  15.840  11.527  1.00 20.00    -0.076 Cl
HETATM    4 BR4  UNL     1     -24.210  18.101   9.575  1.00 20.00    -0.037 Br
HETATM    5 BR5  UNL     1     -22.546  17.801  12.321  1.00 20.00    -0.037 Br
ENDROOT
TORSDOF 0
ENDMDL
MODEL 6
REMARK VINA RESULT:      -2.8      2.699      2.733
REMARK  0 active torsions:
REMARK  status: ('A' for Active; 'I' for Inactive)
ROOT
HETATM    1  C1  UNL     1     -24.245  17.787  11.468  1.00 20.00     0.227 C 
HETATM    2 CL2  UNL     1     -22.724  18.085  12.332  1.00 20.00    -0.076 Cl
HETATM    3 CL3  UNL     1     -25.564  18.712  12.210  1.00 20.00    -0.076 Cl
HETATM    4 BR4  UNL     1     -24.039  18.364   9.616  1.00 20.00    -0.037 Br
HETATM    5 BR5  UNL     1     -24.669  15.887  11.582  1.00 20.00    -0.037 Br
ENDROOT
TORSDOF 0
ENDMDL
MODEL 7
REMARK VINA RESULT:      -2.8      1.629      2.158
REMARK  0 active torsions:
REMARK  status: ('A' for Active; 'I' for Inactive)
ROOT
HETATM    1  C1  UNL     1     -23.807  17.253  10.851  1.00 20.00     0.227 C 
HETATM    2 CL2  UNL     1     -24.580  15.720  11.299  1.00 20.00    -0.076 Cl
HETATM    3 CL3  UNL     1     -25.035  18.502  10.571  1.00 20.00    -0.076 Cl
HETATM    4 BR4  UNL     1     -22.653  17.826  12.316  1.00 20.00    -0.037 Br
HETATM    5 BR5  UNL     1     -22.795  16.988   9.205  1.00 20.00    -0.037 Br
ENDROOT
TORSDOF 0
ENDMDL
MODEL 8
REMARK VINA RESULT:      -2.7     23.557     24.011
REMARK  0 active torsions:
REMARK  status: ('A' for Active; 'I' for Inactive)
ROOT
HETATM    1  C1  UNL     1     -42.057   6.382  -0.102  1.00 20.00     0.227 C 
HETATM    2 CL2  UNL     1     -41.240   7.699   0.761  1.00 20.00    -0.076 Cl
HETATM    3 CL3  UNL     1     -40.878   5.420  -1.013  1.00 20.00    -0.076 Cl
HETATM    4 BR4  UNL     1     -42.937   5.228   1.201  1.00 20.00    -0.037 Br
HETATM    5 BR5  UNL     1     -43.338   7.153  -1.355  1.00 20.00    -0.037 Br
ENDROOT
TORSDOF 0
ENDMDL
MODEL 9
REMARK VINA RESULT:      -2.7     23.555     23.977
REMARK  0 active torsions:
REMARK  status: ('A' for Active; 'I' for Inactive)
ROOT
HETATM    1  C1  UNL     1     -42.057   6.384  -0.102  1.00 20.00     0.227 C 
HETATM    2 CL2  UNL     1     -40.878   5.421  -1.014  1.00 20.00    -0.076 Cl
HETATM    3 CL3  UNL     1     -41.240   7.701   0.760  1.00 20.00    -0.076 Cl
HETATM    4 BR4  UNL     1     -43.341   7.153  -1.352  1.00 20.00    -0.037 Br
HETATM    5 BR5  UNL     1     -42.933   5.229   1.203  1.00 20.00    -0.037 Br
ENDROOT
TORSDOF 0
ENDMDL
