MODEL 1
REMARK VINA RESULT:      -5.6      0.000      0.000
REMARK  2 active torsions:
REMARK  status: ('A' for Active; 'I' for Inactive)
REMARK    1  A    between atoms: C3_3  and  C4_4 
REMARK    2  A    between atoms: C5_5  and  C9_9 
ROOT
HETATM    1  C1  UNL     1     -34.592  17.712  -0.513  1.00 20.00    -0.024 C 
HETATM    2  C2  UNL     1     -33.366  18.236  -0.678  1.00 20.00    -0.087 C 
HETATM    3  C6  UNL     1     -35.176  16.658  -1.408  1.00 20.00     0.036 C 
HETATM    4  C7  UNL     1     -32.472  17.825  -1.821  1.00 20.00     0.034 C 
HETATM    5  C8  UNL     1     -33.197  17.040  -2.918  1.00 20.00     0.013 C 
HETATM    6  C9  UNL     1     -34.135  15.985  -2.319  1.00 20.00     0.018 C 
HETATM    7  C10 UNL     1     -32.806  19.259   0.264  1.00 20.00     0.043 C 
ENDROOT
BRANCH   6   8
HETATM    8  C5  UNL     1     -34.803  15.180  -3.391  1.00 20.00    -0.076 C 
HETATM    9  C3  UNL     1     -36.127  15.034  -3.577  1.00 20.00     0.044 C 
HETATM   10  C11 UNL     1     -33.841  14.490  -4.324  1.00 20.00     0.044 C 
BRANCH   9  11
HETATM   11  C4  UNL     1     -36.758  14.231  -4.646  1.00 20.00     0.259 C 
HETATM   12  O12 UNL     1     -37.843  13.684  -4.483  1.00 20.00    -0.302 OA
ENDBRANCH   9  11
ENDBRANCH   6   8
TORSDOF 2
ENDMDL
MODEL 2
REMARK VINA RESULT:      -5.6      0.812      1.655
REMARK  2 active torsions:
REMARK  status: ('A' for Active; 'I' for Inactive)
REMARK    1  A    between atoms: C3_3  and  C4_4 
REMARK    2  A    between atoms: C5_5  and  C9_9 
ROOT
HETATM    1  C1  UNL     1     -32.573  17.791  -1.559  1.00 20.00    -0.024 C 
HETATM    2  C2  UNL     1     -33.423  18.155  -0.585  1.00 20.00    -0.087 C 
HETATM    3  C6  UNL     1     -32.923  16.827  -2.656  1.00 20.00     0.036 C 
HETATM    4  C7  UNL     1     -34.816  17.585  -0.490  1.00 20.00     0.034 C 
HETATM    5  C8  UNL     1     -35.039  16.354  -1.375  1.00 20.00     0.013 C 
HETATM    6  C9  UNL     1     -34.432  16.554  -2.768  1.00 20.00     0.018 C 
HETATM    7  C10 UNL     1     -33.044  19.152   0.469  1.00 20.00     0.043 C 
ENDROOT
BRANCH   6   8
HETATM    8  C5  UNL     1     -34.698  15.372  -3.651  1.00 20.00    -0.076 C 
HETATM    9  C3  UNL     1     -35.892  14.803  -3.890  1.00 20.00     0.044 C 
HETATM   10  C11 UNL     1     -33.462  14.813  -4.308  1.00 20.00     0.044 C 
BRANCH   9  11
HETATM   11  C4  UNL     1     -36.123  13.636  -4.767  1.00 20.00     0.259 C 
HETATM   12  O12 UNL     1     -35.853  12.496  -4.404  1.00 20.00    -0.302 OA
ENDBRANCH   9  11
ENDBRANCH   6   8
TORSDOF 2
ENDMDL
MODEL 3
REMARK VINA RESULT:      -5.2      1.191      1.197
REMARK  2 active torsions:
REMARK  status: ('A' for Active; 'I' for Inactive)
REMARK    1  A    between atoms: C3_3  and  C4_4 
REMARK    2  A    between atoms: C5_5  and  C9_9 
ROOT
HETATM    1  C1  UNL     1     -35.060  17.172  -0.699  1.00 20.00    -0.024 C 
HETATM    2  C2  UNL     1     -33.957  17.901  -0.462  1.00 20.00    -0.087 C 
HETATM    3  C6  UNL     1     -35.224  16.267  -1.886  1.00 20.00     0.036 C 
HETATM    4  C7  UNL     1     -32.782  17.897  -1.408  1.00 20.00     0.034 C 
HETATM    5  C8  UNL     1     -33.093  17.274  -2.772  1.00 20.00     0.013 C 
HETATM    6  C9  UNL     1     -33.904  15.982  -2.622  1.00 20.00     0.018 C 
HETATM    7  C10 UNL     1     -33.820  18.761   0.758  1.00 20.00     0.043 C 
ENDROOT
BRANCH   6   8
HETATM    8  C5  UNL     1     -34.161  15.343  -3.953  1.00 20.00    -0.076 C 
HETATM    9  C3  UNL     1     -35.253  15.505  -4.722  1.00 20.00     0.044 C 
HETATM   10  C11 UNL     1     -33.048  14.442  -4.422  1.00 20.00     0.044 C 
BRANCH   9  11
HETATM   11  C4  UNL     1     -35.479  14.860  -6.033  1.00 20.00     0.259 C 
HETATM   12  O12 UNL     1     -36.001  13.755  -6.124  1.00 20.00    -0.302 OA
ENDBRANCH   9  11
ENDBRANCH   6   8
TORSDOF 2
ENDMDL
MODEL 4
REMARK VINA RESULT:      -4.9      3.122      5.569
REMARK  2 active torsions:
REMARK  status: ('A' for Active; 'I' for Inactive)
REMARK    1  A    between atoms: C3_3  and  C4_4 
REMARK    2  A    between atoms: C5_5  and  C9_9 
ROOT
HETATM    1  C1  UNL     1     -35.626  15.432  -2.685  1.00 20.00    -0.024 C 
HETATM    2  C2  UNL     1     -35.019  15.108  -3.839  1.00 20.00    -0.087 C 
HETATM    3  C6  UNL     1     -35.048  16.385  -1.678  1.00 20.00     0.036 C 
HETATM    4  C7  UNL     1     -33.665  15.658  -4.209  1.00 20.00     0.034 C 
HETATM    5  C8  UNL     1     -32.932  16.324  -3.041  1.00 20.00     0.013 C 
HETATM    6  C9  UNL     1     -33.877  17.216  -2.227  1.00 20.00     0.018 C 
HETATM    7  C10 UNL     1     -35.652  14.181  -4.835  1.00 20.00     0.043 C 
ENDROOT
BRANCH   6   8
HETATM    8  C5  UNL     1     -33.147  17.911  -1.118  1.00 20.00    -0.076 C 
HETATM    9  C3  UNL     1     -31.851  18.271  -1.113  1.00 20.00     0.044 C 
HETATM   10  C11 UNL     1     -34.007  18.208   0.084  1.00 20.00     0.044 C 
BRANCH   9  11
HETATM   11  C4  UNL     1     -31.159  18.956  -0.001  1.00 20.00     0.259 C 
HETATM   12  O12 UNL     1     -30.272  18.404   0.641  1.00 20.00    -0.302 OA
ENDBRANCH   9  11
ENDBRANCH   6   8
TORSDOF 2
ENDMDL
MODEL 5
REMARK VINA RESULT:      -4.9      1.456      2.024
REMARK  2 active torsions:
REMARK  status: ('A' for Active; 'I' for Inactive)
REMARK    1  A    between atoms: C3_3  and  C4_4 
REMARK    2  A    between atoms: C5_5  and  C9_9 
ROOT
HETATM    1  C1  UNL     1     -32.862  17.834  -1.469  1.00 20.00    -0.024 C 
HETATM    2  C2  UNL     1     -33.846  17.819  -0.554  1.00 20.00    -0.087 C 
HETATM    3  C6  UNL     1     -32.948  17.144  -2.799  1.00 20.00     0.036 C 
HETATM    4  C7  UNL     1     -35.131  17.063  -0.780  1.00 20.00     0.034 C 
HETATM    5  C8  UNL     1     -35.068  16.080  -1.953  1.00 20.00     0.013 C 
HETATM    6  C9  UNL     1     -34.377  16.709  -3.168  1.00 20.00     0.018 C 
HETATM    7  C10 UNL     1     -33.732  18.556   0.747  1.00 20.00     0.043 C 
ENDROOT
BRANCH   6   8
HETATM    8  C5  UNL     1     -34.364  15.767  -4.334  1.00 20.00    -0.076 C 
HETATM    9  C3  UNL     1     -35.221  15.764  -5.371  1.00 20.00     0.044 C 
HETATM   10  C11 UNL     1     -33.257  14.746  -4.281  1.00 20.00     0.044 C 
BRANCH   9  11
HETATM   11  C4  UNL     1     -35.184  14.820  -6.508  1.00 20.00     0.259 C 
HETATM   12  O12 UNL     1     -35.988  13.900  -6.606  1.00 20.00    -0.302 OA
ENDBRANCH   9  11
ENDBRANCH   6   8
TORSDOF 2
ENDMDL
MODEL 6
REMARK VINA RESULT:      -4.8      2.998      5.658
REMARK  2 active torsions:
REMARK  status: ('A' for Active; 'I' for Inactive)
REMARK    1  A    between atoms: C3_3  and  C4_4 
REMARK    2  A    between atoms: C5_5  and  C9_9 
ROOT
HETATM    1  C1  UNL     1     -34.030  14.976  -4.411  1.00 20.00    -0.024 C 
HETATM    2  C2  UNL     1     -35.367  14.856  -4.464  1.00 20.00    -0.087 C 
HETATM    3  C6  UNL     1     -33.308  15.834  -3.413  1.00 20.00     0.036 C 
HETATM    4  C7  UNL     1     -36.273  15.617  -3.529  1.00 20.00     0.034 C 
HETATM    5  C8  UNL     1     -35.566  16.747  -2.773  1.00 20.00     0.013 C 
HETATM    6  C9  UNL     1     -34.199  16.294  -2.247  1.00 20.00     0.018 C 
HETATM    7  C10 UNL     1     -36.045  13.955  -5.454  1.00 20.00     0.043 C 
ENDROOT
BRANCH   6   8
HETATM    8  C5  UNL     1     -33.532  17.382  -1.461  1.00 20.00    -0.076 C 
HETATM    9  C3  UNL     1     -32.261  17.800  -1.590  1.00 20.00     0.044 C 
HETATM   10  C11 UNL     1     -34.430  18.033  -0.440  1.00 20.00     0.044 C 
BRANCH   9  11
HETATM   11  C4  UNL     1     -31.630  18.876  -0.798  1.00 20.00     0.259 C 
HETATM   12  O12 UNL     1     -30.554  18.712  -0.233  1.00 20.00    -0.302 OA
ENDBRANCH   9  11
ENDBRANCH   6   8
TORSDOF 2
ENDMDL
MODEL 7
REMARK VINA RESULT:      -4.7      1.236      2.016
REMARK  2 active torsions:
REMARK  status: ('A' for Active; 'I' for Inactive)
REMARK    1  A    between atoms: C3_3  and  C4_4 
REMARK    2  A    between atoms: C5_5  and  C9_9 
ROOT
HETATM    1  C1  UNL     1     -33.137  18.241  -0.298  1.00 20.00    -0.024 C 
HETATM    2  C2  UNL     1     -34.226  18.363   0.479  1.00 20.00    -0.087 C 
HETATM    3  C6  UNL     1     -33.083  17.383  -1.529  1.00 20.00     0.036 C 
HETATM    4  C7  UNL     1     -35.499  17.607   0.192  1.00 20.00     0.034 C 
HETATM    5  C8  UNL     1     -35.326  16.478  -0.829  1.00 20.00     0.013 C 
HETATM    6  C9  UNL     1     -34.469  16.929  -2.017  1.00 20.00     0.018 C 
HETATM    7  C10 UNL     1     -34.248  19.263   1.679  1.00 20.00     0.043 C 
ENDROOT
BRANCH   6   8
HETATM    8  C5  UNL     1     -34.345  15.842  -3.041  1.00 20.00    -0.076 C 
HETATM    9  C3  UNL     1     -35.241  14.870  -3.290  1.00 20.00     0.044 C 
HETATM   10  C11 UNL     1     -33.069  15.901  -3.841  1.00 20.00     0.044 C 
BRANCH   9  11
HETATM   11  C4  UNL     1     -35.091  13.809  -4.308  1.00 20.00     0.259 C 
HETATM   12  O12 UNL     1     -35.952  12.954  -4.477  1.00 20.00    -0.302 OA
ENDBRANCH   9  11
ENDBRANCH   6   8
TORSDOF 2
ENDMDL
MODEL 8
REMARK VINA RESULT:      -4.5      2.903      5.240
REMARK  2 active torsions:
REMARK  status: ('A' for Active; 'I' for Inactive)
REMARK    1  A    between atoms: C3_3  and  C4_4 
REMARK    2  A    between atoms: C5_5  and  C9_9 
ROOT
HETATM    1  C1  UNL     1     -35.001  15.521  -2.679  1.00 20.00    -0.024 C 
HETATM    2  C2  UNL     1     -34.030  15.712  -3.588  1.00 20.00    -0.087 C 
HETATM    3  C6  UNL     1     -35.133  16.325  -1.417  1.00 20.00     0.036 C 
HETATM    4  C7  UNL     1     -32.951  16.747  -3.394  1.00 20.00     0.034 C 
HETATM    5  C8  UNL     1     -32.878  17.300  -1.967  1.00 20.00     0.013 C 
HETATM    6  C9  UNL     1     -34.276  17.601  -1.415  1.00 20.00     0.018 C 
HETATM    7  C10 UNL     1     -33.959  14.912  -4.854  1.00 20.00     0.043 C 
ENDROOT
BRANCH   6   8
HETATM    8  C5  UNL     1     -34.201  18.193  -0.040  1.00 20.00    -0.076 C 
HETATM    9  C3  UNL     1     -34.965  17.863   1.017  1.00 20.00     0.044 C 
HETATM   10  C11 UNL     1     -33.145  19.258   0.108  1.00 20.00     0.044 C 
BRANCH   9  11
HETATM   11  C4  UNL     1     -34.868  18.466   2.363  1.00 20.00     0.259 C 
HETATM   12  O12 UNL     1     -35.819  18.467   3.136  1.00 20.00    -0.302 OA
ENDBRANCH   9  11
ENDBRANCH   6   8
TORSDOF 2
ENDMDL
MODEL 9
REMARK VINA RESULT:      -4.4      2.118      3.229
REMARK  2 active torsions:
REMARK  status: ('A' for Active; 'I' for Inactive)
REMARK    1  A    between atoms: C3_3  and  C4_4 
REMARK    2  A    between atoms: C5_5  and  C9_9 
ROOT
HETATM    1  C1  UNL     1     -37.303  18.059  -1.252  1.00 20.00    -0.024 C 
HETATM    2  C2  UNL     1     -37.012  18.186   0.053  1.00 20.00    -0.087 C 
HETATM    3  C6  UNL     1     -36.418  17.356  -2.240  1.00 20.00     0.036 C 
HETATM    4  C7  UNL     1     -35.729  17.651   0.639  1.00 20.00     0.034 C 
HETATM    5  C8  UNL     1     -34.685  17.269  -0.415  1.00 20.00     0.013 C 
HETATM    6  C9  UNL     1     -35.324  16.501  -1.578  1.00 20.00     0.018 C 
HETATM    7  C10 UNL     1     -37.945  18.863   1.013  1.00 20.00     0.043 C 
ENDROOT
BRANCH   6   8
HETATM    8  C5  UNL     1     -34.294  16.079  -2.581  1.00 20.00    -0.076 C 
HETATM    9  C3  UNL     1     -34.382  15.040  -3.432  1.00 20.00     0.044 C 
HETATM   10  C11 UNL     1     -33.061  16.945  -2.590  1.00 20.00     0.044 C 
BRANCH   9  11
HETATM   11  C4  UNL     1     -33.347  14.648  -4.411  1.00 20.00     0.259 C 
HETATM   12  O12 UNL     1     -33.620  14.454  -5.591  1.00 20.00    -0.302 OA
ENDBRANCH   9  11
ENDBRANCH   6   8
TORSDOF 2
ENDMDL
