MODEL 1
REMARK VINA RESULT:      -4.5      0.000      0.000
REMARK  0 active torsions:
REMARK  status: ('A' for Active; 'I' for Inactive)
ROOT
HETATM    1  C1  UNL     1     -34.962  15.612  -5.421  1.00 20.00    -0.071 C 
HETATM    2  C2  UNL     1     -34.928  15.927  -6.721  1.00 20.00    -0.027 C 
HETATM    3  C3  UNL     1     -33.114  15.576  -3.785  1.00 20.00     0.009 C 
HETATM    4  C4  UNL     1     -34.096  15.938  -2.655  1.00 20.00     0.006 C 
HETATM    5  C5  UNL     1     -34.895  13.998  -3.728  1.00 20.00     0.014 C 
HETATM    6  C6  UNL     1     -33.972  14.703  -4.717  1.00 20.00     0.015 C 
HETATM    7  C7  UNL     1     -35.426  15.314  -3.134  1.00 20.00    -0.002 C 
HETATM    8  C8  UNL     1     -36.002  16.044  -4.393  1.00 20.00    -0.021 C 
HETATM    9  C9  UNL     1     -33.897  15.425  -7.675  1.00 20.00     0.036 C 
HETATM   10  C10 UNL     1     -37.407  15.516  -4.739  1.00 20.00     0.020 C 
HETATM   11  C11 UNL     1     -36.079  17.569  -4.231  1.00 20.00     0.020 C 
ENDROOT
TORSDOF 0
ENDMDL
MODEL 2
REMARK VINA RESULT:      -4.4      1.402      2.776
REMARK  0 active torsions:
REMARK  status: ('A' for Active; 'I' for Inactive)
ROOT
HETATM    1  C1  UNL     1     -34.357  16.434  -4.857  1.00 20.00    -0.071 C 
HETATM    2  C2  UNL     1     -34.544  16.495  -6.180  1.00 20.00    -0.027 C 
HETATM    3  C3  UNL     1     -35.532  17.660  -3.065  1.00 20.00     0.009 C 
HETATM    4  C4  UNL     1     -35.314  16.480  -2.101  1.00 20.00     0.006 C 
HETATM    5  C5  UNL     1     -33.213  17.140  -2.940  1.00 20.00     0.014 C 
HETATM    6  C6  UNL     1     -34.262  17.633  -3.933  1.00 20.00     0.015 C 
HETATM    7  C7  UNL     1     -33.992  15.857  -2.605  1.00 20.00    -0.002 C 
HETATM    8  C8  UNL     1     -34.153  15.182  -4.009  1.00 20.00    -0.021 C 
HETATM    9  C9  UNL     1     -34.690  17.767  -6.945  1.00 20.00     0.036 C 
HETATM   10  C10 UNL     1     -32.873  14.422  -4.402  1.00 20.00     0.020 C 
HETATM   11  C11 UNL     1     -35.342  14.213  -4.087  1.00 20.00     0.020 C 
ENDROOT
TORSDOF 0
ENDMDL
MODEL 3
REMARK VINA RESULT:      -4.4      1.248      2.721
REMARK  0 active torsions:
REMARK  status: ('A' for Active; 'I' for Inactive)
ROOT
HETATM    1  C1  UNL     1     -35.128  16.758  -4.199  1.00 20.00    -0.071 C 
HETATM    2  C2  UNL     1     -35.512  18.024  -4.403  1.00 20.00    -0.027 C 
HETATM    3  C3  UNL     1     -34.095  15.177  -5.789  1.00 20.00     0.009 C 
HETATM    4  C4  UNL     1     -33.341  14.494  -4.634  1.00 20.00     0.006 C 
HETATM    5  C5  UNL     1     -35.640  14.476  -4.120  1.00 20.00     0.014 C 
HETATM    6  C6  UNL     1     -35.421  15.597  -5.131  1.00 20.00     0.015 C 
HETATM    7  C7  UNL     1     -34.285  14.701  -3.429  1.00 20.00    -0.002 C 
HETATM    8  C8  UNL     1     -34.372  16.204  -2.997  1.00 20.00    -0.021 C 
HETATM    9  C9  UNL     1     -36.291  18.480  -5.590  1.00 20.00     0.036 C 
HETATM   10  C10 UNL     1     -35.177  16.354  -1.692  1.00 20.00     0.020 C 
HETATM   11  C11 UNL     1     -32.999  16.863  -2.803  1.00 20.00     0.020 C 
ENDROOT
TORSDOF 0
ENDMDL
MODEL 4
REMARK VINA RESULT:      -4.3      2.222      3.680
REMARK  0 active torsions:
REMARK  status: ('A' for Active; 'I' for Inactive)
ROOT
HETATM    1  C1  UNL     1     -34.522  16.497  -2.525  1.00 20.00    -0.071 C 
HETATM    2  C2  UNL     1     -35.120  15.360  -2.899  1.00 20.00    -0.027 C 
HETATM    3  C3  UNL     1     -33.271  18.119  -3.904  1.00 20.00     0.009 C 
HETATM    4  C4  UNL     1     -33.707  19.263  -2.971  1.00 20.00     0.006 C 
HETATM    5  C5  UNL     1     -32.652  17.612  -1.663  1.00 20.00     0.014 C 
HETATM    6  C6  UNL     1     -33.127  16.927  -2.941  1.00 20.00     0.015 C 
HETATM    7  C7  UNL     1     -33.862  18.559  -1.604  1.00 20.00    -0.002 C 
HETATM    8  C8  UNL     1     -35.071  17.564  -1.584  1.00 20.00    -0.021 C 
HETATM    9  C9  UNL     1     -34.495  14.342  -3.792  1.00 20.00     0.036 C 
HETATM   10  C10 UNL     1     -35.305  17.014  -0.164  1.00 20.00     0.020 C 
HETATM   11  C11 UNL     1     -36.380  18.186  -2.091  1.00 20.00     0.020 C 
ENDROOT
TORSDOF 0
ENDMDL
MODEL 5
REMARK VINA RESULT:      -4.3      1.092      2.823
REMARK  0 active torsions:
REMARK  status: ('A' for Active; 'I' for Inactive)
ROOT
HETATM    1  C1  UNL     1     -35.948  16.031  -4.271  1.00 20.00    -0.071 C 
HETATM    2  C2  UNL     1     -37.195  16.055  -4.755  1.00 20.00    -0.027 C 
HETATM    3  C3  UNL     1     -34.461  14.094  -3.907  1.00 20.00     0.009 C 
HETATM    4  C4  UNL     1     -33.229  14.978  -4.171  1.00 20.00     0.006 C 
HETATM    5  C5  UNL     1     -34.487  15.970  -2.443  1.00 20.00     0.014 C 
HETATM    6  C6  UNL     1     -35.438  15.064  -3.220  1.00 20.00     0.015 C 
HETATM    7  C7  UNL     1     -33.692  16.374  -3.696  1.00 20.00    -0.002 C 
HETATM    8  C8  UNL     1     -34.803  16.976  -4.621  1.00 20.00    -0.021 C 
HETATM    9  C9  UNL     1     -38.275  15.120  -4.326  1.00 20.00     0.036 C 
HETATM   10  C10 UNL     1     -35.116  18.431  -4.227  1.00 20.00     0.020 C 
HETATM   11  C11 UNL     1     -34.439  16.940  -6.112  1.00 20.00     0.020 C 
ENDROOT
TORSDOF 0
ENDMDL
MODEL 6
REMARK VINA RESULT:      -4.2      1.553      2.687
REMARK  0 active torsions:
REMARK  status: ('A' for Active; 'I' for Inactive)
ROOT
HETATM    1  C1  UNL     1     -34.013  17.050  -4.536  1.00 20.00    -0.071 C 
HETATM    2  C2  UNL     1     -33.807  18.353  -4.760  1.00 20.00    -0.027 C 
HETATM    3  C3  UNL     1     -34.418  15.888  -2.396  1.00 20.00     0.009 C 
HETATM    4  C4  UNL     1     -35.276  14.835  -3.119  1.00 20.00     0.006 C 
HETATM    5  C5  UNL     1     -33.164  14.901  -4.162  1.00 20.00     0.014 C 
HETATM    6  C6  UNL     1     -33.346  16.236  -3.444  1.00 20.00     0.015 C 
HETATM    7  C7  UNL     1     -34.652  14.786  -4.532  1.00 20.00    -0.002 C 
HETATM    8  C8  UNL     1     -34.904  16.105  -5.337  1.00 20.00    -0.021 C 
HETATM    9  C9  UNL     1     -32.881  19.202  -3.955  1.00 20.00     0.036 C 
HETATM   10  C10 UNL     1     -34.426  15.960  -6.793  1.00 20.00     0.020 C 
HETATM   11  C11 UNL     1     -36.376  16.542  -5.345  1.00 20.00     0.020 C 
ENDROOT
TORSDOF 0
ENDMDL
MODEL 7
REMARK VINA RESULT:      -4.2      1.823      2.448
REMARK  0 active torsions:
REMARK  status: ('A' for Active; 'I' for Inactive)
ROOT
HETATM    1  C1  UNL     1     -35.686  15.941  -3.787  1.00 20.00    -0.071 C 
HETATM    2  C2  UNL     1     -36.397  15.144  -4.593  1.00 20.00    -0.027 C 
HETATM    3  C3  UNL     1     -33.266  15.892  -3.298  1.00 20.00     0.009 C 
HETATM    4  C4  UNL     1     -33.270  17.416  -3.079  1.00 20.00     0.006 C 
HETATM    5  C5  UNL     1     -34.885  16.464  -1.651  1.00 20.00     0.014 C 
HETATM    6  C6  UNL     1     -34.653  15.467  -2.782  1.00 20.00     0.015 C 
HETATM    7  C7  UNL     1     -34.700  17.690  -2.561  1.00 20.00    -0.002 C 
HETATM    8  C8  UNL     1     -35.785  17.458  -3.666  1.00 20.00    -0.021 C 
HETATM    9  C9  UNL     1     -36.272  13.658  -4.620  1.00 20.00     0.036 C 
HETATM   10  C10 UNL     1     -37.174  17.907  -3.174  1.00 20.00     0.020 C 
HETATM   11  C11 UNL     1     -35.475  18.181  -4.984  1.00 20.00     0.020 C 
ENDROOT
TORSDOF 0
ENDMDL
MODEL 8
REMARK VINA RESULT:      -4.2      1.187      3.060
REMARK  0 active torsions:
REMARK  status: ('A' for Active; 'I' for Inactive)
ROOT
HETATM    1  C1  UNL     1     -36.425  15.416  -4.019  1.00 20.00    -0.071 C 
HETATM    2  C2  UNL     1     -37.661  15.882  -3.807  1.00 20.00    -0.027 C 
HETATM    3  C3  UNL     1     -35.447  14.502  -6.093  1.00 20.00     0.009 C 
HETATM    4  C4  UNL     1     -34.057  15.016  -5.676  1.00 20.00     0.006 C 
HETATM    5  C5  UNL     1     -34.886  13.653  -3.942  1.00 20.00     0.014 C 
HETATM    6  C6  UNL     1     -36.092  14.127  -4.748  1.00 20.00     0.015 C 
HETATM    7  C7  UNL     1     -34.117  14.971  -4.132  1.00 20.00    -0.002 C 
HETATM    8  C8  UNL     1     -35.111  16.030  -3.547  1.00 20.00    -0.021 C 
HETATM    9  C9  UNL     1     -38.903  15.195  -4.264  1.00 20.00     0.036 C 
HETATM   10  C10 UNL     1     -35.018  16.080  -2.011  1.00 20.00     0.020 C 
HETATM   11  C11 UNL     1     -34.887  17.446  -4.098  1.00 20.00     0.020 C 
ENDROOT
TORSDOF 0
ENDMDL
MODEL 9
REMARK VINA RESULT:      -4.2      1.116      3.683
REMARK  0 active torsions:
REMARK  status: ('A' for Active; 'I' for Inactive)
ROOT
HETATM    1  C1  UNL     1     -35.099  15.951  -3.386  1.00 20.00    -0.071 C 
HETATM    2  C2  UNL     1     -34.869  15.902  -2.069  1.00 20.00    -0.027 C 
HETATM    3  C3  UNL     1     -34.765  17.832  -4.950  1.00 20.00     0.009 C 
HETATM    4  C4  UNL     1     -34.471  16.842  -6.092  1.00 20.00     0.006 C 
HETATM    5  C5  UNL     1     -36.571  16.298  -5.172  1.00 20.00     0.014 C 
HETATM    6  C6  UNL     1     -35.810  17.081  -4.106  1.00 20.00     0.015 C 
HETATM    7  C7  UNL     1     -35.307  15.602  -5.703  1.00 20.00    -0.002 C 
HETATM    8  C8  UNL     1     -34.751  14.890  -4.425  1.00 20.00    -0.021 C 
HETATM    9  C9  UNL     1     -35.283  16.965  -1.108  1.00 20.00     0.036 C 
HETATM   10  C10 UNL     1     -35.494  13.566  -4.167  1.00 20.00     0.020 C 
HETATM   11  C11 UNL     1     -33.245  14.600  -4.496  1.00 20.00     0.020 C 
ENDROOT
TORSDOF 0
ENDMDL
