MODEL 1
REMARK VINA RESULT:      -4.6      0.000      0.000
REMARK  1 active torsions:
REMARK  status: ('A' for Active; 'I' for Inactive)
REMARK    1  A    between atoms: C1_1  and  C2_2 
ROOT
HETATM    1  C1  UNL     1     -34.647   5.052   4.059  1.00 20.00     0.314 C 
HETATM    2  F3  UNL     1     -34.257   3.750   4.053  1.00 20.00    -0.228 F 
HETATM    3 CL5  UNL     1     -33.437   6.012   3.179  1.00 20.00    -0.085 Cl
ENDROOT
BRANCH   1   4
HETATM    4  C2  UNL     1     -34.772   5.533   5.491  1.00 20.00     0.314 C 
HETATM    5  F4  UNL     1     -34.333   4.561   6.333  1.00 20.00    -0.228 F 
HETATM    6 CL6  UNL     1     -33.794   6.994   5.751  1.00 20.00    -0.085 Cl
ENDBRANCH   1   4
TORSDOF 1
ENDMDL
MODEL 2
REMARK VINA RESULT:      -4.4      1.229      2.611
REMARK  1 active torsions:
REMARK  status: ('A' for Active; 'I' for Inactive)
REMARK    1  A    between atoms: C1_1  and  C2_2 
ROOT
HETATM    1  C1  UNL     1     -34.390   5.256   5.683  1.00 20.00     0.314 C 
HETATM    2  F3  UNL     1     -35.402   5.148   6.583  1.00 20.00    -0.228 F 
HETATM    3 CL5  UNL     1     -33.794   6.930   5.693  1.00 20.00    -0.085 Cl
ENDROOT
BRANCH   1   4
HETATM    4  C2  UNL     1     -34.899   4.878   4.306  1.00 20.00     0.314 C 
HETATM    5  F4  UNL     1     -36.043   5.562   4.044  1.00 20.00    -0.228 F 
HETATM    6 CL6  UNL     1     -33.699   5.283   3.060  1.00 20.00    -0.085 Cl
ENDBRANCH   1   4
TORSDOF 1
ENDMDL
MODEL 3
REMARK VINA RESULT:      -4.3      1.974      2.633
REMARK  1 active torsions:
REMARK  status: ('A' for Active; 'I' for Inactive)
REMARK    1  A    between atoms: C1_1  and  C2_2 
ROOT
HETATM    1  C1  UNL     1     -34.733   5.378   4.442  1.00 20.00     0.314 C 
HETATM    2  F3  UNL     1     -36.023   5.519   4.039  1.00 20.00    -0.228 F 
HETATM    3 CL5  UNL     1     -34.709   5.157   6.205  1.00 20.00    -0.085 Cl
ENDROOT
BRANCH   1   4
HETATM    4  C2  UNL     1     -33.945   6.611   4.048  1.00 20.00     0.314 C 
HETATM    5  F4  UNL     1     -33.209   7.035   5.108  1.00 20.00    -0.228 F 
HETATM    6 CL6  UNL     1     -32.843   6.248   2.702  1.00 20.00    -0.085 Cl
ENDBRANCH   1   4
TORSDOF 1
ENDMDL
MODEL 4
REMARK VINA RESULT:      -4.3      1.578      2.168
REMARK  1 active torsions:
REMARK  status: ('A' for Active; 'I' for Inactive)
REMARK    1  A    between atoms: C1_1  and  C2_2 
ROOT
HETATM    1  C1  UNL     1     -34.813   5.328   5.163  1.00 20.00     0.314 C 
HETATM    2  F3  UNL     1     -34.455   4.886   6.397  1.00 20.00    -0.228 F 
HETATM    3 CL5  UNL     1     -34.310   4.121   3.959  1.00 20.00    -0.085 Cl
ENDROOT
BRANCH   1   4
HETATM    4  C2  UNL     1     -34.146   6.662   4.893  1.00 20.00     0.314 C 
HETATM    5  F4  UNL     1     -33.313   6.967   5.923  1.00 20.00    -0.228 F 
HETATM    6 CL6  UNL     1     -33.193   6.595   3.394  1.00 20.00    -0.085 Cl
ENDBRANCH   1   4
TORSDOF 1
ENDMDL
MODEL 5
REMARK VINA RESULT:      -4.2      1.361      1.771
REMARK  1 active torsions:
REMARK  status: ('A' for Active; 'I' for Inactive)
REMARK    1  A    between atoms: C1_1  and  C2_2 
ROOT
HETATM    1  C1  UNL     1     -33.613   5.447   2.714  1.00 20.00     0.314 C 
HETATM    2  F3  UNL     1     -32.778   4.422   2.402  1.00 20.00    -0.228 F 
HETATM    3 CL5  UNL     1     -32.635   6.866   3.150  1.00 20.00    -0.085 Cl
ENDROOT
BRANCH   1   4
HETATM    4  C2  UNL     1     -34.503   5.037   3.870  1.00 20.00     0.314 C 
HETATM    5  F4  UNL     1     -34.169   3.784   4.275  1.00 20.00    -0.228 F 
HETATM    6 CL6  UNL     1     -34.303   6.149   5.242  1.00 20.00    -0.085 Cl
ENDBRANCH   1   4
TORSDOF 1
ENDMDL
MODEL 6
REMARK VINA RESULT:      -4.2      1.574      2.145
REMARK  1 active torsions:
REMARK  status: ('A' for Active; 'I' for Inactive)
REMARK    1  A    between atoms: C1_1  and  C2_2 
ROOT
HETATM    1  C1  UNL     1     -34.019   6.327   3.898  1.00 20.00     0.314 C 
HETATM    2  F3  UNL     1     -33.038   5.884   3.067  1.00 20.00    -0.228 F 
HETATM    3 CL5  UNL     1     -33.265   7.148   5.282  1.00 20.00    -0.085 Cl
ENDROOT
BRANCH   1   4
HETATM    4  C2  UNL     1     -34.852   5.149   4.365  1.00 20.00     0.314 C 
HETATM    5  F4  UNL     1     -34.317   3.998   3.881  1.00 20.00    -0.228 F 
HETATM    6 CL6  UNL     1     -34.876   5.062   6.139  1.00 20.00    -0.085 Cl
ENDBRANCH   1   4
TORSDOF 1
ENDMDL
MODEL 7
REMARK VINA RESULT:      -4.1      2.491      3.261
REMARK  1 active torsions:
REMARK  status: ('A' for Active; 'I' for Inactive)
REMARK    1  A    between atoms: C1_1  and  C2_2 
ROOT
HETATM    1  C1  UNL     1     -34.162   6.532   4.499  1.00 20.00     0.314 C 
HETATM    2  F3  UNL     1     -33.362   6.911   5.530  1.00 20.00    -0.228 F 
HETATM    3 CL5  UNL     1     -34.793   4.905   4.836  1.00 20.00    -0.085 Cl
ENDROOT
BRANCH   1   4
HETATM    4  C2  UNL     1     -33.361   6.539   3.212  1.00 20.00     0.314 C 
HETATM    5  F4  UNL     1     -32.117   7.029   3.458  1.00 20.00    -0.228 F 
HETATM    6 CL6  UNL     1     -33.204   4.892   2.562  1.00 20.00    -0.085 Cl
ENDBRANCH   1   4
TORSDOF 1
ENDMDL
MODEL 8
REMARK VINA RESULT:      -4.0      1.906      2.926
REMARK  1 active torsions:
REMARK  status: ('A' for Active; 'I' for Inactive)
REMARK    1  A    between atoms: C1_1  and  C2_2 
ROOT
HETATM    1  C1  UNL     1     -33.993   6.638   4.392  1.00 20.00     0.314 C 
HETATM    2  F3  UNL     1     -32.788   6.952   3.848  1.00 20.00    -0.228 F 
HETATM    3 CL5  UNL     1     -33.897   6.856   6.153  1.00 20.00    -0.085 Cl
ENDROOT
BRANCH   1   4
HETATM    4  C2  UNL     1     -34.342   5.203   4.049  1.00 20.00     0.314 C 
HETATM    5  F4  UNL     1     -35.686   5.093   3.881  1.00 20.00    -0.228 F 
HETATM    6 CL6  UNL     1     -33.540   4.705   2.544  1.00 20.00    -0.085 Cl
ENDBRANCH   1   4
TORSDOF 1
ENDMDL
MODEL 9
REMARK VINA RESULT:      -3.9      1.979      1.979
REMARK  1 active torsions:
REMARK  status: ('A' for Active; 'I' for Inactive)
REMARK    1  A    between atoms: C1_1  and  C2_2 
ROOT
HETATM    1  C1  UNL     1     -33.894   6.499   3.847  1.00 20.00     0.314 C 
HETATM    2  F3  UNL     1     -34.198   5.285   3.317  1.00 20.00    -0.228 F 
HETATM    3 CL5  UNL     1     -32.370   7.068   3.131  1.00 20.00    -0.085 Cl
ENDROOT
BRANCH   1   4
HETATM    4  C2  UNL     1     -33.762   6.372   5.352  1.00 20.00     0.314 C 
HETATM    5  F4  UNL     1     -34.067   7.561   5.934  1.00 20.00    -0.228 F 
HETATM    6 CL6  UNL     1     -34.874   5.134   5.977  1.00 20.00    -0.085 Cl
ENDBRANCH   1   4
TORSDOF 1
ENDMDL
