MODEL 1
REMARK VINA RESULT:      -5.0      0.000      0.000
REMARK  2 active torsions:
REMARK  status: ('A' for Active; 'I' for Inactive)
REMARK    1  A    between atoms: C3_3  and  C9_9 
REMARK    2  A    between atoms: C3_3  and  C10_10 
ROOT
HETATM    1  C3  UNL     1     -33.378   5.997   3.096  1.00 20.00     0.135 C 
HETATM    2  O11 UNL     1     -33.328   4.837   2.689  1.00 20.00    -0.297 OA
ENDROOT
BRANCH   1   3
HETATM    3  C9  UNL     1     -32.368   7.061   2.631  1.00 20.00     0.063 C 
HETATM    4  C4  UNL     1     -31.990   7.058   1.126  1.00 20.00     0.045 C 
HETATM    5  C1  UNL     1     -32.825   8.312   1.041  1.00 20.00    -0.088 C 
HETATM    6  C2  UNL     1     -33.334   8.993   0.013  1.00 20.00     0.014 C 
HETATM    7  C5  UNL     1     -32.872   8.523   2.534  1.00 20.00     0.045 C 
ENDBRANCH   1   3
BRANCH   1   8
HETATM    8  C10 UNL     1     -34.416   6.439   4.054  1.00 20.00     0.056 C 
HETATM    9  C7  UNL     1     -35.352   5.324   4.584  1.00 20.00     0.012 C 
HETATM   10  C6  UNL     1     -34.423   5.190   5.807  1.00 20.00     0.002 C 
HETATM   11  C8  UNL     1     -33.936   6.623   5.516  1.00 20.00     0.012 C 
ENDBRANCH   1   8
TORSDOF 2
ENDMDL
MODEL 2
REMARK VINA RESULT:      -4.4     10.736     12.511
REMARK  2 active torsions:
REMARK  status: ('A' for Active; 'I' for Inactive)
REMARK    1  A    between atoms: C3_3  and  C9_9 
REMARK    2  A    between atoms: C3_3  and  C10_10 
ROOT
HETATM    1  C3  UNL     1     -35.553  14.483  -5.327  1.00 20.00     0.135 C 
HETATM    2  O11 UNL     1     -36.738  14.148  -5.340  1.00 20.00    -0.297 OA
ENDROOT
BRANCH   1   3
HETATM    3  C9  UNL     1     -34.673  14.288  -4.080  1.00 20.00     0.063 C 
HETATM    4  C4  UNL     1     -33.194  14.745  -4.188  1.00 20.00     0.045 C 
HETATM    5  C1  UNL     1     -33.609  15.886  -3.293  1.00 20.00    -0.088 C 
HETATM    6  C2  UNL     1     -33.028  17.043  -2.972  1.00 20.00     0.014 C 
HETATM    7  C5  UNL     1     -34.914  15.247  -2.886  1.00 20.00     0.045 C 
ENDBRANCH   1   3
BRANCH   1   8
HETATM    8  C10 UNL     1     -34.905  15.089  -6.512  1.00 20.00     0.056 C 
HETATM    9  C7  UNL     1     -35.725  15.025  -7.825  1.00 20.00     0.012 C 
HETATM   10  C6  UNL     1     -36.247  16.442  -7.512  1.00 20.00     0.002 C 
HETATM   11  C8  UNL     1     -35.012  16.632  -6.611  1.00 20.00     0.012 C 
ENDBRANCH   1   8
TORSDOF 2
ENDMDL
MODEL 3
REMARK VINA RESULT:      -4.4      0.740      4.534
REMARK  2 active torsions:
REMARK  status: ('A' for Active; 'I' for Inactive)
REMARK    1  A    between atoms: C3_3  and  C9_9 
REMARK    2  A    between atoms: C3_3  and  C10_10 
ROOT
HETATM    1  C3  UNL     1     -33.019   6.500   2.652  1.00 20.00     0.135 C 
HETATM    2  O11 UNL     1     -32.786   5.329   2.351  1.00 20.00    -0.297 OA
ENDROOT
BRANCH   1   3
HETATM    3  C9  UNL     1     -34.142   6.873   3.635  1.00 20.00     0.063 C 
HETATM    4  C4  UNL     1     -35.204   5.781   3.933  1.00 20.00     0.045 C 
HETATM    5  C1  UNL     1     -34.532   5.672   5.280  1.00 20.00    -0.088 C 
HETATM    6  C2  UNL     1     -34.596   4.760   6.252  1.00 20.00     0.014 C 
HETATM    7  C5  UNL     1     -33.768   6.965   5.137  1.00 20.00     0.045 C 
ENDBRANCH   1   3
BRANCH   1   8
HETATM    8  C10 UNL     1     -32.230   7.618   2.087  1.00 20.00     0.056 C 
HETATM    9  C7  UNL     1     -31.943   7.529   0.567  1.00 20.00     0.012 C 
HETATM   10  C6  UNL     1     -33.181   8.417   0.330  1.00 20.00     0.002 C 
HETATM   11  C8  UNL     1     -33.031   8.909   1.782  1.00 20.00     0.012 C 
ENDBRANCH   1   8
TORSDOF 2
ENDMDL
MODEL 4
REMARK VINA RESULT:      -4.4     15.126     15.994
REMARK  2 active torsions:
REMARK  status: ('A' for Active; 'I' for Inactive)
REMARK    1  A    between atoms: C3_3  and  C9_9 
REMARK    2  A    between atoms: C3_3  and  C10_10 
ROOT
HETATM    1  C3  UNL     1     -23.449  17.199  10.028  1.00 20.00     0.135 C 
HETATM    2  O11 UNL     1     -23.215  16.315   9.204  1.00 20.00    -0.297 OA
ENDROOT
BRANCH   1   3
HETATM    3  C9  UNL     1     -23.736  18.649   9.597  1.00 20.00     0.063 C 
HETATM    4  C4  UNL     1     -23.417  19.018   8.124  1.00 20.00     0.045 C 
HETATM    5  C1  UNL     1     -24.913  19.030   7.932  1.00 20.00    -0.088 C 
HETATM    6  C2  UNL     1     -25.687  19.028   6.845  1.00 20.00     0.014 C 
HETATM    7  C5  UNL     1     -25.222  19.050   9.409  1.00 20.00     0.045 C 
ENDBRANCH   1   3
BRANCH   1   8
HETATM    8  C10 UNL     1     -23.471  16.920  11.481  1.00 20.00     0.056 C 
HETATM    9  C7  UNL     1     -24.352  17.871  12.329  1.00 20.00     0.012 C 
HETATM   10  C6  UNL     1     -25.492  16.840  12.216  1.00 20.00     0.002 C 
HETATM   11  C8  UNL     1     -24.417  15.774  11.923  1.00 20.00     0.012 C 
ENDBRANCH   1   8
TORSDOF 2
ENDMDL
MODEL 5
REMARK VINA RESULT:      -4.3     10.602     11.827
REMARK  2 active torsions:
REMARK  status: ('A' for Active; 'I' for Inactive)
REMARK    1  A    between atoms: C3_3  and  C9_9 
REMARK    2  A    between atoms: C3_3  and  C10_10 
ROOT
HETATM    1  C3  UNL     1     -34.295  16.015  -4.282  1.00 20.00     0.135 C 
HETATM    2  O11 UNL     1     -34.410  17.087  -4.878  1.00 20.00    -0.297 OA
ENDROOT
BRANCH   1   3
HETATM    3  C9  UNL     1     -33.897  15.956  -2.797  1.00 20.00     0.063 C 
HETATM    4  C4  UNL     1     -33.000  17.105  -2.265  1.00 20.00     0.045 C 
HETATM    5  C1  UNL     1     -34.244  17.583  -1.558  1.00 20.00    -0.088 C 
HETATM    6  C2  UNL     1     -34.562  18.735  -0.964  1.00 20.00     0.014 C 
HETATM    7  C5  UNL     1     -34.997  16.291  -1.756  1.00 20.00     0.045 C 
ENDBRANCH   1   3
BRANCH   1   8
HETATM    8  C10 UNL     1     -34.534  14.721  -4.960  1.00 20.00     0.056 C 
HETATM    9  C7  UNL     1     -35.070  13.585  -4.054  1.00 20.00     0.012 C 
HETATM   10  C6  UNL     1     -36.496  13.965  -4.500  1.00 20.00     0.002 C 
HETATM   11  C8  UNL     1     -35.865  14.618  -5.746  1.00 20.00     0.012 C 
ENDBRANCH   1   8
TORSDOF 2
ENDMDL
MODEL 6
REMARK VINA RESULT:      -4.3     10.650     11.931
REMARK  2 active torsions:
REMARK  status: ('A' for Active; 'I' for Inactive)
REMARK    1  A    between atoms: C3_3  and  C9_9 
REMARK    2  A    between atoms: C3_3  and  C10_10 
ROOT
HETATM    1  C3  UNL     1     -34.306  15.874  -2.617  1.00 20.00     0.135 C 
HETATM    2  O11 UNL     1     -35.174  16.126  -1.781  1.00 20.00    -0.297 OA
ENDROOT
BRANCH   1   3
HETATM    3  C9  UNL     1     -34.415  14.658  -3.553  1.00 20.00     0.063 C 
HETATM    4  C4  UNL     1     -35.432  14.760  -4.720  1.00 20.00     0.045 C 
HETATM    5  C1  UNL     1     -34.217  14.897  -5.604  1.00 20.00    -0.088 C 
HETATM    6  C2  UNL     1     -34.057  15.291  -6.868  1.00 20.00     0.014 C 
HETATM    7  C5  UNL     1     -33.249  14.424  -4.548  1.00 20.00     0.045 C 
ENDBRANCH   1   3
BRANCH   1   8
HETATM    8  C10 UNL     1     -33.108  16.730  -2.773  1.00 20.00     0.056 C 
HETATM    9  C7  UNL     1     -33.284  17.959  -3.698  1.00 20.00     0.012 C 
HETATM   10  C6  UNL     1     -33.595  18.800  -2.445  1.00 20.00     0.002 C 
HETATM   11  C8  UNL     1     -32.852  17.732  -1.618  1.00 20.00     0.012 C 
ENDBRANCH   1   8
TORSDOF 2
ENDMDL
MODEL 7
REMARK VINA RESULT:      -4.3     10.807     12.597
REMARK  2 active torsions:
REMARK  status: ('A' for Active; 'I' for Inactive)
REMARK    1  A    between atoms: C3_3  and  C9_9 
REMARK    2  A    between atoms: C3_3  and  C10_10 
ROOT
HETATM    1  C3  UNL     1     -35.638  14.703  -5.304  1.00 20.00     0.135 C 
HETATM    2  O11 UNL     1     -35.941  13.816  -6.102  1.00 20.00    -0.297 OA
ENDROOT
BRANCH   1   3
HETATM    3  C9  UNL     1     -34.787  14.410  -4.056  1.00 20.00     0.063 C 
HETATM    4  C4  UNL     1     -33.278  14.764  -4.138  1.00 20.00     0.045 C 
HETATM    5  C1  UNL     1     -33.623  15.905  -3.212  1.00 20.00    -0.088 C 
HETATM    6  C2  UNL     1     -32.965  17.008  -2.851  1.00 20.00     0.014 C 
HETATM    7  C5  UNL     1     -34.974  15.348  -2.836  1.00 20.00     0.045 C 
ENDBRANCH   1   3
BRANCH   1   8
HETATM    8  C10 UNL     1     -36.073  16.104  -5.500  1.00 20.00     0.056 C 
HETATM    9  C7  UNL     1     -35.122  16.984  -6.349  1.00 20.00     0.012 C 
HETATM   10  C6  UNL     1     -35.987  16.651  -7.580  1.00 20.00     0.002 C 
HETATM   11  C8  UNL     1     -37.136  16.322  -6.607  1.00 20.00     0.012 C 
ENDBRANCH   1   8
TORSDOF 2
ENDMDL
MODEL 8
REMARK VINA RESULT:      -4.2     11.300     12.954
REMARK  2 active torsions:
REMARK  status: ('A' for Active; 'I' for Inactive)
REMARK    1  A    between atoms: C3_3  and  C9_9 
REMARK    2  A    between atoms: C3_3  and  C10_10 
ROOT
HETATM    1  C3  UNL     1     -34.350  16.860  -4.990  1.00 20.00     0.135 C 
HETATM    2  O11 UNL     1     -33.918  18.013  -5.005  1.00 20.00    -0.297 OA
ENDROOT
BRANCH   1   3
HETATM    3  C9  UNL     1     -34.075  15.911  -3.811  1.00 20.00     0.063 C 
HETATM    4  C4  UNL     1     -33.378  16.522  -2.566  1.00 20.00     0.045 C 
HETATM    5  C1  UNL     1     -34.727  16.398  -1.903  1.00 20.00    -0.088 C 
HETATM    6  C2  UNL     1     -35.238  16.915  -0.784  1.00 20.00     0.014 C 
HETATM    7  C5  UNL     1     -35.291  15.474  -2.954  1.00 20.00     0.045 C 
ENDBRANCH   1   3
BRANCH   1   8
HETATM    8  C10 UNL     1     -35.162  16.321  -6.104  1.00 20.00     0.056 C 
HETATM    9  C7  UNL     1     -34.666  16.684  -7.526  1.00 20.00     0.012 C 
HETATM   10  C6  UNL     1     -33.915  15.338  -7.557  1.00 20.00     0.002 C 
HETATM   11  C8  UNL     1     -34.887  14.840  -6.470  1.00 20.00     0.012 C 
ENDBRANCH   1   8
TORSDOF 2
ENDMDL
MODEL 9
REMARK VINA RESULT:      -4.1     11.057     12.250
REMARK  2 active torsions:
REMARK  status: ('A' for Active; 'I' for Inactive)
REMARK    1  A    between atoms: C3_3  and  C9_9 
REMARK    2  A    between atoms: C3_3  and  C10_10 
ROOT
HETATM    1  C3  UNL     1     -33.666  17.336  -3.385  1.00 20.00     0.135 C 
HETATM    2  O11 UNL     1     -33.683  17.686  -4.565  1.00 20.00    -0.297 OA
ENDROOT
BRANCH   1   3
HETATM    3  C9  UNL     1     -33.646  18.364  -2.239  1.00 20.00     0.063 C 
HETATM    4  C4  UNL     1     -33.431  17.810  -0.805  1.00 20.00     0.045 C 
HETATM    5  C1  UNL     1     -32.054  18.416  -0.910  1.00 20.00    -0.088 C 
HETATM    6  C2  UNL     1     -30.940  18.263  -0.193  1.00 20.00     0.014 C 
HETATM    7  C5  UNL     1     -32.388  19.262  -2.114  1.00 20.00     0.045 C 
ENDBRANCH   1   3
BRANCH   1   8
HETATM    8  C10 UNL     1     -33.665  15.907  -2.998  1.00 20.00     0.056 C 
HETATM    9  C7  UNL     1     -35.057  15.230  -2.953  1.00 20.00     0.012 C 
HETATM   10  C6  UNL     1     -34.812  14.735  -4.392  1.00 20.00     0.002 C 
HETATM   11  C8  UNL     1     -33.303  14.913  -4.130  1.00 20.00     0.012 C 
ENDBRANCH   1   8
TORSDOF 2
ENDMDL
