MODEL 1
REMARK VINA RESULT:      -4.2      0.000      0.000
REMARK  2 active torsions:
REMARK  status: ('A' for Active; 'I' for Inactive)
REMARK    1  A    between atoms: C2_2  and  O6_6 
REMARK    2  A    between atoms: C5_5  and  O6_6 
ROOT
HETATM    1  C1  UNL     1     -33.945   4.689   3.570  1.00 20.00     0.099 A 
HETATM    2  C2  UNL     1     -33.972   6.186   3.447  1.00 20.00     0.181 A 
HETATM    3  C3  UNL     1     -34.901   5.493   4.406  1.00 20.00     0.207 A 
HETATM    4  F7  UNL     1     -36.235   5.436   4.016  1.00 20.00    -0.223 F 
HETATM    5 CL8  UNL     1     -34.624   5.590   6.135  1.00 20.00    -0.080 Cl
ENDROOT
BRANCH   2   6
HETATM    6  O6  UNL     1     -32.844   6.883   4.000  1.00 20.00    -0.382 OA
BRANCH   6   7
HETATM    7  C5  UNL     1     -31.923   7.239   2.986  1.00 20.00     0.164 C 
HETATM    8  C4  UNL     1     -32.689   7.642   1.743  1.00 20.00     0.033 C 
ENDBRANCH   6   7
ENDBRANCH   2   6
TORSDOF 2
ENDMDL
MODEL 2
REMARK VINA RESULT:      -3.6      1.656      1.729
REMARK  2 active torsions:
REMARK  status: ('A' for Active; 'I' for Inactive)
REMARK    1  A    between atoms: C2_2  and  O6_6 
REMARK    2  A    between atoms: C5_5  and  O6_6 
ROOT
HETATM    1  C1  UNL     1     -35.480   5.814   4.117  1.00 20.00     0.099 A 
HETATM    2  C2  UNL     1     -34.054   6.279   4.189  1.00 20.00     0.181 A 
HETATM    3  C3  UNL     1     -34.464   5.004   4.873  1.00 20.00     0.207 A 
HETATM    4  F7  UNL     1     -34.555   5.067   6.259  1.00 20.00    -0.223 F 
HETATM    5 CL8  UNL     1     -33.977   3.451   4.220  1.00 20.00    -0.080 Cl
ENDROOT
BRANCH   2   6
HETATM    6  O6  UNL     1     -33.294   6.168   2.974  1.00 20.00    -0.382 OA
BRANCH   6   7
HETATM    7  C5  UNL     1     -32.382   7.244   2.848  1.00 20.00     0.164 C 
HETATM    8  C4  UNL     1     -32.561   7.884   1.487  1.00 20.00     0.033 C 
ENDBRANCH   6   7
ENDBRANCH   2   6
TORSDOF 2
ENDMDL
MODEL 3
REMARK VINA RESULT:      -3.6      1.653      1.921
REMARK  2 active torsions:
REMARK  status: ('A' for Active; 'I' for Inactive)
REMARK    1  A    between atoms: C2_2  and  O6_6 
REMARK    2  A    between atoms: C5_5  and  O6_6 
ROOT
HETATM    1  C1  UNL     1     -33.980   4.307   5.022  1.00 20.00     0.099 A 
HETATM    2  C2  UNL     1     -35.077   5.049   4.312  1.00 20.00     0.181 A 
HETATM    3  C3  UNL     1     -34.668   5.459   5.701  1.00 20.00     0.207 A 
HETATM    4  F7  UNL     1     -35.557   5.116   6.714  1.00 20.00    -0.223 F 
HETATM    5 CL8  UNL     1     -33.765   6.939   5.959  1.00 20.00    -0.080 Cl
ENDROOT
BRANCH   2   6
HETATM    6  O6  UNL     1     -34.663   5.890   3.222  1.00 20.00    -0.382 OA
BRANCH   6   7
HETATM    7  C5  UNL     1     -33.415   5.468   2.703  1.00 20.00     0.164 C 
HETATM    8  C4  UNL     1     -32.534   6.681   2.492  1.00 20.00     0.033 C 
ENDBRANCH   6   7
ENDBRANCH   2   6
TORSDOF 2
ENDMDL
MODEL 4
REMARK VINA RESULT:      -3.4      9.240      9.506
REMARK  2 active torsions:
REMARK  status: ('A' for Active; 'I' for Inactive)
REMARK    1  A    between atoms: C2_2  and  O6_6 
REMARK    2  A    between atoms: C5_5  and  O6_6 
ROOT
HETATM    1  C1  UNL     1     -41.564   5.834   0.317  1.00 20.00     0.099 A 
HETATM    2  C2  UNL     1     -41.282   6.801  -0.798  1.00 20.00     0.181 A 
HETATM    3  C3  UNL     1     -41.582   5.360  -1.110  1.00 20.00     0.207 A 
HETATM    4  F7  UNL     1     -40.491   4.591  -1.502  1.00 20.00    -0.223 F 
HETATM    5 CL8  UNL     1     -43.118   4.908  -1.822  1.00 20.00    -0.080 Cl
ENDROOT
BRANCH   2   6
HETATM    6  O6  UNL     1     -42.312   7.768  -1.067  1.00 20.00    -0.382 OA
BRANCH   6   7
HETATM    7  C5  UNL     1     -42.566   8.567   0.073  1.00 20.00     0.164 C 
HETATM    8  C4  UNL     1     -41.392   9.498   0.294  1.00 20.00     0.033 C 
ENDBRANCH   6   7
ENDBRANCH   2   6
TORSDOF 2
ENDMDL
MODEL 5
REMARK VINA RESULT:      -3.4      2.919      3.887
REMARK  2 active torsions:
REMARK  status: ('A' for Active; 'I' for Inactive)
REMARK    1  A    between atoms: C2_2  and  O6_6 
REMARK    2  A    between atoms: C5_5  and  O6_6 
ROOT
HETATM    1  C1  UNL     1     -32.727   5.546   2.578  1.00 20.00     0.099 A 
HETATM    2  C2  UNL     1     -33.287   6.265   3.772  1.00 20.00     0.181 A 
HETATM    3  C3  UNL     1     -32.483   7.020   2.749  1.00 20.00     0.207 A 
HETATM    4  F7  UNL     1     -31.196   7.376   3.138  1.00 20.00    -0.223 F 
HETATM    5 CL8  UNL     1     -33.272   8.133   1.647  1.00 20.00    -0.080 Cl
ENDROOT
BRANCH   2   6
HETATM    6  O6  UNL     1     -34.711   6.462   3.778  1.00 20.00    -0.382 OA
BRANCH   6   7
HETATM    7  C5  UNL     1     -35.364   5.412   4.467  1.00 20.00     0.164 C 
HETATM    8  C4  UNL     1     -34.762   5.281   5.850  1.00 20.00     0.033 C 
ENDBRANCH   6   7
ENDBRANCH   2   6
TORSDOF 2
ENDMDL
MODEL 6
REMARK VINA RESULT:      -3.4      2.638      3.496
REMARK  2 active torsions:
REMARK  status: ('A' for Active; 'I' for Inactive)
REMARK    1  A    between atoms: C2_2  and  O6_6 
REMARK    2  A    between atoms: C5_5  and  O6_6 
ROOT
HETATM    1  C1  UNL     1     -34.624   5.600   2.761  1.00 20.00     0.099 A 
HETATM    2  C2  UNL     1     -33.776   5.626   4.001  1.00 20.00     0.181 A 
HETATM    3  C3  UNL     1     -33.127   5.666   2.644  1.00 20.00     0.207 A 
HETATM    4  F7  UNL     1     -32.503   4.489   2.242  1.00 20.00    -0.223 F 
HETATM    5 CL8  UNL     1     -32.397   7.146   2.053  1.00 20.00    -0.080 Cl
ENDROOT
BRANCH   2   6
HETATM    6  O6  UNL     1     -33.808   6.847   4.759  1.00 20.00    -0.382 OA
BRANCH   6   7
HETATM    7  C5  UNL     1     -34.211   6.603   6.094  1.00 20.00     0.164 C 
HETATM    8  C4  UNL     1     -34.761   5.196   6.193  1.00 20.00     0.033 C 
ENDBRANCH   6   7
ENDBRANCH   2   6
TORSDOF 2
ENDMDL
MODEL 7
REMARK VINA RESULT:      -3.3     11.778     12.646
REMARK  2 active torsions:
REMARK  status: ('A' for Active; 'I' for Inactive)
REMARK    1  A    between atoms: C2_2  and  O6_6 
REMARK    2  A    between atoms: C5_5  and  O6_6 
ROOT
HETATM    1  C1  UNL     1     -34.695  14.241  -3.795  1.00 20.00     0.099 A 
HETATM    2  C2  UNL     1     -35.409  15.481  -4.253  1.00 20.00     0.181 A 
HETATM    3  C3  UNL     1     -34.513  15.531  -3.046  1.00 20.00     0.207 A 
HETATM    4  F7  UNL     1     -35.163  15.611  -1.818  1.00 20.00    -0.223 F 
HETATM    5 CL8  UNL     1     -32.958  16.336  -3.129  1.00 20.00    -0.080 Cl
ENDROOT
BRANCH   2   6
HETATM    6  O6  UNL     1     -34.922  16.074  -5.469  1.00 20.00    -0.382 OA
BRANCH   6   7
HETATM    7  C5  UNL     1     -35.127  15.210  -6.571  1.00 20.00     0.164 C 
HETATM    8  C4  UNL     1     -33.880  15.201  -7.429  1.00 20.00     0.033 C 
ENDBRANCH   6   7
ENDBRANCH   2   6
TORSDOF 2
ENDMDL
MODEL 8
REMARK VINA RESULT:      -3.3     11.659     12.678
REMARK  2 active torsions:
REMARK  status: ('A' for Active; 'I' for Inactive)
REMARK    1  A    between atoms: C2_2  and  O6_6 
REMARK    2  A    between atoms: C5_5  and  O6_6 
ROOT
HETATM    1  C1  UNL     1     -32.916  14.660  -4.332  1.00 20.00     0.099 A 
HETATM    2  C2  UNL     1     -34.074  14.966  -5.239  1.00 20.00     0.181 A 
HETATM    3  C3  UNL     1     -34.324  14.476  -3.839  1.00 20.00     0.207 A 
HETATM    4  F7  UNL     1     -34.756  13.158  -3.731  1.00 20.00    -0.223 F 
HETATM    5 CL8  UNL     1     -34.931  15.571  -2.612  1.00 20.00    -0.080 Cl
ENDROOT
BRANCH   2   6
HETATM    6  O6  UNL     1     -34.311  16.357  -5.510  1.00 20.00    -0.382 OA
BRANCH   6   7
HETATM    7  C5  UNL     1     -34.497  16.579  -6.895  1.00 20.00     0.164 C 
HETATM    8  C4  UNL     1     -34.046  15.349  -7.655  1.00 20.00     0.033 C 
ENDBRANCH   6   7
ENDBRANCH   2   6
TORSDOF 2
ENDMDL
MODEL 9
REMARK VINA RESULT:      -3.2     11.833     12.224
REMARK  2 active torsions:
REMARK  status: ('A' for Active; 'I' for Inactive)
REMARK    1  A    between atoms: C2_2  and  O6_6 
REMARK    2  A    between atoms: C5_5  and  O6_6 
ROOT
HETATM    1  C1  UNL     1     -34.242  16.098  -4.651  1.00 20.00     0.099 A 
HETATM    2  C2  UNL     1     -33.872  14.705  -4.225  1.00 20.00     0.181 A 
HETATM    3  C3  UNL     1     -33.848  15.829  -3.225  1.00 20.00     0.207 A 
HETATM    4  F7  UNL     1     -32.584  16.278  -2.856  1.00 20.00    -0.223 F 
HETATM    5 CL8  UNL     1     -35.079  15.936  -1.982  1.00 20.00    -0.080 Cl
ENDROOT
BRANCH   2   6
HETATM    6  O6  UNL     1     -34.955  13.764  -4.143  1.00 20.00    -0.382 OA
BRANCH   6   7
HETATM    7  C5  UNL     1     -35.959  14.064  -5.093  1.00 20.00     0.164 C 
HETATM    8  C4  UNL     1     -37.273  14.278  -4.371  1.00 20.00     0.033 C 
ENDBRANCH   6   7
ENDBRANCH   2   6
TORSDOF 2
ENDMDL
