MODEL 1
REMARK VINA RESULT:      -3.3      0.000      0.000
REMARK  1 active torsions:
REMARK  status: ('A' for Active; 'I' for Inactive)
REMARK    1  A    between atoms: C1_1  and  S3_3 
ROOT
HETATM    1  C1  UNL     1     -33.608   5.393   3.201  1.00 20.00     0.295 C 
HETATM    2  O2  UNL     1     -33.287   4.473   2.458  1.00 20.00    -0.266 OA
HETATM    3 CL4  UNL     1     -32.862   6.966   3.243  1.00 20.00    -0.031 Cl
ENDROOT
BRANCH   1   4
HETATM    4  S3  UNL     1     -34.923   5.234   4.379  1.00 20.00     0.036 SA
HETATM    5 CL5  UNL     1     -34.203   6.355   5.916  1.00 20.00    -0.034 Cl
ENDBRANCH   1   4
TORSDOF 1
ENDMDL
MODEL 2
REMARK VINA RESULT:      -3.3      1.750      2.554
REMARK  1 active torsions:
REMARK  status: ('A' for Active; 'I' for Inactive)
REMARK    1  A    between atoms: C1_1  and  S3_3 
ROOT
HETATM    1  C1  UNL     1     -34.347   5.308   4.177  1.00 20.00     0.295 C 
HETATM    2  O2  UNL     1     -35.166   4.435   4.441  1.00 20.00    -0.266 OA
HETATM    3 CL4  UNL     1     -33.994   6.696   5.167  1.00 20.00    -0.031 Cl
ENDROOT
BRANCH   1   4
HETATM    4  S3  UNL     1     -33.380   5.270   2.692  1.00 20.00     0.036 SA
HETATM    5 CL5  UNL     1     -32.437   7.069   2.798  1.00 20.00    -0.034 Cl
ENDBRANCH   1   4
TORSDOF 1
ENDMDL
MODEL 3
REMARK VINA RESULT:      -3.3      1.683      1.683
REMARK  1 active torsions:
REMARK  status: ('A' for Active; 'I' for Inactive)
REMARK    1  A    between atoms: C1_1  and  S3_3 
ROOT
HETATM    1  C1  UNL     1     -33.628   5.719   3.375  1.00 20.00     0.295 C 
HETATM    2  O2  UNL     1     -33.172   6.853   3.469  1.00 20.00    -0.266 OA
HETATM    3 CL4  UNL     1     -33.093   4.505   2.248  1.00 20.00    -0.031 Cl
ENDROOT
BRANCH   1   4
HETATM    4  S3  UNL     1     -34.945   5.147   4.414  1.00 20.00     0.036 SA
HETATM    5 CL5  UNL     1     -34.483   6.071   6.167  1.00 20.00    -0.034 Cl
ENDBRANCH   1   4
TORSDOF 1
ENDMDL
MODEL 4
REMARK VINA RESULT:      -3.3      1.843      1.843
REMARK  1 active torsions:
REMARK  status: ('A' for Active; 'I' for Inactive)
REMARK    1  A    between atoms: C1_1  and  S3_3 
ROOT
HETATM    1  C1  UNL     1     -34.112   4.989   3.706  1.00 20.00     0.295 C 
HETATM    2  O2  UNL     1     -34.894   4.259   4.306  1.00 20.00    -0.266 OA
HETATM    3 CL4  UNL     1     -33.171   4.535   2.314  1.00 20.00    -0.031 Cl
ENDROOT
BRANCH   1   4
HETATM    4  S3  UNL     1     -33.827   6.667   4.202  1.00 20.00     0.036 SA
HETATM    5 CL5  UNL     1     -34.200   6.550   6.198  1.00 20.00    -0.034 Cl
ENDBRANCH   1   4
TORSDOF 1
ENDMDL
MODEL 5
REMARK VINA RESULT:      -3.2      2.743      3.289
REMARK  1 active torsions:
REMARK  status: ('A' for Active; 'I' for Inactive)
REMARK    1  A    between atoms: C1_1  and  S3_3 
ROOT
HETATM    1  C1  UNL     1     -34.025   6.365   4.685  1.00 20.00     0.295 C 
HETATM    2  O2  UNL     1     -33.838   7.025   5.701  1.00 20.00    -0.266 OA
HETATM    3 CL4  UNL     1     -35.214   5.107   4.502  1.00 20.00    -0.031 Cl
ENDROOT
BRANCH   1   4
HETATM    4  S3  UNL     1     -33.069   6.617   3.213  1.00 20.00     0.036 SA
HETATM    5 CL5  UNL     1     -33.144   4.762   2.383  1.00 20.00    -0.034 Cl
ENDBRANCH   1   4
TORSDOF 1
ENDMDL
MODEL 6
REMARK VINA RESULT:      -3.1      1.661      1.673
REMARK  1 active torsions:
REMARK  status: ('A' for Active; 'I' for Inactive)
REMARK    1  A    between atoms: C1_1  and  S3_3 
ROOT
HETATM    1  C1  UNL     1     -33.544   6.437   3.910  1.00 20.00     0.295 C 
HETATM    2  O2  UNL     1     -33.009   6.684   2.836  1.00 20.00    -0.266 OA
HETATM    3 CL4  UNL     1     -33.277   7.305   5.396  1.00 20.00    -0.031 Cl
ENDROOT
BRANCH   1   4
HETATM    4  S3  UNL     1     -34.703   5.109   4.098  1.00 20.00     0.036 SA
HETATM    5 CL5  UNL     1     -34.905   5.057   6.122  1.00 20.00    -0.034 Cl
ENDBRANCH   1   4
TORSDOF 1
ENDMDL
MODEL 7
REMARK VINA RESULT:      -3.0      1.918      1.918
REMARK  1 active torsions:
REMARK  status: ('A' for Active; 'I' for Inactive)
REMARK    1  A    between atoms: C1_1  and  S3_3 
ROOT
HETATM    1  C1  UNL     1     -33.482   6.509   3.951  1.00 20.00     0.295 C 
HETATM    2  O2  UNL     1     -33.138   7.213   4.894  1.00 20.00    -0.266 OA
HETATM    3 CL4  UNL     1     -32.807   6.566   2.348  1.00 20.00    -0.031 Cl
ENDROOT
BRANCH   1   4
HETATM    4  S3  UNL     1     -34.766   5.296   4.104  1.00 20.00     0.036 SA
HETATM    5 CL5  UNL     1     -34.902   5.131   6.127  1.00 20.00    -0.034 Cl
ENDBRANCH   1   4
TORSDOF 1
ENDMDL
MODEL 8
REMARK VINA RESULT:      -3.0     11.808     12.016
REMARK  1 active torsions:
REMARK  status: ('A' for Active; 'I' for Inactive)
REMARK    1  A    between atoms: C1_1  and  S3_3 
ROOT
HETATM    1  C1  UNL     1     -36.062  13.756  -4.446  1.00 20.00     0.295 C 
HETATM    2  O2  UNL     1     -35.812  12.557  -4.494  1.00 20.00    -0.266 OA
HETATM    3 CL4  UNL     1     -37.652  14.454  -4.327  1.00 20.00    -0.031 Cl
ENDROOT
BRANCH   1   4
HETATM    4  S3  UNL     1     -34.784  14.984  -4.494  1.00 20.00     0.036 SA
HETATM    5 CL5  UNL     1     -34.755  15.588  -2.553  1.00 20.00    -0.034 Cl
ENDBRANCH   1   4
TORSDOF 1
ENDMDL
MODEL 9
REMARK VINA RESULT:      -2.9      2.318      2.318
REMARK  1 active torsions:
REMARK  status: ('A' for Active; 'I' for Inactive)
REMARK    1  A    between atoms: C1_1  and  S3_3 
ROOT
HETATM    1  C1  UNL     1     -32.890   6.687   3.047  1.00 20.00     0.295 C 
HETATM    2  O2  UNL     1     -32.851   7.107   4.198  1.00 20.00    -0.266 OA
HETATM    3 CL4  UNL     1     -32.473   7.598   1.624  1.00 20.00    -0.031 Cl
ENDROOT
BRANCH   1   4
HETATM    4  S3  UNL     1     -33.396   5.031   2.668  1.00 20.00     0.036 SA
HETATM    5 CL5  UNL     1     -34.675   4.658   4.205  1.00 20.00    -0.034 Cl
ENDBRANCH   1   4
TORSDOF 1
ENDMDL
