MODEL 1
REMARK VINA RESULT:      -4.5      0.000      0.000
REMARK  0 active torsions:
REMARK  status: ('A' for Active; 'I' for Inactive)
ROOT
HETATM    1  C1  UNL     1     -35.788  15.507  -4.696  1.00 20.00    -0.071 C 
HETATM    2  C2  UNL     1     -37.035  15.699  -5.141  1.00 20.00    -0.027 C 
HETATM    3  C3  UNL     1     -34.890  15.809  -2.416  1.00 20.00     0.009 C 
HETATM    4  C4  UNL     1     -33.513  16.180  -2.997  1.00 20.00     0.006 C 
HETATM    5  C5  UNL     1     -34.133  14.076  -3.862  1.00 20.00     0.014 C 
HETATM    6  C6  UNL     1     -35.419  14.773  -3.422  1.00 20.00     0.015 C 
HETATM    7  C7  UNL     1     -33.468  15.384  -4.322  1.00 20.00    -0.002 C 
HETATM    8  C8  UNL     1     -34.490  15.931  -5.375  1.00 20.00    -0.021 C 
HETATM    9  C9  UNL     1     -38.256  15.212  -4.435  1.00 20.00     0.036 C 
HETATM   10  C10 UNL     1     -34.397  17.449  -5.584  1.00 20.00     0.020 C 
HETATM   11  C11 UNL     1     -34.300  15.237  -6.736  1.00 20.00     0.020 C 
ENDROOT
TORSDOF 0
ENDMDL
MODEL 2
REMARK VINA RESULT:      -4.4      1.221      2.994
REMARK  0 active torsions:
REMARK  status: ('A' for Active; 'I' for Inactive)
ROOT
HETATM    1  C1  UNL     1     -34.947  16.685  -4.528  1.00 20.00    -0.071 C 
HETATM    2  C2  UNL     1     -35.311  17.970  -4.605  1.00 20.00    -0.027 C 
HETATM    3  C3  UNL     1     -36.175  14.678  -5.275  1.00 20.00     0.009 C 
HETATM    4  C4  UNL     1     -35.523  13.849  -4.152  1.00 20.00     0.006 C 
HETATM    5  C5  UNL     1     -33.806  14.847  -5.423  1.00 20.00     0.014 C 
HETATM    6  C6  UNL     1     -35.068  15.676  -5.654  1.00 20.00     0.015 C 
HETATM    7  C7  UNL     1     -34.156  14.544  -3.957  1.00 20.00    -0.002 C 
HETATM    8  C8  UNL     1     -34.304  15.977  -3.341  1.00 20.00    -0.021 C 
HETATM    9  C9  UNL     1     -35.896  18.600  -5.825  1.00 20.00     0.036 C 
HETATM   10  C10 UNL     1     -35.181  16.012  -2.082  1.00 20.00     0.020 C 
HETATM   11  C11 UNL     1     -32.926  16.570  -2.995  1.00 20.00     0.020 C 
ENDROOT
TORSDOF 0
ENDMDL
MODEL 3
REMARK VINA RESULT:      -4.3      1.528      2.716
REMARK  0 active torsions:
REMARK  status: ('A' for Active; 'I' for Inactive)
ROOT
HETATM    1  C1  UNL     1     -34.769  16.227  -4.882  1.00 20.00    -0.071 C 
HETATM    2  C2  UNL     1     -34.905  16.251  -6.213  1.00 20.00    -0.027 C 
HETATM    3  C3  UNL     1     -33.701  17.889  -3.401  1.00 20.00     0.009 C 
HETATM    4  C4  UNL     1     -33.303  16.772  -2.419  1.00 20.00     0.006 C 
HETATM    5  C5  UNL     1     -35.635  16.664  -2.751  1.00 20.00     0.014 C 
HETATM    6  C6  UNL     1     -35.047  17.396  -3.956  1.00 20.00     0.015 C 
HETATM    7  C7  UNL     1     -34.425  15.726  -2.609  1.00 20.00    -0.002 C 
HETATM    8  C8  UNL     1     -34.361  15.041  -4.016  1.00 20.00    -0.021 C 
HETATM    9  C9  UNL     1     -35.353  17.447  -6.985  1.00 20.00     0.036 C 
HETATM   10  C10 UNL     1     -32.969  14.499  -4.369  1.00 20.00     0.020 C 
HETATM   11  C11 UNL     1     -35.375  13.885  -4.110  1.00 20.00     0.020 C 
ENDROOT
TORSDOF 0
ENDMDL
MODEL 4
REMARK VINA RESULT:      -4.3      2.599      5.090
REMARK  0 active torsions:
REMARK  status: ('A' for Active; 'I' for Inactive)
ROOT
HETATM    1  C1  UNL     1     -33.450  17.825  -1.226  1.00 20.00    -0.071 C 
HETATM    2  C2  UNL     1     -32.611  18.383  -0.346  1.00 20.00    -0.027 C 
HETATM    3  C3  UNL     1     -33.358  17.859  -3.694  1.00 20.00     0.009 C 
HETATM    4  C4  UNL     1     -34.895  17.788  -3.762  1.00 20.00     0.006 C 
HETATM    5  C5  UNL     1     -34.130  15.965  -2.476  1.00 20.00     0.014 C 
HETATM    6  C6  UNL     1     -33.030  17.024  -2.444  1.00 20.00     0.015 C 
HETATM    7  C7  UNL     1     -35.263  17.005  -2.481  1.00 20.00    -0.002 C 
HETATM    8  C8  UNL     1     -34.974  17.827  -1.180  1.00 20.00    -0.021 C 
HETATM    9  C9  UNL     1     -31.125  18.297  -0.439  1.00 20.00     0.036 C 
HETATM   10  C10 UNL     1     -35.566  19.243  -1.209  1.00 20.00     0.020 C 
HETATM   11  C11 UNL     1     -35.513  17.096   0.063  1.00 20.00     0.020 C 
ENDROOT
TORSDOF 0
ENDMDL
MODEL 5
REMARK VINA RESULT:      -4.3      1.430      2.805
REMARK  0 active torsions:
REMARK  status: ('A' for Active; 'I' for Inactive)
ROOT
HETATM    1  C1  UNL     1     -34.321  16.317  -5.282  1.00 20.00    -0.071 C 
HETATM    2  C2  UNL     1     -34.433  16.294  -6.615  1.00 20.00    -0.027 C 
HETATM    3  C3  UNL     1     -34.788  14.519  -3.655  1.00 20.00     0.009 C 
HETATM    4  C4  UNL     1     -35.186  15.567  -2.598  1.00 20.00     0.006 C 
HETATM    5  C5  UNL     1     -33.012  16.076  -3.356  1.00 20.00     0.014 C 
HETATM    6  C6  UNL     1     -33.675  15.232  -4.442  1.00 20.00     0.015 C 
HETATM    7  C7  UNL     1     -34.320  16.790  -2.977  1.00 20.00    -0.002 C 
HETATM    8  C8  UNL     1     -34.762  17.429  -4.337  1.00 20.00    -0.021 C 
HETATM    9  C9  UNL     1     -33.932  15.182  -7.476  1.00 20.00     0.036 C 
HETATM   10  C10 UNL     1     -36.269  17.712  -4.416  1.00 20.00     0.020 C 
HETATM   11  C11 UNL     1     -34.002  18.742  -4.600  1.00 20.00     0.020 C 
ENDROOT
TORSDOF 0
ENDMDL
MODEL 6
REMARK VINA RESULT:      -4.2      1.066      3.049
REMARK  0 active torsions:
REMARK  status: ('A' for Active; 'I' for Inactive)
ROOT
HETATM    1  C1  UNL     1     -34.947  15.530  -5.278  1.00 20.00    -0.071 C 
HETATM    2  C2  UNL     1     -34.750  15.180  -6.554  1.00 20.00    -0.027 C 
HETATM    3  C3  UNL     1     -33.427  16.731  -3.746  1.00 20.00     0.009 C 
HETATM    4  C4  UNL     1     -34.028  15.978  -2.545  1.00 20.00     0.006 C 
HETATM    5  C5  UNL     1     -35.786  17.042  -3.700  1.00 20.00     0.014 C 
HETATM    6  C6  UNL     1     -34.632  16.892  -4.688  1.00 20.00     0.015 C 
HETATM    7  C7  UNL     1     -35.482  15.710  -2.994  1.00 20.00    -0.002 C 
HETATM    8  C8  UNL     1     -35.558  14.679  -4.170  1.00 20.00    -0.021 C 
HETATM    9  C9  UNL     1     -34.184  16.091  -7.592  1.00 20.00     0.036 C 
HETATM   10  C10 UNL     1     -34.765  13.392  -3.905  1.00 20.00     0.020 C 
HETATM   11  C11 UNL     1     -37.019  14.300  -4.476  1.00 20.00     0.020 C 
ENDROOT
TORSDOF 0
ENDMDL
MODEL 7
REMARK VINA RESULT:      -4.2      1.397      3.383
REMARK  0 active torsions:
REMARK  status: ('A' for Active; 'I' for Inactive)
ROOT
HETATM    1  C1  UNL     1     -34.369  17.351  -4.087  1.00 20.00    -0.071 C 
HETATM    2  C2  UNL     1     -33.987  18.521  -4.612  1.00 20.00    -0.027 C 
HETATM    3  C3  UNL     1     -33.083  15.255  -3.867  1.00 20.00     0.009 C 
HETATM    4  C4  UNL     1     -34.379  14.434  -3.997  1.00 20.00     0.006 C 
HETATM    5  C5  UNL     1     -34.651  15.963  -2.223  1.00 20.00     0.014 C 
HETATM    6  C6  UNL     1     -33.548  16.517  -3.123  1.00 20.00     0.015 C 
HETATM    7  C7  UNL     1     -35.449  15.377  -3.399  1.00 20.00    -0.002 C 
HETATM    8  C8  UNL     1     -35.698  16.634  -4.299  1.00 20.00    -0.021 C 
HETATM    9  C9  UNL     1     -32.681  19.179  -4.318  1.00 20.00     0.036 C 
HETATM   10  C10 UNL     1     -35.959  16.288  -5.771  1.00 20.00     0.020 C 
HETATM   11  C11 UNL     1     -36.887  17.459  -3.771  1.00 20.00     0.020 C 
ENDROOT
TORSDOF 0
ENDMDL
MODEL 8
REMARK VINA RESULT:      -4.2      1.221      3.278
REMARK  0 active torsions:
REMARK  status: ('A' for Active; 'I' for Inactive)
ROOT
HETATM    1  C1  UNL     1     -34.955  16.016  -3.403  1.00 20.00    -0.071 C 
HETATM    2  C2  UNL     1     -34.846  15.943  -2.072  1.00 20.00    -0.027 C 
HETATM    3  C3  UNL     1     -36.787  16.967  -4.759  1.00 20.00     0.009 C 
HETATM    4  C4  UNL     1     -36.495  15.954  -5.882  1.00 20.00     0.006 C 
HETATM    5  C5  UNL     1     -34.504  17.128  -5.414  1.00 20.00     0.014 C 
HETATM    6  C6  UNL     1     -35.391  17.246  -4.176  1.00 20.00     0.015 C 
HETATM    7  C7  UNL     1     -34.977  15.700  -5.735  1.00 20.00    -0.002 C 
HETATM    8  C8  UNL     1     -34.632  14.925  -4.419  1.00 20.00    -0.021 C 
HETATM    9  C9  UNL     1     -35.141  17.076  -1.147  1.00 20.00     0.036 C 
HETATM   10  C10 UNL     1     -35.474  13.659  -4.218  1.00 20.00     0.020 C 
HETATM   11  C11 UNL     1     -33.142  14.534  -4.387  1.00 20.00     0.020 C 
ENDROOT
TORSDOF 0
ENDMDL
MODEL 9
REMARK VINA RESULT:      -4.2      1.123      2.682
REMARK  0 active torsions:
REMARK  status: ('A' for Active; 'I' for Inactive)
ROOT
HETATM    1  C1  UNL     1     -35.556  16.017  -3.531  1.00 20.00    -0.071 C 
HETATM    2  C2  UNL     1     -35.740  16.892  -2.536  1.00 20.00    -0.027 C 
HETATM    3  C3  UNL     1     -33.462  14.951  -4.291  1.00 20.00     0.009 C 
HETATM    4  C4  UNL     1     -34.007  14.887  -5.731  1.00 20.00     0.006 C 
HETATM    5  C5  UNL     1     -35.551  13.810  -4.311  1.00 20.00     0.014 C 
HETATM    6  C6  UNL     1     -34.725  14.752  -3.437  1.00 20.00     0.015 C 
HETATM    7  C7  UNL     1     -35.533  14.760  -5.520  1.00 20.00    -0.002 C 
HETATM    8  C8  UNL     1     -36.159  16.069  -4.930  1.00 20.00    -0.021 C 
HETATM    9  C9  UNL     1     -35.146  16.745  -1.175  1.00 20.00     0.036 C 
HETATM   10  C10 UNL     1     -35.763  17.336  -5.701  1.00 20.00     0.020 C 
HETATM   11  C11 UNL     1     -37.696  15.976  -4.897  1.00 20.00     0.020 C 
ENDROOT
TORSDOF 0
ENDMDL
