MODEL 1
REMARK VINA RESULT:      -3.2      0.000      0.000
REMARK  1 active torsions:
REMARK  status: ('A' for Active; 'I' for Inactive)
REMARK    1  A    between atoms: C2_2  and  C3_3 
ROOT
HETATM    1  C1  UNL     1     -34.745   5.278   6.022  1.00 20.00     0.051 C 
HETATM    2  C3  UNL     1     -34.600   5.437   4.508  1.00 20.00     0.122 C 
HETATM    3 CL5  UNL     1     -33.987   3.901   3.809  1.00 20.00    -0.101 Cl
HETATM    4 CL6  UNL     1     -36.237   5.731   3.815  1.00 20.00    -0.101 Cl
ENDROOT
BRANCH   2   5
HETATM    5  C2  UNL     1     -33.698   6.611   4.105  1.00 20.00     0.156 C 
HETATM    6 CL4  UNL     1     -32.807   6.337   2.583  1.00 20.00    -0.127 Cl
ENDBRANCH   2   5
TORSDOF 1
ENDMDL
MODEL 2
REMARK VINA RESULT:      -3.1      1.344      1.967
REMARK  1 active torsions:
REMARK  status: ('A' for Active; 'I' for Inactive)
REMARK    1  A    between atoms: C2_2  and  C3_3 
ROOT
HETATM    1  C1  UNL     1     -34.053   4.096   3.865  1.00 20.00     0.051 C 
HETATM    2  C3  UNL     1     -34.569   5.429   4.408  1.00 20.00     0.122 C 
HETATM    3 CL5  UNL     1     -36.233   5.713   3.795  1.00 20.00    -0.101 Cl
HETATM    4 CL6  UNL     1     -34.669   5.303   6.202  1.00 20.00    -0.101 Cl
ENDROOT
BRANCH   2   5
HETATM    5  C2  UNL     1     -33.658   6.616   4.067  1.00 20.00     0.156 C 
HETATM    6 CL4  UNL     1     -32.791   6.428   2.518  1.00 20.00    -0.127 Cl
ENDBRANCH   2   5
TORSDOF 1
ENDMDL
MODEL 3
REMARK VINA RESULT:      -3.1     16.648     17.366
REMARK  1 active torsions:
REMARK  status: ('A' for Active; 'I' for Inactive)
REMARK    1  A    between atoms: C2_2  and  C3_3 
ROOT
HETATM    1  C1  UNL     1     -22.848  17.681  12.160  1.00 20.00     0.051 C 
HETATM    2  C3  UNL     1     -23.803  17.243  11.049  1.00 20.00     0.122 C 
HETATM    3 CL5  UNL     1     -22.855  16.865   9.571  1.00 20.00    -0.101 Cl
HETATM    4 CL6  UNL     1     -24.615  15.723  11.573  1.00 20.00    -0.101 Cl
ENDROOT
BRANCH   2   5
HETATM    5  C2  UNL     1     -24.892  18.279  10.741  1.00 20.00     0.156 C 
HETATM    6 CL4  UNL     1     -25.737  18.878  12.195  1.00 20.00    -0.127 Cl
ENDBRANCH   2   5
TORSDOF 1
ENDMDL
MODEL 4
REMARK VINA RESULT:      -3.1      1.356      1.958
REMARK  1 active torsions:
REMARK  status: ('A' for Active; 'I' for Inactive)
REMARK    1  A    between atoms: C2_2  and  C3_3 
ROOT
HETATM    1  C1  UNL     1     -35.958   5.733   3.854  1.00 20.00     0.051 C 
HETATM    2  C3  UNL     1     -34.560   5.487   4.423  1.00 20.00     0.122 C 
HETATM    3 CL5  UNL     1     -34.676   5.273   6.202  1.00 20.00    -0.101 Cl
HETATM    4 CL6  UNL     1     -33.938   3.943   3.733  1.00 20.00    -0.101 Cl
ENDROOT
BRANCH   2   5
HETATM    5  C2  UNL     1     -33.560   6.597   4.076  1.00 20.00     0.156 C 
HETATM    6 CL4  UNL     1     -32.794   6.393   2.477  1.00 20.00    -0.127 Cl
ENDBRANCH   2   5
TORSDOF 1
ENDMDL
MODEL 5
REMARK VINA RESULT:      -3.1      1.234      2.088
REMARK  1 active torsions:
REMARK  status: ('A' for Active; 'I' for Inactive)
REMARK    1  A    between atoms: C2_2  and  C3_3 
ROOT
HETATM    1  C1  UNL     1     -34.750   5.261   6.016  1.00 20.00     0.051 C 
HETATM    2  C3  UNL     1     -34.651   5.402   4.497  1.00 20.00     0.122 C 
HETATM    3 CL5  UNL     1     -36.283   5.737   3.827  1.00 20.00    -0.101 Cl
HETATM    4 CL6  UNL     1     -33.614   6.829   4.133  1.00 20.00    -0.101 Cl
ENDROOT
BRANCH   2   5
HETATM    5  C2  UNL     1     -34.027   4.178   3.814  1.00 20.00     0.156 C 
HETATM    6 CL4  UNL     1     -33.079   4.580   2.356  1.00 20.00    -0.127 Cl
ENDBRANCH   2   5
TORSDOF 1
ENDMDL
MODEL 6
REMARK VINA RESULT:      -3.1     16.723     17.325
REMARK  1 active torsions:
REMARK  status: ('A' for Active; 'I' for Inactive)
REMARK    1  A    between atoms: C2_2  and  C3_3 
ROOT
HETATM    1  C1  UNL     1     -22.812  17.752  12.332  1.00 20.00     0.051 C 
HETATM    2  C3  UNL     1     -24.101  17.512  11.546  1.00 20.00     0.122 C 
HETATM    3 CL5  UNL     1     -24.619  15.806  11.768  1.00 20.00    -0.101 Cl
HETATM    4 CL6  UNL     1     -25.388  18.562  12.243  1.00 20.00    -0.101 Cl
ENDROOT
BRANCH   2   5
HETATM    5  C2  UNL     1     -23.973  17.847  10.054  1.00 20.00     0.156 C 
HETATM    6 CL4  UNL     1     -22.766  16.849   9.199  1.00 20.00    -0.127 Cl
ENDBRANCH   2   5
TORSDOF 1
ENDMDL
MODEL 7
REMARK VINA RESULT:      -3.0      8.869      9.372
REMARK  1 active torsions:
REMARK  status: ('A' for Active; 'I' for Inactive)
REMARK    1  A    between atoms: C2_2  and  C3_3 
ROOT
HETATM    1  C1  UNL     1     -43.358   6.341  -1.493  1.00 20.00     0.051 C 
HETATM    2  C3  UNL     1     -42.100   6.670  -0.689  1.00 20.00     0.122 C 
HETATM    3 CL5  UNL     1     -42.484   6.600   1.064  1.00 20.00    -0.101 Cl
HETATM    4 CL6  UNL     1     -40.872   5.395  -1.024  1.00 20.00    -0.101 Cl
ENDROOT
BRANCH   2   5
HETATM    5  C2  UNL     1     -41.485   8.027  -1.053  1.00 20.00     0.156 C 
HETATM    6 CL4  UNL     1     -41.507   9.204   0.289  1.00 20.00    -0.127 Cl
ENDBRANCH   2   5
TORSDOF 1
ENDMDL
MODEL 8
REMARK VINA RESULT:      -3.0     16.683     17.375
REMARK  1 active torsions:
REMARK  status: ('A' for Active; 'I' for Inactive)
REMARK    1  A    between atoms: C2_2  and  C3_3 
ROOT
HETATM    1  C1  UNL     1     -25.394  18.495  11.844  1.00 20.00     0.051 C 
HETATM    2  C3  UNL     1     -24.231  17.651  11.323  1.00 20.00     0.122 C 
HETATM    3 CL5  UNL     1     -22.778  17.960  12.332  1.00 20.00    -0.101 Cl
HETATM    4 CL6  UNL     1     -24.666  15.913  11.520  1.00 20.00    -0.101 Cl
ENDROOT
BRANCH   2   5
HETATM    5  C2  UNL     1     -23.920  17.895   9.840  1.00 20.00     0.156 C 
HETATM    6 CL4  UNL     1     -22.515  16.971   9.244  1.00 20.00    -0.127 Cl
ENDBRANCH   2   5
TORSDOF 1
ENDMDL
MODEL 9
REMARK VINA RESULT:      -3.0     16.491     17.286
REMARK  1 active torsions:
REMARK  status: ('A' for Active; 'I' for Inactive)
REMARK    1  A    between atoms: C2_2  and  C3_3 
ROOT
HETATM    1  C1  UNL     1     -24.545  15.835  11.607  1.00 20.00     0.051 C 
HETATM    2  C3  UNL     1     -23.893  17.127  11.113  1.00 20.00     0.122 C 
HETATM    3 CL5  UNL     1     -22.652  17.653  12.298  1.00 20.00    -0.101 Cl
HETATM    4 CL6  UNL     1     -23.045  16.770   9.564  1.00 20.00    -0.101 Cl
ENDROOT
BRANCH   2   5
HETATM    5  C2  UNL     1     -24.902  18.253  10.851  1.00 20.00     0.156 C 
HETATM    6 CL4  UNL     1     -24.650  19.089   9.294  1.00 20.00    -0.127 Cl
ENDBRANCH   2   5
TORSDOF 1
ENDMDL
