MODEL 1
REMARK VINA RESULT:      -5.2      0.000      0.000
REMARK  1 active torsions:
REMARK  status: ('A' for Active; 'I' for Inactive)
REMARK    1  A    between atoms: C4_4  and  C8_8 
ROOT
HETATM    1  C1  UNL     1     -35.206  15.939  -2.138  1.00 20.00     0.030 A 
HETATM    2  C2  UNL     1     -32.995  16.677  -2.732  1.00 20.00     0.055 A 
HETATM    3  C3  UNL     1     -35.188  16.879  -1.121  1.00 20.00     0.119 A 
HETATM    4  C4  UNL     1     -34.086  15.842  -2.955  1.00 20.00    -0.010 A 
HETATM    5  C5  UNL     1     -33.076  17.583  -1.688  1.00 20.00     0.126 A 
HETATM    6  N9  UNL     1     -34.148  17.707  -0.873  1.00 20.00    -0.249 NA
HETATM    7 CL12 UNL     1     -31.779  18.652  -1.339  1.00 20.00    -0.062 Cl
ENDROOT
BRANCH   4   8
HETATM    8  C8  UNL     1     -34.051  14.809  -4.110  1.00 20.00     0.173 C 
HETATM    9  C6  UNL     1     -35.193  13.781  -4.174  1.00 20.00     0.218 C 
HETATM   10  O10 UNL     1     -35.372  14.033  -5.589  1.00 20.00    -0.384 OA
HETATM   11  C7  UNL     1     -34.602  15.253  -5.475  1.00 20.00     0.218 C 
HETATM   12  F11 UNL     1     -32.807  14.283  -4.142  1.00 20.00    -0.233 F 
ENDBRANCH   4   8
TORSDOF 1
ENDMDL
MODEL 2
REMARK VINA RESULT:      -5.2      1.562      2.071
REMARK  1 active torsions:
REMARK  status: ('A' for Active; 'I' for Inactive)
REMARK    1  A    between atoms: C4_4  and  C8_8 
ROOT
HETATM    1  C1  UNL     1     -33.315  16.067  -3.404  1.00 20.00     0.030 A 
HETATM    2  C2  UNL     1     -35.317  15.917  -2.079  1.00 20.00     0.055 A 
HETATM    3  C3  UNL     1     -32.885  17.064  -2.544  1.00 20.00     0.119 A 
HETATM    4  C4  UNL     1     -34.555  15.487  -3.161  1.00 20.00    -0.010 A 
HETATM    5  C5  UNL     1     -34.798  16.921  -1.279  1.00 20.00     0.126 A 
HETATM    6  N9  UNL     1     -33.597  17.508  -1.483  1.00 20.00    -0.249 NA
HETATM    7 CL12 UNL     1     -35.668  17.515   0.076  1.00 20.00    -0.062 Cl
ENDROOT
BRANCH   4   8
HETATM    8  C8  UNL     1     -35.086  14.366  -4.091  1.00 20.00     0.173 C 
HETATM    9  C6  UNL     1     -36.609  14.258  -4.271  1.00 20.00     0.218 C 
HETATM   10  O10 UNL     1     -36.457  14.157  -5.707  1.00 20.00    -0.384 OA
HETATM   11  C7  UNL     1     -35.098  14.646  -5.602  1.00 20.00     0.218 C 
HETATM   12  F11 UNL     1     -34.472  13.219  -3.728  1.00 20.00    -0.233 F 
ENDBRANCH   4   8
TORSDOF 1
ENDMDL
MODEL 3
REMARK VINA RESULT:      -5.0      1.722      2.301
REMARK  1 active torsions:
REMARK  status: ('A' for Active; 'I' for Inactive)
REMARK    1  A    between atoms: C4_4  and  C8_8 
ROOT
HETATM    1  C1  UNL     1     -32.995  16.835  -2.769  1.00 20.00     0.030 A 
HETATM    2  C2  UNL     1     -35.092  16.183  -1.788  1.00 20.00     0.055 A 
HETATM    3  C3  UNL     1     -32.875  17.774  -1.758  1.00 20.00     0.119 A 
HETATM    4  C4  UNL     1     -34.127  16.028  -2.778  1.00 20.00    -0.010 A 
HETATM    5  C5  UNL     1     -34.879  17.152  -0.822  1.00 20.00     0.126 A 
HETATM    6  N9  UNL     1     -33.792  17.954  -0.780  1.00 20.00    -0.249 NA
HETATM    7 CL12 UNL     1     -36.016  17.414   0.437  1.00 20.00    -0.062 Cl
ENDROOT
BRANCH   4   8
HETATM    8  C8  UNL     1     -34.312  14.960  -3.886  1.00 20.00     0.173 C 
HETATM    9  C6  UNL     1     -34.617  15.460  -5.307  1.00 20.00     0.218 C 
HETATM   10  O10 UNL     1     -33.611  14.578  -5.860  1.00 20.00    -0.384 OA
HETATM   11  C7  UNL     1     -33.043  14.391  -4.541  1.00 20.00     0.218 C 
HETATM   12  F11 UNL     1     -35.172  14.033  -3.410  1.00 20.00    -0.233 F 
ENDBRANCH   4   8
TORSDOF 1
ENDMDL
MODEL 4
REMARK VINA RESULT:      -4.8      1.296      1.498
REMARK  1 active torsions:
REMARK  status: ('A' for Active; 'I' for Inactive)
REMARK    1  A    between atoms: C4_4  and  C8_8 
ROOT
HETATM    1  C1  UNL     1     -35.133  16.458  -1.703  1.00 20.00     0.030 A 
HETATM    2  C2  UNL     1     -32.936  17.244  -2.289  1.00 20.00     0.055 A 
HETATM    3  C3  UNL     1     -35.040  17.221  -0.550  1.00 20.00     0.119 A 
HETATM    4  C4  UNL     1     -34.058  16.475  -2.583  1.00 20.00    -0.010 A 
HETATM    5  C5  UNL     1     -32.941  17.971  -1.110  1.00 20.00     0.126 A 
HETATM    6  N9  UNL     1     -33.967  17.981  -0.229  1.00 20.00    -0.249 NA
HETATM    7 CL12 UNL     1     -31.602  18.947  -0.664  1.00 20.00    -0.062 Cl
ENDROOT
BRANCH   4   8
HETATM    8  C8  UNL     1     -34.108  15.640  -3.889  1.00 20.00     0.173 C 
HETATM    9  C6  UNL     1     -32.865  14.809  -4.245  1.00 20.00     0.218 C 
HETATM   10  O10 UNL     1     -33.689  13.651  -4.521  1.00 20.00    -0.384 OA
HETATM   11  C7  UNL     1     -34.799  14.269  -3.827  1.00 20.00     0.218 C 
HETATM   12  F11 UNL     1     -34.549  16.457  -4.870  1.00 20.00    -0.233 F 
ENDBRANCH   4   8
TORSDOF 1
ENDMDL
MODEL 5
REMARK VINA RESULT:      -4.7      3.633      4.745
REMARK  1 active torsions:
REMARK  status: ('A' for Active; 'I' for Inactive)
REMARK    1  A    between atoms: C4_4  and  C8_8 
ROOT
HETATM    1  C1  UNL     1     -32.999  15.882  -3.312  1.00 20.00     0.030 A 
HETATM    2  C2  UNL     1     -35.349  15.440  -3.052  1.00 20.00     0.055 A 
HETATM    3  C3  UNL     1     -32.978  14.901  -4.290  1.00 20.00     0.119 A 
HETATM    4  C4  UNL     1     -34.210  16.151  -2.685  1.00 20.00    -0.010 A 
HETATM    5  C5  UNL     1     -35.223  14.479  -4.041  1.00 20.00     0.126 A 
HETATM    6  N9  UNL     1     -34.063  14.190  -4.673  1.00 20.00    -0.249 NA
HETATM    7 CL12 UNL     1     -36.573  13.554  -4.557  1.00 20.00    -0.062 Cl
ENDROOT
BRANCH   4   8
HETATM    8  C8  UNL     1     -34.293  17.238  -1.584  1.00 20.00     0.173 C 
HETATM    9  C6  UNL     1     -35.108  18.503  -1.897  1.00 20.00     0.218 C 
HETATM   10  O10 UNL     1     -35.782  18.415  -0.620  1.00 20.00    -0.384 OA
HETATM   11  C7  UNL     1     -35.339  17.044  -0.474  1.00 20.00     0.218 C 
HETATM   12  F11 UNL     1     -33.034  17.464  -1.147  1.00 20.00    -0.233 F 
ENDBRANCH   4   8
TORSDOF 1
ENDMDL
MODEL 6
REMARK VINA RESULT:      -4.6      3.828      4.724
REMARK  1 active torsions:
REMARK  status: ('A' for Active; 'I' for Inactive)
REMARK    1  A    between atoms: C4_4  and  C8_8 
ROOT
HETATM    1  C1  UNL     1     -34.980  14.191  -3.902  1.00 20.00     0.030 A 
HETATM    2  C2  UNL     1     -36.765  15.760  -3.529  1.00 20.00     0.055 A 
HETATM    3  C3  UNL     1     -35.913  13.350  -4.487  1.00 20.00     0.119 A 
HETATM    4  C4  UNL     1     -35.421  15.416  -3.416  1.00 20.00    -0.010 A 
HETATM    5  C5  UNL     1     -37.618  14.849  -4.130  1.00 20.00     0.126 A 
HETATM    6  N9  UNL     1     -37.226  13.649  -4.614  1.00 20.00    -0.249 NA
HETATM    7 CL12 UNL     1     -39.291  15.187  -4.312  1.00 20.00    -0.062 Cl
ENDROOT
BRANCH   4   8
HETATM    8  C8  UNL     1     -34.421  16.397  -2.753  1.00 20.00     0.173 C 
HETATM    9  C6  UNL     1     -32.952  16.321  -3.202  1.00 20.00     0.218 C 
HETATM   10  O10 UNL     1     -32.898  17.760  -3.350  1.00 20.00    -0.384 OA
HETATM   11  C7  UNL     1     -34.344  17.823  -3.321  1.00 20.00     0.218 C 
HETATM   12  F11 UNL     1     -34.614  16.325  -1.418  1.00 20.00    -0.233 F 
ENDBRANCH   4   8
TORSDOF 1
ENDMDL
MODEL 7
REMARK VINA RESULT:      -4.5      3.634      4.605
REMARK  1 active torsions:
REMARK  status: ('A' for Active; 'I' for Inactive)
REMARK    1  A    between atoms: C4_4  and  C8_8 
ROOT
HETATM    1  C1  UNL     1     -35.971  14.526  -3.769  1.00 20.00     0.030 A 
HETATM    2  C2  UNL     1     -34.408  15.732  -5.144  1.00 20.00     0.055 A 
HETATM    3  C3  UNL     1     -36.324  13.804  -4.898  1.00 20.00     0.119 A 
HETATM    4  C4  UNL     1     -34.995  15.506  -3.902  1.00 20.00    -0.010 A 
HETATM    5  C5  UNL     1     -34.832  14.957  -6.211  1.00 20.00     0.126 A 
HETATM    6  N9  UNL     1     -35.778  13.995  -6.121  1.00 20.00    -0.249 NA
HETATM    7 CL12 UNL     1     -34.165  15.166  -7.779  1.00 20.00    -0.062 Cl
ENDROOT
BRANCH   4   8
HETATM    8  C8  UNL     1     -34.560  16.343  -2.672  1.00 20.00     0.173 C 
HETATM    9  C6  UNL     1     -33.074  16.724  -2.565  1.00 20.00     0.218 C 
HETATM   10  O10 UNL     1     -33.423  18.096  -2.265  1.00 20.00    -0.384 OA
HETATM   11  C7  UNL     1     -34.770  17.865  -2.742  1.00 20.00     0.218 C 
HETATM   12  F11 UNL     1     -35.077  15.746  -1.577  1.00 20.00    -0.233 F 
ENDBRANCH   4   8
TORSDOF 1
ENDMDL
MODEL 8
REMARK VINA RESULT:      -4.4      2.231      2.569
REMARK  1 active torsions:
REMARK  status: ('A' for Active; 'I' for Inactive)
REMARK    1  A    between atoms: C4_4  and  C8_8 
ROOT
HETATM    1  C1  UNL     1     -34.435  15.962  -2.307  1.00 20.00     0.030 A 
HETATM    2  C2  UNL     1     -36.509  16.480  -3.411  1.00 20.00     0.055 A 
HETATM    3  C3  UNL     1     -34.694  17.015  -1.444  1.00 20.00     0.119 A 
HETATM    4  C4  UNL     1     -35.364  15.696  -3.306  1.00 20.00    -0.010 A 
HETATM    5  C5  UNL     1     -36.674  17.509  -2.499  1.00 20.00     0.126 A 
HETATM    6  N9  UNL     1     -35.794  17.798  -1.514  1.00 20.00    -0.249 NA
HETATM    7 CL12 UNL     1     -38.055  18.528  -2.552  1.00 20.00    -0.062 Cl
ENDROOT
BRANCH   4   8
HETATM    8  C8  UNL     1     -35.127  14.530  -4.300  1.00 20.00     0.173 C 
HETATM    9  C6  UNL     1     -36.346  13.687  -4.707  1.00 20.00     0.218 C 
HETATM   10  O10 UNL     1     -35.975  13.780  -6.103  1.00 20.00    -0.384 OA
HETATM   11  C7  UNL     1     -35.078  14.874  -5.797  1.00 20.00     0.218 C 
HETATM   12  F11 UNL     1     -34.071  13.822  -3.843  1.00 20.00    -0.233 F 
ENDBRANCH   4   8
TORSDOF 1
ENDMDL
MODEL 9
REMARK VINA RESULT:      -4.3      1.238      1.344
REMARK  1 active torsions:
REMARK  status: ('A' for Active; 'I' for Inactive)
REMARK    1  A    between atoms: C4_4  and  C8_8 
ROOT
HETATM    1  C1  UNL     1     -34.926  17.297  -4.174  1.00 20.00     0.030 A 
HETATM    2  C2  UNL     1     -33.082  16.487  -2.858  1.00 20.00     0.055 A 
HETATM    3  C3  UNL     1     -34.769  18.519  -3.541  1.00 20.00     0.119 A 
HETATM    4  C4  UNL     1     -34.062  16.266  -3.820  1.00 20.00    -0.010 A 
HETATM    5  C5  UNL     1     -33.009  17.745  -2.284  1.00 20.00     0.126 A 
HETATM    6  N9  UNL     1     -33.830  18.771  -2.602  1.00 20.00    -0.249 NA
HETATM    7 CL12 UNL     1     -31.832  18.108  -1.088  1.00 20.00    -0.062 Cl
ENDROOT
BRANCH   4   8
HETATM    8  C8  UNL     1     -34.191  14.877  -4.496  1.00 20.00     0.173 C 
HETATM    9  C6  UNL     1     -35.470  14.071  -4.220  1.00 20.00     0.218 C 
HETATM   10  O10 UNL     1     -35.626  13.788  -5.631  1.00 20.00    -0.384 OA
HETATM   11  C7  UNL     1     -34.685  14.841  -5.951  1.00 20.00     0.218 C 
HETATM   12  F11 UNL     1     -33.037  14.212  -4.270  1.00 20.00    -0.233 F 
ENDBRANCH   4   8
TORSDOF 1
ENDMDL
