MODEL 1
REMARK VINA RESULT:      -5.3      0.000      0.000
REMARK  2 active torsions:
REMARK  status: ('A' for Active; 'I' for Inactive)
REMARK    1  A    between atoms: C1_1  and  C2_2 
REMARK    2  A    between atoms: C1_1  and  C3_3 
ROOT
HETATM    1  C1  UNL     1     -33.742   6.164   3.875  1.00 20.00     0.168 C 
ENDROOT
BRANCH   1   2
HETATM    2  C2  UNL     1     -33.325   5.810   2.460  1.00 20.00     0.360 C 
HETATM    3  F4  UNL     1     -32.490   6.773   1.991  1.00 20.00    -0.214 F 
HETATM    4  F5  UNL     1     -32.616   4.654   2.462  1.00 20.00    -0.214 F 
ENDBRANCH   1   2
BRANCH   1   5
HETATM    5  C3  UNL     1     -34.782   5.227   4.472  1.00 20.00     0.325 C 
HETATM    6  F6  UNL     1     -36.014   5.552   4.007  1.00 20.00    -0.188 F 
HETATM    7  F7  UNL     1     -34.531   3.962   4.040  1.00 20.00    -0.188 F 
HETATM    8 CL8  UNL     1     -34.788   5.241   6.243  1.00 20.00    -0.048 Cl
ENDBRANCH   1   5
TORSDOF 2
ENDMDL
MODEL 2
REMARK VINA RESULT:      -5.2      1.349      1.364
REMARK  2 active torsions:
REMARK  status: ('A' for Active; 'I' for Inactive)
REMARK    1  A    between atoms: C1_1  and  C2_2 
REMARK    2  A    between atoms: C1_1  and  C3_3 
ROOT
HETATM    1  C1  UNL     1     -33.973   4.471   4.050  1.00 20.00     0.168 C 
ENDROOT
BRANCH   1   2
HETATM    2  C2  UNL     1     -33.627   5.054   2.693  1.00 20.00     0.360 C 
HETATM    3  F4  UNL     1     -32.683   6.016   2.853  1.00 20.00    -0.214 F 
HETATM    4  F5  UNL     1     -33.075   4.098   1.906  1.00 20.00    -0.214 F 
ENDBRANCH   1   2
BRANCH   1   5
HETATM    5  C3  UNL     1     -34.820   5.383   4.925  1.00 20.00     0.325 C 
HETATM    6  F6  UNL     1     -35.937   5.758   4.252  1.00 20.00    -0.188 F 
HETATM    7  F7  UNL     1     -35.245   4.679   6.008  1.00 20.00    -0.188 F 
HETATM    8 CL8  UNL     1     -33.945   6.819   5.477  1.00 20.00    -0.048 Cl
ENDBRANCH   1   5
TORSDOF 2
ENDMDL
MODEL 3
REMARK VINA RESULT:      -5.1      1.553      1.910
REMARK  2 active torsions:
REMARK  status: ('A' for Active; 'I' for Inactive)
REMARK    1  A    between atoms: C1_1  and  C2_2 
REMARK    2  A    between atoms: C1_1  and  C3_3 
ROOT
HETATM    1  C1  UNL     1     -33.987   6.677   4.262  1.00 20.00     0.168 C 
ENDROOT
BRANCH   1   2
HETATM    2  C2  UNL     1     -32.828   6.428   3.315  1.00 20.00     0.360 C 
HETATM    3  F4  UNL     1     -33.276   6.509   2.035  1.00 20.00    -0.214 F 
HETATM    4  F5  UNL     1     -31.896   7.403   3.459  1.00 20.00    -0.214 F 
ENDBRANCH   1   2
BRANCH   1   5
HETATM    5  C3  UNL     1     -34.810   5.437   4.581  1.00 20.00     0.325 C 
HETATM    6  F6  UNL     1     -34.940   5.307   5.925  1.00 20.00    -0.188 F 
HETATM    7  F7  UNL     1     -36.066   5.608   4.089  1.00 20.00    -0.188 F 
HETATM    8 CL8  UNL     1     -34.120   3.955   3.900  1.00 20.00    -0.048 Cl
ENDBRANCH   1   5
TORSDOF 2
ENDMDL
MODEL 4
REMARK VINA RESULT:      -5.0      2.023      3.550
REMARK  2 active torsions:
REMARK  status: ('A' for Active; 'I' for Inactive)
REMARK    1  A    between atoms: C1_1  and  C2_2 
REMARK    2  A    between atoms: C1_1  and  C3_3 
ROOT
HETATM    1  C1  UNL     1     -33.871   6.662   4.509  1.00 20.00     0.168 C 
ENDROOT
BRANCH   1   2
HETATM    2  C2  UNL     1     -34.724   5.436   4.774  1.00 20.00     0.360 C 
HETATM    3  F4  UNL     1     -35.009   5.373   6.100  1.00 20.00    -0.214 F 
HETATM    4  F5  UNL     1     -35.912   5.551   4.129  1.00 20.00    -0.214 F 
ENDBRANCH   1   2
BRANCH   1   5
HETATM    5  C3  UNL     1     -33.088   6.609   3.205  1.00 20.00     0.325 C 
HETATM    6  F6  UNL     1     -33.602   7.505   2.325  1.00 20.00    -0.188 F 
HETATM    7  F7  UNL     1     -31.809   7.001   3.447  1.00 20.00    -0.188 F 
HETATM    8 CL8  UNL     1     -33.070   4.996   2.474  1.00 20.00    -0.048 Cl
ENDBRANCH   1   5
TORSDOF 2
ENDMDL
MODEL 5
REMARK VINA RESULT:      -4.9      2.430      3.315
REMARK  2 active torsions:
REMARK  status: ('A' for Active; 'I' for Inactive)
REMARK    1  A    between atoms: C1_1  and  C2_2 
REMARK    2  A    between atoms: C1_1  and  C3_3 
ROOT
HETATM    1  C1  UNL     1     -33.996   6.409   4.531  1.00 20.00     0.168 C 
ENDROOT
BRANCH   1   2
HETATM    2  C2  UNL     1     -34.033   6.432   6.047  1.00 20.00     0.360 C 
HETATM    3  F4  UNL     1     -34.124   7.720   6.468  1.00 20.00    -0.214 F 
HETATM    4  F5  UNL     1     -35.148   5.802   6.492  1.00 20.00    -0.214 F 
ENDBRANCH   1   2
BRANCH   1   5
HETATM    5  C3  UNL     1     -34.448   5.094   3.914  1.00 20.00     0.325 C 
HETATM    6  F6  UNL     1     -34.221   4.077   4.783  1.00 20.00    -0.188 F 
HETATM    7  F7  UNL     1     -35.794   5.141   3.723  1.00 20.00    -0.188 F 
HETATM    8 CL8  UNL     1     -33.658   4.747   2.368  1.00 20.00    -0.048 Cl
ENDBRANCH   1   5
TORSDOF 2
ENDMDL
MODEL 6
REMARK VINA RESULT:      -4.8      2.129      3.513
REMARK  2 active torsions:
REMARK  status: ('A' for Active; 'I' for Inactive)
REMARK    1  A    between atoms: C1_1  and  C2_2 
REMARK    2  A    between atoms: C1_1  and  C3_3 
ROOT
HETATM    1  C1  UNL     1     -33.886   6.163   4.050  1.00 20.00     0.168 C 
ENDROOT
BRANCH   1   2
HETATM    2  C2  UNL     1     -34.919   5.129   4.458  1.00 20.00     0.360 C 
HETATM    3  F4  UNL     1     -34.386   3.888   4.307  1.00 20.00    -0.214 F 
HETATM    4  F5  UNL     1     -35.214   5.265   5.774  1.00 20.00    -0.214 F 
ENDBRANCH   1   2
BRANCH   1   5
HETATM    5  C3  UNL     1     -33.240   5.901   2.697  1.00 20.00     0.325 C 
HETATM    6  F6  UNL     1     -32.319   4.912   2.812  1.00 20.00    -0.188 F 
HETATM    7  F7  UNL     1     -34.191   5.441   1.840  1.00 20.00    -0.188 F 
HETATM    8 CL8  UNL     1     -32.485   7.344   2.001  1.00 20.00    -0.048 Cl
ENDBRANCH   1   5
TORSDOF 2
ENDMDL
MODEL 7
REMARK VINA RESULT:      -4.7      2.397      3.722
REMARK  2 active torsions:
REMARK  status: ('A' for Active; 'I' for Inactive)
REMARK    1  A    between atoms: C1_1  and  C2_2 
REMARK    2  A    between atoms: C1_1  and  C3_3 
ROOT
HETATM    1  C1  UNL     1     -33.890   6.954   3.879  1.00 20.00     0.168 C 
ENDROOT
BRANCH   1   2
HETATM    2  C2  UNL     1     -34.394   5.632   4.426  1.00 20.00     0.360 C 
HETATM    3  F4  UNL     1     -34.347   5.668   5.783  1.00 20.00    -0.214 F 
HETATM    4  F5  UNL     1     -35.695   5.458   4.089  1.00 20.00    -0.214 F 
ENDBRANCH   1   2
BRANCH   1   5
HETATM    5  C3  UNL     1     -32.714   6.827   2.922  1.00 20.00     0.325 C 
HETATM    6  F6  UNL     1     -31.563   7.148   3.565  1.00 20.00    -0.188 F 
HETATM    7  F7  UNL     1     -32.594   5.526   2.547  1.00 20.00    -0.188 F 
HETATM    8 CL8  UNL     1     -32.889   7.831   1.474  1.00 20.00    -0.048 Cl
ENDBRANCH   1   5
TORSDOF 2
ENDMDL
MODEL 8
REMARK VINA RESULT:      -4.7      1.579      1.950
REMARK  2 active torsions:
REMARK  status: ('A' for Active; 'I' for Inactive)
REMARK    1  A    between atoms: C1_1  and  C2_2 
REMARK    2  A    between atoms: C1_1  and  C3_3 
ROOT
HETATM    1  C1  UNL     1     -34.699   5.192   4.138  1.00 20.00     0.168 C 
ENDROOT
BRANCH   1   2
HETATM    2  C2  UNL     1     -33.449   5.340   3.291  1.00 20.00     0.360 C 
HETATM    3  F4  UNL     1     -33.482   4.425   2.289  1.00 20.00    -0.214 F 
HETATM    4  F5  UNL     1     -33.433   6.560   2.699  1.00 20.00    -0.214 F 
ENDBRANCH   1   2
BRANCH   1   5
HETATM    5  C3  UNL     1     -34.495   5.505   5.613  1.00 20.00     0.325 C 
HETATM    6  F6  UNL     1     -35.696   5.547   6.243  1.00 20.00    -0.188 F 
HETATM    7  F7  UNL     1     -33.799   4.486   6.184  1.00 20.00    -0.188 F 
HETATM    8 CL8  UNL     1     -33.624   7.022   5.885  1.00 20.00    -0.048 Cl
ENDBRANCH   1   5
TORSDOF 2
ENDMDL
MODEL 9
REMARK VINA RESULT:      -4.5      1.614      1.915
REMARK  2 active torsions:
REMARK  status: ('A' for Active; 'I' for Inactive)
REMARK    1  A    between atoms: C1_1  and  C2_2 
REMARK    2  A    between atoms: C1_1  and  C3_3 
ROOT
HETATM    1  C1  UNL     1     -33.558   6.539   4.871  1.00 20.00     0.168 C 
ENDROOT
BRANCH   1   2
HETATM    2  C2  UNL     1     -33.246   6.627   3.389  1.00 20.00     0.360 C 
HETATM    3  F4  UNL     1     -32.071   7.286   3.223  1.00 20.00    -0.214 F 
HETATM    4  F5  UNL     1     -33.066   5.383   2.880  1.00 20.00    -0.214 F 
ENDBRANCH   1   2
BRANCH   1   5
HETATM    5  C3  UNL     1     -34.643   5.532   5.222  1.00 20.00     0.325 C 
HETATM    6  F6  UNL     1     -34.096   4.297   5.357  1.00 20.00    -0.188 F 
HETATM    7  F7  UNL     1     -35.162   5.854   6.437  1.00 20.00    -0.188 F 
HETATM    8 CL8  UNL     1     -35.951   5.479   4.030  1.00 20.00    -0.048 Cl
ENDBRANCH   1   5
TORSDOF 2
ENDMDL
