MODEL 1
REMARK VINA RESULT:      -5.0      0.000      0.000
REMARK  1 active torsions:
REMARK  status: ('A' for Active; 'I' for Inactive)
REMARK    1  A    between atoms: C2_2  and  C6_6 
ROOT
HETATM    1  C3  UNL     1     -33.695  14.619  -4.795  1.00 20.00     0.006 C 
HETATM    2  C4  UNL     1     -34.523  15.141  -5.976  1.00 20.00     0.006 C 
HETATM    3  C5  UNL     1     -35.891  13.733  -4.682  1.00 20.00     0.010 C 
HETATM    4  C6  UNL     1     -35.446  15.444  -3.109  1.00 20.00     0.025 C 
HETATM    5  C7  UNL     1     -34.767  14.217  -3.762  1.00 20.00    -0.005 C 
HETATM    6  C8  UNL     1     -35.965  15.066  -5.443  1.00 20.00    -0.006 C 
HETATM    7  C9  UNL     1     -36.211  16.106  -4.296  1.00 20.00    -0.036 C 
HETATM    8  C11 UNL     1     -37.720  16.190  -3.978  1.00 20.00     0.016 C 
HETATM    9  C12 UNL     1     -35.750  17.525  -4.670  1.00 20.00     0.016 C 
ENDROOT
BRANCH   4  10
HETATM   10  C2  UNL     1     -34.511  16.299  -2.315  1.00 20.00    -0.088 C 
HETATM   11  C1  UNL     1     -33.242  16.506  -2.696  1.00 20.00     0.014 C 
HETATM   12  C10 UNL     1     -35.076  16.917  -1.070  1.00 20.00     0.043 C 
ENDBRANCH   4  10
TORSDOF 1
ENDMDL
MODEL 2
REMARK VINA RESULT:      -4.4      1.123      3.711
REMARK  1 active torsions:
REMARK  status: ('A' for Active; 'I' for Inactive)
REMARK    1  A    between atoms: C2_2  and  C6_6 
ROOT
HETATM    1  C3  UNL     1     -35.690  17.686  -2.825  1.00 20.00     0.006 C 
HETATM    2  C4  UNL     1     -34.479  18.202  -3.615  1.00 20.00     0.006 C 
HETATM    3  C5  UNL     1     -33.711  16.679  -1.995  1.00 20.00     0.010 C 
HETATM    4  C6  UNL     1     -35.059  15.246  -3.309  1.00 20.00     0.025 C 
HETATM    5  C7  UNL     1     -35.187  16.352  -2.237  1.00 20.00    -0.005 C 
HETATM    6  C8  UNL     1     -33.461  17.058  -3.463  1.00 20.00    -0.006 C 
HETATM    7  C9  UNL     1     -33.918  15.772  -4.235  1.00 20.00    -0.036 C 
HETATM    8  C11 UNL     1     -32.761  14.751  -4.288  1.00 20.00     0.016 C 
HETATM    9  C12 UNL     1     -34.328  16.063  -5.688  1.00 20.00     0.016 C 
ENDROOT
BRANCH   4  10
HETATM   10  C2  UNL     1     -36.358  14.869  -3.946  1.00 20.00    -0.088 C 
HETATM   11  C1  UNL     1     -37.421  15.687  -3.927  1.00 20.00     0.014 C 
HETATM   12  C10 UNL     1     -36.404  13.525  -4.611  1.00 20.00     0.043 C 
ENDBRANCH   4  10
TORSDOF 1
ENDMDL
MODEL 3
REMARK VINA RESULT:      -4.3      0.933      3.087
REMARK  1 active torsions:
REMARK  status: ('A' for Active; 'I' for Inactive)
REMARK    1  A    between atoms: C2_2  and  C6_6 
ROOT
HETATM    1  C3  UNL     1     -36.063  14.568  -5.202  1.00 20.00     0.006 C 
HETATM    2  C4  UNL     1     -35.354  13.807  -4.074  1.00 20.00     0.006 C 
HETATM    3  C5  UNL     1     -33.718  14.858  -5.398  1.00 20.00     0.010 C 
HETATM    4  C6  UNL     1     -34.872  16.754  -4.576  1.00 20.00     0.025 C 
HETATM    5  C7  UNL     1     -35.023  15.626  -5.624  1.00 20.00    -0.005 C 
HETATM    6  C8  UNL     1     -34.032  14.581  -3.920  1.00 20.00    -0.006 C 
HETATM    7  C9  UNL     1     -34.269  16.018  -3.340  1.00 20.00    -0.036 C 
HETATM    8  C11 UNL     1     -32.918  16.655  -2.946  1.00 20.00     0.016 C 
HETATM    9  C12 UNL     1     -35.149  16.014  -2.079  1.00 20.00     0.016 C 
ENDROOT
BRANCH   4  10
HETATM   10  C2  UNL     1     -36.115  17.559  -4.372  1.00 20.00    -0.088 C 
HETATM   11  C1  UNL     1     -37.329  17.080  -4.681  1.00 20.00     0.014 C 
HETATM   12  C10 UNL     1     -35.927  18.933  -3.799  1.00 20.00     0.043 C 
ENDBRANCH   4  10
TORSDOF 1
ENDMDL
MODEL 4
REMARK VINA RESULT:      -4.3      1.103      3.150
REMARK  1 active torsions:
REMARK  status: ('A' for Active; 'I' for Inactive)
REMARK    1  A    between atoms: C2_2  and  C6_6 
ROOT
HETATM    1  C3  UNL     1     -34.999  15.834  -2.395  1.00 20.00     0.006 C 
HETATM    2  C4  UNL     1     -33.584  16.079  -2.935  1.00 20.00     0.006 C 
HETATM    3  C5  UNL     1     -34.399  14.084  -3.877  1.00 20.00     0.010 C 
HETATM    4  C6  UNL     1     -35.949  15.633  -4.770  1.00 20.00     0.025 C 
HETATM    5  C7  UNL     1     -35.623  14.898  -3.449  1.00 20.00    -0.005 C 
HETATM    6  C8  UNL     1     -33.598  15.332  -4.280  1.00 20.00    -0.006 C 
HETATM    7  C9  UNL     1     -34.544  16.031  -5.317  1.00 20.00    -0.036 C 
HETATM    8  C11 UNL     1     -34.326  15.422  -6.720  1.00 20.00     0.016 C 
HETATM    9  C12 UNL     1     -34.284  17.541  -5.437  1.00 20.00     0.016 C 
ENDROOT
BRANCH   4  10
HETATM   10  C2  UNL     1     -36.973  16.712  -4.624  1.00 20.00    -0.088 C 
HETATM   11  C1  UNL     1     -37.210  17.310  -3.447  1.00 20.00     0.014 C 
HETATM   12  C10 UNL     1     -37.719  17.091  -5.869  1.00 20.00     0.043 C 
ENDBRANCH   4  10
TORSDOF 1
ENDMDL
MODEL 5
REMARK VINA RESULT:      -4.3      1.266      3.767
REMARK  1 active torsions:
REMARK  status: ('A' for Active; 'I' for Inactive)
REMARK    1  A    between atoms: C2_2  and  C6_6 
ROOT
HETATM    1  C3  UNL     1     -33.901  17.886  -3.525  1.00 20.00     0.006 C 
HETATM    2  C4  UNL     1     -33.305  16.842  -2.572  1.00 20.00     0.006 C 
HETATM    3  C5  UNL     1     -35.639  16.554  -2.617  1.00 20.00     0.010 C 
HETATM    4  C6  UNL     1     -35.114  16.072  -4.874  1.00 20.00     0.025 C 
HETATM    5  C7  UNL     1     -35.262  17.275  -3.914  1.00 20.00    -0.005 C 
HETATM    6  C8  UNL     1     -34.352  15.714  -2.604  1.00 20.00    -0.006 C 
HETATM    7  C9  UNL     1     -34.389  15.002  -4.000  1.00 20.00    -0.036 C 
HETATM    8  C11 UNL     1     -35.243  13.718  -3.912  1.00 20.00     0.016 C 
HETATM    9  C12 UNL     1     -32.994  14.581  -4.492  1.00 20.00     0.016 C 
ENDROOT
BRANCH   4  10
HETATM   10  C2  UNL     1     -34.508  16.423  -6.194  1.00 20.00    -0.088 C 
HETATM   11  C1  UNL     1     -34.253  17.694  -6.542  1.00 20.00     0.014 C 
HETATM   12  C10 UNL     1     -34.198  15.274  -7.108  1.00 20.00     0.043 C 
ENDBRANCH   4  10
TORSDOF 1
ENDMDL
MODEL 6
REMARK VINA RESULT:      -4.3      1.053      1.649
REMARK  1 active torsions:
REMARK  status: ('A' for Active; 'I' for Inactive)
REMARK    1  A    between atoms: C2_2  and  C6_6 
ROOT
HETATM    1  C3  UNL     1     -35.660  14.412  -5.731  1.00 20.00     0.006 C 
HETATM    2  C4  UNL     1     -36.575  15.531  -6.246  1.00 20.00     0.006 C 
HETATM    3  C5  UNL     1     -37.533  14.631  -4.296  1.00 20.00     0.010 C 
HETATM    4  C6  UNL     1     -35.517  15.496  -3.410  1.00 20.00     0.025 C 
HETATM    5  C7  UNL     1     -36.039  14.301  -4.241  1.00 20.00    -0.005 C 
HETATM    6  C8  UNL     1     -37.300  15.992  -4.969  1.00 20.00    -0.006 C 
HETATM    7  C9  UNL     1     -36.320  16.707  -3.976  1.00 20.00    -0.036 C 
HETATM    8  C11 UNL     1     -37.123  17.389  -2.846  1.00 20.00     0.016 C 
HETATM    9  C12 UNL     1     -35.478  17.801  -4.653  1.00 20.00     0.016 C 
ENDROOT
BRANCH   4  10
HETATM   10  C2  UNL     1     -34.026  15.601  -3.375  1.00 20.00    -0.088 C 
HETATM   11  C1  UNL     1     -33.243  14.860  -4.175  1.00 20.00     0.014 C 
HETATM   12  C10 UNL     1     -33.454  16.585  -2.398  1.00 20.00     0.043 C 
ENDBRANCH   4  10
TORSDOF 1
ENDMDL
MODEL 7
REMARK VINA RESULT:      -4.3      1.745      4.558
REMARK  1 active torsions:
REMARK  status: ('A' for Active; 'I' for Inactive)
REMARK    1  A    between atoms: C2_2  and  C6_6 
ROOT
HETATM    1  C3  UNL     1     -36.397  17.715  -1.651  1.00 20.00     0.006 C 
HETATM    2  C4  UNL     1     -35.813  19.131  -1.734  1.00 20.00     0.006 C 
HETATM    3  C5  UNL     1     -34.759  18.001   0.038  1.00 20.00     0.010 C 
HETATM    4  C6  UNL     1     -34.059  16.664  -1.785  1.00 20.00     0.025 C 
HETATM    5  C7  UNL     1     -35.304  16.924  -0.905  1.00 20.00    -0.005 C 
HETATM    6  C8  UNL     1     -34.416  18.961  -1.111  1.00 20.00    -0.006 C 
HETATM    7  C9  UNL     1     -33.480  18.093  -2.021  1.00 20.00    -0.036 C 
HETATM    8  C11 UNL     1     -32.026  18.171  -1.505  1.00 20.00     0.016 C 
HETATM    9  C12 UNL     1     -33.465  18.567  -3.483  1.00 20.00     0.016 C 
ENDROOT
BRANCH   4  10
HETATM   10  C2  UNL     1     -34.335  15.815  -2.984  1.00 20.00    -0.088 C 
HETATM   11  C1  UNL     1     -35.579  15.442  -3.319  1.00 20.00     0.014 C 
HETATM   12  C10 UNL     1     -33.140  15.406  -3.794  1.00 20.00     0.043 C 
ENDBRANCH   4  10
TORSDOF 1
ENDMDL
MODEL 8
REMARK VINA RESULT:      -4.2      1.244      3.701
REMARK  1 active torsions:
REMARK  status: ('A' for Active; 'I' for Inactive)
REMARK    1  A    between atoms: C2_2  and  C6_6 
ROOT
HETATM    1  C3  UNL     1     -34.830  14.436  -3.590  1.00 20.00     0.006 C 
HETATM    2  C4  UNL     1     -35.261  15.611  -2.703  1.00 20.00     0.006 C 
HETATM    3  C5  UNL     1     -33.026  15.956  -3.351  1.00 20.00     0.010 C 
HETATM    4  C6  UNL     1     -34.090  16.025  -5.463  1.00 20.00     0.025 C 
HETATM    5  C7  UNL     1     -33.641  15.010  -4.386  1.00 20.00    -0.005 C 
HETATM    6  C8  UNL     1     -34.331  16.746  -3.166  1.00 20.00    -0.006 C 
HETATM    7  C9  UNL     1     -34.666  17.208  -4.626  1.00 20.00    -0.036 C 
HETATM    8  C11 UNL     1     -33.907  18.513  -4.952  1.00 20.00     0.016 C 
HETATM    9  C12 UNL     1     -36.163  17.496  -4.831  1.00 20.00     0.016 C 
ENDROOT
BRANCH   4  10
HETATM   10  C2  UNL     1     -34.958  15.433  -6.527  1.00 20.00    -0.088 C 
HETATM   11  C1  UNL     1     -35.791  14.413  -6.275  1.00 20.00     0.014 C 
HETATM   12  C10 UNL     1     -34.847  16.048  -7.891  1.00 20.00     0.043 C 
ENDBRANCH   4  10
TORSDOF 1
ENDMDL
MODEL 9
REMARK VINA RESULT:      -4.2      1.215      3.410
REMARK  1 active torsions:
REMARK  status: ('A' for Active; 'I' for Inactive)
REMARK    1  A    between atoms: C2_2  and  C6_6 
ROOT
HETATM    1  C3  UNL     1     -33.835  17.530  -3.472  1.00 20.00     0.006 C 
HETATM    2  C4  UNL     1     -33.061  16.206  -3.424  1.00 20.00     0.006 C 
HETATM    3  C5  UNL     1     -35.091  15.916  -2.273  1.00 20.00     0.010 C 
HETATM    4  C6  UNL     1     -35.905  16.369  -4.449  1.00 20.00     0.025 C 
HETATM    5  C7  UNL     1     -35.294  17.096  -3.228  1.00 20.00    -0.005 C 
HETATM    6  C8  UNL     1     -34.179  15.163  -3.254  1.00 20.00    -0.006 C 
HETATM    7  C9  UNL     1     -35.068  15.055  -4.541  1.00 20.00    -0.036 C 
HETATM    8  C11 UNL     1     -35.996  13.824  -4.437  1.00 20.00     0.016 C 
HETATM    9  C12 UNL     1     -34.240  14.887  -5.825  1.00 20.00     0.016 C 
ENDROOT
BRANCH   4  10
HETATM   10  C2  UNL     1     -36.003  17.222  -5.673  1.00 20.00    -0.088 C 
HETATM   11  C1  UNL     1     -35.219  18.294  -5.855  1.00 20.00     0.014 C 
HETATM   12  C10 UNL     1     -37.028  16.808  -6.688  1.00 20.00     0.043 C 
ENDBRANCH   4  10
TORSDOF 1
ENDMDL
