MODEL 1
REMARK VINA RESULT:      -4.2      0.000      0.000
REMARK  2 active torsions:
REMARK  status: ('A' for Active; 'I' for Inactive)
REMARK    1  A    between atoms: C2_2  and  O6_6 
REMARK    2  A    between atoms: C5_5  and  O6_6 
ROOT
HETATM    1  C1  UNL     1     -35.481   5.758   3.805  1.00 20.00     0.099 A 
HETATM    2  C2  UNL     1     -34.052   6.188   3.980  1.00 20.00     0.181 A 
HETATM    3  C3  UNL     1     -34.549   4.936   4.650  1.00 20.00     0.207 A 
HETATM    4  F7  UNL     1     -34.132   3.731   4.096  1.00 20.00    -0.223 F 
HETATM    5 CL8  UNL     1     -34.763   4.941   6.390  1.00 20.00    -0.080 Cl
ENDROOT
BRANCH   2   6
HETATM    6  O6  UNL     1     -33.196   6.000   2.842  1.00 20.00    -0.382 OA
BRANCH   6   7
HETATM    7  C5  UNL     1     -32.283   7.075   2.712  1.00 20.00     0.164 C 
HETATM    8  C4  UNL     1     -32.620   7.860   1.463  1.00 20.00     0.033 C 
ENDBRANCH   6   7
ENDBRANCH   2   6
TORSDOF 2
ENDMDL
MODEL 2
REMARK VINA RESULT:      -3.7      2.815      4.049
REMARK  2 active torsions:
REMARK  status: ('A' for Active; 'I' for Inactive)
REMARK    1  A    between atoms: C2_2  and  O6_6 
REMARK    2  A    between atoms: C5_5  and  O6_6 
ROOT
HETATM    1  C1  UNL     1     -32.210   7.259   3.690  1.00 20.00     0.099 A 
HETATM    2  C2  UNL     1     -33.629   6.850   3.416  1.00 20.00     0.181 A 
HETATM    3  C3  UNL     1     -32.671   7.058   2.274  1.00 20.00     0.207 A 
HETATM    4  F7  UNL     1     -32.204   5.912   1.642  1.00 20.00    -0.223 F 
HETATM    5 CL8  UNL     1     -32.879   8.463   1.248  1.00 20.00    -0.080 Cl
ENDROOT
BRANCH   2   6
HETATM    6  O6  UNL     1     -33.959   5.486   3.725  1.00 20.00    -0.382 OA
BRANCH   6   7
HETATM    7  C5  UNL     1     -35.131   5.416   4.516  1.00 20.00     0.164 C 
HETATM    8  C4  UNL     1     -34.738   5.394   5.978  1.00 20.00     0.033 C 
ENDBRANCH   6   7
ENDBRANCH   2   6
TORSDOF 2
ENDMDL
MODEL 3
REMARK VINA RESULT:      -3.5     16.973     17.468
REMARK  2 active torsions:
REMARK  status: ('A' for Active; 'I' for Inactive)
REMARK    1  A    between atoms: C2_2  and  O6_6 
REMARK    2  A    between atoms: C5_5  and  O6_6 
ROOT
HETATM    1  C1  UNL     1     -24.120  16.619  10.897  1.00 20.00     0.099 A 
HETATM    2  C2  UNL     1     -24.676  17.822  11.605  1.00 20.00     0.181 A 
HETATM    3  C3  UNL     1     -23.246  17.817  11.136  1.00 20.00     0.207 A 
HETATM    4  F7  UNL     1     -22.960  18.592  10.018  1.00 20.00    -0.223 F 
HETATM    5 CL8  UNL     1     -21.969  17.704  12.331  1.00 20.00    -0.080 Cl
ENDROOT
BRANCH   2   6
HETATM    6  O6  UNL     1     -25.588  18.631  10.846  1.00 20.00    -0.382 OA
BRANCH   6   7
HETATM    7  C5  UNL     1     -26.663  19.076  11.654  1.00 20.00     0.164 C 
HETATM    8  C4  UNL     1     -27.297  17.880  12.332  1.00 20.00     0.033 C 
ENDBRANCH   6   7
ENDBRANCH   2   6
TORSDOF 2
ENDMDL
MODEL 4
REMARK VINA RESULT:      -3.5     16.782     17.031
REMARK  2 active torsions:
REMARK  status: ('A' for Active; 'I' for Inactive)
REMARK    1  A    between atoms: C2_2  and  O6_6 
REMARK    2  A    between atoms: C5_5  and  O6_6 
ROOT
HETATM    1  C1  UNL     1     -24.342  16.124  11.456  1.00 20.00     0.099 A 
HETATM    2  C2  UNL     1     -24.022  17.063  10.328  1.00 20.00     0.181 A 
HETATM    3  C3  UNL     1     -24.051  17.570  11.744  1.00 20.00     0.207 A 
HETATM    4  F7  UNL     1     -22.819  17.834  12.331  1.00 20.00    -0.223 F 
HETATM    5 CL8  UNL     1     -25.370  18.613  12.238  1.00 20.00    -0.080 Cl
ENDROOT
BRANCH   2   6
HETATM    6  O6  UNL     1     -22.722  16.912   9.735  1.00 20.00    -0.382 OA
BRANCH   6   7
HETATM    7  C5  UNL     1     -22.677  17.510   8.453  1.00 20.00     0.164 C 
HETATM    8  C4  UNL     1     -23.839  18.471   8.316  1.00 20.00     0.033 C 
ENDBRANCH   6   7
ENDBRANCH   2   6
TORSDOF 2
ENDMDL
MODEL 5
REMARK VINA RESULT:      -3.5     12.114     13.143
REMARK  2 active torsions:
REMARK  status: ('A' for Active; 'I' for Inactive)
REMARK    1  A    between atoms: C2_2  and  O6_6 
REMARK    2  A    between atoms: C5_5  and  O6_6 
ROOT
HETATM    1  C1  UNL     1     -34.460  14.309  -4.000  1.00 20.00     0.099 A 
HETATM    2  C2  UNL     1     -34.163  15.238  -5.142  1.00 20.00     0.181 A 
HETATM    3  C3  UNL     1     -33.210  15.141  -3.983  1.00 20.00     0.207 A 
HETATM    4  F7  UNL     1     -32.022  14.457  -4.215  1.00 20.00    -0.223 F 
HETATM    5 CL8  UNL     1     -33.108  16.485  -2.862  1.00 20.00    -0.080 Cl
ENDROOT
BRANCH   2   6
HETATM    6  O6  UNL     1     -33.739  14.615  -6.365  1.00 20.00    -0.382 OA
BRANCH   6   7
HETATM    7  C5  UNL     1     -34.187  15.350  -7.490  1.00 20.00     0.164 C 
HETATM    8  C4  UNL     1     -34.472  16.775  -7.066  1.00 20.00     0.033 C 
ENDBRANCH   6   7
ENDBRANCH   2   6
TORSDOF 2
ENDMDL
MODEL 6
REMARK VINA RESULT:      -3.5      1.878      2.232
REMARK  2 active torsions:
REMARK  status: ('A' for Active; 'I' for Inactive)
REMARK    1  A    between atoms: C2_2  and  O6_6 
REMARK    2  A    between atoms: C5_5  and  O6_6 
ROOT
HETATM    1  C1  UNL     1     -32.891   5.215   2.957  1.00 20.00     0.099 A 
HETATM    2  C2  UNL     1     -33.486   6.478   2.402  1.00 20.00     0.181 A 
HETATM    3  C3  UNL     1     -33.772   6.071   3.822  1.00 20.00     0.207 A 
HETATM    4  F7  UNL     1     -33.126   6.798   4.815  1.00 20.00    -0.223 F 
HETATM    5 CL8  UNL     1     -35.377   5.491   4.224  1.00 20.00    -0.080 Cl
ENDROOT
BRANCH   2   6
HETATM    6  O6  UNL     1     -32.578   7.577   2.229  1.00 20.00    -0.382 OA
BRANCH   6   7
HETATM    7  C5  UNL     1     -32.456   7.922   0.861  1.00 20.00     0.164 C 
HETATM    8  C4  UNL     1     -33.001   9.319   0.654  1.00 20.00     0.033 C 
ENDBRANCH   6   7
ENDBRANCH   2   6
TORSDOF 2
ENDMDL
MODEL 7
REMARK VINA RESULT:      -3.4     16.905     17.601
REMARK  2 active torsions:
REMARK  status: ('A' for Active; 'I' for Inactive)
REMARK    1  A    between atoms: C2_2  and  O6_6 
REMARK    2  A    between atoms: C5_5  and  O6_6 
ROOT
HETATM    1  C1  UNL     1     -23.616  18.247   8.979  1.00 20.00     0.099 A 
HETATM    2  C2  UNL     1     -22.999  17.119   9.756  1.00 20.00     0.181 A 
HETATM    3  C3  UNL     1     -22.147  17.960   8.845  1.00 20.00     0.207 A 
HETATM    4  F7  UNL     1     -21.293  18.868   9.462  1.00 20.00    -0.223 F 
HETATM    5 CL8  UNL     1     -21.558  17.253   7.353  1.00 20.00    -0.080 Cl
ENDROOT
BRANCH   2   6
HETATM    6  O6  UNL     1     -22.834  17.343  11.165  1.00 20.00    -0.382 OA
BRANCH   6   7
HETATM    7  C5  UNL     1     -24.061  17.179  11.852  1.00 20.00     0.164 C 
HETATM    8  C4  UNL     1     -24.571  15.773  11.621  1.00 20.00     0.033 C 
ENDBRANCH   6   7
ENDBRANCH   2   6
TORSDOF 2
ENDMDL
MODEL 8
REMARK VINA RESULT:      -3.4      3.164      4.198
REMARK  2 active torsions:
REMARK  status: ('A' for Active; 'I' for Inactive)
REMARK    1  A    between atoms: C2_2  and  O6_6 
REMARK    2  A    between atoms: C5_5  and  O6_6 
ROOT
HETATM    1  C1  UNL     1     -31.900   7.549   3.124  1.00 20.00     0.099 A 
HETATM    2  C2  UNL     1     -33.145   6.811   2.722  1.00 20.00     0.181 A 
HETATM    3  C3  UNL     1     -32.448   7.707   1.734  1.00 20.00     0.207 A 
HETATM    4  F7  UNL     1     -31.732   7.074   0.724  1.00 20.00    -0.223 F 
HETATM    5 CL8  UNL     1     -33.206   9.225   1.294  1.00 20.00    -0.080 Cl
ENDROOT
BRANCH   2   6
HETATM    6  O6  UNL     1     -32.996   5.398   2.510  1.00 20.00    -0.382 OA
BRANCH   6   7
HETATM    7  C5  UNL     1     -33.940   4.670   3.274  1.00 20.00     0.164 C 
HETATM    8  C4  UNL     1     -34.666   5.623   4.200  1.00 20.00     0.033 C 
ENDBRANCH   6   7
ENDBRANCH   2   6
TORSDOF 2
ENDMDL
MODEL 9
REMARK VINA RESULT:      -3.4     11.831     12.658
REMARK  2 active torsions:
REMARK  status: ('A' for Active; 'I' for Inactive)
REMARK    1  A    between atoms: C2_2  and  O6_6 
REMARK    2  A    between atoms: C5_5  and  O6_6 
ROOT
HETATM    1  C1  UNL     1     -37.016  14.439  -4.166  1.00 20.00     0.099 A 
HETATM    2  C2  UNL     1     -36.037  14.936  -5.191  1.00 20.00     0.181 A 
HETATM    3  C3  UNL     1     -35.542  14.393  -3.878  1.00 20.00     0.207 A 
HETATM    4  F7  UNL     1     -34.957  13.133  -3.912  1.00 20.00    -0.223 F 
HETATM    5 CL8  UNL     1     -34.877  15.511  -2.703  1.00 20.00    -0.080 Cl
ENDROOT
BRANCH   2   6
HETATM    6  O6  UNL     1     -35.847  14.092  -6.338  1.00 20.00    -0.382 OA
BRANCH   6   7
HETATM    7  C5  UNL     1     -35.474  14.854  -7.472  1.00 20.00     0.164 C 
HETATM    8  C4  UNL     1     -34.019  15.252  -7.342  1.00 20.00     0.033 C 
ENDBRANCH   6   7
ENDBRANCH   2   6
TORSDOF 2
ENDMDL
