MODEL 1
REMARK VINA RESULT:      -3.7      0.000      0.000
REMARK  0 active torsions:
REMARK  status: ('A' for Active; 'I' for Inactive)
ROOT
HETATM    1  C1  UNL     1     -33.300  16.097  -3.193  1.00 20.00     0.023 C 
HETATM    2  C2  UNL     1     -34.445  15.410  -3.284  1.00 20.00     0.047 C 
HETATM    3  C3  UNL     1     -33.424  17.516  -2.661  1.00 20.00     0.040 C 
HETATM    4  C4  UNL     1     -34.633  14.031  -3.794  1.00 20.00     0.076 C 
HETATM    5  C5  UNL     1     -33.144  18.495  -3.806  1.00 20.00     0.029 C 
HETATM    6  C6  UNL     1     -32.439  17.767  -1.521  1.00 20.00     0.029 C 
HETATM    7  O7  UNL     1     -35.578  16.085  -2.851  1.00 20.00    -0.305 OA
HETATM    8  P8  UNL     1     -35.199  17.516  -2.153  1.00 20.00     0.165 P 
HETATM    9  S9  UNL     1     -36.369  19.012  -2.523  1.00 20.00    -0.049 SA
HETATM   10 CL10 UNL     1     -35.272  17.013  -0.206  1.00 20.00    -0.054 Cl
ENDROOT
TORSDOF 0
ENDMDL
MODEL 2
REMARK VINA RESULT:      -3.7      2.743      3.058
REMARK  0 active torsions:
REMARK  status: ('A' for Active; 'I' for Inactive)
ROOT
HETATM    1  C1  UNL     1     -35.257  16.049  -2.653  1.00 20.00     0.023 C 
HETATM    2  C2  UNL     1     -34.168  15.513  -3.217  1.00 20.00     0.047 C 
HETATM    3  C3  UNL     1     -35.036  17.355  -1.907  1.00 20.00     0.040 C 
HETATM    4  C4  UNL     1     -34.076  14.240  -3.972  1.00 20.00     0.076 C 
HETATM    5  C5  UNL     1     -35.200  17.096  -0.405  1.00 20.00     0.029 C 
HETATM    6  C6  UNL     1     -36.033  18.422  -2.354  1.00 20.00     0.029 C 
HETATM    7  O7  UNL     1     -32.999  16.244  -3.065  1.00 20.00    -0.305 OA
HETATM    8  P8  UNL     1     -33.283  17.700  -2.374  1.00 20.00     0.165 P 
HETATM    9  S9  UNL     1     -31.986  18.330  -1.084  1.00 20.00    -0.049 SA
HETATM   10 CL10 UNL     1     -33.312  18.886  -3.999  1.00 20.00    -0.054 Cl
ENDROOT
TORSDOF 0
ENDMDL
MODEL 3
REMARK VINA RESULT:      -3.7      3.264      4.312
REMARK  0 active torsions:
REMARK  status: ('A' for Active; 'I' for Inactive)
ROOT
HETATM    1  C1  UNL     1     -35.049  15.479  -3.124  1.00 20.00     0.023 C 
HETATM    2  C2  UNL     1     -34.100  16.395  -3.354  1.00 20.00     0.047 C 
HETATM    3  C3  UNL     1     -35.971  15.179  -4.295  1.00 20.00     0.040 C 
HETATM    4  C4  UNL     1     -33.090  16.908  -2.397  1.00 20.00     0.076 C 
HETATM    5  C5  UNL     1     -37.364  15.733  -3.978  1.00 20.00     0.029 C 
HETATM    6  C6  UNL     1     -36.065  13.677  -4.554  1.00 20.00     0.029 C 
HETATM    7  O7  UNL     1     -34.077  16.916  -4.639  1.00 20.00    -0.305 OA
HETATM    8  P8  UNL     1     -35.121  16.134  -5.627  1.00 20.00     0.165 P 
HETATM    9  S9  UNL     1     -36.103  17.211  -6.899  1.00 20.00    -0.049 SA
HETATM   10 CL10 UNL     1     -33.869  14.873  -6.571  1.00 20.00    -0.054 Cl
ENDROOT
TORSDOF 0
ENDMDL
MODEL 4
REMARK VINA RESULT:      -3.6      2.026      2.262
REMARK  0 active torsions:
REMARK  status: ('A' for Active; 'I' for Inactive)
ROOT
HETATM    1  C1  UNL     1     -35.033  15.129  -2.926  1.00 20.00     0.023 C 
HETATM    2  C2  UNL     1     -35.751  14.986  -4.047  1.00 20.00     0.047 C 
HETATM    3  C3  UNL     1     -34.662  16.558  -2.561  1.00 20.00     0.040 C 
HETATM    4  C4  UNL     1     -36.223  13.721  -4.661  1.00 20.00     0.076 C 
HETATM    5  C5  UNL     1     -33.153  16.738  -2.759  1.00 20.00     0.029 C 
HETATM    6  C6  UNL     1     -35.029  16.871  -1.113  1.00 20.00     0.029 C 
HETATM    7  O7  UNL     1     -36.078  16.166  -4.698  1.00 20.00    -0.305 OA
HETATM    8  P8  UNL     1     -35.651  17.479  -3.819  1.00 20.00     0.165 P 
HETATM    9  S9  UNL     1     -34.923  18.987  -4.788  1.00 20.00    -0.049 SA
HETATM   10 CL10 UNL     1     -37.414  17.953  -2.974  1.00 20.00    -0.054 Cl
ENDROOT
TORSDOF 0
ENDMDL
MODEL 5
REMARK VINA RESULT:      -3.6      2.998      3.775
REMARK  0 active torsions:
REMARK  status: ('A' for Active; 'I' for Inactive)
ROOT
HETATM    1  C1  UNL     1     -34.685  15.508  -2.625  1.00 20.00     0.023 C 
HETATM    2  C2  UNL     1     -35.359  16.628  -2.336  1.00 20.00     0.047 C 
HETATM    3  C3  UNL     1     -34.733  15.067  -4.079  1.00 20.00     0.040 C 
HETATM    4  C4  UNL     1     -35.516  17.272  -1.010  1.00 20.00     0.076 C 
HETATM    5  C5  UNL     1     -35.576  13.791  -4.176  1.00 20.00     0.029 C 
HETATM    6  C6  UNL     1     -33.331  14.797  -4.622  1.00 20.00     0.029 C 
HETATM    7  O7  UNL     1     -35.982  17.240  -3.415  1.00 20.00    -0.305 OA
HETATM    8  P8  UNL     1     -35.577  16.527  -4.830  1.00 20.00     0.165 P 
HETATM    9  S9  UNL     1     -36.980  16.330  -6.148  1.00 20.00    -0.049 SA
HETATM   10 CL10 UNL     1     -34.148  17.781  -5.487  1.00 20.00    -0.054 Cl
ENDROOT
TORSDOF 0
ENDMDL
MODEL 6
REMARK VINA RESULT:      -3.5      2.797      3.320
REMARK  0 active torsions:
REMARK  status: ('A' for Active; 'I' for Inactive)
ROOT
HETATM    1  C1  UNL     1     -36.128  14.291  -4.807  1.00 20.00     0.023 C 
HETATM    2  C2  UNL     1     -37.143  15.030  -4.343  1.00 20.00     0.047 C 
HETATM    3  C3  UNL     1     -34.770  14.973  -4.823  1.00 20.00     0.040 C 
HETATM    4  C4  UNL     1     -38.571  14.644  -4.243  1.00 20.00     0.076 C 
HETATM    5  C5  UNL     1     -34.369  15.235  -6.278  1.00 20.00     0.029 C 
HETATM    6  C6  UNL     1     -33.708  14.106  -4.148  1.00 20.00     0.029 C 
HETATM    7  O7  UNL     1     -36.801  16.305  -3.915  1.00 20.00    -0.305 OA
HETATM    8  P8  UNL     1     -35.180  16.527  -3.915  1.00 20.00     0.165 P 
HETATM    9  S9  UNL     1     -34.529  18.254  -4.497  1.00 20.00    -0.049 SA
HETATM   10 CL10 UNL     1     -34.761  16.222  -1.971  1.00 20.00    -0.054 Cl
ENDROOT
TORSDOF 0
ENDMDL
MODEL 7
REMARK VINA RESULT:      -3.5      2.493      3.732
REMARK  0 active torsions:
REMARK  status: ('A' for Active; 'I' for Inactive)
ROOT
HETATM    1  C1  UNL     1     -33.350  15.724  -3.626  1.00 20.00     0.023 C 
HETATM    2  C2  UNL     1     -33.631  16.833  -2.930  1.00 20.00     0.047 C 
HETATM    3  C3  UNL     1     -34.457  15.224  -4.540  1.00 20.00     0.040 C 
HETATM    4  C4  UNL     1     -32.766  17.524  -1.945  1.00 20.00     0.076 C 
HETATM    5  C5  UNL     1     -35.017  13.919  -3.964  1.00 20.00     0.029 C 
HETATM    6  C6  UNL     1     -33.935  14.976  -5.954  1.00 20.00     0.029 C 
HETATM    7  O7  UNL     1     -34.883  17.382  -3.168  1.00 20.00    -0.305 OA
HETATM    8  P8  UNL     1     -35.650  16.625  -4.399  1.00 20.00     0.165 P 
HETATM    9  S9  UNL     1     -37.552  16.332  -4.203  1.00 20.00    -0.049 SA
HETATM   10 CL10 UNL     1     -35.273  17.896  -5.912  1.00 20.00    -0.054 Cl
ENDROOT
TORSDOF 0
ENDMDL
MODEL 8
REMARK VINA RESULT:      -3.4      2.884      3.921
REMARK  0 active torsions:
REMARK  status: ('A' for Active; 'I' for Inactive)
ROOT
HETATM    1  C1  UNL     1     -33.128  16.857  -3.383  1.00 20.00     0.023 C 
HETATM    2  C2  UNL     1     -33.296  18.063  -3.939  1.00 20.00     0.047 C 
HETATM    3  C3  UNL     1     -34.198  15.828  -3.709  1.00 20.00     0.040 C 
HETATM    4  C4  UNL     1     -32.439  19.262  -3.773  1.00 20.00     0.076 C 
HETATM    5  C5  UNL     1     -35.022  15.559  -2.446  1.00 20.00     0.029 C 
HETATM    6  C6  UNL     1     -33.576  14.522  -4.201  1.00 20.00     0.029 C 
HETATM    7  O7  UNL     1     -34.409  18.189  -4.759  1.00 20.00    -0.305 OA
HETATM    8  P8  UNL     1     -35.154  16.751  -4.990  1.00 20.00     0.165 P 
HETATM    9  S9  UNL     1     -37.088  16.757  -5.016  1.00 20.00    -0.049 SA
HETATM   10 CL10 UNL     1     -34.415  16.233  -6.788  1.00 20.00    -0.054 Cl
ENDROOT
TORSDOF 0
ENDMDL
MODEL 9
REMARK VINA RESULT:      -3.4      3.584      3.862
REMARK  0 active torsions:
REMARK  status: ('A' for Active; 'I' for Inactive)
ROOT
HETATM    1  C1  UNL     1     -34.340  16.117  -5.490  1.00 20.00     0.023 C 
HETATM    2  C2  UNL     1     -34.813  15.455  -6.553  1.00 20.00     0.047 C 
HETATM    3  C3  UNL     1     -35.177  16.015  -4.225  1.00 20.00     0.040 C 
HETATM    4  C4  UNL     1     -34.232  15.402  -7.916  1.00 20.00     0.076 C 
HETATM    5  C5  UNL     1     -35.820  17.379  -3.952  1.00 20.00     0.029 C 
HETATM    6  C6  UNL     1     -34.323  15.604  -3.028  1.00 20.00     0.029 C 
HETATM    7  O7  UNL     1     -35.987  14.747  -6.337  1.00 20.00    -0.305 OA
HETATM    8  P8  UNL     1     -36.412  14.750  -4.757  1.00 20.00     0.165 P 
HETATM    9  S9  UNL     1     -38.295  14.925  -4.352  1.00 20.00    -0.049 SA
HETATM   10 CL10 UNL     1     -35.720  12.950  -4.181  1.00 20.00    -0.054 Cl
ENDROOT
TORSDOF 0
ENDMDL
