MODEL 1
REMARK VINA RESULT:      -3.8      0.000      0.000
REMARK  0 active torsions:
REMARK  status: ('A' for Active; 'I' for Inactive)
ROOT
HETATM    1  C1  UNL     1     -33.898  14.937  -3.791  1.00 20.00     0.029 C 
HETATM    2  C2  UNL     1     -35.749  16.049  -3.681  1.00 20.00     0.029 C 
HETATM    3  C3  UNL     1     -36.005  13.601  -4.499  1.00 20.00     0.179 A 
HETATM    4  C4  UNL     1     -35.318  14.892  -5.975  1.00 20.00     0.179 A 
HETATM    5  C5  UNL     1     -34.625  15.717  -2.655  1.00 20.00     0.059 C 
HETATM    6  C6  UNL     1     -35.234  14.885  -4.485  1.00 20.00     0.005 A 
HETATM    7  O7  UNL     1     -36.074  13.646  -5.955  1.00 20.00    -0.389 OA
HETATM    8 BR8  UNL     1     -33.672  17.232  -1.930  1.00 20.00    -0.091 Br
ENDROOT
TORSDOF 0
ENDMDL
MODEL 2
REMARK VINA RESULT:      -3.8      1.219      1.552
REMARK  0 active torsions:
REMARK  status: ('A' for Active; 'I' for Inactive)
ROOT
HETATM    1  C1  UNL     1     -34.885  15.861  -4.814  1.00 20.00     0.029 C 
HETATM    2  C2  UNL     1     -35.147  15.332  -2.734  1.00 20.00     0.029 C 
HETATM    3  C3  UNL     1     -35.967  13.538  -4.419  1.00 20.00     0.179 A 
HETATM    4  C4  UNL     1     -37.299  15.114  -4.184  1.00 20.00     0.179 A 
HETATM    5  C5  UNL     1     -33.920  15.755  -3.596  1.00 20.00     0.059 C 
HETATM    6  C6  UNL     1     -35.821  14.978  -4.033  1.00 20.00     0.005 A 
HETATM    7  O7  UNL     1     -37.409  13.707  -4.548  1.00 20.00    -0.389 OA
HETATM    8 BR8  UNL     1     -33.044  17.393  -3.068  1.00 20.00    -0.091 Br
ENDROOT
TORSDOF 0
ENDMDL
MODEL 3
REMARK VINA RESULT:      -3.7     17.708     18.397
REMARK  0 active torsions:
REMARK  status: ('A' for Active; 'I' for Inactive)
ROOT
HETATM    1  C1  UNL     1     -23.220  17.585   8.826  1.00 20.00     0.029 C 
HETATM    2  C2  UNL     1     -24.818  18.635   9.836  1.00 20.00     0.029 C 
HETATM    3  C3  UNL     1     -22.876  17.877  11.380  1.00 20.00     0.179 A 
HETATM    4  C4  UNL     1     -24.191  16.341  10.899  1.00 20.00     0.179 A 
HETATM    5  C5  UNL     1     -23.889  18.979   8.634  1.00 20.00     0.059 C 
HETATM    6  C6  UNL     1     -23.787  17.608  10.221  1.00 20.00     0.005 A 
HETATM    7  O7  UNL     1     -23.302  16.636  12.016  1.00 20.00    -0.389 OA
HETATM    8 BR8  UNL     1     -24.772  19.263   6.940  1.00 20.00    -0.091 Br
ENDROOT
TORSDOF 0
ENDMDL
MODEL 4
REMARK VINA RESULT:      -3.7      1.622      1.910
REMARK  0 active torsions:
REMARK  status: ('A' for Active; 'I' for Inactive)
ROOT
HETATM    1  C1  UNL     1     -33.382  16.935  -3.537  1.00 20.00     0.029 C 
HETATM    2  C2  UNL     1     -34.866  15.531  -2.832  1.00 20.00     0.029 C 
HETATM    3  C3  UNL     1     -33.087  14.515  -4.423  1.00 20.00     0.179 A 
HETATM    4  C4  UNL     1     -34.568  15.579  -5.418  1.00 20.00     0.179 A 
HETATM    5  C5  UNL     1     -33.863  16.489  -2.124  1.00 20.00     0.059 C 
HETATM    6  C6  UNL     1     -33.986  15.653  -4.047  1.00 20.00     0.005 A 
HETATM    7  O7  UNL     1     -33.686  14.468  -5.751  1.00 20.00    -0.389 OA
HETATM    8 BR8  UNL     1     -34.648  17.871  -1.027  1.00 20.00    -0.091 Br
ENDROOT
TORSDOF 0
ENDMDL
MODEL 5
REMARK VINA RESULT:      -3.6      1.645      2.176
REMARK  0 active torsions:
REMARK  status: ('A' for Active; 'I' for Inactive)
ROOT
HETATM    1  C1  UNL     1     -34.762  15.605  -2.725  1.00 20.00     0.029 C 
HETATM    2  C2  UNL     1     -33.204  16.918  -3.449  1.00 20.00     0.029 C 
HETATM    3  C3  UNL     1     -34.484  15.633  -5.304  1.00 20.00     0.179 A 
HETATM    4  C4  UNL     1     -33.056  14.474  -4.337  1.00 20.00     0.179 A 
HETATM    5  C5  UNL     1     -34.462  17.124  -2.554  1.00 20.00     0.059 C 
HETATM    6  C6  UNL     1     -33.870  15.659  -3.937  1.00 20.00     0.005 A 
HETATM    7  O7  UNL     1     -33.666  14.480  -5.660  1.00 20.00    -0.389 OA
HETATM    8 BR8  UNL     1     -34.124  17.718  -0.748  1.00 20.00    -0.091 Br
ENDROOT
TORSDOF 0
ENDMDL
MODEL 6
REMARK VINA RESULT:      -3.6     18.072     18.747
REMARK  0 active torsions:
REMARK  status: ('A' for Active; 'I' for Inactive)
ROOT
HETATM    1  C1  UNL     1     -23.301  17.824  11.267  1.00 20.00     0.029 C 
HETATM    2  C2  UNL     1     -24.361  18.553   9.530  1.00 20.00     0.029 C 
HETATM    3  C3  UNL     1     -22.545  16.772   9.020  1.00 20.00     0.179 A 
HETATM    4  C4  UNL     1     -21.767  18.671   9.340  1.00 20.00     0.179 A 
HETATM    5  C5  UNL     1     -24.805  17.893  10.869  1.00 20.00     0.059 C 
HETATM    6  C6  UNL     1     -23.000  17.968   9.798  1.00 20.00     0.005 A 
HETATM    7  O7  UNL     1     -21.356  17.493   8.586  1.00 20.00    -0.389 OA
HETATM    8 BR8  UNL     1     -25.929  18.974  12.009  1.00 20.00    -0.091 Br
ENDROOT
TORSDOF 0
ENDMDL
MODEL 7
REMARK VINA RESULT:      -3.6     18.452     19.024
REMARK  0 active torsions:
REMARK  status: ('A' for Active; 'I' for Inactive)
ROOT
HETATM    1  C1  UNL     1     -25.217  18.519  11.170  1.00 20.00     0.029 C 
HETATM    2  C2  UNL     1     -25.041  16.455  11.785  1.00 20.00     0.029 C 
HETATM    3  C3  UNL     1     -22.787  17.725  11.606  1.00 20.00     0.179 A 
HETATM    4  C4  UNL     1     -23.533  17.112   9.767  1.00 20.00     0.179 A 
HETATM    5  C5  UNL     1     -25.829  17.682  12.332  1.00 20.00     0.059 C 
HETATM    6  C6  UNL     1     -24.161  17.450  11.077  1.00 20.00     0.005 A 
HETATM    7  O7  UNL     1     -22.209  17.381  10.313  1.00 20.00    -0.389 OA
HETATM    8 BR8  UNL     1     -27.753  17.517  12.330  1.00 20.00    -0.091 Br
ENDROOT
TORSDOF 0
ENDMDL
MODEL 8
REMARK VINA RESULT:      -3.6     18.122     18.959
REMARK  0 active torsions:
REMARK  status: ('A' for Active; 'I' for Inactive)
ROOT
HETATM    1  C1  UNL     1     -22.906  17.752  11.318  1.00 20.00     0.029 C 
HETATM    2  C2  UNL     1     -24.151  17.310   9.606  1.00 20.00     0.029 C 
HETATM    3  C3  UNL     1     -25.395  18.429  11.589  1.00 20.00     0.179 A 
HETATM    4  C4  UNL     1     -25.062  16.398  11.869  1.00 20.00     0.179 A 
HETATM    5  C5  UNL     1     -22.841  18.129   9.808  1.00 20.00     0.059 C 
HETATM    6  C6  UNL     1     -24.366  17.462  11.089  1.00 20.00     0.005 A 
HETATM    7  O7  UNL     1     -26.052  17.362  12.332  1.00 20.00    -0.389 OA
HETATM    8 BR8  UNL     1     -21.293  17.491   8.845  1.00 20.00    -0.091 Br
ENDROOT
TORSDOF 0
ENDMDL
MODEL 9
REMARK VINA RESULT:      -3.4     11.124     12.265
REMARK  0 active torsions:
REMARK  status: ('A' for Active; 'I' for Inactive)
ROOT
HETATM    1  C1  UNL     1     -43.209   6.305  -1.365  1.00 20.00     0.029 C 
HETATM    2  C2  UNL     1     -41.255   5.474  -0.959  1.00 20.00     0.029 C 
HETATM    3  C3  UNL     1     -42.055   7.245   0.759  1.00 20.00     0.179 A 
HETATM    4  C4  UNL     1     -41.334   8.077  -1.003  1.00 20.00     0.179 A 
HETATM    5  C5  UNL     1     -42.670   4.857  -1.165  1.00 20.00     0.059 C 
HETATM    6  C6  UNL     1     -41.963   6.768  -0.658  1.00 20.00     0.005 A 
HETATM    7  O7  UNL     1     -41.431   8.508   0.386  1.00 20.00    -0.389 OA
HETATM    8 BR8  UNL     1     -42.860   3.671  -2.678  1.00 20.00    -0.091 Br
ENDROOT
TORSDOF 0
ENDMDL
