MODEL 1
REMARK VINA RESULT:      -4.1      0.000      0.000
REMARK  0 active torsions:
REMARK  status: ('A' for Active; 'I' for Inactive)
ROOT
HETATM    1  C1  UNL     1     -33.482   4.924   2.532  1.00 20.00     0.050 C 
HETATM    2  C2  UNL     1     -34.182   4.143   3.625  1.00 20.00     0.171 C 
HETATM    3  C3  UNL     1     -32.970   6.117   3.306  1.00 20.00     0.128 C 
HETATM    4  C4  UNL     1     -34.135   6.389   4.242  1.00 20.00     0.235 C 
HETATM    5  O5  UNL     1     -34.720   5.111   4.541  1.00 20.00    -0.369 OA
HETATM    6 CL6  UNL     1     -32.582   7.490   2.263  1.00 20.00    -0.121 Cl
HETATM    7 CL7  UNL     1     -33.620   7.188   5.735  1.00 20.00    -0.094 Cl
ENDROOT
TORSDOF 0
ENDMDL
MODEL 2
REMARK VINA RESULT:      -3.7      1.070      2.468
REMARK  0 active torsions:
REMARK  status: ('A' for Active; 'I' for Inactive)
ROOT
HETATM    1  C1  UNL     1     -34.493   4.908   4.553  1.00 20.00     0.050 C 
HETATM    2  C2  UNL     1     -34.306   4.271   3.192  1.00 20.00     0.171 C 
HETATM    3  C3  UNL     1     -34.093   6.337   4.265  1.00 20.00     0.128 C 
HETATM    4  C4  UNL     1     -32.915   6.135   3.327  1.00 20.00     0.235 C 
HETATM    5  O5  UNL     1     -33.202   4.947   2.569  1.00 20.00    -0.369 OA
HETATM    6 CL6  UNL     1     -33.668   7.234   5.728  1.00 20.00    -0.121 Cl
HETATM    7 CL7  UNL     1     -32.684   7.512   2.238  1.00 20.00    -0.094 Cl
ENDROOT
TORSDOF 0
ENDMDL
MODEL 3
REMARK VINA RESULT:      -3.5      1.847      2.300
REMARK  0 active torsions:
REMARK  status: ('A' for Active; 'I' for Inactive)
ROOT
HETATM    1  C1  UNL     1     -34.785   4.764   4.760  1.00 20.00     0.050 C 
HETATM    2  C2  UNL     1     -34.616   5.719   5.924  1.00 20.00     0.171 C 
HETATM    3  C3  UNL     1     -33.640   5.185   3.868  1.00 20.00     0.128 C 
HETATM    4  C4  UNL     1     -33.671   6.695   4.032  1.00 20.00     0.235 C 
HETATM    5  O5  UNL     1     -34.104   6.946   5.379  1.00 20.00    -0.369 OA
HETATM    6 CL6  UNL     1     -33.856   4.665   2.192  1.00 20.00    -0.121 Cl
HETATM    7 CL7  UNL     1     -32.085   7.430   3.755  1.00 20.00    -0.094 Cl
ENDROOT
TORSDOF 0
ENDMDL
MODEL 4
REMARK VINA RESULT:      -3.5      1.602      2.487
REMARK  0 active torsions:
REMARK  status: ('A' for Active; 'I' for Inactive)
ROOT
HETATM    1  C1  UNL     1     -34.143   6.474   5.016  1.00 20.00     0.050 C 
HETATM    2  C2  UNL     1     -35.077   5.282   5.053  1.00 20.00     0.171 C 
HETATM    3  C3  UNL     1     -33.623   6.394   3.599  1.00 20.00     0.128 C 
HETATM    4  C4  UNL     1     -33.458   4.893   3.425  1.00 20.00     0.235 C 
HETATM    5  O5  UNL     1     -34.500   4.279   4.201  1.00 20.00    -0.369 OA
HETATM    6 CL6  UNL     1     -32.115   7.288   3.375  1.00 20.00    -0.121 Cl
HETATM    7 CL7  UNL     1     -33.588   4.399   1.730  1.00 20.00    -0.094 Cl
ENDROOT
TORSDOF 0
ENDMDL
MODEL 5
REMARK VINA RESULT:      -3.4      9.244      9.671
REMARK  0 active torsions:
REMARK  status: ('A' for Active; 'I' for Inactive)
ROOT
HETATM    1  C1  UNL     1     -42.152   8.151   0.661  1.00 20.00     0.050 C 
HETATM    2  C2  UNL     1     -41.275   8.618  -0.483  1.00 20.00     0.171 C 
HETATM    3  C3  UNL     1     -41.891   6.662   0.640  1.00 20.00     0.128 C 
HETATM    4  C4  UNL     1     -41.837   6.388  -0.854  1.00 20.00     0.235 C 
HETATM    5  O5  UNL     1     -41.277   7.565  -1.460  1.00 20.00    -0.369 OA
HETATM    6 CL6  UNL     1     -43.149   5.739   1.470  1.00 20.00    -0.121 Cl
HETATM    7 CL7  UNL     1     -40.845   4.973  -1.238  1.00 20.00    -0.094 Cl
ENDROOT
TORSDOF 0
ENDMDL
MODEL 6
REMARK VINA RESULT:      -3.4     16.936     17.484
REMARK  0 active torsions:
REMARK  status: ('A' for Active; 'I' for Inactive)
ROOT
HETATM    1  C1  UNL     1     -22.712  17.848  10.756  1.00 20.00     0.050 C 
HETATM    2  C2  UNL     1     -21.659  17.964   9.673  1.00 20.00     0.171 C 
HETATM    3  C3  UNL     1     -23.979  18.034   9.952  1.00 20.00     0.128 C 
HETATM    4  C4  UNL     1     -23.558  19.118   8.975  1.00 20.00     0.235 C 
HETATM    5  O5  UNL     1     -22.162  18.901   8.707  1.00 20.00    -0.369 OA
HETATM    6 CL6  UNL     1     -25.359  18.500  10.954  1.00 20.00    -0.121 Cl
HETATM    7 CL7  UNL     1     -24.485  19.056   7.468  1.00 20.00    -0.094 Cl
ENDROOT
TORSDOF 0
ENDMDL
MODEL 7
REMARK VINA RESULT:      -3.3      9.082      9.417
REMARK  0 active torsions:
REMARK  status: ('A' for Active; 'I' for Inactive)
ROOT
HETATM    1  C1  UNL     1     -43.131   7.318   1.065  1.00 20.00     0.050 C 
HETATM    2  C2  UNL     1     -43.417   5.866   1.390  1.00 20.00     0.171 C 
HETATM    3  C3  UNL     1     -42.252   7.176  -0.156  1.00 20.00     0.128 C 
HETATM    4  C4  UNL     1     -41.405   5.972   0.221  1.00 20.00     0.235 C 
HETATM    5  O5  UNL     1     -42.245   5.122   1.019  1.00 20.00    -0.369 OA
HETATM    6 CL6  UNL     1     -41.293   8.626  -0.477  1.00 20.00    -0.121 Cl
HETATM    7 CL7  UNL     1     -40.823   5.093  -1.200  1.00 20.00    -0.094 Cl
ENDROOT
TORSDOF 0
ENDMDL
MODEL 8
REMARK VINA RESULT:      -3.3     16.350     16.684
REMARK  0 active torsions:
REMARK  status: ('A' for Active; 'I' for Inactive)
ROOT
HETATM    1  C1  UNL     1     -23.480  18.453   8.259  1.00 20.00     0.050 C 
HETATM    2  C2  UNL     1     -22.364  17.430   8.215  1.00 20.00     0.171 C 
HETATM    3  C3  UNL     1     -23.859  18.409   9.722  1.00 20.00     0.128 C 
HETATM    4  C4  UNL     1     -23.751  16.923  10.015  1.00 20.00     0.235 C 
HETATM    5  O5  UNL     1     -22.689  16.423   9.186  1.00 20.00    -0.369 OA
HETATM    6 CL6  UNL     1     -25.473  19.062  10.028  1.00 20.00    -0.121 Cl
HETATM    7 CL7  UNL     1     -23.397  16.602  11.720  1.00 20.00    -0.094 Cl
ENDROOT
TORSDOF 0
ENDMDL
MODEL 9
REMARK VINA RESULT:      -3.3      9.205      9.480
REMARK  0 active torsions:
REMARK  status: ('A' for Active; 'I' for Inactive)
ROOT
HETATM    1  C1  UNL     1     -42.668   5.356   0.845  1.00 20.00     0.050 C 
HETATM    2  C2  UNL     1     -43.417   6.479   1.532  1.00 20.00     0.171 C 
HETATM    3  C3  UNL     1     -41.541   6.117   0.185  1.00 20.00     0.128 C 
HETATM    4  C4  UNL     1     -42.259   7.372  -0.282  1.00 20.00     0.235 C 
HETATM    5  O5  UNL     1     -43.282   7.638   0.693  1.00 20.00    -0.369 OA
HETATM    6 CL6  UNL     1     -40.792   5.214  -1.137  1.00 20.00    -0.121 Cl
HETATM    7 CL7  UNL     1     -41.166   8.758  -0.413  1.00 20.00    -0.094 Cl
ENDROOT
TORSDOF 0
ENDMDL
