MODEL 1
REMARK VINA RESULT:      -5.7      0.000      0.000
REMARK  0 active torsions:
REMARK  status: ('A' for Active; 'I' for Inactive)
ROOT
HETATM    1  C1  UNL     1     -34.743   5.612   6.255  1.00 20.00     0.002 C 
HETATM    2  C2  UNL     1     -34.987   4.781   5.230  1.00 20.00     0.028 C 
HETATM    3  C3  UNL     1     -33.849   6.751   6.140  1.00 20.00    -0.003 C 
HETATM    4  C4  UNL     1     -33.471   7.223   4.939  1.00 20.00    -0.011 C 
HETATM    5  C5  UNL     1     -33.102   5.051   2.244  1.00 20.00     0.132 C 
HETATM    6  C6  UNL     1     -33.093   6.351   2.548  1.00 20.00     0.020 C 
HETATM    7  C7  UNL     1     -34.296   5.135   3.973  1.00 20.00     0.046 C 
HETATM    8  C8  UNL     1     -34.014   6.608   3.688  1.00 20.00     0.102 C 
HETATM    9  N9  UNL     1     -33.848   4.284   3.100  1.00 20.00    -0.263 NA
HETATM   10 BR10 UNL     1     -32.248   7.713   1.657  1.00 20.00    -0.053 Br
ENDROOT
TORSDOF 0
ENDMDL
MODEL 2
REMARK VINA RESULT:      -4.6     16.077     16.763
REMARK  0 active torsions:
REMARK  status: ('A' for Active; 'I' for Inactive)
ROOT
HETATM    1  C1  UNL     1     -22.603  17.655   8.156  1.00 20.00     0.002 C 
HETATM    2  C2  UNL     1     -22.469  16.915   9.267  1.00 20.00     0.028 C 
HETATM    3  C3  UNL     1     -23.719  18.563   7.954  1.00 20.00    -0.003 C 
HETATM    4  C4  UNL     1     -24.495  18.953   8.979  1.00 20.00    -0.011 C 
HETATM    5  C5  UNL     1     -25.095  16.790  11.640  1.00 20.00     0.132 C 
HETATM    6  C6  UNL     1     -25.301  18.050  11.250  1.00 20.00     0.020 C 
HETATM    7  C7  UNL     1     -23.530  17.120  10.274  1.00 20.00     0.046 C 
HETATM    8  C8  UNL     1     -24.187  18.494  10.369  1.00 20.00     0.102 C 
HETATM    9  N9  UNL     1     -24.001  16.201  11.063  1.00 20.00    -0.263 NA
HETATM   10 BR10 UNL     1     -26.626  19.197  11.792  1.00 20.00    -0.053 Br
ENDROOT
TORSDOF 0
ENDMDL
MODEL 3
REMARK VINA RESULT:      -4.5     12.220     12.670
REMARK  0 active torsions:
REMARK  status: ('A' for Active; 'I' for Inactive)
ROOT
HETATM    1  C1  UNL     1     -33.054  16.096  -3.050  1.00 20.00     0.002 C 
HETATM    2  C2  UNL     1     -33.019  15.195  -4.044  1.00 20.00     0.028 C 
HETATM    3  C3  UNL     1     -34.297  16.661  -2.554  1.00 20.00    -0.003 C 
HETATM    4  C4  UNL     1     -35.482  16.090  -2.829  1.00 20.00    -0.011 C 
HETATM    5  C5  UNL     1     -35.968  14.439  -5.855  1.00 20.00     0.132 C 
HETATM    6  C6  UNL     1     -36.563  14.671  -4.683  1.00 20.00     0.020 C 
HETATM    7  C7  UNL     1     -34.344  14.806  -4.569  1.00 20.00     0.046 C 
HETATM    8  C8  UNL     1     -35.537  14.819  -3.616  1.00 20.00     0.102 C 
HETATM    9  N9  UNL     1     -34.600  14.503  -5.806  1.00 20.00    -0.263 NA
HETATM   10 BR10 UNL     1     -38.358  14.658  -4.307  1.00 20.00    -0.053 Br
ENDROOT
TORSDOF 0
ENDMDL
MODEL 4
REMARK VINA RESULT:      -4.1     12.308     13.151
REMARK  0 active torsions:
REMARK  status: ('A' for Active; 'I' for Inactive)
ROOT
HETATM    1  C1  UNL     1     -33.894  16.147  -3.272  1.00 20.00     0.002 C 
HETATM    2  C2  UNL     1     -32.901  17.027  -3.072  1.00 20.00     0.028 C 
HETATM    3  C3  UNL     1     -34.906  15.870  -2.267  1.00 20.00    -0.003 C 
HETATM    4  C4  UNL     1     -35.096  16.696  -1.224  1.00 20.00    -0.011 C 
HETATM    5  C5  UNL     1     -32.410  18.444   0.136  1.00 20.00     0.132 C 
HETATM    6  C6  UNL     1     -33.738  18.341   0.216  1.00 20.00     0.020 C 
HETATM    7  C7  UNL     1     -32.938  17.709  -1.762  1.00 20.00     0.046 C 
HETATM    8  C8  UNL     1     -34.295  17.955  -1.108  1.00 20.00     0.102 C 
HETATM    9  N9  UNL     1     -31.896  18.074  -1.079  1.00 20.00    -0.263 NA
HETATM   10 BR10 UNL     1     -34.819  18.753   1.640  1.00 20.00    -0.053 Br
ENDROOT
TORSDOF 0
ENDMDL
MODEL 5
REMARK VINA RESULT:      -4.1     12.288     12.891
REMARK  0 active torsions:
REMARK  status: ('A' for Active; 'I' for Inactive)
ROOT
HETATM    1  C1  UNL     1     -34.989  14.257  -4.229  1.00 20.00     0.002 C 
HETATM    2  C2  UNL     1     -35.903  14.935  -3.518  1.00 20.00     0.028 C 
HETATM    3  C3  UNL     1     -33.616  14.710  -4.367  1.00 20.00    -0.003 C 
HETATM    4  C4  UNL     1     -33.102  15.641  -3.544  1.00 20.00    -0.011 C 
HETATM    5  C5  UNL     1     -35.138  18.158  -2.265  1.00 20.00     0.132 C 
HETATM    6  C6  UNL     1     -33.904  17.658  -2.162  1.00 20.00     0.020 C 
HETATM    7  C7  UNL     1     -35.392  16.159  -2.867  1.00 20.00     0.046 C 
HETATM    8  C8  UNL     1     -33.931  16.194  -2.428  1.00 20.00     0.102 C 
HETATM    9  N9  UNL     1     -36.074  17.250  -2.683  1.00 20.00    -0.263 NA
HETATM   10 BR10 UNL     1     -32.378  18.517  -1.618  1.00 20.00    -0.053 Br
ENDROOT
TORSDOF 0
ENDMDL
MODEL 6
REMARK VINA RESULT:      -4.1     12.253     12.819
REMARK  0 active torsions:
REMARK  status: ('A' for Active; 'I' for Inactive)
ROOT
HETATM    1  C1  UNL     1     -33.859  14.394  -4.227  1.00 20.00     0.002 C 
HETATM    2  C2  UNL     1     -35.191  14.397  -4.064  1.00 20.00     0.028 C 
HETATM    3  C3  UNL     1     -33.010  15.461  -3.725  1.00 20.00    -0.003 C 
HETATM    4  C4  UNL     1     -33.457  16.334  -2.806  1.00 20.00    -0.011 C 
HETATM    5  C5  UNL     1     -36.811  17.264  -2.763  1.00 20.00     0.132 C 
HETATM    6  C6  UNL     1     -35.680  17.400  -2.068  1.00 20.00     0.020 C 
HETATM    7  C7  UNL     1     -35.717  15.555  -3.313  1.00 20.00     0.046 C 
HETATM    8  C8  UNL     1     -34.834  16.188  -2.241  1.00 20.00     0.102 C 
HETATM    9  N9  UNL     1     -36.863  16.128  -3.527  1.00 20.00    -0.263 NA
HETATM   10 BR10 UNL     1     -35.218  18.749  -0.915  1.00 20.00    -0.053 Br
ENDROOT
TORSDOF 0
ENDMDL
MODEL 7
REMARK VINA RESULT:      -4.1     12.192     12.972
REMARK  0 active torsions:
REMARK  status: ('A' for Active; 'I' for Inactive)
ROOT
HETATM    1  C1  UNL     1     -33.498  17.725  -1.460  1.00 20.00     0.002 C 
HETATM    2  C2  UNL     1     -32.940  17.662  -2.679  1.00 20.00     0.028 C 
HETATM    3  C3  UNL     1     -34.723  17.021  -1.126  1.00 20.00    -0.003 C 
HETATM    4  C4  UNL     1     -35.189  16.025  -1.900  1.00 20.00    -0.011 C 
HETATM    5  C5  UNL     1     -34.675  16.099  -5.342  1.00 20.00     0.132 C 
HETATM    6  C6  UNL     1     -35.143  15.311  -4.371  1.00 20.00     0.020 C 
HETATM    7  C7  UNL     1     -33.657  16.798  -3.639  1.00 20.00     0.046 C 
HETATM    8  C8  UNL     1     -34.415  15.587  -3.103  1.00 20.00     0.102 C 
HETATM    9  N9  UNL     1     -33.747  17.014  -4.917  1.00 20.00    -0.263 NA
HETATM   10 BR10 UNL     1     -36.366  13.951  -4.512  1.00 20.00    -0.053 Br
ENDROOT
TORSDOF 0
ENDMDL
MODEL 8
REMARK VINA RESULT:      -4.1     12.754     13.460
REMARK  0 active torsions:
REMARK  status: ('A' for Active; 'I' for Inactive)
ROOT
HETATM    1  C1  UNL     1     -33.630  17.878  -2.279  1.00 20.00     0.002 C 
HETATM    2  C2  UNL     1     -32.410  18.426  -2.163  1.00 20.00     0.028 C 
HETATM    3  C3  UNL     1     -34.382  17.400  -1.132  1.00 20.00    -0.003 C 
HETATM    4  C4  UNL     1     -34.052  17.762   0.119  1.00 20.00    -0.011 C 
HETATM    5  C5  UNL     1     -30.722  18.346   0.950  1.00 20.00     0.132 C 
HETATM    6  C6  UNL     1     -31.957  18.444   1.448  1.00 20.00     0.020 C 
HETATM    7  C7  UNL     1     -31.910  18.526  -0.776  1.00 20.00     0.046 C 
HETATM    8  C8  UNL     1     -32.923  18.716   0.350  1.00 20.00     0.102 C 
HETATM    9  N9  UNL     1     -30.667  18.408  -0.418  1.00 20.00    -0.263 NA
HETATM   10 BR10 UNL     1     -32.468  18.433   3.209  1.00 20.00    -0.053 Br
ENDROOT
TORSDOF 0
ENDMDL
MODEL 9
REMARK VINA RESULT:      -4.0     12.331     12.792
REMARK  0 active torsions:
REMARK  status: ('A' for Active; 'I' for Inactive)
ROOT
HETATM    1  C1  UNL     1     -34.298  16.679  -1.767  1.00 20.00     0.002 C 
HETATM    2  C2  UNL     1     -35.493  16.181  -2.119  1.00 20.00     0.028 C 
HETATM    3  C3  UNL     1     -33.152  16.660  -2.659  1.00 20.00    -0.003 C 
HETATM    4  C4  UNL     1     -33.298  16.441  -3.978  1.00 20.00    -0.011 C 
HETATM    5  C5  UNL     1     -35.834  14.357  -5.136  1.00 20.00     0.132 C 
HETATM    6  C6  UNL     1     -34.889  15.194  -5.569  1.00 20.00     0.020 C 
HETATM    7  C7  UNL     1     -35.554  15.639  -3.492  1.00 20.00     0.046 C 
HETATM    8  C8  UNL     1     -34.664  16.266  -4.562  1.00 20.00     0.102 C 
HETATM    9  N9  UNL     1     -36.270  14.620  -3.863  1.00 20.00    -0.263 NA
HETATM   10 BR10 UNL     1     -34.060  15.211  -7.205  1.00 20.00    -0.053 Br
ENDROOT
TORSDOF 0
ENDMDL
