MODEL 1
REMARK VINA RESULT:      -5.7      0.000      0.000
REMARK  0 active torsions:
REMARK  status: ('A' for Active; 'I' for Inactive)
ROOT
HETATM    1  C1  UNL     1     -32.662   5.965   2.160  1.00 20.00     0.047 C 
HETATM    2  C2  UNL     1     -33.137   4.633   2.498  1.00 20.00     0.042 C 
HETATM    3  C3  UNL     1     -34.775   5.516   5.690  1.00 20.00     0.010 C 
HETATM    4  C4  UNL     1     -34.124   6.538   6.257  1.00 20.00     0.114 C 
HETATM    5  C5  UNL     1     -32.852   6.997   2.992  1.00 20.00     0.142 C 
HETATM    6  C6  UNL     1     -34.033   4.443   3.481  1.00 20.00     0.107 C 
HETATM    7  C7  UNL     1     -33.588   6.726   4.237  1.00 20.00     0.087 C 
HETATM    8  C8  UNL     1     -34.618   5.605   4.214  1.00 20.00     0.127 C 
HETATM    9  N9  UNL     1     -33.400   7.305   5.381  1.00 20.00    -0.262 NA
HETATM   10  F10 UNL     1     -32.329   8.220   2.813  1.00 20.00    -0.204 F 
HETATM   11  F11 UNL     1     -34.446   3.189   3.767  1.00 20.00    -0.210 F 
ENDROOT
TORSDOF 0
ENDMDL
MODEL 2
REMARK VINA RESULT:      -5.4      1.717      3.854
REMARK  0 active torsions:
REMARK  status: ('A' for Active; 'I' for Inactive)
ROOT
HETATM    1  C1  UNL     1     -33.992   6.856   5.986  1.00 20.00     0.047 C 
HETATM    2  C2  UNL     1     -32.982   7.427   5.109  1.00 20.00     0.042 C 
HETATM    3  C3  UNL     1     -33.334   4.995   2.349  1.00 20.00     0.010 C 
HETATM    4  C4  UNL     1     -33.697   3.807   2.846  1.00 20.00     0.114 C 
HETATM    5  C5  UNL     1     -34.644   5.735   5.652  1.00 20.00     0.142 C 
HETATM    6  C6  UNL     1     -32.881   7.044   3.824  1.00 20.00     0.107 C 
HETATM    7  C7  UNL     1     -34.314   5.133   4.351  1.00 20.00     0.087 C 
HETATM    8  C8  UNL     1     -33.848   6.067   3.242  1.00 20.00     0.127 C 
HETATM    9  N9  UNL     1     -34.315   3.868   4.067  1.00 20.00    -0.262 NA
HETATM   10  F10 UNL     1     -35.487   5.078   6.464  1.00 20.00    -0.204 F 
HETATM   11  F11 UNL     1     -31.926   7.595   3.044  1.00 20.00    -0.210 F 
ENDROOT
TORSDOF 0
ENDMDL
MODEL 3
REMARK VINA RESULT:      -4.9      1.582      4.044
REMARK  0 active torsions:
REMARK  status: ('A' for Active; 'I' for Inactive)
ROOT
HETATM    1  C1  UNL     1     -34.718   5.836   6.020  1.00 20.00     0.047 C 
HETATM    2  C2  UNL     1     -33.633   6.796   6.148  1.00 20.00     0.042 C 
HETATM    3  C3  UNL     1     -32.551   6.748   2.614  1.00 20.00     0.010 C 
HETATM    4  C4  UNL     1     -32.783   5.537   2.094  1.00 20.00     0.114 C 
HETATM    5  C5  UNL     1     -34.968   5.227   4.855  1.00 20.00     0.142 C 
HETATM    6  C6  UNL     1     -33.049   7.333   5.063  1.00 20.00     0.107 C 
HETATM    7  C7  UNL     1     -34.120   5.597   3.711  1.00 20.00     0.087 C 
HETATM    8  C8  UNL     1     -33.543   7.007   3.692  1.00 20.00     0.127 C 
HETATM    9  N9  UNL     1     -33.754   4.818   2.741  1.00 20.00    -0.262 NA
HETATM   10  F10 UNL     1     -35.860   4.237   4.694  1.00 20.00    -0.204 F 
HETATM   11  F11 UNL     1     -32.041   8.217   5.223  1.00 20.00    -0.210 F 
ENDROOT
TORSDOF 0
ENDMDL
MODEL 4
REMARK VINA RESULT:      -4.8     16.410     16.992
REMARK  0 active torsions:
REMARK  status: ('A' for Active; 'I' for Inactive)
ROOT
HETATM    1  C1  UNL     1     -23.037  18.241   8.808  1.00 20.00     0.047 C 
HETATM    2  C2  UNL     1     -22.311  18.022  10.048  1.00 20.00     0.042 C 
HETATM    3  C3  UNL     1     -25.208  18.263  12.331  1.00 20.00     0.010 C 
HETATM    4  C4  UNL     1     -26.112  19.104  11.816  1.00 20.00     0.114 C 
HETATM    5  C5  UNL     1     -24.351  18.499   8.812  1.00 20.00     0.142 C 
HETATM    6  C6  UNL     1     -22.961  17.765  11.197  1.00 20.00     0.107 C 
HETATM    7  C7  UNL     1     -25.025  18.516  10.120  1.00 20.00     0.087 C 
HETATM    8  C8  UNL     1     -24.448  17.633  11.219  1.00 20.00     0.127 C 
HETATM    9  N9  UNL     1     -26.029  19.263  10.457  1.00 20.00    -0.262 NA
HETATM   10  F10 UNL     1     -25.059  18.843   7.725  1.00 20.00    -0.204 F 
HETATM   11  F11 UNL     1     -22.250  17.573  12.329  1.00 20.00    -0.210 F 
ENDROOT
TORSDOF 0
ENDMDL
MODEL 5
REMARK VINA RESULT:      -4.6      1.716      3.790
REMARK  0 active torsions:
REMARK  status: ('A' for Active; 'I' for Inactive)
ROOT
HETATM    1  C1  UNL     1     -34.704   4.490   5.337  1.00 20.00     0.047 C 
HETATM    2  C2  UNL     1     -34.427   5.707   6.083  1.00 20.00     0.042 C 
HETATM    3  C3  UNL     1     -32.885   7.611   3.316  1.00 20.00     0.010 C 
HETATM    4  C4  UNL     1     -32.268   6.765   2.484  1.00 20.00     0.114 C 
HETATM    5  C5  UNL     1     -34.330   4.365   4.057  1.00 20.00     0.142 C 
HETATM    6  C6  UNL     1     -34.075   6.843   5.455  1.00 20.00     0.107 C 
HETATM    7  C7  UNL     1     -33.662   5.520   3.439  1.00 20.00     0.087 C 
HETATM    8  C8  UNL     1     -34.022   6.904   3.965  1.00 20.00     0.127 C 
HETATM    9  N9  UNL     1     -32.738   5.478   2.531  1.00 20.00    -0.262 NA
HETATM   10  F10 UNL     1     -34.430   3.230   3.347  1.00 20.00    -0.204 F 
HETATM   11  F11 UNL     1     -33.822   7.950   6.185  1.00 20.00    -0.210 F 
ENDROOT
TORSDOF 0
ENDMDL
MODEL 6
REMARK VINA RESULT:      -4.6     16.000     16.879
REMARK  0 active torsions:
REMARK  status: ('A' for Active; 'I' for Inactive)
ROOT
HETATM    1  C1  UNL     1     -22.797  18.766   9.278  1.00 20.00     0.047 C 
HETATM    2  C2  UNL     1     -24.170  19.116   8.949  1.00 20.00     0.042 C 
HETATM    3  C3  UNL     1     -25.786  17.381  11.784  1.00 20.00     0.010 C 
HETATM    4  C4  UNL     1     -25.062  16.307  12.119  1.00 20.00     0.114 C 
HETATM    5  C5  UNL     1     -22.517  17.975  10.322  1.00 20.00     0.142 C 
HETATM    6  C6  UNL     1     -25.166  18.926   9.832  1.00 20.00     0.107 C 
HETATM    7  C7  UNL     1     -23.654  17.509  11.131  1.00 20.00     0.087 C 
HETATM    8  C8  UNL     1     -24.881  18.408  11.203  1.00 20.00     0.127 C 
HETATM    9  N9  UNL     1     -23.746  16.369  11.743  1.00 20.00    -0.262 NA
HETATM   10  F10 UNL     1     -21.294  17.501  10.606  1.00 20.00    -0.204 F 
HETATM   11  F11 UNL     1     -26.428  19.261   9.486  1.00 20.00    -0.210 F 
ENDROOT
TORSDOF 0
ENDMDL
MODEL 7
REMARK VINA RESULT:      -4.6     12.022     12.621
REMARK  0 active torsions:
REMARK  status: ('A' for Active; 'I' for Inactive)
ROOT
HETATM    1  C1  UNL     1     -33.070  16.256  -3.050  1.00 20.00     0.047 C 
HETATM    2  C2  UNL     1     -34.278  16.932  -2.605  1.00 20.00     0.042 C 
HETATM    3  C3  UNL     1     -36.706  14.620  -4.161  1.00 20.00     0.010 C 
HETATM    4  C4  UNL     1     -36.179  14.108  -5.279  1.00 20.00     0.114 C 
HETATM    5  C5  UNL     1     -33.133  15.176  -3.840  1.00 20.00     0.142 C 
HETATM    6  C6  UNL     1     -35.482  16.341  -2.704  1.00 20.00     0.107 C 
HETATM    7  C7  UNL     1     -34.474  14.692  -4.204  1.00 20.00     0.087 C 
HETATM    8  C8  UNL     1     -35.605  14.943  -3.215  1.00 20.00     0.127 C 
HETATM    9  N9  UNL     1     -34.810  14.127  -5.322  1.00 20.00    -0.262 NA
HETATM   10  F10 UNL     1     -32.067  14.582  -4.398  1.00 20.00    -0.204 F 
HETATM   11  F11 UNL     1     -36.581  17.004  -2.284  1.00 20.00    -0.210 F 
ENDROOT
TORSDOF 0
ENDMDL
MODEL 8
REMARK VINA RESULT:      -4.5     16.260     16.873
REMARK  0 active torsions:
REMARK  status: ('A' for Active; 'I' for Inactive)
ROOT
HETATM    1  C1  UNL     1     -21.757  17.137   9.671  1.00 20.00     0.047 C 
HETATM    2  C2  UNL     1     -22.593  17.750  10.690  1.00 20.00     0.042 C 
HETATM    3  C3  UNL     1     -25.257  18.968   8.435  1.00 20.00     0.010 C 
HETATM    4  C4  UNL     1     -24.730  19.259   7.241  1.00 20.00     0.114 C 
HETATM    5  C5  UNL     1     -22.079  17.214   8.373  1.00 20.00     0.142 C 
HETATM    6  C6  UNL     1     -23.851  18.140  10.415  1.00 20.00     0.107 C 
HETATM    7  C7  UNL     1     -23.328  17.915   8.036  1.00 20.00     0.087 C 
HETATM    8  C8  UNL     1     -24.447  17.893   9.069  1.00 20.00     0.127 C 
HETATM    9  N9  UNL     1     -23.553  18.612   6.966  1.00 20.00    -0.262 NA
HETATM   10  F10 UNL     1     -21.293  16.793   7.371  1.00 20.00    -0.204 F 
HETATM   11  F11 UNL     1     -24.594  18.709  11.388  1.00 20.00    -0.210 F 
ENDROOT
TORSDOF 0
ENDMDL
MODEL 9
REMARK VINA RESULT:      -4.5     12.068     12.652
REMARK  0 active torsions:
REMARK  status: ('A' for Active; 'I' for Inactive)
ROOT
HETATM    1  C1  UNL     1     -33.828  14.381  -4.326  1.00 20.00     0.047 C 
HETATM    2  C2  UNL     1     -33.006  15.409  -3.707  1.00 20.00     0.042 C 
HETATM    3  C3  UNL     1     -35.747  17.282  -2.084  1.00 20.00     0.010 C 
HETATM    4  C4  UNL     1     -36.858  17.175  -2.822  1.00 20.00     0.114 C 
HETATM    5  C5  UNL     1     -35.163  14.408  -4.222  1.00 20.00     0.142 C 
HETATM    6  C6  UNL     1     -33.510  16.230  -2.770  1.00 20.00     0.107 C 
HETATM    7  C7  UNL     1     -35.749  15.499  -3.429  1.00 20.00     0.087 C 
HETATM    8  C8  UNL     1     -34.914  16.068  -2.289  1.00 20.00     0.127 C 
HETATM    9  N9  UNL     1     -36.889  16.079  -3.645  1.00 20.00    -0.262 NA
HETATM   10  F10 UNL     1     -35.990  13.576  -4.874  1.00 20.00    -0.204 F 
HETATM   11  F11 UNL     1     -32.715  17.175  -2.222  1.00 20.00    -0.210 F 
ENDROOT
TORSDOF 0
ENDMDL
