MODEL 1
REMARK VINA RESULT:      -4.2      0.000      0.000
REMARK  1 active torsions:
REMARK  status: ('A' for Active; 'I' for Inactive)
REMARK    1  A    between atoms: C2_2  and  C4_4 
ROOT
HETATM    1  C1  UNL     1     -34.736   4.834   4.596  1.00 20.00     0.026 A 
HETATM    2  C2  UNL     1     -33.938   5.714   3.996  1.00 20.00     0.068 A 
HETATM    3  C3  UNL     1     -34.937   5.363   5.964  1.00 20.00     0.203 A 
HETATM    4  N5  UNL     1     -33.595   6.759   4.817  1.00 20.00    -0.159 NA
HETATM    5  N6  UNL     1     -34.135   6.613   5.951  1.00 20.00    -0.189 NA
ENDROOT
BRANCH   2   6
HETATM    6  C4  UNL     1     -33.424   5.659   2.604  1.00 20.00     0.175 C 
HETATM    7 CL7  UNL     1     -32.512   7.145   2.320  1.00 20.00    -0.124 Cl
ENDBRANCH   2   6
TORSDOF 1
ENDMDL
MODEL 2
REMARK VINA RESULT:      -4.0      1.636      1.721
REMARK  1 active torsions:
REMARK  status: ('A' for Active; 'I' for Inactive)
REMARK    1  A    between atoms: C2_2  and  C4_4 
ROOT
HETATM    1  C1  UNL     1     -34.018   6.558   4.979  1.00 20.00     0.026 A 
HETATM    2  C2  UNL     1     -33.720   6.073   3.776  1.00 20.00     0.068 A 
HETATM    3  C3  UNL     1     -34.833   5.507   5.629  1.00 20.00     0.203 A 
HETATM    4  N5  UNL     1     -34.246   4.823   3.567  1.00 20.00    -0.159 NA
HETATM    5  N6  UNL     1     -34.890   4.449   4.588  1.00 20.00    -0.189 NA
ENDROOT
BRANCH   2   6
HETATM    6  C4  UNL     1     -32.917   6.732   2.714  1.00 20.00     0.175 C 
HETATM    7 CL7  UNL     1     -31.614   7.618   3.514  1.00 20.00    -0.124 Cl
ENDBRANCH   2   6
TORSDOF 1
ENDMDL
MODEL 3
REMARK VINA RESULT:      -3.8     11.961     12.125
REMARK  1 active torsions:
REMARK  status: ('A' for Active; 'I' for Inactive)
REMARK    1  A    between atoms: C2_2  and  C4_4 
ROOT
HETATM    1  C1  UNL     1     -36.056  15.124  -4.058  1.00 20.00     0.026 A 
HETATM    2  C2  UNL     1     -34.815  14.675  -3.882  1.00 20.00     0.068 A 
HETATM    3  C3  UNL     1     -36.836  13.943  -4.490  1.00 20.00     0.203 A 
HETATM    4  N5  UNL     1     -34.697  13.334  -4.148  1.00 20.00    -0.159 NA
HETATM    5  N6  UNL     1     -35.817  12.864  -4.499  1.00 20.00    -0.189 NA
ENDROOT
BRANCH   2   6
HETATM    6  C4  UNL     1     -33.629  15.457  -3.448  1.00 20.00     0.175 C 
HETATM    7 CL7  UNL     1     -34.124  16.444  -2.069  1.00 20.00    -0.124 Cl
ENDBRANCH   2   6
TORSDOF 1
ENDMDL
MODEL 4
REMARK VINA RESULT:      -3.8      2.093      3.091
REMARK  1 active torsions:
REMARK  status: ('A' for Active; 'I' for Inactive)
REMARK    1  A    between atoms: C2_2  and  C4_4 
ROOT
HETATM    1  C1  UNL     1     -33.473   5.227   2.594  1.00 20.00     0.026 A 
HETATM    2  C2  UNL     1     -34.028   5.609   3.742  1.00 20.00     0.068 A 
HETATM    3  C3  UNL     1     -32.495   6.288   2.266  1.00 20.00     0.203 A 
HETATM    4  N5  UNL     1     -33.522   6.799   4.201  1.00 20.00    -0.159 NA
HETATM    5  N6  UNL     1     -32.645   7.233   3.401  1.00 20.00    -0.189 NA
ENDROOT
BRANCH   2   6
HETATM    6  C4  UNL     1     -35.080   4.898   4.513  1.00 20.00     0.175 C 
HETATM    7 CL7  UNL     1     -34.827   5.275   6.220  1.00 20.00    -0.124 Cl
ENDBRANCH   2   6
TORSDOF 1
ENDMDL
MODEL 5
REMARK VINA RESULT:      -3.8      2.666      3.382
REMARK  1 active torsions:
REMARK  status: ('A' for Active; 'I' for Inactive)
REMARK    1  A    between atoms: C2_2  and  C4_4 
ROOT
HETATM    1  C1  UNL     1     -33.541   6.847   4.016  1.00 20.00     0.026 A 
HETATM    2  C2  UNL     1     -34.088   5.657   3.775  1.00 20.00     0.068 A 
HETATM    3  C3  UNL     1     -32.543   7.039   2.940  1.00 20.00     0.203 A 
HETATM    4  N5  UNL     1     -33.561   5.051   2.662  1.00 20.00    -0.159 NA
HETATM    5  N6  UNL     1     -32.675   5.791   2.146  1.00 20.00    -0.189 NA
ENDROOT
BRANCH   2   6
HETATM    6  C4  UNL     1     -35.151   4.981   4.561  1.00 20.00     0.175 C 
HETATM    7 CL7  UNL     1     -34.818   5.286   6.269  1.00 20.00    -0.124 Cl
ENDBRANCH   2   6
TORSDOF 1
ENDMDL
MODEL 6
REMARK VINA RESULT:      -3.7     12.012     12.608
REMARK  1 active torsions:
REMARK  status: ('A' for Active; 'I' for Inactive)
REMARK    1  A    between atoms: C2_2  and  C4_4 
ROOT
HETATM    1  C1  UNL     1     -36.874  15.783  -3.964  1.00 20.00     0.026 A 
HETATM    2  C2  UNL     1     -36.278  14.601  -4.110  1.00 20.00     0.068 A 
HETATM    3  C3  UNL     1     -38.311  15.523  -4.206  1.00 20.00     0.203 A 
HETATM    4  N5  UNL     1     -37.164  13.599  -4.418  1.00 20.00    -0.159 NA
HETATM    5  N6  UNL     1     -38.337  14.065  -4.486  1.00 20.00    -0.189 NA
ENDROOT
BRANCH   2   6
HETATM    6  C4  UNL     1     -34.830  14.302  -3.974  1.00 20.00     0.175 C 
HETATM    7 CL7  UNL     1     -34.140  15.517  -2.893  1.00 20.00    -0.124 Cl
ENDBRANCH   2   6
TORSDOF 1
ENDMDL
MODEL 7
REMARK VINA RESULT:      -3.7     16.329     16.570
REMARK  1 active torsions:
REMARK  status: ('A' for Active; 'I' for Inactive)
REMARK    1  A    between atoms: C2_2  and  C4_4 
ROOT
HETATM    1  C1  UNL     1     -24.946  18.886   8.437  1.00 20.00     0.026 A 
HETATM    2  C2  UNL     1     -23.729  18.358   8.548  1.00 20.00     0.068 A 
HETATM    3  C3  UNL     1     -25.076  19.262   7.012  1.00 20.00     0.203 A 
HETATM    4  N5  UNL     1     -23.050  18.345   7.355  1.00 20.00    -0.159 NA
HETATM    5  N6  UNL     1     -23.768  18.848   6.444  1.00 20.00    -0.189 NA
ENDROOT
BRANCH   2   6
HETATM    6  C4  UNL     1     -23.091  17.817   9.776  1.00 20.00     0.175 C 
HETATM    7 CL7  UNL     1     -24.085  16.468  10.334  1.00 20.00    -0.124 Cl
ENDBRANCH   2   6
TORSDOF 1
ENDMDL
MODEL 8
REMARK VINA RESULT:      -3.6     16.787     17.081
REMARK  1 active torsions:
REMARK  status: ('A' for Active; 'I' for Inactive)
REMARK    1  A    between atoms: C2_2  and  C4_4 
ROOT
HETATM    1  C1  UNL     1     -22.331  17.716   9.432  1.00 20.00     0.026 A 
HETATM    2  C2  UNL     1     -23.341  18.264   8.759  1.00 20.00     0.068 A 
HETATM    3  C3  UNL     1     -21.362  17.292   8.397  1.00 20.00     0.203 A 
HETATM    4  N5  UNL     1     -23.140  18.246   7.402  1.00 20.00    -0.159 NA
HETATM    5  N6  UNL     1     -22.030  17.703   7.136  1.00 20.00    -0.189 NA
ENDROOT
BRANCH   2   6
HETATM    6  C4  UNL     1     -24.582  18.853   9.323  1.00 20.00     0.175 C 
HETATM    7 CL7  UNL     1     -24.758  18.234  10.968  1.00 20.00    -0.124 Cl
ENDBRANCH   2   6
TORSDOF 1
ENDMDL
MODEL 9
REMARK VINA RESULT:      -3.6     11.903     12.625
REMARK  1 active torsions:
REMARK  status: ('A' for Active; 'I' for Inactive)
REMARK    1  A    between atoms: C2_2  and  C4_4 
ROOT
HETATM    1  C1  UNL     1     -35.543  15.007  -3.736  1.00 20.00     0.026 A 
HETATM    2  C2  UNL     1     -36.798  14.806  -4.132  1.00 20.00     0.068 A 
HETATM    3  C3  UNL     1     -34.854  13.717  -3.963  1.00 20.00     0.203 A 
HETATM    4  N5  UNL     1     -37.006  13.530  -4.593  1.00 20.00    -0.159 NA
HETATM    5  N6  UNL     1     -35.934  12.864  -4.521  1.00 20.00    -0.189 NA
ENDROOT
BRANCH   2   6
HETATM    6  C4  UNL     1     -37.914  15.785  -4.116  1.00 20.00     0.175 C 
HETATM    7 CL7  UNL     1     -39.418  14.872  -4.282  1.00 20.00    -0.124 Cl
ENDBRANCH   2   6
TORSDOF 1
ENDMDL
