MODEL 1
REMARK VINA RESULT:      -5.2      0.000      0.000
REMARK  2 active torsions:
REMARK  status: ('A' for Active; 'I' for Inactive)
REMARK    1  A    between atoms: C7_7  and  O10_10 
REMARK    2  A    between atoms: C8_8  and  O10_10 
ROOT
HETATM    1  C1  UNL     1     -33.475   5.271   2.743  1.00 20.00     0.024 C 
HETATM    2  C2  UNL     1     -34.320   4.813   3.676  1.00 20.00     0.118 C 
HETATM    3  C3  UNL     1     -34.003   6.542   5.110  1.00 20.00     0.188 C 
HETATM    4  C4  UNL     1     -32.789   7.037   4.366  1.00 20.00     0.127 C 
HETATM    5  C7  UNL     1     -32.791   6.589   2.909  1.00 20.00     0.154 C 
HETATM    6  N9  UNL     1     -34.692   5.488   4.810  1.00 20.00    -0.237 NA
HETATM    7  F11 UNL     1     -34.369   7.221   6.207  1.00 20.00    -0.189 F 
ENDROOT
BRANCH   5   8
HETATM    8  O10 UNL     1     -33.458   7.567   2.117  1.00 20.00    -0.376 OA
BRANCH   8   9
HETATM    9  C8  UNL     1     -32.583   8.147   1.161  1.00 20.00     0.122 A 
HETATM   10  C5  UNL     1     -33.171   8.422  -0.193  1.00 20.00     0.034 A 
HETATM   11  C6  UNL     1     -32.897   9.557   0.749  1.00 20.00     0.034 A 
ENDBRANCH   8   9
ENDBRANCH   5   8
TORSDOF 2
ENDMDL
MODEL 2
REMARK VINA RESULT:      -4.6     15.775     16.640
REMARK  2 active torsions:
REMARK  status: ('A' for Active; 'I' for Inactive)
REMARK    1  A    between atoms: C7_7  and  O10_10 
REMARK    2  A    between atoms: C8_8  and  O10_10 
ROOT
HETATM    1  C1  UNL     1     -24.661  19.125   8.808  1.00 20.00     0.024 C 
HETATM    2  C2  UNL     1     -24.263  18.958   7.540  1.00 20.00     0.118 C 
HETATM    3  C3  UNL     1     -22.353  17.853   8.065  1.00 20.00     0.188 C 
HETATM    4  C4  UNL     1     -22.445  18.228   9.523  1.00 20.00     0.127 C 
HETATM    5  C7  UNL     1     -23.876  18.546   9.940  1.00 20.00     0.154 C 
HETATM    6  N9  UNL     1     -23.179  18.222   7.138  1.00 20.00    -0.237 NA
HETATM    7  F11 UNL     1     -21.298  17.116   7.687  1.00 20.00    -0.189 F 
ENDROOT
BRANCH   5   8
HETATM    8  O10 UNL     1     -24.511  17.352  10.388  1.00 20.00    -0.376 OA
BRANCH   8   9
HETATM    9  C8  UNL     1     -24.693  17.357  11.797  1.00 20.00     0.122 A 
HETATM   10  C5  UNL     1     -25.703  18.331  12.331  1.00 20.00     0.034 A 
HETATM   11  C6  UNL     1     -26.022  16.865  12.292  1.00 20.00     0.034 A 
ENDBRANCH   8   9
ENDBRANCH   5   8
TORSDOF 2
ENDMDL
MODEL 3
REMARK VINA RESULT:      -4.3     10.875     11.720
REMARK  2 active torsions:
REMARK  status: ('A' for Active; 'I' for Inactive)
REMARK    1  A    between atoms: C7_7  and  O10_10 
REMARK    2  A    between atoms: C8_8  and  O10_10 
ROOT
HETATM    1  C1  UNL     1     -34.080  15.059  -6.190  1.00 20.00     0.024 C 
HETATM    2  C2  UNL     1     -35.253  14.844  -6.799  1.00 20.00     0.118 C 
HETATM    3  C3  UNL     1     -36.338  14.161  -4.928  1.00 20.00     0.188 C 
HETATM    4  C4  UNL     1     -35.057  14.013  -4.146  1.00 20.00     0.127 C 
HETATM    5  C7  UNL     1     -33.940  14.881  -4.712  1.00 20.00     0.154 C 
HETATM    6  N9  UNL     1     -36.426  14.513  -6.171  1.00 20.00    -0.237 NA
HETATM    7  F11 UNL     1     -37.481  13.854  -4.297  1.00 20.00    -0.189 F 
ENDROOT
BRANCH   5   8
HETATM    8  O10 UNL     1     -33.972  16.158  -4.082  1.00 20.00    -0.376 OA
BRANCH   8   9
HETATM    9  C8  UNL     1     -33.786  16.049  -2.678  1.00 20.00     0.122 A 
HETATM   10  C5  UNL     1     -33.293  17.283  -1.977  1.00 20.00     0.034 A 
HETATM   11  C6  UNL     1     -34.723  16.855  -1.824  1.00 20.00     0.034 A 
ENDBRANCH   8   9
ENDBRANCH   5   8
TORSDOF 2
ENDMDL
MODEL 4
REMARK VINA RESULT:      -4.2     15.666     16.426
REMARK  2 active torsions:
REMARK  status: ('A' for Active; 'I' for Inactive)
REMARK    1  A    between atoms: C7_7  and  O10_10 
REMARK    2  A    between atoms: C8_8  and  O10_10 
ROOT
HETATM    1  C1  UNL     1     -23.791  16.511  11.940  1.00 20.00     0.024 C 
HETATM    2  C2  UNL     1     -25.040  16.034  12.017  1.00 20.00     0.118 C 
HETATM    3  C3  UNL     1     -26.037  18.071  12.070  1.00 20.00     0.188 C 
HETATM    4  C4  UNL     1     -24.736  18.787  12.329  1.00 20.00     0.127 C 
HETATM    5  C7  UNL     1     -23.536  17.980  11.848  1.00 20.00     0.154 C 
HETATM    6  N9  UNL     1     -26.183  16.788  11.960  1.00 20.00    -0.237 NA
HETATM    7  F11 UNL     1     -27.146  18.821  11.996  1.00 20.00    -0.189 F 
ENDROOT
BRANCH   5   8
HETATM    8  O10 UNL     1     -23.251  18.323  10.495  1.00 20.00    -0.376 OA
BRANCH   8   9
HETATM    9  C8  UNL     1     -22.274  17.458   9.934  1.00 20.00     0.122 A 
HETATM   10  C5  UNL     1     -22.383  17.206   8.458  1.00 20.00     0.034 A 
HETATM   11  C6  UNL     1     -21.296  18.093   8.989  1.00 20.00     0.034 A 
ENDBRANCH   8   9
ENDBRANCH   5   8
TORSDOF 2
ENDMDL
MODEL 5
REMARK VINA RESULT:      -4.2     10.605     11.243
REMARK  2 active torsions:
REMARK  status: ('A' for Active; 'I' for Inactive)
REMARK    1  A    between atoms: C7_7  and  O10_10 
REMARK    2  A    between atoms: C8_8  and  O10_10 
ROOT
HETATM    1  C1  UNL     1     -35.923  15.126  -3.595  1.00 20.00     0.024 C 
HETATM    2  C2  UNL     1     -35.419  14.034  -4.185  1.00 20.00     0.118 C 
HETATM    3  C3  UNL     1     -33.266  14.749  -4.140  1.00 20.00     0.188 C 
HETATM    4  C4  UNL     1     -33.662  16.162  -3.791  1.00 20.00     0.127 C 
HETATM    5  C7  UNL     1     -35.027  16.221  -3.115  1.00 20.00     0.154 C 
HETATM    6  N9  UNL     1     -34.085  13.769  -4.358  1.00 20.00    -0.237 NA
HETATM    7  F11 UNL     1     -31.958  14.497  -4.288  1.00 20.00    -0.189 F 
ENDROOT
BRANCH   5   8
HETATM    8  O10 UNL     1     -34.858  16.106  -1.705  1.00 20.00    -0.376 OA
BRANCH   8   9
HETATM    9  C8  UNL     1     -35.275  17.287  -1.034  1.00 20.00     0.122 A 
HETATM   10  C5  UNL     1     -35.504  17.162   0.444  1.00 20.00     0.034 A 
HETATM   11  C6  UNL     1     -34.290  17.879  -0.068  1.00 20.00     0.034 A 
ENDBRANCH   8   9
ENDBRANCH   5   8
TORSDOF 2
ENDMDL
MODEL 6
REMARK VINA RESULT:      -4.1     11.036     11.948
REMARK  2 active torsions:
REMARK  status: ('A' for Active; 'I' for Inactive)
REMARK    1  A    between atoms: C7_7  and  O10_10 
REMARK    2  A    between atoms: C8_8  and  O10_10 
ROOT
HETATM    1  C1  UNL     1     -37.589  16.299  -4.999  1.00 20.00     0.024 C 
HETATM    2  C2  UNL     1     -38.246  15.210  -4.580  1.00 20.00     0.118 C 
HETATM    3  C3  UNL     1     -36.434  13.846  -4.619  1.00 20.00     0.188 C 
HETATM    4  C4  UNL     1     -35.611  14.834  -5.406  1.00 20.00     0.127 C 
HETATM    5  C7  UNL     1     -36.113  16.262  -5.230  1.00 20.00     0.154 C 
HETATM    6  N9  UNL     1     -37.670  14.006  -4.266  1.00 20.00    -0.237 NA
HETATM    7  F11 UNL     1     -35.854  12.680  -4.301  1.00 20.00    -0.189 F 
ENDROOT
BRANCH   5   8
HETATM    8  O10 UNL     1     -35.450  16.860  -4.120  1.00 20.00    -0.376 OA
BRANCH   8   9
HETATM    9  C8  UNL     1     -34.051  16.617  -4.158  1.00 20.00     0.122 A 
HETATM   10  C5  UNL     1     -33.184  17.625  -3.459  1.00 20.00     0.034 A 
HETATM   11  C6  UNL     1     -33.405  16.274  -2.846  1.00 20.00     0.034 A 
ENDBRANCH   8   9
ENDBRANCH   5   8
TORSDOF 2
ENDMDL
MODEL 7
REMARK VINA RESULT:      -4.0     10.952     12.098
REMARK  2 active torsions:
REMARK  status: ('A' for Active; 'I' for Inactive)
REMARK    1  A    between atoms: C7_7  and  O10_10 
REMARK    2  A    between atoms: C8_8  and  O10_10 
ROOT
HETATM    1  C1  UNL     1     -34.767  15.302  -3.078  1.00 20.00     0.024 C 
HETATM    2  C2  UNL     1     -34.761  14.182  -3.813  1.00 20.00     0.118 C 
HETATM    3  C3  UNL     1     -34.069  15.191  -5.723  1.00 20.00     0.188 C 
HETATM    4  C4  UNL     1     -34.334  16.572  -5.181  1.00 20.00     0.127 C 
HETATM    5  C7  UNL     1     -34.310  16.602  -3.657  1.00 20.00     0.154 C 
HETATM    6  N9  UNL     1     -34.301  14.079  -5.099  1.00 20.00    -0.237 NA
HETATM    7  F11 UNL     1     -33.600  15.103  -6.976  1.00 20.00    -0.189 F 
ENDROOT
BRANCH   5   8
HETATM    8  O10 UNL     1     -32.984  16.873  -3.213  1.00 20.00    -0.376 OA
BRANCH   8   9
HETATM    9  C8  UNL     1     -32.919  18.086  -2.478  1.00 20.00     0.122 A 
HETATM   10  C5  UNL     1     -33.449  18.038  -1.073  1.00 20.00     0.034 A 
HETATM   11  C6  UNL     1     -31.969  18.103  -1.315  1.00 20.00     0.034 A 
ENDBRANCH   8   9
ENDBRANCH   5   8
TORSDOF 2
ENDMDL
MODEL 8
REMARK VINA RESULT:      -4.0     10.908     11.763
REMARK  2 active torsions:
REMARK  status: ('A' for Active; 'I' for Inactive)
REMARK    1  A    between atoms: C7_7  and  O10_10 
REMARK    2  A    between atoms: C8_8  and  O10_10 
ROOT
HETATM    1  C1  UNL     1     -34.775  16.199  -5.935  1.00 20.00     0.024 C 
HETATM    2  C2  UNL     1     -35.692  15.380  -6.466  1.00 20.00     0.118 C 
HETATM    3  C3  UNL     1     -35.571  13.834  -4.810  1.00 20.00     0.188 C 
HETATM    4  C4  UNL     1     -34.307  14.427  -4.242  1.00 20.00     0.127 C 
HETATM    5  C7  UNL     1     -34.152  15.898  -4.610  1.00 20.00     0.154 C 
HETATM    6  N9  UNL     1     -36.194  14.255  -5.865  1.00 20.00    -0.237 NA
HETATM    7  F11 UNL     1     -36.065  12.746  -4.202  1.00 20.00    -0.189 F 
ENDROOT
BRANCH   5   8
HETATM    8  O10 UNL     1     -34.771  16.701  -3.608  1.00 20.00    -0.376 OA
BRANCH   8   9
HETATM    9  C8  UNL     1     -34.351  16.321  -2.305  1.00 20.00     0.122 A 
HETATM   10  C5  UNL     1     -33.881  17.432  -1.411  1.00 20.00     0.034 A 
HETATM   11  C6  UNL     1     -35.216  16.790  -1.171  1.00 20.00     0.034 A 
ENDBRANCH   8   9
ENDBRANCH   5   8
TORSDOF 2
ENDMDL
MODEL 9
REMARK VINA RESULT:      -4.0     10.444     11.538
REMARK  2 active torsions:
REMARK  status: ('A' for Active; 'I' for Inactive)
REMARK    1  A    between atoms: C7_7  and  O10_10 
REMARK    2  A    between atoms: C8_8  and  O10_10 
ROOT
HETATM    1  C1  UNL     1     -34.768  16.935  -3.999  1.00 20.00     0.024 C 
HETATM    2  C2  UNL     1     -35.867  16.169  -4.000  1.00 20.00     0.118 C 
HETATM    3  C3  UNL     1     -34.748  14.199  -3.892  1.00 20.00     0.188 C 
HETATM    4  C4  UNL     1     -33.425  14.844  -4.221  1.00 20.00     0.127 C 
HETATM    5  C7  UNL     1     -33.410  16.326  -3.867  1.00 20.00     0.154 C 
HETATM    6  N9  UNL     1     -35.888  14.810  -3.825  1.00 20.00    -0.237 NA
HETATM    7  F11 UNL     1     -34.753  12.872  -3.704  1.00 20.00    -0.189 F 
ENDROOT
BRANCH   5   8
HETATM    8  O10 UNL     1     -32.954  16.484  -2.526  1.00 20.00    -0.376 OA
BRANCH   8   9
HETATM    9  C8  UNL     1     -32.964  17.848  -2.131  1.00 20.00     0.122 A 
HETATM   10  C5  UNL     1     -33.287  18.118  -0.690  1.00 20.00     0.034 A 
HETATM   11  C6  UNL     1     -31.878  18.268  -1.183  1.00 20.00     0.034 A 
ENDBRANCH   8   9
ENDBRANCH   5   8
TORSDOF 2
ENDMDL
