MODEL 1
REMARK VINA RESULT:      -4.8      0.000      0.000
REMARK  1 active torsions:
REMARK  status: ('A' for Active; 'I' for Inactive)
REMARK    1  A    between atoms: C4_4  and  C9_9 
ROOT
HETATM    1  C1  UNL     1     -35.038  15.275  -2.976  1.00 20.00     0.065 A 
HETATM    2  C2  UNL     1     -32.907  16.311  -3.298  1.00 20.00     0.095 A 
HETATM    3  C3  UNL     1     -33.431  14.359  -4.492  1.00 20.00     0.142 A 
HETATM    4  C4  UNL     1     -34.144  16.296  -2.670  1.00 20.00    -0.031 A 
HETATM    5  C5  UNL     1     -34.681  14.293  -3.896  1.00 20.00     0.187 A 
HETATM    6  N10 UNL     1     -32.589  15.354  -4.181  1.00 20.00    -0.371 N 
HETATM    7  O11 UNL     1     -35.491  13.345  -4.188  1.00 20.00    -0.287 OA
HETATM    8  H24 UNL     1     -31.674  15.382  -4.629  1.00 20.00     0.164 HD
ENDROOT
BRANCH   4   9
HETATM    9  C9  UNL     1     -34.517  17.390  -1.656  1.00 20.00    -0.023 C 
HETATM   10  C6  UNL     1     -35.314  18.506  -2.365  1.00 20.00     0.019 C 
HETATM   11  C7  UNL     1     -33.232  17.992  -1.045  1.00 20.00     0.019 C 
HETATM   12  C8  UNL     1     -35.386  16.884  -0.482  1.00 20.00     0.019 C 
ENDBRANCH   4   9
TORSDOF 1
ENDMDL
MODEL 2
REMARK VINA RESULT:      -4.8      0.067      1.285
REMARK  1 active torsions:
REMARK  status: ('A' for Active; 'I' for Inactive)
REMARK    1  A    between atoms: C4_4  and  C9_9 
ROOT
HETATM    1  C1  UNL     1     -35.021  15.293  -2.983  1.00 20.00     0.065 A 
HETATM    2  C2  UNL     1     -32.876  16.295  -3.321  1.00 20.00     0.095 A 
HETATM    3  C3  UNL     1     -33.435  14.342  -4.499  1.00 20.00     0.142 A 
HETATM    4  C4  UNL     1     -34.111  16.303  -2.688  1.00 20.00    -0.031 A 
HETATM    5  C5  UNL     1     -34.684  14.300  -3.898  1.00 20.00     0.187 A 
HETATM    6  N10 UNL     1     -32.576  15.326  -4.198  1.00 20.00    -0.371 N 
HETATM    7  O11 UNL     1     -35.509  13.362  -4.179  1.00 20.00    -0.287 OA
HETATM    8  H24 UNL     1     -31.664  15.338  -4.651  1.00 20.00     0.164 HD
ENDROOT
BRANCH   4   9
HETATM    9  C9  UNL     1     -34.463  17.409  -1.680  1.00 20.00    -0.023 C 
HETATM   10  C6  UNL     1     -35.384  16.837  -0.582  1.00 20.00     0.019 C 
HETATM   11  C7  UNL     1     -35.191  18.561  -2.407  1.00 20.00     0.019 C 
HETATM   12  C8  UNL     1     -33.234  18.023  -0.971  1.00 20.00     0.019 C 
ENDBRANCH   4   9
TORSDOF 1
ENDMDL
MODEL 3
REMARK VINA RESULT:      -4.7      2.057      2.866
REMARK  1 active torsions:
REMARK  status: ('A' for Active; 'I' for Inactive)
REMARK    1  A    between atoms: C4_4  and  C9_9 
ROOT
HETATM    1  C1  UNL     1     -35.179  14.714  -3.724  1.00 20.00     0.065 A 
HETATM    2  C2  UNL     1     -36.825  16.424  -3.427  1.00 20.00     0.095 A 
HETATM    3  C3  UNL     1     -37.462  14.357  -4.342  1.00 20.00     0.142 A 
HETATM    4  C4  UNL     1     -35.509  16.001  -3.308  1.00 20.00    -0.031 A 
HETATM    5  C5  UNL     1     -36.163  13.880  -4.247  1.00 20.00     0.187 A 
HETATM    6  N10 UNL     1     -37.753  15.600  -3.934  1.00 20.00    -0.371 N 
HETATM    7  O11 UNL     1     -35.877  12.695  -4.636  1.00 20.00    -0.287 OA
HETATM    8  H24 UNL     1     -38.714  15.931  -4.013  1.00 20.00     0.164 HD
ENDROOT
BRANCH   4   9
HETATM    9  C9  UNL     1     -34.437  16.938  -2.728  1.00 20.00    -0.023 C 
HETATM   10  C6  UNL     1     -33.033  16.369  -3.025  1.00 20.00     0.019 C 
HETATM   11  C7  UNL     1     -34.626  17.059  -1.200  1.00 20.00     0.019 C 
HETATM   12  C8  UNL     1     -34.480  18.371  -3.307  1.00 20.00     0.019 C 
ENDBRANCH   4   9
TORSDOF 1
ENDMDL
MODEL 4
REMARK VINA RESULT:      -4.7      2.053      2.627
REMARK  1 active torsions:
REMARK  status: ('A' for Active; 'I' for Inactive)
REMARK    1  A    between atoms: C4_4  and  C9_9 
ROOT
HETATM    1  C1  UNL     1     -35.174  14.710  -3.728  1.00 20.00     0.065 A 
HETATM    2  C2  UNL     1     -36.813  16.424  -3.424  1.00 20.00     0.095 A 
HETATM    3  C3  UNL     1     -37.461  14.359  -4.334  1.00 20.00     0.142 A 
HETATM    4  C4  UNL     1     -35.498  15.998  -3.312  1.00 20.00    -0.031 A 
HETATM    5  C5  UNL     1     -36.163  13.878  -4.245  1.00 20.00     0.187 A 
HETATM    6  N10 UNL     1     -37.747  15.602  -3.926  1.00 20.00    -0.371 N 
HETATM    7  O11 UNL     1     -35.882  12.692  -4.635  1.00 20.00    -0.287 OA
HETATM    8  H24 UNL     1     -38.707  15.936  -4.000  1.00 20.00     0.164 HD
ENDROOT
BRANCH   4   9
HETATM    9  C9  UNL     1     -34.421  16.933  -2.739  1.00 20.00    -0.023 C 
HETATM   10  C6  UNL     1     -34.551  18.330  -3.382  1.00 20.00     0.019 C 
HETATM   11  C7  UNL     1     -33.020  16.360  -3.045  1.00 20.00     0.019 C 
HETATM   12  C8  UNL     1     -34.511  17.125  -1.208  1.00 20.00     0.019 C 
ENDBRANCH   4   9
TORSDOF 1
ENDMDL
MODEL 5
REMARK VINA RESULT:      -4.6      1.704      1.944
REMARK  1 active torsions:
REMARK  status: ('A' for Active; 'I' for Inactive)
REMARK    1  A    between atoms: C4_4  and  C9_9 
ROOT
HETATM    1  C1  UNL     1     -35.241  14.686  -3.586  1.00 20.00     0.065 A 
HETATM    2  C2  UNL     1     -35.280  16.563  -5.068  1.00 20.00     0.095 A 
HETATM    3  C3  UNL     1     -35.901  14.445  -5.872  1.00 20.00     0.142 A 
HETATM    4  C4  UNL     1     -35.038  16.046  -3.803  1.00 20.00    -0.031 A 
HETATM    5  C5  UNL     1     -35.676  13.874  -4.628  1.00 20.00     0.187 A 
HETATM    6  N10 UNL     1     -35.699  15.758  -6.055  1.00 20.00    -0.371 N 
HETATM    7  O11 UNL     1     -35.866  12.621  -4.446  1.00 20.00    -0.287 OA
HETATM    8  H24 UNL     1     -35.869  16.157  -6.977  1.00 20.00     0.164 HD
ENDROOT
BRANCH   4   9
HETATM    9  C9  UNL     1     -34.557  16.961  -2.666  1.00 20.00    -0.023 C 
HETATM   10  C6  UNL     1     -34.960  18.421  -2.968  1.00 20.00     0.019 C 
HETATM   11  C7  UNL     1     -33.020  16.872  -2.544  1.00 20.00     0.019 C 
HETATM   12  C8  UNL     1     -35.145  16.602  -1.283  1.00 20.00     0.019 C 
ENDBRANCH   4   9
TORSDOF 1
ENDMDL
MODEL 6
REMARK VINA RESULT:      -4.6      1.709      2.331
REMARK  1 active torsions:
REMARK  status: ('A' for Active; 'I' for Inactive)
REMARK    1  A    between atoms: C4_4  and  C9_9 
ROOT
HETATM    1  C1  UNL     1     -35.213  14.685  -3.592  1.00 20.00     0.065 A 
HETATM    2  C2  UNL     1     -35.291  16.557  -5.079  1.00 20.00     0.095 A 
HETATM    3  C3  UNL     1     -35.920  14.435  -5.863  1.00 20.00     0.142 A 
HETATM    4  C4  UNL     1     -35.021  16.044  -3.818  1.00 20.00    -0.031 A 
HETATM    5  C5  UNL     1     -35.667  13.868  -4.623  1.00 20.00     0.187 A 
HETATM    6  N10 UNL     1     -35.728  15.747  -6.054  1.00 20.00    -0.371 N 
HETATM    7  O11 UNL     1     -35.848  12.614  -4.433  1.00 20.00    -0.287 OA
HETATM    8  H24 UNL     1     -35.918  16.143  -6.973  1.00 20.00     0.164 HD
ENDROOT
BRANCH   4   9
HETATM    9  C9  UNL     1     -34.519  16.965  -2.693  1.00 20.00    -0.023 C 
HETATM   10  C6  UNL     1     -32.982  16.863  -2.586  1.00 20.00     0.019 C 
HETATM   11  C7  UNL     1     -35.152  16.537  -1.351  1.00 20.00     0.019 C 
HETATM   12  C8  UNL     1     -34.864  18.456  -2.905  1.00 20.00     0.019 C 
ENDBRANCH   4   9
TORSDOF 1
ENDMDL
MODEL 7
REMARK VINA RESULT:      -4.6      2.706      4.371
REMARK  1 active torsions:
REMARK  status: ('A' for Active; 'I' for Inactive)
REMARK    1  A    between atoms: C4_4  and  C9_9 
ROOT
HETATM    1  C1  UNL     1     -32.849  16.954  -2.782  1.00 20.00     0.065 A 
HETATM    2  C2  UNL     1     -34.978  16.229  -1.969  1.00 20.00     0.095 A 
HETATM    3  C3  UNL     1     -33.782  17.857  -0.773  1.00 20.00     0.142 A 
HETATM    4  C4  UNL     1     -33.974  16.148  -2.924  1.00 20.00    -0.031 A 
HETATM    5  C5  UNL     1     -32.747  17.819  -1.696  1.00 20.00     0.187 A 
HETATM    6  N10 UNL     1     -34.855  17.071  -0.933  1.00 20.00    -0.371 N 
HETATM    7  O11 UNL     1     -31.718  18.566  -1.549  1.00 20.00    -0.287 OA
HETATM    8  H24 UNL     1     -35.603  17.114  -0.243  1.00 20.00     0.164 HD
ENDROOT
BRANCH   4   9
HETATM    9  C9  UNL     1     -34.106  15.185  -4.115  1.00 20.00    -0.023 C 
HETATM   10  C6  UNL     1     -34.460  15.980  -5.389  1.00 20.00     0.019 C 
HETATM   11  C7  UNL     1     -35.223  14.157  -3.829  1.00 20.00     0.019 C 
HETATM   12  C8  UNL     1     -32.819  14.386  -4.418  1.00 20.00     0.019 C 
ENDBRANCH   4   9
TORSDOF 1
ENDMDL
MODEL 8
REMARK VINA RESULT:      -4.5      2.217      3.952
REMARK  1 active torsions:
REMARK  status: ('A' for Active; 'I' for Inactive)
REMARK    1  A    between atoms: C4_4  and  C9_9 
ROOT
HETATM    1  C1  UNL     1     -35.115  16.208  -1.936  1.00 20.00     0.065 A 
HETATM    2  C2  UNL     1     -32.970  16.894  -2.741  1.00 20.00     0.095 A 
HETATM    3  C3  UNL     1     -33.813  17.833  -0.761  1.00 20.00     0.142 A 
HETATM    4  C4  UNL     1     -34.107  16.112  -2.890  1.00 20.00    -0.031 A 
HETATM    5  C5  UNL     1     -34.971  17.076  -0.858  1.00 20.00     0.187 A 
HETATM    6  N10 UNL     1     -32.856  17.722  -1.692  1.00 20.00    -0.371 N 
HETATM    7  O11 UNL     1     -35.889  17.178   0.027  1.00 20.00    -0.287 OA
HETATM    8  H24 UNL     1     -32.014  18.288  -1.602  1.00 20.00     0.164 HD
ENDROOT
BRANCH   4   9
HETATM    9  C9  UNL     1     -34.246  15.160  -4.089  1.00 20.00    -0.023 C 
HETATM   10  C6  UNL     1     -32.888  14.484  -4.376  1.00 20.00     0.019 C 
HETATM   11  C7  UNL     1     -34.692  15.957  -5.335  1.00 20.00     0.019 C 
HETATM   12  C8  UNL     1     -35.281  14.032  -3.875  1.00 20.00     0.019 C 
ENDBRANCH   4   9
TORSDOF 1
ENDMDL
MODEL 9
REMARK VINA RESULT:      -4.4      2.242      3.957
REMARK  1 active torsions:
REMARK  status: ('A' for Active; 'I' for Inactive)
REMARK    1  A    between atoms: C4_4  and  C9_9 
ROOT
HETATM    1  C1  UNL     1     -35.082  16.246  -1.912  1.00 20.00     0.065 A 
HETATM    2  C2  UNL     1     -32.948  16.987  -2.698  1.00 20.00     0.095 A 
HETATM    3  C3  UNL     1     -33.818  17.881  -0.708  1.00 20.00     0.142 A 
HETATM    4  C4  UNL     1     -34.067  16.185  -2.863  1.00 20.00    -0.031 A 
HETATM    5  C5  UNL     1     -34.959  17.102  -0.822  1.00 20.00     0.187 A 
HETATM    6  N10 UNL     1     -32.855  17.803  -1.637  1.00 20.00    -0.371 N 
HETATM    7  O11 UNL     1     -35.884  17.172   0.061  1.00 20.00    -0.287 OA
HETATM    8  H24 UNL     1     -32.025  18.385  -1.535  1.00 20.00     0.164 HD
ENDROOT
BRANCH   4   9
HETATM    9  C9  UNL     1     -34.182  15.247  -4.076  1.00 20.00    -0.023 C 
HETATM   10  C6  UNL     1     -34.529  16.068  -5.336  1.00 20.00     0.019 C 
HETATM   11  C7  UNL     1     -35.295  14.206  -3.824  1.00 20.00     0.019 C 
HETATM   12  C8  UNL     1     -32.886  14.462  -4.384  1.00 20.00     0.019 C 
ENDBRANCH   4   9
TORSDOF 1
ENDMDL
