MODEL 1
REMARK VINA RESULT:      -4.9      0.000      0.000
REMARK  0 active torsions:
REMARK  status: ('A' for Active; 'I' for Inactive)
ROOT
HETATM    1  C1  UNL     1     -34.517   5.189   5.333  1.00 20.00     0.116 A 
HETATM    2  C2  UNL     1     -33.500   7.248   4.534  1.00 20.00     0.084 A 
HETATM    3  C3  UNL     1     -34.175   6.466   5.539  1.00 20.00     0.124 A 
HETATM    4  C4  UNL     1     -33.210   6.671   3.363  1.00 20.00     0.109 A 
HETATM    5  C5  UNL     1     -34.190   4.550   4.023  1.00 20.00     0.249 A 
HETATM    6  N6  UNL     1     -33.540   5.365   3.107  1.00 20.00    -0.314 N 
HETATM    7  O7  UNL     1     -34.494   3.380   3.810  1.00 20.00    -0.268 OA
HETATM    8  F8  UNL     1     -34.461   7.064   6.714  1.00 20.00    -0.206 F 
HETATM    9 CL9  UNL     1     -32.414   7.470   2.080  1.00 20.00    -0.064 Cl
HETATM   10  H12 UNL     1     -33.291   4.987   2.200  1.00 20.00     0.170 HD
ENDROOT
TORSDOF 0
ENDMDL
MODEL 2
REMARK VINA RESULT:      -4.8      2.399      2.760
REMARK  0 active torsions:
REMARK  status: ('A' for Active; 'I' for Inactive)
ROOT
HETATM    1  C1  UNL     1     -34.399   4.959   4.916  1.00 20.00     0.116 A 
HETATM    2  C2  UNL     1     -33.408   5.235   2.714  1.00 20.00     0.084 A 
HETATM    3  C3  UNL     1     -34.067   4.449   3.725  1.00 20.00     0.124 A 
HETATM    4  C4  UNL     1     -33.122   6.513   2.982  1.00 20.00     0.109 A 
HETATM    5  C5  UNL     1     -34.078   6.389   5.211  1.00 20.00     0.249 A 
HETATM    6  N6  UNL     1     -33.443   7.080   4.188  1.00 20.00    -0.314 N 
HETATM    7  O7  UNL     1     -34.372   6.880   6.296  1.00 20.00    -0.268 OA
HETATM    8  F8  UNL     1     -34.347   3.161   3.437  1.00 20.00    -0.206 F 
HETATM    9 CL9  UNL     1     -32.345   7.566   1.884  1.00 20.00    -0.064 Cl
HETATM   10  H12 UNL     1     -33.200   8.055   4.328  1.00 20.00     0.170 HD
ENDROOT
TORSDOF 0
ENDMDL
MODEL 3
REMARK VINA RESULT:      -4.6     12.264     12.391
REMARK  0 active torsions:
REMARK  status: ('A' for Active; 'I' for Inactive)
ROOT
HETATM    1  C1  UNL     1     -35.432  13.811  -4.438  1.00 20.00     0.116 A 
HETATM    2  C2  UNL     1     -34.363  15.507  -3.064  1.00 20.00     0.084 A 
HETATM    3  C3  UNL     1     -34.320  14.374  -3.953  1.00 20.00     0.124 A 
HETATM    4  C4  UNL     1     -35.555  16.006  -2.720  1.00 20.00     0.109 A 
HETATM    5  C5  UNL     1     -36.761  14.372  -4.051  1.00 20.00     0.249 A 
HETATM    6  N6  UNL     1     -36.721  15.463  -3.193  1.00 20.00    -0.314 N 
HETATM    7  O7  UNL     1     -37.796  13.873  -4.483  1.00 20.00    -0.268 OA
HETATM    8  F8  UNL     1     -33.109  13.884  -4.289  1.00 20.00    -0.206 F 
HETATM    9 CL9  UNL     1     -35.762  17.344  -1.679  1.00 20.00    -0.064 Cl
HETATM   10  H12 UNL     1     -37.592  15.889  -2.895  1.00 20.00     0.170 HD
ENDROOT
TORSDOF 0
ENDMDL
MODEL 4
REMARK VINA RESULT:      -4.5     12.597     12.868
REMARK  0 active torsions:
REMARK  status: ('A' for Active; 'I' for Inactive)
ROOT
HETATM    1  C1  UNL     1     -35.929  14.238  -5.472  1.00 20.00     0.116 A 
HETATM    2  C2  UNL     1     -34.322  15.463  -4.122  1.00 20.00     0.084 A 
HETATM    3  C3  UNL     1     -34.713  14.776  -5.326  1.00 20.00     0.124 A 
HETATM    4  C4  UNL     1     -35.208  15.563  -3.125  1.00 20.00     0.109 A 
HETATM    5  C5  UNL     1     -36.915  14.352  -4.356  1.00 20.00     0.249 A 
HETATM    6  N6  UNL     1     -36.466  15.028  -3.230  1.00 20.00    -0.314 N 
HETATM    7  O7  UNL     1     -38.037  13.867  -4.467  1.00 20.00    -0.268 OA
HETATM    8  F8  UNL     1     -33.807  14.685  -6.320  1.00 20.00    -0.206 F 
HETATM    9 CL9  UNL     1     -34.889  16.347  -1.642  1.00 20.00    -0.064 Cl
HETATM   10  H12 UNL     1     -37.091  15.139  -2.439  1.00 20.00     0.170 HD
ENDROOT
TORSDOF 0
ENDMDL
MODEL 5
REMARK VINA RESULT:      -4.5     12.336     12.737
REMARK  0 active torsions:
REMARK  status: ('A' for Active; 'I' for Inactive)
ROOT
HETATM    1  C1  UNL     1     -35.716  14.692  -3.348  1.00 20.00     0.116 A 
HETATM    2  C2  UNL     1     -33.835  15.398  -4.715  1.00 20.00     0.084 A 
HETATM    3  C3  UNL     1     -34.504  15.248  -3.449  1.00 20.00     0.124 A 
HETATM    4  C4  UNL     1     -34.451  14.965  -5.820  1.00 20.00     0.109 A 
HETATM    5  C5  UNL     1     -36.400  14.209  -4.585  1.00 20.00     0.249 A 
HETATM    6  N6  UNL     1     -35.694  14.387  -5.766  1.00 20.00    -0.314 N 
HETATM    7  O7  UNL     1     -37.513  13.695  -4.519  1.00 20.00    -0.268 OA
HETATM    8  F8  UNL     1     -33.867  15.692  -2.345  1.00 20.00    -0.206 F 
HETATM    9 CL9  UNL     1     -33.783  15.074  -7.388  1.00 20.00    -0.064 Cl
HETATM   10  H12 UNL     1     -36.106  14.079  -6.640  1.00 20.00     0.170 HD
ENDROOT
TORSDOF 0
ENDMDL
MODEL 6
REMARK VINA RESULT:      -4.4     16.808     17.162
REMARK  0 active torsions:
REMARK  status: ('A' for Active; 'I' for Inactive)
ROOT
HETATM    1  C1  UNL     1     -22.863  17.965  10.285  1.00 20.00     0.116 A 
HETATM    2  C2  UNL     1     -24.184  17.904  12.324  1.00 20.00     0.084 A 
HETATM    3  C3  UNL     1     -22.934  17.824  11.613  1.00 20.00     0.124 A 
HETATM    4  C4  UNL     1     -25.303  18.127  11.628  1.00 20.00     0.109 A 
HETATM    5  C5  UNL     1     -24.116  18.216   9.511  1.00 20.00     0.249 A 
HETATM    6  N6  UNL     1     -25.280  18.280  10.265  1.00 20.00    -0.314 N 
HETATM    7  O7  UNL     1     -24.077  18.349   8.292  1.00 20.00    -0.268 OA
HETATM    8  F8  UNL     1     -21.815  17.597  12.332  1.00 20.00    -0.206 F 
HETATM    9 CL9  UNL     1     -26.855  18.247  12.332  1.00 20.00    -0.064 Cl
HETATM   10  H12 UNL     1     -26.163  18.448   9.797  1.00 20.00     0.170 HD
ENDROOT
TORSDOF 0
ENDMDL
MODEL 7
REMARK VINA RESULT:      -4.4     16.833     17.091
REMARK  0 active torsions:
REMARK  status: ('A' for Active; 'I' for Inactive)
ROOT
HETATM    1  C1  UNL     1     -24.270  18.033  12.328  1.00 20.00     0.116 A 
HETATM    2  C2  UNL     1     -23.028  17.993  10.239  1.00 20.00     0.084 A 
HETATM    3  C3  UNL     1     -23.127  17.822  11.666  1.00 20.00     0.124 A 
HETATM    4  C4  UNL     1     -24.117  18.374   9.563  1.00 20.00     0.109 A 
HETATM    5  C5  UNL     1     -25.484  18.458  11.568  1.00 20.00     0.249 A 
HETATM    6  N6  UNL     1     -25.310  18.601  10.199  1.00 20.00    -0.314 N 
HETATM    7  O7  UNL     1     -26.544  18.658  12.153  1.00 20.00    -0.268 OA
HETATM    8  F8  UNL     1     -22.018  17.438  12.332  1.00 20.00    -0.206 F 
HETATM    9 CL9  UNL     1     -24.152  18.616   7.873  1.00 20.00    -0.064 Cl
HETATM   10  H12 UNL     1     -26.099  18.887   9.628  1.00 20.00     0.170 HD
ENDROOT
TORSDOF 0
ENDMDL
MODEL 8
REMARK VINA RESULT:      -4.3      3.006      3.503
REMARK  0 active torsions:
REMARK  status: ('A' for Active; 'I' for Inactive)
ROOT
HETATM    1  C1  UNL     1     -33.299   5.199   2.487  1.00 20.00     0.116 A 
HETATM    2  C2  UNL     1     -34.296   5.094   4.702  1.00 20.00     0.084 A 
HETATM    3  C3  UNL     1     -33.959   4.513   3.428  1.00 20.00     0.124 A 
HETATM    4  C4  UNL     1     -33.935   6.358   4.944  1.00 20.00     0.109 A 
HETATM    5  C5  UNL     1     -32.898   6.611   2.764  1.00 20.00     0.249 A 
HETATM    6  N6  UNL     1     -33.257   7.100   4.011  1.00 20.00    -0.314 N 
HETATM    7  O7  UNL     1     -32.292   7.261   1.917  1.00 20.00    -0.268 OA
HETATM    8  F8  UNL     1     -34.331   3.237   3.200  1.00 20.00    -0.206 F 
HETATM    9 CL9  UNL     1     -34.264   7.179   6.406  1.00 20.00    -0.064 Cl
HETATM   10  H12 UNL     1     -33.012   8.053   4.258  1.00 20.00     0.170 HD
ENDROOT
TORSDOF 0
ENDMDL
MODEL 9
REMARK VINA RESULT:      -4.3     16.812     17.027
REMARK  0 active torsions:
REMARK  status: ('A' for Active; 'I' for Inactive)
ROOT
HETATM    1  C1  UNL     1     -24.059  18.505   8.035  1.00 20.00     0.116 A 
HETATM    2  C2  UNL     1     -24.363  18.412  10.445  1.00 20.00     0.084 A 
HETATM    3  C3  UNL     1     -24.816  18.727   9.114  1.00 20.00     0.124 A 
HETATM    4  C4  UNL     1     -23.145  17.880  10.596  1.00 20.00     0.109 A 
HETATM    5  C5  UNL     1     -22.699  17.910   8.209  1.00 20.00     0.249 A 
HETATM    6  N6  UNL     1     -22.333  17.633   9.519  1.00 20.00    -0.314 N 
HETATM    7  O7  UNL     1     -21.985  17.696   7.234  1.00 20.00    -0.268 OA
HETATM    8  F8  UNL     1     -26.047  19.263   8.981  1.00 20.00    -0.206 F 
HETATM    9 CL9  UNL     1     -22.473  17.455  12.108  1.00 20.00    -0.064 Cl
HETATM   10  H12 UNL     1     -21.421  17.228   9.702  1.00 20.00     0.170 HD
ENDROOT
TORSDOF 0
ENDMDL
