MODEL 1
REMARK VINA RESULT:      -5.4      0.000      0.000
REMARK  0 active torsions:
REMARK  status: ('A' for Active; 'I' for Inactive)
ROOT
HETATM    1  C1  UNL     1     -32.956   5.907   2.262  1.00 20.00     0.004 A 
HETATM    2  C2  UNL     1     -33.597   5.652   3.400  1.00 20.00    -0.036 A 
HETATM    3  C3  UNL     1     -33.220   6.789   4.242  1.00 20.00     0.035 A 
HETATM    4  C4  UNL     1     -32.154   7.158   2.367  1.00 20.00     0.177 A 
HETATM    5  C5  UNL     1     -34.501   4.566   3.834  1.00 20.00     0.040 C 
HETATM    6  C6  UNL     1     -33.810   6.935   5.619  1.00 20.00     0.059 C 
HETATM    7  C7  UNL     1     -35.327   4.986   5.052  1.00 20.00     0.005 C 
HETATM    8  C8  UNL     1     -34.448   5.641   6.120  1.00 20.00     0.006 C 
HETATM    9  N9  UNL     1     -32.409   7.672   3.732  1.00 20.00    -0.290 NA
ENDROOT
TORSDOF 0
ENDMDL
MODEL 2
REMARK VINA RESULT:      -5.4      0.935      2.074
REMARK  0 active torsions:
REMARK  status: ('A' for Active; 'I' for Inactive)
ROOT
HETATM    1  C1  UNL     1     -32.432   7.586   3.691  1.00 20.00     0.004 A 
HETATM    2  C2  UNL     1     -33.304   6.837   4.360  1.00 20.00    -0.036 A 
HETATM    3  C3  UNL     1     -33.600   5.763   3.410  1.00 20.00     0.035 A 
HETATM    4  C4  UNL     1     -32.189   7.038   2.327  1.00 20.00     0.177 A 
HETATM    5  C5  UNL     1     -33.889   6.927   5.714  1.00 20.00     0.040 C 
HETATM    6  C6  UNL     1     -34.504   4.629   3.812  1.00 20.00     0.059 C 
HETATM    7  C7  UNL     1     -34.463   5.579   6.161  1.00 20.00     0.005 C 
HETATM    8  C8  UNL     1     -35.322   4.949   5.062  1.00 20.00     0.006 C 
HETATM    9  N9  UNL     1     -33.015   5.812   2.246  1.00 20.00    -0.290 NA
ENDROOT
TORSDOF 0
ENDMDL
MODEL 3
REMARK VINA RESULT:      -5.1      1.540      3.728
REMARK  0 active torsions:
REMARK  status: ('A' for Active; 'I' for Inactive)
ROOT
HETATM    1  C1  UNL     1     -34.111   6.552   5.888  1.00 20.00     0.004 A 
HETATM    2  C2  UNL     1     -33.555   6.534   4.679  1.00 20.00    -0.036 A 
HETATM    3  C3  UNL     1     -34.140   5.334   4.075  1.00 20.00     0.035 A 
HETATM    4  C4  UNL     1     -35.008   5.379   6.084  1.00 20.00     0.177 A 
HETATM    5  C5  UNL     1     -32.607   7.430   3.984  1.00 20.00     0.040 C 
HETATM    6  C6  UNL     1     -33.832   4.984   2.644  1.00 20.00     0.059 C 
HETATM    7  C7  UNL     1     -32.657   7.223   2.469  1.00 20.00     0.005 C 
HETATM    8  C8  UNL     1     -32.614   5.735   2.109  1.00 20.00     0.006 C 
HETATM    9  N9  UNL     1     -34.960   4.633   4.805  1.00 20.00    -0.290 NA
ENDROOT
TORSDOF 0
ENDMDL
MODEL 4
REMARK VINA RESULT:      -4.9      1.124      3.115
REMARK  0 active torsions:
REMARK  status: ('A' for Active; 'I' for Inactive)
ROOT
HETATM    1  C1  UNL     1     -34.942   4.963   5.109  1.00 20.00     0.004 A 
HETATM    2  C2  UNL     1     -34.223   5.404   4.080  1.00 20.00    -0.036 A 
HETATM    3  C3  UNL     1     -33.578   6.599   4.627  1.00 20.00     0.035 A 
HETATM    4  C4  UNL     1     -34.799   5.863   6.288  1.00 20.00     0.177 A 
HETATM    5  C5  UNL     1     -34.015   4.910   2.703  1.00 20.00     0.040 C 
HETATM    6  C6  UNL     1     -32.590   7.370   3.794  1.00 20.00     0.059 C 
HETATM    7  C7  UNL     1     -32.747   5.505   2.086  1.00 20.00     0.005 C 
HETATM    8  C8  UNL     1     -32.677   7.017   2.311  1.00 20.00     0.006 C 
HETATM    9  N9  UNL     1     -33.857   6.922   5.859  1.00 20.00    -0.290 NA
ENDROOT
TORSDOF 0
ENDMDL
MODEL 5
REMARK VINA RESULT:      -4.4     15.556     16.142
REMARK  0 active torsions:
REMARK  status: ('A' for Active; 'I' for Inactive)
ROOT
HETATM    1  C1  UNL     1     -23.723  18.742   8.801  1.00 20.00     0.004 A 
HETATM    2  C2  UNL     1     -24.364  18.281   9.873  1.00 20.00    -0.036 A 
HETATM    3  C3  UNL     1     -23.732  16.978  10.089  1.00 20.00     0.035 A 
HETATM    4  C4  UNL     1     -22.724  17.754   8.308  1.00 20.00     0.177 A 
HETATM    5  C5  UNL     1     -25.430  18.836  10.734  1.00 20.00     0.040 C 
HETATM    6  C6  UNL     1     -24.116  16.143  11.280  1.00 20.00     0.059 C 
HETATM    7  C7  UNL     1     -25.476  18.123  12.087  1.00 20.00     0.005 C 
HETATM    8  C8  UNL     1     -25.426  16.602  11.917  1.00 20.00     0.006 C 
HETATM    9  N9  UNL     1     -22.806  16.612   9.248  1.00 20.00    -0.290 NA
ENDROOT
TORSDOF 0
ENDMDL
MODEL 6
REMARK VINA RESULT:      -4.3     16.323     16.796
REMARK  0 active torsions:
REMARK  status: ('A' for Active; 'I' for Inactive)
ROOT
HETATM    1  C1  UNL     1     -25.304  19.142   8.870  1.00 20.00     0.004 A 
HETATM    2  C2  UNL     1     -24.766  18.615   9.967  1.00 20.00    -0.036 A 
HETATM    3  C3  UNL     1     -23.391  18.335   9.548  1.00 20.00     0.035 A 
HETATM    4  C4  UNL     1     -24.319  19.175   7.753  1.00 20.00     0.177 A 
HETATM    5  C5  UNL     1     -25.288  18.346  11.323  1.00 20.00     0.040 C 
HETATM    6  C6  UNL     1     -22.396  17.796  10.541  1.00 20.00     0.059 C 
HETATM    7  C7  UNL     1     -24.148  18.174  12.331  1.00 20.00     0.005 C 
HETATM    8  C8  UNL     1     -23.067  17.235  11.793  1.00 20.00     0.006 C 
HETATM    9  N9  UNL     1     -23.068  18.619   8.318  1.00 20.00    -0.290 NA
ENDROOT
TORSDOF 0
ENDMDL
MODEL 7
REMARK VINA RESULT:      -4.2     11.797     12.444
REMARK  0 active torsions:
REMARK  status: ('A' for Active; 'I' for Inactive)
ROOT
HETATM    1  C1  UNL     1     -35.135  15.328  -2.823  1.00 20.00     0.004 A 
HETATM    2  C2  UNL     1     -34.722  16.286  -1.996  1.00 20.00    -0.036 A 
HETATM    3  C3  UNL     1     -33.399  16.621  -2.529  1.00 20.00     0.035 A 
HETATM    4  C4  UNL     1     -34.098  15.019  -3.847  1.00 20.00     0.177 A 
HETATM    5  C5  UNL     1     -35.336  16.952  -0.828  1.00 20.00     0.040 C 
HETATM    6  C6  UNL     1     -32.605  17.744  -1.919  1.00 20.00     0.059 C 
HETATM    7  C7  UNL     1     -34.653  18.289  -0.531  1.00 20.00     0.005 C 
HETATM    8  C8  UNL     1     -33.129  18.150  -0.543  1.00 20.00     0.006 C 
HETATM    9  N9  UNL     1     -32.980  15.949  -3.563  1.00 20.00    -0.290 NA
ENDROOT
TORSDOF 0
ENDMDL
MODEL 8
REMARK VINA RESULT:      -4.2     11.561     12.282
REMARK  0 active torsions:
REMARK  status: ('A' for Active; 'I' for Inactive)
ROOT
HETATM    1  C1  UNL     1     -35.316  16.778  -1.441  1.00 20.00     0.004 A 
HETATM    2  C2  UNL     1     -35.012  15.980  -2.462  1.00 20.00    -0.036 A 
HETATM    3  C3  UNL     1     -33.609  16.314  -2.722  1.00 20.00     0.035 A 
HETATM    4  C4  UNL     1     -34.158  17.634  -1.065  1.00 20.00     0.177 A 
HETATM    5  C5  UNL     1     -35.773  14.962  -3.217  1.00 20.00     0.040 C 
HETATM    6  C6  UNL     1     -32.838  15.560  -3.772  1.00 20.00     0.059 C 
HETATM    7  C7  UNL     1     -34.835  14.013  -3.966  1.00 20.00     0.005 C 
HETATM    8  C8  UNL     1     -33.750  14.784  -4.721  1.00 20.00     0.006 C 
HETATM    9  N9  UNL     1     -33.064  17.236  -1.981  1.00 20.00    -0.290 NA
ENDROOT
TORSDOF 0
ENDMDL
MODEL 9
REMARK VINA RESULT:      -4.2     11.852     12.472
REMARK  0 active torsions:
REMARK  status: ('A' for Active; 'I' for Inactive)
ROOT
HETATM    1  C1  UNL     1     -33.111  15.887  -3.531  1.00 20.00     0.004 A 
HETATM    2  C2  UNL     1     -33.352  16.717  -2.519  1.00 20.00    -0.036 A 
HETATM    3  C3  UNL     1     -34.675  16.288  -2.060  1.00 20.00     0.035 A 
HETATM    4  C4  UNL     1     -34.258  14.963  -3.751  1.00 20.00     0.177 A 
HETATM    5  C5  UNL     1     -32.575  17.810  -1.897  1.00 20.00     0.040 C 
HETATM    6  C6  UNL     1     -35.296  16.930  -0.849  1.00 20.00     0.059 C 
HETATM    7  C7  UNL     1     -33.091  18.125  -0.491  1.00 20.00     0.005 C 
HETATM    8  C8  UNL     1     -34.617  18.245  -0.472  1.00 20.00     0.006 C 
HETATM    9  N9  UNL     1     -35.248  15.312  -2.705  1.00 20.00    -0.290 NA
ENDROOT
TORSDOF 0
ENDMDL
