MODEL 1
REMARK VINA RESULT:      -5.9      0.000      0.000
REMARK  0 active torsions:
REMARK  status: ('A' for Active; 'I' for Inactive)
ROOT
HETATM    1  C1  UNL     1     -34.794   5.005   5.335  1.00 20.00     0.047 C 
HETATM    2  C2  UNL     1     -34.389   4.246   4.163  1.00 20.00     0.042 C 
HETATM    3  C3  UNL     1     -32.351   6.892   2.579  1.00 20.00     0.010 C 
HETATM    4  C4  UNL     1     -31.810   7.665   3.527  1.00 20.00     0.114 C 
HETATM    5  C5  UNL     1     -34.345   6.249   5.543  1.00 20.00     0.142 C 
HETATM    6  C6  UNL     1     -33.812   4.851   3.109  1.00 20.00     0.107 C 
HETATM    7  C7  UNL     1     -33.455   6.818   4.519  1.00 20.00     0.087 C 
HETATM    8  C8  UNL     1     -33.632   6.333   3.086  1.00 20.00     0.127 C 
HETATM    9  N9  UNL     1     -32.481   7.648   4.723  1.00 20.00    -0.262 NA
HETATM   10  F10 UNL     1     -34.566   6.957   6.661  1.00 20.00    -0.204 F 
HETATM   11  F11 UNL     1     -33.448   4.110   2.040  1.00 20.00    -0.210 F 
ENDROOT
TORSDOF 0
ENDMDL
MODEL 2
REMARK VINA RESULT:      -5.3      1.622      3.950
REMARK  0 active torsions:
REMARK  status: ('A' for Active; 'I' for Inactive)
ROOT
HETATM    1  C1  UNL     1     -32.591   6.299   2.309  1.00 20.00     0.047 C 
HETATM    2  C2  UNL     1     -32.142   7.186   3.371  1.00 20.00     0.042 C 
HETATM    3  C3  UNL     1     -34.497   6.024   5.971  1.00 20.00     0.010 C 
HETATM    4  C4  UNL     1     -34.774   4.731   5.775  1.00 20.00     0.114 C 
HETATM    5  C5  UNL     1     -33.547   5.389   2.527  1.00 20.00     0.142 C 
HETATM    6  C6  UNL     1     -32.860   7.339   4.498  1.00 20.00     0.107 C 
HETATM    7  C7  UNL     1     -34.139   5.349   3.873  1.00 20.00     0.087 C 
HETATM    8  C8  UNL     1     -34.175   6.652   4.663  1.00 20.00     0.127 C 
HETATM    9  N9  UNL     1     -34.577   4.297   4.490  1.00 20.00    -0.262 NA
HETATM   10  F10 UNL     1     -33.916   4.451   1.640  1.00 20.00    -0.204 F 
HETATM   11  F11 UNL     1     -32.407   8.169   5.462  1.00 20.00    -0.210 F 
ENDROOT
TORSDOF 0
ENDMDL
MODEL 3
REMARK VINA RESULT:      -5.1      1.670      3.875
REMARK  0 active torsions:
REMARK  status: ('A' for Active; 'I' for Inactive)
ROOT
HETATM    1  C1  UNL     1     -32.234   7.871   3.837  1.00 20.00     0.047 C 
HETATM    2  C2  UNL     1     -32.784   7.668   5.169  1.00 20.00     0.042 C 
HETATM    3  C3  UNL     1     -34.779   4.655   4.393  1.00 20.00     0.010 C 
HETATM    4  C4  UNL     1     -34.174   3.957   3.426  1.00 20.00     0.114 C 
HETATM    5  C5  UNL     1     -32.497   7.014   2.843  1.00 20.00     0.142 C 
HETATM    6  C6  UNL     1     -33.800   6.812   5.378  1.00 20.00     0.107 C 
HETATM    7  C7  UNL     1     -33.388   5.884   3.151  1.00 20.00     0.087 C 
HETATM    8  C8  UNL     1     -34.438   6.093   4.235  1.00 20.00     0.127 C 
HETATM    9  N9  UNL     1     -33.326   4.695   2.640  1.00 20.00    -0.262 NA
HETATM   10  F10 UNL     1     -31.922   7.059   1.632  1.00 20.00    -0.204 F 
HETATM   11  F11 UNL     1     -34.280   6.650   6.629  1.00 20.00    -0.210 F 
ENDROOT
TORSDOF 0
ENDMDL
MODEL 4
REMARK VINA RESULT:      -5.0     16.466     17.083
REMARK  0 active torsions:
REMARK  status: ('A' for Active; 'I' for Inactive)
ROOT
HETATM    1  C1  UNL     1     -24.397  18.785   8.357  1.00 20.00     0.047 C 
HETATM    2  C2  UNL     1     -25.363  19.263   9.335  1.00 20.00     0.042 C 
HETATM    3  C3  UNL     1     -23.755  17.808  12.327  1.00 20.00     0.010 C 
HETATM    4  C4  UNL     1     -22.431  17.763  12.144  1.00 20.00     0.114 C 
HETATM    5  C5  UNL     1     -23.310  18.103   8.737  1.00 20.00     0.142 C 
HETATM    6  C6  UNL     1     -25.371  18.788  10.593  1.00 20.00     0.107 C 
HETATM    7  C7  UNL     1     -23.157  17.835  10.175  1.00 20.00     0.087 C 
HETATM    8  C8  UNL     1     -24.428  17.707  11.005  1.00 20.00     0.127 C 
HETATM    9  N9  UNL     1     -22.040  17.763  10.829  1.00 20.00    -0.262 NA
HETATM   10  F10 UNL     1     -22.312  17.750   7.913  1.00 20.00    -0.204 F 
HETATM   11  F11 UNL     1     -26.282  19.260  11.471  1.00 20.00    -0.210 F 
ENDROOT
TORSDOF 0
ENDMDL
MODEL 5
REMARK VINA RESULT:      -5.0     15.821     16.412
REMARK  0 active torsions:
REMARK  status: ('A' for Active; 'I' for Inactive)
ROOT
HETATM    1  C1  UNL     1     -22.373  16.978   9.275  1.00 20.00     0.047 C 
HETATM    2  C2  UNL     1     -23.444  16.927  10.257  1.00 20.00     0.042 C 
HETATM    3  C3  UNL     1     -25.748  19.262   8.555  1.00 20.00     0.010 C 
HETATM    4  C4  UNL     1     -25.576  19.171   7.232  1.00 20.00     0.114 C 
HETATM    5  C5  UNL     1     -22.500  17.694   8.151  1.00 20.00     0.142 C 
HETATM    6  C6  UNL     1     -24.453  17.815  10.232  1.00 20.00     0.107 C 
HETATM    7  C7  UNL     1     -23.752  18.446   7.974  1.00 20.00     0.087 C 
HETATM    8  C8  UNL     1     -24.468  18.923   9.232  1.00 20.00     0.127 C 
HETATM    9  N9  UNL     1     -24.351  18.687   6.851  1.00 20.00    -0.262 NA
HETATM   10  F10 UNL     1     -21.616  17.683   7.142  1.00 20.00    -0.204 F 
HETATM   11  F11 UNL     1     -25.431  17.731  11.160  1.00 20.00    -0.210 F 
ENDROOT
TORSDOF 0
ENDMDL
MODEL 6
REMARK VINA RESULT:      -4.7     16.233     16.731
REMARK  0 active torsions:
REMARK  status: ('A' for Active; 'I' for Inactive)
ROOT
HETATM    1  C1  UNL     1     -25.323  18.761  10.811  1.00 20.00     0.047 C 
HETATM    2  C2  UNL     1     -24.331  18.264  11.753  1.00 20.00     0.042 C 
HETATM    3  C3  UNL     1     -21.907  17.016   9.257  1.00 20.00     0.010 C 
HETATM    4  C4  UNL     1     -21.975  17.770   8.155  1.00 20.00     0.114 C 
HETATM    5  C5  UNL     1     -25.110  18.706   9.491  1.00 20.00     0.142 C 
HETATM    6  C6  UNL     1     -23.325  17.469  11.347  1.00 20.00     0.107 C 
HETATM    7  C7  UNL     1     -23.850  18.096   9.040  1.00 20.00     0.087 C 
HETATM    8  C8  UNL     1     -23.235  17.019   9.926  1.00 20.00     0.127 C 
HETATM    9  N9  UNL     1     -23.165  18.431   7.992  1.00 20.00    -0.262 NA
HETATM   10  F10 UNL     1     -25.913  19.263   8.571  1.00 20.00    -0.204 F 
HETATM   11  F11 UNL     1     -22.422  17.032  12.251  1.00 20.00    -0.210 F 
ENDROOT
TORSDOF 0
ENDMDL
MODEL 7
REMARK VINA RESULT:      -4.6     11.978     12.753
REMARK  0 active torsions:
REMARK  status: ('A' for Active; 'I' for Inactive)
ROOT
HETATM    1  C1  UNL     1     -33.231  16.314  -2.877  1.00 20.00     0.047 C 
HETATM    2  C2  UNL     1     -34.452  16.848  -2.294  1.00 20.00     0.042 C 
HETATM    3  C3  UNL     1     -36.831  14.778  -4.221  1.00 20.00     0.010 C 
HETATM    4  C4  UNL     1     -36.269  13.597  -4.500  1.00 20.00     0.114 C 
HETATM    5  C5  UNL     1     -33.270  15.321  -3.774  1.00 20.00     0.142 C 
HETATM    6  C6  UNL     1     -35.653  16.592  -2.842  1.00 20.00     0.107 C 
HETATM    7  C7  UNL     1     -34.599  14.822  -4.162  1.00 20.00     0.087 C 
HETATM    8  C8  UNL     1     -35.762  15.805  -4.106  1.00 20.00     0.127 C 
HETATM    9  N9  UNL     1     -34.898  13.603  -4.485  1.00 20.00    -0.262 NA
HETATM   10  F10 UNL     1     -32.188  14.689  -4.252  1.00 20.00    -0.204 F 
HETATM   11  F11 UNL     1     -36.763  17.104  -2.268  1.00 20.00    -0.210 F 
ENDROOT
TORSDOF 0
ENDMDL
MODEL 8
REMARK VINA RESULT:      -4.6     11.869     12.383
REMARK  0 active torsions:
REMARK  status: ('A' for Active; 'I' for Inactive)
ROOT
HETATM    1  C1  UNL     1     -33.771  16.477  -2.371  1.00 20.00     0.047 C 
HETATM    2  C2  UNL     1     -33.060  15.895  -3.500  1.00 20.00     0.042 C 
HETATM    3  C3  UNL     1     -35.897  13.982  -4.897  1.00 20.00     0.010 C 
HETATM    4  C4  UNL     1     -37.040  14.627  -4.637  1.00 20.00     0.114 C 
HETATM    5  C5  UNL     1     -35.079  16.258  -2.191  1.00 20.00     0.142 C 
HETATM    6  C6  UNL     1     -33.597  14.890  -4.215  1.00 20.00     0.107 C 
HETATM    7  C7  UNL     1     -35.751  15.382  -3.163  1.00 20.00     0.087 C 
HETATM    8  C8  UNL     1     -34.912  14.298  -3.829  1.00 20.00     0.127 C 
HETATM    9  N9  UNL     1     -36.979  15.481  -3.566  1.00 20.00    -0.262 NA
HETATM   10  F10 UNL     1     -35.826  16.865  -1.257  1.00 20.00    -0.204 F 
HETATM   11  F11 UNL     1     -32.907  14.380  -5.258  1.00 20.00    -0.210 F 
ENDROOT
TORSDOF 0
ENDMDL
MODEL 9
REMARK VINA RESULT:      -4.5     16.184     16.633
REMARK  0 active torsions:
REMARK  status: ('A' for Active; 'I' for Inactive)
ROOT
HETATM    1  C1  UNL     1     -23.113  17.504   8.552  1.00 20.00     0.047 C 
HETATM    2  C2  UNL     1     -22.979  16.659   9.728  1.00 20.00     0.042 C 
HETATM    3  C3  UNL     1     -25.363  18.482  11.884  1.00 20.00     0.010 C 
HETATM    4  C4  UNL     1     -26.322  19.026  11.127  1.00 20.00     0.114 C 
HETATM    5  C5  UNL     1     -23.976  18.527   8.530  1.00 20.00     0.142 C 
HETATM    6  C6  UNL     1     -23.472  17.043  10.919  1.00 20.00     0.107 C 
HETATM    7  C7  UNL     1     -24.754  18.772   9.755  1.00 20.00     0.087 C 
HETATM    8  C8  UNL     1     -24.115  18.380  11.082  1.00 20.00     0.127 C 
HETATM    9  N9  UNL     1     -25.965  19.228   9.819  1.00 20.00    -0.262 NA
HETATM   10  F10 UNL     1     -24.252  19.262   7.443  1.00 20.00    -0.204 F 
HETATM   11  F11 UNL     1     -23.329  16.228  11.986  1.00 20.00    -0.210 F 
ENDROOT
TORSDOF 0
ENDMDL
