MODEL 1
REMARK VINA RESULT:      -4.7      0.000      0.000
REMARK  0 active torsions:
REMARK  status: ('A' for Active; 'I' for Inactive)
ROOT
HETATM    1  C1  UNL     1     -34.323   6.241   5.961  1.00 20.00     0.006 A 
HETATM    2  C2  UNL     1     -33.664   6.571   4.854  1.00 20.00    -0.008 A 
HETATM    3  C3  UNL     1     -34.010   5.485   3.936  1.00 20.00     0.038 A 
HETATM    4  C4  UNL     1     -35.110   4.991   5.759  1.00 20.00     0.177 A 
HETATM    5  C5  UNL     1     -32.752   7.670   4.473  1.00 20.00     0.310 C 
HETATM    6  C6  UNL     1     -33.376   5.453   2.574  1.00 20.00     0.089 C 
HETATM    7  C7  UNL     1     -32.731   6.796   2.216  1.00 20.00     0.276 C 
HETATM    8  N8  UNL     1     -34.821   4.562   4.370  1.00 20.00    -0.290 NA
HETATM    9  N9  UNL     1     -31.914   7.331   3.315  1.00 20.00     0.087 N 
HETATM   10  H19 UNL     1     -31.432   8.171   2.997  1.00 20.00     0.316 HD
ENDROOT
TORSDOF 0
ENDMDL
MODEL 2
REMARK VINA RESULT:      -4.6      0.812      3.706
REMARK  0 active torsions:
REMARK  status: ('A' for Active; 'I' for Inactive)
ROOT
HETATM    1  C1  UNL     1     -33.298   5.677   2.395  1.00 20.00     0.006 A 
HETATM    2  C2  UNL     1     -33.874   5.573   3.589  1.00 20.00    -0.008 A 
HETATM    3  C3  UNL     1     -33.291   6.695   4.327  1.00 20.00     0.038 A 
HETATM    4  C4  UNL     1     -32.390   6.858   2.342  1.00 20.00     0.177 A 
HETATM    5  C5  UNL     1     -34.834   4.633   4.204  1.00 20.00     0.310 C 
HETATM    6  C6  UNL     1     -33.637   6.869   5.779  1.00 20.00     0.089 C 
HETATM    7  C7  UNL     1     -34.862   6.039   6.174  1.00 20.00     0.276 C 
HETATM    8  N8  UNL     1     -32.453   7.464   3.694  1.00 20.00    -0.290 NA
HETATM    9  N9  UNL     1     -34.785   4.659   5.673  1.00 20.00     0.087 N 
HETATM   10  H19 UNL     1     -35.571   4.124   6.041  1.00 20.00     0.316 HD
ENDROOT
TORSDOF 0
ENDMDL
MODEL 3
REMARK VINA RESULT:      -4.5     16.402     16.961
REMARK  0 active torsions:
REMARK  status: ('A' for Active; 'I' for Inactive)
ROOT
HETATM    1  C1  UNL     1     -21.473  17.137   8.962  1.00 20.00     0.006 A 
HETATM    2  C2  UNL     1     -22.512  17.559   9.678  1.00 20.00    -0.008 A 
HETATM    3  C3  UNL     1     -23.376  18.167   8.665  1.00 20.00     0.038 A 
HETATM    4  C4  UNL     1     -21.671  17.429   7.514  1.00 20.00     0.177 A 
HETATM    5  C5  UNL     1     -22.863  17.544  11.113  1.00 20.00     0.310 C 
HETATM    6  C6  UNL     1     -24.641  18.850   9.102  1.00 20.00     0.089 C 
HETATM    7  C7  UNL     1     -25.022  18.474  10.537  1.00 20.00     0.276 C 
HETATM    8  N8  UNL     1     -22.974  18.129   7.426  1.00 20.00    -0.290 NA
HETATM    9  N9  UNL     1     -23.877  18.552  11.456  1.00 20.00     0.087 N 
HETATM   10  H19 UNL     1     -24.199  18.388  12.409  1.00 20.00     0.316 HD
ENDROOT
TORSDOF 0
ENDMDL
MODEL 4
REMARK VINA RESULT:      -4.4     16.109     16.675
REMARK  0 active torsions:
REMARK  status: ('A' for Active; 'I' for Inactive)
ROOT
HETATM    1  C1  UNL     1     -25.119  19.046   8.957  1.00 20.00     0.006 A 
HETATM    2  C2  UNL     1     -23.978  18.458   9.305  1.00 20.00    -0.008 A 
HETATM    3  C3  UNL     1     -23.310  18.262   8.017  1.00 20.00     0.038 A 
HETATM    4  C4  UNL     1     -25.179  19.263   7.484  1.00 20.00     0.177 A 
HETATM    5  C5  UNL     1     -23.383  18.009  10.581  1.00 20.00     0.310 C 
HETATM    6  C6  UNL     1     -21.998  17.532   7.981  1.00 20.00     0.089 C 
HETATM    7  C7  UNL     1     -21.369  17.425   9.373  1.00 20.00     0.276 C 
HETATM    8  N8  UNL     1     -23.920  18.692   6.949  1.00 20.00    -0.290 NA
HETATM    9  N9  UNL     1     -22.338  16.993  10.390  1.00 20.00     0.087 N 
HETATM   10  H19 UNL     1     -21.854  16.844  11.274  1.00 20.00     0.316 HD
ENDROOT
TORSDOF 0
ENDMDL
MODEL 5
REMARK VINA RESULT:      -4.4     15.463     16.262
REMARK  0 active torsions:
REMARK  status: ('A' for Active; 'I' for Inactive)
ROOT
HETATM    1  C1  UNL     1     -23.611  18.709   8.705  1.00 20.00     0.006 A 
HETATM    2  C2  UNL     1     -24.304  18.275   9.754  1.00 20.00    -0.008 A 
HETATM    3  C3  UNL     1     -23.736  16.947   9.990  1.00 20.00     0.038 A 
HETATM    4  C4  UNL     1     -22.591  17.706   8.289  1.00 20.00     0.177 A 
HETATM    5  C5  UNL     1     -25.407  18.820  10.573  1.00 20.00     0.310 C 
HETATM    6  C6  UNL     1     -24.328  16.081  11.065  1.00 20.00     0.089 C 
HETATM    7  C7  UNL     1     -25.217  16.887  12.017  1.00 20.00     0.276 C 
HETATM    8  N8  UNL     1     -22.767  16.558   9.211  1.00 20.00    -0.290 NA
HETATM    9  N9  UNL     1     -26.143  17.773  11.296  1.00 20.00     0.087 N 
HETATM   10  H19 UNL     1     -26.775  18.213  11.964  1.00 20.00     0.316 HD
ENDROOT
TORSDOF 0
ENDMDL
MODEL 6
REMARK VINA RESULT:      -4.4      1.407      3.115
REMARK  0 active torsions:
REMARK  status: ('A' for Active; 'I' for Inactive)
ROOT
HETATM    1  C1  UNL     1     -32.552   7.350   3.426  1.00 20.00     0.006 A 
HETATM    2  C2  UNL     1     -33.261   6.723   4.361  1.00 20.00    -0.008 A 
HETATM    3  C3  UNL     1     -33.817   5.582   3.634  1.00 20.00     0.038 A 
HETATM    4  C4  UNL     1     -32.613   6.616   2.130  1.00 20.00     0.177 A 
HETATM    5  C5  UNL     1     -33.557   6.975   5.787  1.00 20.00     0.310 C 
HETATM    6  C6  UNL     1     -34.768   4.660   4.343  1.00 20.00     0.089 C 
HETATM    7  C7  UNL     1     -34.719   4.853   5.862  1.00 20.00     0.276 C 
HETATM    8  N8  UNL     1     -33.496   5.451   2.378  1.00 20.00    -0.290 NA
HETATM    9  N9  UNL     1     -34.765   6.272   6.244  1.00 20.00     0.087 N 
HETATM   10  H19 UNL     1     -34.827   6.345   7.259  1.00 20.00     0.316 HD
ENDROOT
TORSDOF 0
ENDMDL
MODEL 7
REMARK VINA RESULT:      -4.3      1.211      2.056
REMARK  0 active torsions:
REMARK  status: ('A' for Active; 'I' for Inactive)
ROOT
HETATM    1  C1  UNL     1     -34.834   4.798   4.590  1.00 20.00     0.006 A 
HETATM    2  C2  UNL     1     -33.954   5.521   3.902  1.00 20.00    -0.008 A 
HETATM    3  C3  UNL     1     -33.590   6.575   4.851  1.00 20.00     0.038 A 
HETATM    4  C4  UNL     1     -35.012   5.343   5.966  1.00 20.00     0.177 A 
HETATM    5  C5  UNL     1     -33.398   5.460   2.535  1.00 20.00     0.310 C 
HETATM    6  C6  UNL     1     -32.658   7.666   4.406  1.00 20.00     0.089 C 
HETATM    7  C7  UNL     1     -31.928   7.296   3.111  1.00 20.00     0.276 C 
HETATM    8  N8  UNL     1     -34.139   6.540   6.032  1.00 20.00    -0.290 NA
HETATM    9  N9  UNL     1     -32.839   6.748   2.096  1.00 20.00     0.087 N 
HETATM   10  H19 UNL     1     -32.328   6.608   1.225  1.00 20.00     0.316 HD
ENDROOT
TORSDOF 0
ENDMDL
MODEL 8
REMARK VINA RESULT:      -4.3     16.252     16.445
REMARK  0 active torsions:
REMARK  status: ('A' for Active; 'I' for Inactive)
ROOT
HETATM    1  C1  UNL     1     -25.852  17.676  12.332  1.00 20.00     0.006 A 
HETATM    2  C2  UNL     1     -24.766  17.575  11.571  1.00 20.00    -0.008 A 
HETATM    3  C3  UNL     1     -25.019  18.557  10.515  1.00 20.00     0.038 A 
HETATM    4  C4  UNL     1     -26.775  18.723  11.808  1.00 20.00     0.177 A 
HETATM    5  C5  UNL     1     -23.549  16.737  11.599  1.00 20.00     0.310 C 
HETATM    6  C6  UNL     1     -24.035  18.683   9.387  1.00 20.00     0.089 C 
HETATM    7  C7  UNL     1     -22.702  18.005   9.718  1.00 20.00     0.276 C 
HETATM    8  N8  UNL     1     -26.124  19.244  10.581  1.00 20.00    -0.290 NA
HETATM    9  N9  UNL     1     -22.887  16.662  10.288  1.00 20.00     0.087 N 
HETATM   10  H19 UNL     1     -21.978  16.217  10.401  1.00 20.00     0.316 HD
ENDROOT
TORSDOF 0
ENDMDL
MODEL 9
REMARK VINA RESULT:      -4.2     16.245     16.805
REMARK  0 active torsions:
REMARK  status: ('A' for Active; 'I' for Inactive)
ROOT
HETATM    1  C1  UNL     1     -25.032  18.179  11.108  1.00 20.00     0.006 A 
HETATM    2  C2  UNL     1     -24.251  18.137  10.031  1.00 20.00    -0.008 A 
HETATM    3  C3  UNL     1     -22.952  17.758  10.588  1.00 20.00     0.038 A 
HETATM    4  C4  UNL     1     -24.270  17.800  12.332  1.00 20.00     0.177 A 
HETATM    5  C5  UNL     1     -24.448  18.404   8.591  1.00 20.00     0.310 C 
HETATM    6  C6  UNL     1     -21.761  17.689   9.676  1.00 20.00     0.089 C 
HETATM    7  C7  UNL     1     -22.176  17.668   8.202  1.00 20.00     0.276 C 
HETATM    8  N8  UNL     1     -22.884  17.547  11.872  1.00 20.00    -0.290 NA
HETATM    9  N9  UNL     1     -23.186  18.690   7.893  1.00 20.00     0.087 N 
HETATM   10  H19 UNL     1     -23.358  18.701   6.889  1.00 20.00     0.316 HD
ENDROOT
TORSDOF 0
ENDMDL
