MODEL 1
REMARK VINA RESULT:      -4.4      0.000      0.000
REMARK  1 active torsions:
REMARK  status: ('A' for Active; 'I' for Inactive)
REMARK    1  A    between atoms: C1_1  and  C4_4 
ROOT
HETATM    1  C2  UNL     1     -33.313  15.582  -3.517  1.00 20.00     0.038 C 
HETATM    2  C3  UNL     1     -33.337  14.671  -4.730  1.00 20.00     0.169 C 
HETATM    3  C4  UNL     1     -35.406  14.546  -3.672  1.00 20.00     0.190 C 
HETATM    4  C5  UNL     1     -34.789  15.900  -3.300  1.00 20.00    -0.013 C 
HETATM    5  C6  UNL     1     -35.223  17.049  -4.230  1.00 20.00     0.018 C 
HETATM    6  C7  UNL     1     -35.086  16.288  -1.850  1.00 20.00     0.018 C 
HETATM    7  O9  UNL     1     -34.604  13.999  -4.725  1.00 20.00    -0.378 OA
ENDROOT
BRANCH   3   8
HETATM    8  C1  UNL     1     -36.817  14.605  -4.161  1.00 20.00     0.263 C 
HETATM    9  O8  UNL     1     -37.470  13.612  -4.462  1.00 20.00    -0.304 OA
ENDBRANCH   3   8
TORSDOF 1
ENDMDL
MODEL 2
REMARK VINA RESULT:      -4.2     16.864     18.165
REMARK  1 active torsions:
REMARK  status: ('A' for Active; 'I' for Inactive)
REMARK    1  A    between atoms: C1_1  and  C4_4 
ROOT
HETATM    1  C2  UNL     1     -24.594  18.769  10.059  1.00 20.00     0.038 C 
HETATM    2  C3  UNL     1     -24.724  18.925   8.555  1.00 20.00     0.169 C 
HETATM    3  C4  UNL     1     -22.536  18.301   9.046  1.00 20.00     0.190 C 
HETATM    4  C5  UNL     1     -23.417  17.809  10.201  1.00 20.00    -0.013 C 
HETATM    5  C6  UNL     1     -23.898  16.356  10.032  1.00 20.00     0.018 C 
HETATM    6  C7  UNL     1     -22.721  17.952  11.557  1.00 20.00     0.018 C 
HETATM    7  O9  UNL     1     -23.419  18.714   7.997  1.00 20.00    -0.378 OA
ENDROOT
BRANCH   3   8
HETATM    8  C1  UNL     1     -21.605  17.279   8.479  1.00 20.00     0.263 C 
HETATM    9  O8  UNL     1     -21.694  16.844   7.335  1.00 20.00    -0.304 OA
ENDBRANCH   3   8
TORSDOF 1
ENDMDL
MODEL 3
REMARK VINA RESULT:      -4.1      1.417      2.340
REMARK  1 active torsions:
REMARK  status: ('A' for Active; 'I' for Inactive)
REMARK    1  A    between atoms: C1_1  and  C4_4 
ROOT
HETATM    1  C2  UNL     1     -34.404  16.912  -4.752  1.00 20.00     0.038 C 
HETATM    2  C3  UNL     1     -35.850  17.151  -5.143  1.00 20.00     0.169 C 
HETATM    3  C4  UNL     1     -35.473  14.856  -5.084  1.00 20.00     0.190 C 
HETATM    4  C5  UNL     1     -34.441  15.508  -4.156  1.00 20.00    -0.013 C 
HETATM    5  C6  UNL     1     -34.891  15.572  -2.684  1.00 20.00     0.018 C 
HETATM    6  C7  UNL     1     -33.078  14.816  -4.234  1.00 20.00     0.018 C 
HETATM    7  O9  UNL     1     -36.429  15.868  -5.419  1.00 20.00    -0.378 OA
ENDROOT
BRANCH   3   8
HETATM    8  C1  UNL     1     -36.219  13.705  -4.492  1.00 20.00     0.263 C 
HETATM    9  O8  UNL     1     -35.799  12.552  -4.497  1.00 20.00    -0.304 OA
ENDBRANCH   3   8
TORSDOF 1
ENDMDL
MODEL 4
REMARK VINA RESULT:      -4.1      1.803      2.345
REMARK  1 active torsions:
REMARK  status: ('A' for Active; 'I' for Inactive)
REMARK    1  A    between atoms: C1_1  and  C4_4 
ROOT
HETATM    1  C2  UNL     1     -34.112  15.095  -6.654  1.00 20.00     0.038 C 
HETATM    2  C3  UNL     1     -35.387  15.087  -7.477  1.00 20.00     0.169 C 
HETATM    3  C4  UNL     1     -35.858  14.196  -5.379  1.00 20.00     0.190 C 
HETATM    4  C5  UNL     1     -34.633  15.104  -5.220  1.00 20.00    -0.013 C 
HETATM    5  C6  UNL     1     -34.986  16.543  -4.797  1.00 20.00     0.018 C 
HETATM    6  C7  UNL     1     -33.613  14.528  -4.235  1.00 20.00     0.018 C 
HETATM    7  O9  UNL     1     -36.396  14.448  -6.682  1.00 20.00    -0.378 OA
ENDROOT
BRANCH   3   8
HETATM    8  C1  UNL     1     -36.950  14.423  -4.385  1.00 20.00     0.263 C 
HETATM    9  O8  UNL     1     -38.001  13.791  -4.379  1.00 20.00    -0.304 OA
ENDBRANCH   3   8
TORSDOF 1
ENDMDL
MODEL 5
REMARK VINA RESULT:      -4.0     17.963     18.628
REMARK  1 active torsions:
REMARK  status: ('A' for Active; 'I' for Inactive)
REMARK    1  A    between atoms: C1_1  and  C4_4 
ROOT
HETATM    1  C2  UNL     1     -23.084  17.033   9.925  1.00 20.00     0.038 C 
HETATM    2  C3  UNL     1     -23.189  18.424   9.329  1.00 20.00     0.169 C 
HETATM    3  C4  UNL     1     -25.055  18.053  10.669  1.00 20.00     0.190 C 
HETATM    4  C5  UNL     1     -23.939  17.136  11.185  1.00 20.00    -0.013 C 
HETATM    5  C6  UNL     1     -23.116  17.755  12.331  1.00 20.00     0.018 C 
HETATM    6  C7  UNL     1     -24.473  15.773  11.630  1.00 20.00     0.018 C 
HETATM    7  O9  UNL     1     -24.451  18.965   9.746  1.00 20.00    -0.378 OA
ENDROOT
BRANCH   3   8
HETATM    8  C1  UNL     1     -25.747  18.862  11.718  1.00 20.00     0.263 C 
HETATM    9  O8  UNL     1     -26.735  18.470  12.332  1.00 20.00    -0.304 OA
ENDBRANCH   3   8
TORSDOF 1
ENDMDL
MODEL 6
REMARK VINA RESULT:      -3.8      1.410      2.373
REMARK  1 active torsions:
REMARK  status: ('A' for Active; 'I' for Inactive)
REMARK    1  A    between atoms: C1_1  and  C4_4 
ROOT
HETATM    1  C2  UNL     1     -33.826  16.687  -3.622  1.00 20.00     0.038 C 
HETATM    2  C3  UNL     1     -34.385  16.174  -2.308  1.00 20.00     0.169 C 
HETATM    3  C4  UNL     1     -35.649  15.281  -4.046  1.00 20.00     0.190 C 
HETATM    4  C5  UNL     1     -34.268  15.620  -4.620  1.00 20.00    -0.013 C 
HETATM    5  C6  UNL     1     -33.283  14.435  -4.595  1.00 20.00     0.018 C 
HETATM    6  C7  UNL     1     -34.355  16.169  -6.045  1.00 20.00     0.018 C 
HETATM    7  O9  UNL     1     -35.547  15.394  -2.623  1.00 20.00    -0.378 OA
ENDROOT
BRANCH   3   8
HETATM    8  C1  UNL     1     -36.144  13.906  -4.358  1.00 20.00     0.263 C 
HETATM    9  O8  UNL     1     -37.333  13.627  -4.478  1.00 20.00    -0.304 OA
ENDBRANCH   3   8
TORSDOF 1
ENDMDL
MODEL 7
REMARK VINA RESULT:      -3.8      1.950      3.562
REMARK  1 active torsions:
REMARK  status: ('A' for Active; 'I' for Inactive)
REMARK    1  A    between atoms: C1_1  and  C4_4 
ROOT
HETATM    1  C2  UNL     1     -38.511  16.203  -4.891  1.00 20.00     0.038 C 
HETATM    2  C3  UNL     1     -39.106  15.001  -4.183  1.00 20.00     0.169 C 
HETATM    3  C4  UNL     1     -37.000  14.417  -4.982  1.00 20.00     0.190 C 
HETATM    4  C5  UNL     1     -37.010  15.941  -4.805  1.00 20.00    -0.013 C 
HETATM    5  C6  UNL     1     -36.472  16.404  -3.438  1.00 20.00     0.018 C 
HETATM    6  C7  UNL     1     -36.238  16.654  -5.916  1.00 20.00     0.018 C 
HETATM    7  O9  UNL     1     -38.181  13.917  -4.345  1.00 20.00    -0.378 OA
ENDROOT
BRANCH   3   8
HETATM    8  C1  UNL     1     -35.827  13.717  -4.377  1.00 20.00     0.263 C 
HETATM    9  O8  UNL     1     -35.696  12.497  -4.373  1.00 20.00    -0.304 OA
ENDBRANCH   3   8
TORSDOF 1
ENDMDL
MODEL 8
REMARK VINA RESULT:      -3.6     10.421     12.139
REMARK  1 active torsions:
REMARK  status: ('A' for Active; 'I' for Inactive)
REMARK    1  A    between atoms: C1_1  and  C4_4 
ROOT
HETATM    1  C2  UNL     1     -42.881   5.099   0.529  1.00 20.00     0.038 C 
HETATM    2  C3  UNL     1     -43.417   6.109   1.525  1.00 20.00     0.169 C 
HETATM    3  C4  UNL     1     -41.643   7.080   0.374  1.00 20.00     0.190 C 
HETATM    4  C5  UNL     1     -42.218   5.980  -0.526  1.00 20.00    -0.013 C 
HETATM    5  C6  UNL     1     -43.275   6.492  -1.524  1.00 20.00     0.018 C 
HETATM    6  C7  UNL     1     -41.125   5.234  -1.293  1.00 20.00     0.018 C 
HETATM    7  O9  UNL     1     -42.571   7.265   1.449  1.00 20.00    -0.378 OA
ENDROOT
BRANCH   3   8
HETATM    8  C1  UNL     1     -41.448   8.405  -0.289  1.00 20.00     0.263 C 
HETATM    9  O8  UNL     1     -41.773   9.471   0.222  1.00 20.00    -0.304 OA
ENDBRANCH   3   8
TORSDOF 1
ENDMDL
MODEL 9
REMARK VINA RESULT:      -3.6      1.957      3.182
REMARK  1 active torsions:
REMARK  status: ('A' for Active; 'I' for Inactive)
REMARK    1  A    between atoms: C1_1  and  C4_4 
ROOT
HETATM    1  C2  UNL     1     -35.735  14.773  -3.821  1.00 20.00     0.038 C 
HETATM    2  C3  UNL     1     -36.194  13.608  -4.677  1.00 20.00     0.169 C 
HETATM    3  C4  UNL     1     -35.143  15.164  -6.051  1.00 20.00     0.190 C 
HETATM    4  C5  UNL     1     -34.589  15.365  -4.635  1.00 20.00    -0.013 C 
HETATM    5  C6  UNL     1     -33.291  14.579  -4.366  1.00 20.00     0.018 C 
HETATM    6  C7  UNL     1     -34.356  16.842  -4.312  1.00 20.00     0.018 C 
HETATM    7  O9  UNL     1     -35.885  13.940  -6.038  1.00 20.00    -0.378 OA
ENDROOT
BRANCH   3   8
HETATM    8  C1  UNL     1     -34.110  15.057  -7.126  1.00 20.00     0.263 C 
HETATM    9  O8  UNL     1     -33.835  15.975  -7.892  1.00 20.00    -0.304 OA
ENDBRANCH   3   8
TORSDOF 1
ENDMDL
