MODEL 1
REMARK VINA RESULT:      -4.3      0.000      0.000
REMARK  2 active torsions:
REMARK  status: ('A' for Active; 'I' for Inactive)
REMARK    1  A    between atoms: C7_7  and  O10_10 
REMARK    2  A    between atoms: C8_8  and  O10_10 
ROOT
HETATM    1  C1  UNL     1     -25.219  16.655  11.836  1.00 20.00     0.155 C 
HETATM    2  C2  UNL     1     -26.436  17.454  12.332  1.00 20.00     0.084 C 
HETATM    3  C3  UNL     1     -25.712  18.725  11.832  1.00 20.00     0.047 C 
HETATM    4  C7  UNL     1     -24.656  17.874  11.080  1.00 20.00     0.191 C 
HETATM    5  O9  UNL     1     -24.846  15.511  11.988  1.00 20.00    -0.295 OA
ENDROOT
BRANCH   4   6
HETATM    6  O10 UNL     1     -23.300  18.149  11.374  1.00 20.00    -0.373 OA
BRANCH   6   7
HETATM    7  C8  UNL     1     -22.516  18.212  10.171  1.00 20.00     0.122 C 
HETATM    8  C5  UNL     1     -22.469  16.917   9.327  1.00 20.00     0.032 C 
HETATM    9  C4  UNL     1     -22.529  17.809   8.072  1.00 20.00     0.005 C 
HETATM   10  C6  UNL     1     -23.190  18.886   8.953  1.00 20.00     0.032 C 
ENDBRANCH   6   7
ENDBRANCH   4   6
TORSDOF 2
ENDMDL
MODEL 2
REMARK VINA RESULT:      -4.1     17.753     18.524
REMARK  2 active torsions:
REMARK  status: ('A' for Active; 'I' for Inactive)
REMARK    1  A    between atoms: C7_7  and  O10_10 
REMARK    2  A    between atoms: C8_8  and  O10_10 
ROOT
HETATM    1  C1  UNL     1     -35.726  13.841  -4.970  1.00 20.00     0.155 C 
HETATM    2  C2  UNL     1     -35.963  14.517  -6.331  1.00 20.00     0.084 C 
HETATM    3  C3  UNL     1     -35.673  15.863  -5.630  1.00 20.00     0.047 C 
HETATM    4  C7  UNL     1     -35.148  15.135  -4.365  1.00 20.00     0.191 C 
HETATM    5  O9  UNL     1     -35.923  12.724  -4.540  1.00 20.00    -0.295 OA
ENDROOT
BRANCH   4   6
HETATM    6  O10 UNL     1     -35.742  15.501  -3.135  1.00 20.00    -0.373 OA
BRANCH   6   7
HETATM    7  C8  UNL     1     -34.746  15.920  -2.187  1.00 20.00     0.122 C 
HETATM    8  C5  UNL     1     -33.398  16.385  -2.786  1.00 20.00     0.032 C 
HETATM    9  C4  UNL     1     -33.365  17.477  -1.700  1.00 20.00     0.005 C 
HETATM   10  C6  UNL     1     -34.898  17.352  -1.625  1.00 20.00     0.032 C 
ENDBRANCH   6   7
ENDBRANCH   4   6
TORSDOF 2
ENDMDL
MODEL 3
REMARK VINA RESULT:      -4.0      1.577      2.224
REMARK  2 active torsions:
REMARK  status: ('A' for Active; 'I' for Inactive)
REMARK    1  A    between atoms: C7_7  and  O10_10 
REMARK    2  A    between atoms: C8_8  and  O10_10 
ROOT
HETATM    1  C1  UNL     1     -25.761  18.978  10.285  1.00 20.00     0.155 C 
HETATM    2  C2  UNL     1     -26.544  19.243  11.582  1.00 20.00     0.084 C 
HETATM    3  C3  UNL     1     -25.610  18.220  12.267  1.00 20.00     0.047 C 
HETATM    4  C7  UNL     1     -24.664  18.204  11.039  1.00 20.00     0.191 C 
HETATM    5  O9  UNL     1     -25.943  19.263   9.120  1.00 20.00    -0.295 OA
ENDROOT
BRANCH   4   6
HETATM    6  O10 UNL     1     -24.376  16.937  10.481  1.00 20.00    -0.373 OA
BRANCH   6   7
HETATM    7  C8  UNL     1     -22.997  16.851  10.083  1.00 20.00     0.122 C 
HETATM    8  C5  UNL     1     -22.678  17.333   8.648  1.00 20.00     0.032 C 
HETATM    9  C4  UNL     1     -21.377  17.937   9.209  1.00 20.00     0.005 C 
HETATM   10  C6  UNL     1     -22.072  17.985  10.582  1.00 20.00     0.032 C 
ENDBRANCH   6   7
ENDBRANCH   4   6
TORSDOF 2
ENDMDL
MODEL 4
REMARK VINA RESULT:      -4.0     14.477     15.061
REMARK  2 active torsions:
REMARK  status: ('A' for Active; 'I' for Inactive)
REMARK    1  A    between atoms: C7_7  and  O10_10 
REMARK    2  A    between atoms: C8_8  and  O10_10 
ROOT
HETATM    1  C1  UNL     1     -31.602  18.395  -0.015  1.00 20.00     0.155 C 
HETATM    2  C2  UNL     1     -31.978  18.784   1.425  1.00 20.00     0.084 C 
HETATM    3  C3  UNL     1     -33.455  18.719   0.978  1.00 20.00     0.047 C 
HETATM    4  C7  UNL     1     -33.061  18.041  -0.359  1.00 20.00     0.191 C 
HETATM    5  O9  UNL     1     -30.561  18.380  -0.637  1.00 20.00    -0.295 OA
ENDROOT
BRANCH   4   6
HETATM    6  O10 UNL     1     -33.532  18.658  -1.542  1.00 20.00    -0.373 OA
BRANCH   6   7
HETATM    7  C8  UNL     1     -34.128  17.693  -2.424  1.00 20.00     0.122 C 
HETATM    8  C5  UNL     1     -33.202  16.549  -2.898  1.00 20.00     0.032 C 
HETATM    9  C4  UNL     1     -34.410  15.602  -2.766  1.00 20.00     0.005 C 
HETATM   10  C6  UNL     1     -34.996  16.602  -1.753  1.00 20.00     0.032 C 
ENDBRANCH   6   7
ENDBRANCH   4   6
TORSDOF 2
ENDMDL
MODEL 5
REMARK VINA RESULT:      -3.9     15.564     16.250
REMARK  2 active torsions:
REMARK  status: ('A' for Active; 'I' for Inactive)
REMARK    1  A    between atoms: C7_7  and  O10_10 
REMARK    2  A    between atoms: C8_8  and  O10_10 
ROOT
HETATM    1  C1  UNL     1     -34.538   5.303   4.527  1.00 20.00     0.155 C 
HETATM    2  C2  UNL     1     -34.456   5.884   5.949  1.00 20.00     0.084 C 
HETATM    3  C3  UNL     1     -33.576   7.008   5.359  1.00 20.00     0.047 C 
HETATM    4  C7  UNL     1     -33.925   6.576   3.912  1.00 20.00     0.191 C 
HETATM    5  O9  UNL     1     -34.927   4.249   4.071  1.00 20.00    -0.295 OA
ENDROOT
BRANCH   4   6
HETATM    6  O10 UNL     1     -32.834   6.321   3.049  1.00 20.00    -0.373 OA
BRANCH   6   7
HETATM    7  C8  UNL     1     -32.424   7.521   2.370  1.00 20.00     0.122 C 
HETATM    8  C5  UNL     1     -32.164   7.382   0.853  1.00 20.00     0.032 C 
HETATM    9  C4  UNL     1     -32.808   8.771   0.680  1.00 20.00     0.005 C 
HETATM   10  C6  UNL     1     -33.551   8.515   2.005  1.00 20.00     0.032 C 
ENDBRANCH   6   7
ENDBRANCH   4   6
TORSDOF 2
ENDMDL
MODEL 6
REMARK VINA RESULT:      -3.9      2.660      4.121
REMARK  2 active torsions:
REMARK  status: ('A' for Active; 'I' for Inactive)
REMARK    1  A    between atoms: C7_7  and  O10_10 
REMARK    2  A    between atoms: C8_8  and  O10_10 
ROOT
HETATM    1  C1  UNL     1     -24.497  18.948   7.014  1.00 20.00     0.155 C 
HETATM    2  C2  UNL     1     -25.838  19.262   6.329  1.00 20.00     0.084 C 
HETATM    3  C3  UNL     1     -26.483  19.201   7.731  1.00 20.00     0.047 C 
HETATM    4  C7  UNL     1     -25.092  19.189   8.414  1.00 20.00     0.191 C 
HETATM    5  O9  UNL     1     -23.400  18.629   6.607  1.00 20.00    -0.295 OA
ENDROOT
BRANCH   4   6
HETATM    6  O10 UNL     1     -24.845  18.135   9.325  1.00 20.00    -0.373 OA
BRANCH   6   7
HETATM    7  C8  UNL     1     -23.858  18.517  10.298  1.00 20.00     0.122 C 
HETATM    8  C5  UNL     1     -23.986  17.852  11.687  1.00 20.00     0.032 C 
HETATM    9  C4  UNL     1     -22.448  17.770  11.720  1.00 20.00     0.005 C 
HETATM   10  C6  UNL     1     -22.481  17.821  10.181  1.00 20.00     0.032 C 
ENDBRANCH   6   7
ENDBRANCH   4   6
TORSDOF 2
ENDMDL
MODEL 7
REMARK VINA RESULT:      -3.7     18.659     19.240
REMARK  2 active torsions:
REMARK  status: ('A' for Active; 'I' for Inactive)
REMARK    1  A    between atoms: C7_7  and  O10_10 
REMARK    2  A    between atoms: C8_8  and  O10_10 
ROOT
HETATM    1  C1  UNL     1     -37.855  15.068  -4.526  1.00 20.00     0.155 C 
HETATM    2  C2  UNL     1     -38.600  16.281  -5.108  1.00 20.00     0.084 C 
HETATM    3  C3  UNL     1     -37.442  17.154  -4.574  1.00 20.00     0.047 C 
HETATM    4  C7  UNL     1     -36.583  15.899  -4.273  1.00 20.00     0.191 C 
HETATM    5  O9  UNL     1     -38.157  13.909  -4.334  1.00 20.00    -0.295 OA
ENDROOT
BRANCH   4   6
HETATM    6  O10 UNL     1     -36.079  15.781  -2.956  1.00 20.00    -0.373 OA
BRANCH   6   7
HETATM    7  C8  UNL     1     -34.714  15.330  -2.967  1.00 20.00     0.122 C 
HETATM    8  C5  UNL     1     -34.396  14.166  -3.934  1.00 20.00     0.032 C 
HETATM    9  C4  UNL     1     -33.054  14.864  -4.230  1.00 20.00     0.005 C 
HETATM   10  C6  UNL     1     -33.721  16.181  -3.793  1.00 20.00     0.032 C 
ENDBRANCH   6   7
ENDBRANCH   4   6
TORSDOF 2
ENDMDL
MODEL 8
REMARK VINA RESULT:      -3.7     18.251     18.989
REMARK  2 active torsions:
REMARK  status: ('A' for Active; 'I' for Inactive)
REMARK    1  A    between atoms: C7_7  and  O10_10 
REMARK    2  A    between atoms: C8_8  and  O10_10 
ROOT
HETATM    1  C1  UNL     1     -36.150  15.026  -5.900  1.00 20.00     0.155 C 
HETATM    2  C2  UNL     1     -37.005  16.167  -6.477  1.00 20.00     0.084 C 
HETATM    3  C3  UNL     1     -36.732  16.936  -5.166  1.00 20.00     0.047 C 
HETATM    4  C7  UNL     1     -35.643  15.915  -4.748  1.00 20.00     0.191 C 
HETATM    5  O9  UNL     1     -35.956  13.874  -6.224  1.00 20.00    -0.295 OA
ENDROOT
BRANCH   4   6
HETATM    6  O10 UNL     1     -35.788  15.326  -3.470  1.00 20.00    -0.373 OA
BRANCH   6   7
HETATM    7  C8  UNL     1     -34.640  15.595  -2.647  1.00 20.00     0.122 C 
HETATM    8  C5  UNL     1     -33.344  15.976  -3.400  1.00 20.00     0.032 C 
HETATM    9  C4  UNL     1     -33.065  16.991  -2.274  1.00 20.00     0.005 C 
HETATM   10  C6  UNL     1     -34.580  16.997  -1.998  1.00 20.00     0.032 C 
ENDBRANCH   6   7
ENDBRANCH   4   6
TORSDOF 2
ENDMDL
MODEL 9
REMARK VINA RESULT:      -3.7      2.749      3.954
REMARK  2 active torsions:
REMARK  status: ('A' for Active; 'I' for Inactive)
REMARK    1  A    between atoms: C7_7  and  O10_10 
REMARK    2  A    between atoms: C8_8  and  O10_10 
ROOT
HETATM    1  C1  UNL     1     -23.572  17.613   9.856  1.00 20.00     0.155 C 
HETATM    2  C2  UNL     1     -22.138  17.631  10.413  1.00 20.00     0.084 C 
HETATM    3  C3  UNL     1     -21.750  18.480   9.182  1.00 20.00     0.047 C 
HETATM    4  C7  UNL     1     -23.240  18.698   8.814  1.00 20.00     0.191 C 
HETATM    5  O9  UNL     1     -24.572  16.984  10.130  1.00 20.00    -0.295 OA
ENDROOT
BRANCH   4   6
HETATM    6  O10 UNL     1     -23.620  18.354   7.495  1.00 20.00    -0.373 OA
BRANCH   6   7
HETATM    7  C8  UNL     1     -24.674  19.211   7.025  1.00 20.00     0.122 C 
HETATM    8  C5  UNL     1     -25.011  19.101   5.519  1.00 20.00     0.032 C 
HETATM    9  C4  UNL     1     -26.494  19.263   5.906  1.00 20.00     0.005 C 
HETATM   10  C6  UNL     1     -26.118  18.730   7.301  1.00 20.00     0.032 C 
ENDBRANCH   6   7
ENDBRANCH   4   6
TORSDOF 2
ENDMDL
