MODEL 1
REMARK VINA RESULT:      -5.2      0.000      0.000
REMARK  1 active torsions:
REMARK  status: ('A' for Active; 'I' for Inactive)
REMARK    1  A    between atoms: C4_4  and  C6_6 
ROOT
HETATM    1  C1  UNL     1     -33.494   6.763   4.030  1.00 20.00     0.070 A 
HETATM    2  C2  UNL     1     -34.252   4.519   3.827  1.00 20.00     0.129 A 
HETATM    3  C3  UNL     1     -33.021   5.432   2.116  1.00 20.00     0.170 A 
HETATM    4  C4  UNL     1     -34.187   5.686   4.571  1.00 20.00     0.027 A 
HETATM    5  C5  UNL     1     -32.897   6.642   2.780  1.00 20.00     0.190 A 
HETATM    6  N7  UNL     1     -33.686   4.364   2.610  1.00 20.00    -0.268 NA
HETATM    7  O8  UNL     1     -32.253   7.618   2.258  1.00 20.00    -0.287 OA
ENDROOT
BRANCH   4   8
HETATM    8  C6  UNL     1     -34.837   5.782   5.904  1.00 20.00     0.388 C 
HETATM    9  F9  UNL     1     -34.460   6.920   6.549  1.00 20.00    -0.209 F 
HETATM   10  F10 UNL     1     -34.462   4.748   6.705  1.00 20.00    -0.209 F 
ENDBRANCH   4   8
TORSDOF 1
ENDMDL
MODEL 2
REMARK VINA RESULT:      -5.2      2.941      3.644
REMARK  1 active torsions:
REMARK  status: ('A' for Active; 'I' for Inactive)
REMARK    1  A    between atoms: C4_4  and  C6_6 
ROOT
HETATM    1  C1  UNL     1     -33.596   6.746   4.548  1.00 20.00     0.070 A 
HETATM    2  C2  UNL     1     -33.689   4.978   2.961  1.00 20.00     0.129 A 
HETATM    3  C3  UNL     1     -34.788   4.730   4.963  1.00 20.00     0.170 A 
HETATM    4  C4  UNL     1     -33.235   6.241   3.304  1.00 20.00     0.027 A 
HETATM    5  C5  UNL     1     -34.387   5.982   5.400  1.00 20.00     0.190 A 
HETATM    6  N7  UNL     1     -34.458   4.206   3.761  1.00 20.00    -0.268 NA
HETATM    7  O8  UNL     1     -34.733   6.422   6.551  1.00 20.00    -0.287 OA
ENDROOT
BRANCH   4   8
HETATM    8  C6  UNL     1     -32.391   7.032   2.370  1.00 20.00     0.388 C 
HETATM    9  F9  UNL     1     -31.387   7.664   3.037  1.00 20.00    -0.209 F 
HETATM   10  F10 UNL     1     -33.118   8.006   1.761  1.00 20.00    -0.209 F 
ENDBRANCH   4   8
TORSDOF 1
ENDMDL
MODEL 3
REMARK VINA RESULT:      -5.0      2.917      3.665
REMARK  1 active torsions:
REMARK  status: ('A' for Active; 'I' for Inactive)
REMARK    1  A    between atoms: C4_4  and  C6_6 
ROOT
HETATM    1  C1  UNL     1     -33.811   6.643   4.611  1.00 20.00     0.070 A 
HETATM    2  C2  UNL     1     -33.407   5.239   2.736  1.00 20.00     0.129 A 
HETATM    3  C3  UNL     1     -34.692   4.439   4.464  1.00 20.00     0.170 A 
HETATM    4  C4  UNL     1     -33.217   6.457   3.368  1.00 20.00     0.027 A 
HETATM    5  C5  UNL     1     -34.564   5.620   5.177  1.00 20.00     0.190 A 
HETATM    6  N7  UNL     1     -34.130   4.221   3.254  1.00 20.00    -0.268 NA
HETATM    7  O8  UNL     1     -35.121   5.765   6.320  1.00 20.00    -0.287 OA
ENDROOT
BRANCH   4   8
HETATM    8  C6  UNL     1     -32.406   7.531   2.735  1.00 20.00     0.388 C 
HETATM    9  F9  UNL     1     -32.077   7.202   1.456  1.00 20.00    -0.209 F 
HETATM   10  F10 UNL     1     -31.232   7.709   3.398  1.00 20.00    -0.209 F 
ENDBRANCH   4   8
TORSDOF 1
ENDMDL
MODEL 4
REMARK VINA RESULT:      -4.8     12.355     12.695
REMARK  1 active torsions:
REMARK  status: ('A' for Active; 'I' for Inactive)
REMARK    1  A    between atoms: C4_4  and  C6_6 
ROOT
HETATM    1  C1  UNL     1     -36.056  15.036  -3.578  1.00 20.00     0.070 A 
HETATM    2  C2  UNL     1     -34.144  15.272  -4.971  1.00 20.00     0.129 A 
HETATM    3  C3  UNL     1     -35.919  14.024  -5.726  1.00 20.00     0.170 A 
HETATM    4  C4  UNL     1     -34.783  15.558  -3.776  1.00 20.00     0.027 A 
HETATM    5  C5  UNL     1     -36.642  14.253  -4.566  1.00 20.00     0.190 A 
HETATM    6  N7  UNL     1     -34.681  14.516  -5.954  1.00 20.00    -0.268 NA
HETATM    7  O8  UNL     1     -37.812  13.759  -4.410  1.00 20.00    -0.287 OA
ENDROOT
BRANCH   4   8
HETATM    8  C6  UNL     1     -34.128  16.399  -2.739  1.00 20.00     0.388 C 
HETATM    9  F9  UNL     1     -32.787  16.168  -2.700  1.00 20.00    -0.209 F 
HETATM   10  F10 UNL     1     -34.603  16.102  -1.499  1.00 20.00    -0.209 F 
ENDBRANCH   4   8
TORSDOF 1
ENDMDL
MODEL 5
REMARK VINA RESULT:      -4.7     16.567     16.993
REMARK  1 active torsions:
REMARK  status: ('A' for Active; 'I' for Inactive)
REMARK    1  A    between atoms: C4_4  and  C6_6 
ROOT
HETATM    1  C1  UNL     1     -22.632  17.561   9.537  1.00 20.00     0.070 A 
HETATM    2  C2  UNL     1     -24.685  18.485  10.301  1.00 20.00     0.129 A 
HETATM    3  C3  UNL     1     -24.148  18.665   8.075  1.00 20.00     0.170 A 
HETATM    4  C4  UNL     1     -23.510  17.807  10.586  1.00 20.00     0.027 A 
HETATM    5  C5  UNL     1     -22.948  17.995   8.254  1.00 20.00     0.190 A 
HETATM    6  N7  UNL     1     -25.027  18.922   9.069  1.00 20.00    -0.268 NA
HETATM    7  O8  UNL     1     -22.157  17.783   7.271  1.00 20.00    -0.287 OA
ENDROOT
BRANCH   4   8
HETATM    8  C6  UNL     1     -23.202  17.357  11.968  1.00 20.00     0.388 C 
HETATM    9  F9  UNL     1     -21.909  17.633  12.294  1.00 20.00    -0.209 F 
HETATM   10  F10 UNL     1     -23.345  16.009  12.085  1.00 20.00    -0.209 F 
ENDBRANCH   4   8
TORSDOF 1
ENDMDL
MODEL 6
REMARK VINA RESULT:      -4.7     12.073     12.616
REMARK  1 active torsions:
REMARK  status: ('A' for Active; 'I' for Inactive)
REMARK    1  A    between atoms: C4_4  and  C6_6 
ROOT
HETATM    1  C1  UNL     1     -34.808  14.427  -3.791  1.00 20.00     0.070 A 
HETATM    2  C2  UNL     1     -36.134  16.388  -3.572  1.00 20.00     0.129 A 
HETATM    3  C3  UNL     1     -37.117  14.466  -4.357  1.00 20.00     0.170 A 
HETATM    4  C4  UNL     1     -34.902  15.768  -3.439  1.00 20.00     0.027 A 
HETATM    5  C5  UNL     1     -35.932  13.756  -4.260  1.00 20.00     0.190 A 
HETATM    6  N7  UNL     1     -37.248  15.770  -4.024  1.00 20.00    -0.268 NA
HETATM    7  O8  UNL     1     -35.873  12.521  -4.592  1.00 20.00    -0.287 OA
ENDROOT
BRANCH   4   8
HETATM    8  C6  UNL     1     -33.719  16.515  -2.935  1.00 20.00     0.388 C 
HETATM    9  F9  UNL     1     -32.565  15.854  -3.224  1.00 20.00    -0.209 F 
HETATM   10  F10 UNL     1     -33.761  16.636  -1.580  1.00 20.00    -0.209 F 
ENDBRANCH   4   8
TORSDOF 1
ENDMDL
MODEL 7
REMARK VINA RESULT:      -4.6      1.587      1.978
REMARK  1 active torsions:
REMARK  status: ('A' for Active; 'I' for Inactive)
REMARK    1  A    between atoms: C4_4  and  C6_6 
ROOT
HETATM    1  C1  UNL     1     -34.055   4.815   3.706  1.00 20.00     0.070 A 
HETATM    2  C2  UNL     1     -33.409   7.026   4.295  1.00 20.00     0.129 A 
HETATM    3  C3  UNL     1     -32.698   6.159   2.290  1.00 20.00     0.170 A 
HETATM    4  C4  UNL     1     -34.092   5.864   4.618  1.00 20.00     0.027 A 
HETATM    5  C5  UNL     1     -33.347   4.957   2.518  1.00 20.00     0.190 A 
HETATM    6  N7  UNL     1     -32.710   7.201   3.152  1.00 20.00    -0.268 NA
HETATM    7  O8  UNL     1     -33.297   4.007   1.662  1.00 20.00    -0.287 OA
ENDROOT
BRANCH   4   8
HETATM    8  C6  UNL     1     -34.839   5.745   5.898  1.00 20.00     0.388 C 
HETATM    9  F9  UNL     1     -34.598   6.815   6.704  1.00 20.00    -0.209 F 
HETATM   10  F10 UNL     1     -34.442   4.645   6.593  1.00 20.00    -0.209 F 
ENDBRANCH   4   8
TORSDOF 1
ENDMDL
MODEL 8
REMARK VINA RESULT:      -4.6     12.285     12.724
REMARK  1 active torsions:
REMARK  status: ('A' for Active; 'I' for Inactive)
REMARK    1  A    between atoms: C4_4  and  C6_6 
ROOT
HETATM    1  C1  UNL     1     -36.094  14.932  -3.514  1.00 20.00     0.070 A 
HETATM    2  C2  UNL     1     -34.139  15.069  -4.861  1.00 20.00     0.129 A 
HETATM    3  C3  UNL     1     -36.034  14.121  -5.748  1.00 20.00     0.170 A 
HETATM    4  C4  UNL     1     -34.764  15.315  -3.649  1.00 20.00     0.027 A 
HETATM    5  C5  UNL     1     -36.749  14.323  -4.578  1.00 20.00     0.190 A 
HETATM    6  N7  UNL     1     -34.742  14.479  -5.917  1.00 20.00    -0.268 NA
HETATM    7  O8  UNL     1     -37.972  13.960  -4.481  1.00 20.00    -0.287 OA
ENDROOT
BRANCH   4   8
HETATM    8  C6  UNL     1     -34.035  15.968  -2.530  1.00 20.00     0.388 C 
HETATM    9  F9  UNL     1     -34.844  16.122  -1.446  1.00 20.00    -0.209 F 
HETATM   10  F10 UNL     1     -33.624  17.217  -2.879  1.00 20.00    -0.209 F 
ENDBRANCH   4   8
TORSDOF 1
ENDMDL
MODEL 9
REMARK VINA RESULT:      -4.5     12.068     12.806
REMARK  1 active torsions:
REMARK  status: ('A' for Active; 'I' for Inactive)
REMARK    1  A    between atoms: C4_4  and  C6_6 
ROOT
HETATM    1  C1  UNL     1     -34.981  14.543  -3.552  1.00 20.00     0.070 A 
HETATM    2  C2  UNL     1     -35.031  16.494  -4.911  1.00 20.00     0.129 A 
HETATM    3  C3  UNL     1     -35.888  14.535  -5.750  1.00 20.00     0.170 A 
HETATM    4  C4  UNL     1     -34.691  15.894  -3.709  1.00 20.00     0.027 A 
HETATM    5  C5  UNL     1     -35.590  13.843  -4.587  1.00 20.00     0.190 A 
HETATM    6  N7  UNL     1     -35.623  15.847  -5.939  1.00 20.00    -0.268 NA
HETATM    7  O8  UNL     1     -35.867  12.599  -4.470  1.00 20.00    -0.287 OA
ENDROOT
BRANCH   4   8
HETATM    8  C6  UNL     1     -34.040  16.672  -2.622  1.00 20.00     0.388 C 
HETATM    9  F9  UNL     1     -32.705  16.409  -2.567  1.00 20.00    -0.209 F 
HETATM   10  F10 UNL     1     -34.546  16.330  -1.407  1.00 20.00    -0.209 F 
ENDBRANCH   4   8
TORSDOF 1
ENDMDL
