MODEL 1
REMARK VINA RESULT:      -3.6      0.000      0.000
REMARK  2 active torsions:
REMARK  status: ('A' for Active; 'I' for Inactive)
REMARK    1  A    between atoms: C1_1  and  O4_4 
REMARK    2  A    between atoms: C1_1  and  S5_5 
ROOT
HETATM    1  C1  UNL     1     -36.361  13.650  -4.521  1.00 20.00     0.337 C 
HETATM    2  O3  UNL     1     -35.737  12.597  -4.474  1.00 20.00    -0.251 OA
ENDROOT
BRANCH   1   3
HETATM    3  O4  UNL     1     -37.725  13.741  -4.464  1.00 20.00    -0.317 OA
HETATM    4  C2  UNL     1     -38.256  15.059  -4.291  1.00 20.00     0.214 C 
ENDBRANCH   1   3
BRANCH   1   5
HETATM    5  S5  UNL     1     -35.553  15.217  -4.674  1.00 20.00     0.050 SA
HETATM    6 CL6  UNL     1     -34.643  15.360  -2.860  1.00 20.00    -0.033 Cl
ENDBRANCH   1   5
TORSDOF 2
ENDMDL
MODEL 2
REMARK VINA RESULT:      -3.6     11.713     12.047
REMARK  2 active torsions:
REMARK  status: ('A' for Active; 'I' for Inactive)
REMARK    1  A    between atoms: C1_1  and  O4_4 
REMARK    2  A    between atoms: C1_1  and  S5_5 
ROOT
HETATM    1  C1  UNL     1     -33.675   5.466   3.293  1.00 20.00     0.337 C 
HETATM    2  O3  UNL     1     -33.288   4.653   2.464  1.00 20.00    -0.251 OA
ENDROOT
BRANCH   1   3
HETATM    3  O4  UNL     1     -33.201   6.746   3.397  1.00 20.00    -0.317 OA
HETATM    4  C2  UNL     1     -32.481   7.239   2.262  1.00 20.00     0.214 C 
ENDBRANCH   1   3
BRANCH   1   5
HETATM    5  S5  UNL     1     -34.923   5.075   4.486  1.00 20.00     0.050 SA
HETATM    6 CL6  UNL     1     -34.345   6.243   6.047  1.00 20.00    -0.033 Cl
ENDBRANCH   1   5
TORSDOF 2
ENDMDL
MODEL 3
REMARK VINA RESULT:      -3.5     11.924     12.217
REMARK  2 active torsions:
REMARK  status: ('A' for Active; 'I' for Inactive)
REMARK    1  A    between atoms: C1_1  and  O4_4 
REMARK    2  A    between atoms: C1_1  and  S5_5 
ROOT
HETATM    1  C1  UNL     1     -34.343   5.287   3.996  1.00 20.00     0.337 C 
HETATM    2  O3  UNL     1     -35.007   4.346   4.415  1.00 20.00    -0.251 OA
ENDROOT
BRANCH   1   3
HETATM    3  O4  UNL     1     -34.331   6.533   4.560  1.00 20.00    -0.317 OA
HETATM    4  C2  UNL     1     -34.064   6.581   5.966  1.00 20.00     0.214 C 
ENDBRANCH   1   3
BRANCH   1   5
HETATM    5  S5  UNL     1     -33.294   5.142   2.578  1.00 20.00     0.050 SA
HETATM    6 CL6  UNL     1     -32.519   7.019   2.478  1.00 20.00    -0.033 Cl
ENDBRANCH   1   5
TORSDOF 2
ENDMDL
MODEL 4
REMARK VINA RESULT:      -3.3      1.540      1.941
REMARK  2 active torsions:
REMARK  status: ('A' for Active; 'I' for Inactive)
REMARK    1  A    between atoms: C1_1  and  O4_4 
REMARK    2  A    between atoms: C1_1  and  S5_5 
ROOT
HETATM    1  C1  UNL     1     -36.036  13.651  -4.902  1.00 20.00     0.337 C 
HETATM    2  O3  UNL     1     -35.831  12.555  -4.396  1.00 20.00    -0.251 OA
ENDROOT
BRANCH   1   3
HETATM    3  O4  UNL     1     -36.014  13.894  -6.249  1.00 20.00    -0.317 OA
HETATM    4  C2  UNL     1     -35.214  15.005  -6.669  1.00 20.00     0.214 C 
ENDBRANCH   1   3
BRANCH   1   5
HETATM    5  S5  UNL     1     -36.394  15.086  -3.930  1.00 20.00     0.050 SA
HETATM    6 CL6  UNL     1     -34.645  15.312  -2.917  1.00 20.00    -0.033 Cl
ENDBRANCH   1   5
TORSDOF 2
ENDMDL
MODEL 5
REMARK VINA RESULT:      -3.3     12.264     12.693
REMARK  2 active torsions:
REMARK  status: ('A' for Active; 'I' for Inactive)
REMARK    1  A    between atoms: C1_1  and  O4_4 
REMARK    2  A    between atoms: C1_1  and  S5_5 
ROOT
HETATM    1  C1  UNL     1     -34.368   4.885   4.265  1.00 20.00     0.337 C 
HETATM    2  O3  UNL     1     -34.345   3.717   3.897  1.00 20.00    -0.251 OA
ENDROOT
BRANCH   1   3
HETATM    3  O4  UNL     1     -34.070   5.952   3.462  1.00 20.00    -0.317 OA
HETATM    4  C2  UNL     1     -32.993   5.756   2.537  1.00 20.00     0.214 C 
ENDBRANCH   1   3
BRANCH   1   5
HETATM    5  S5  UNL     1     -34.800   5.343   5.919  1.00 20.00     0.050 SA
HETATM    6 CL6  UNL     1     -33.767   7.084   6.119  1.00 20.00    -0.033 Cl
ENDBRANCH   1   5
TORSDOF 2
ENDMDL
MODEL 6
REMARK VINA RESULT:      -3.1     11.849     12.227
REMARK  2 active torsions:
REMARK  status: ('A' for Active; 'I' for Inactive)
REMARK    1  A    between atoms: C1_1  and  O4_4 
REMARK    2  A    between atoms: C1_1  and  S5_5 
ROOT
HETATM    1  C1  UNL     1     -33.962   5.053   3.518  1.00 20.00     0.337 C 
HETATM    2  O3  UNL     1     -33.495   4.511   2.524  1.00 20.00    -0.251 OA
ENDROOT
BRANCH   1   3
HETATM    3  O4  UNL     1     -34.797   4.437   4.410  1.00 20.00    -0.317 OA
HETATM    4  C2  UNL     1     -34.865   5.028   5.713  1.00 20.00     0.214 C 
ENDBRANCH   1   3
BRANCH   1   5
HETATM    5  S5  UNL     1     -33.605   6.737   3.929  1.00 20.00     0.050 SA
HETATM    6 CL6  UNL     1     -32.423   7.274   2.363  1.00 20.00    -0.033 Cl
ENDBRANCH   1   5
TORSDOF 2
ENDMDL
MODEL 7
REMARK VINA RESULT:      -3.1     11.684     12.082
REMARK  2 active torsions:
REMARK  status: ('A' for Active; 'I' for Inactive)
REMARK    1  A    between atoms: C1_1  and  O4_4 
REMARK    2  A    between atoms: C1_1  and  S5_5 
ROOT
HETATM    1  C1  UNL     1     -33.518   6.327   3.826  1.00 20.00     0.337 C 
HETATM    2  O3  UNL     1     -33.159   7.156   4.654  1.00 20.00    -0.251 OA
ENDROOT
BRANCH   1   3
HETATM    3  O4  UNL     1     -32.987   6.212   2.570  1.00 20.00    -0.317 OA
HETATM    4  C2  UNL     1     -32.484   7.422   1.992  1.00 20.00     0.214 C 
ENDBRANCH   1   3
BRANCH   1   5
HETATM    5  S5  UNL     1     -34.798   5.152   4.163  1.00 20.00     0.050 SA
HETATM    6 CL6  UNL     1     -34.843   5.204   6.196  1.00 20.00    -0.033 Cl
ENDBRANCH   1   5
TORSDOF 2
ENDMDL
MODEL 8
REMARK VINA RESULT:      -3.1     12.032     12.353
REMARK  2 active torsions:
REMARK  status: ('A' for Active; 'I' for Inactive)
REMARK    1  A    between atoms: C1_1  and  O4_4 
REMARK    2  A    between atoms: C1_1  and  S5_5 
ROOT
HETATM    1  C1  UNL     1     -33.635   6.638   4.481  1.00 20.00     0.337 C 
HETATM    2  O3  UNL     1     -33.193   7.296   5.415  1.00 20.00    -0.251 OA
ENDROOT
BRANCH   1   3
HETATM    3  O4  UNL     1     -34.740   5.835   4.559  1.00 20.00    -0.317 OA
HETATM    4  C2  UNL     1     -34.883   5.087   5.772  1.00 20.00     0.214 C 
ENDBRANCH   1   3
BRANCH   1   5
HETATM    5  S5  UNL     1     -32.879   6.649   2.881  1.00 20.00     0.050 SA
HETATM    6 CL6  UNL     1     -33.104   4.702   2.335  1.00 20.00    -0.033 Cl
ENDBRANCH   1   5
TORSDOF 2
ENDMDL
MODEL 9
REMARK VINA RESULT:      -3.0     12.173     12.342
REMARK  2 active torsions:
REMARK  status: ('A' for Active; 'I' for Inactive)
REMARK    1  A    between atoms: C1_1  and  O4_4 
REMARK    2  A    between atoms: C1_1  and  S5_5 
ROOT
HETATM    1  C1  UNL     1     -33.343   6.531   3.915  1.00 20.00     0.337 C 
HETATM    2  O3  UNL     1     -32.479   7.193   3.353  1.00 20.00    -0.251 OA
ENDROOT
BRANCH   1   3
HETATM    3  O4  UNL     1     -34.018   5.492   3.334  1.00 20.00    -0.317 OA
HETATM    4  C2  UNL     1     -33.258   4.680   2.432  1.00 20.00     0.214 C 
ENDBRANCH   1   3
BRANCH   1   5
HETATM    5  S5  UNL     1     -33.833   6.848   5.586  1.00 20.00     0.050 SA
HETATM    6 CL6  UNL     1     -34.863   5.147   6.015  1.00 20.00    -0.033 Cl
ENDBRANCH   1   5
TORSDOF 2
ENDMDL
