MODEL 1
REMARK VINA RESULT:      -4.5      0.000      0.000
REMARK  2 active torsions:
REMARK  status: ('A' for Active; 'I' for Inactive)
REMARK    1  A    between atoms: C7_7  and  O10_10 
REMARK    2  A    between atoms: C9_9  and  O10_10 
ROOT
HETATM    1  C1  UNL     1     -25.459  18.599  10.930  1.00 20.00     0.000 C 
HETATM    2  C2  UNL     1     -24.254  18.285  11.663  1.00 20.00     0.022 C 
HETATM    3  C3  UNL     1     -25.413  18.938   9.634  1.00 20.00     0.008 C 
HETATM    4  C4  UNL     1     -23.102  18.057  11.016  1.00 20.00     0.048 C 
HETATM    5  C7  UNL     1     -24.107  18.992   8.883  1.00 20.00     0.184 C 
HETATM    6  C8  UNL     1     -23.004  18.120   9.517  1.00 20.00     0.247 C 
HETATM    7  F11 UNL     1     -23.115  16.852   9.020  1.00 20.00    -0.240 F 
HETATM    8 CL12 UNL     1     -21.661  17.654  11.869  1.00 20.00    -0.086 Cl
ENDROOT
BRANCH   5   9
HETATM    9  O10 UNL     1     -24.297  18.578   7.533  1.00 20.00    -0.373 OA
BRANCH   9  10
HETATM   10  C9  UNL     1     -25.384  19.263   6.932  1.00 20.00     0.122 A 
HETATM   11  C5  UNL     1     -25.423  19.256   5.430  1.00 20.00     0.034 A 
HETATM   12  C6  UNL     1     -26.386  18.408   6.210  1.00 20.00     0.034 A 
ENDBRANCH   9  10
ENDBRANCH   5   9
TORSDOF 2
ENDMDL
MODEL 2
REMARK VINA RESULT:      -4.4     22.983     24.619
REMARK  2 active torsions:
REMARK  status: ('A' for Active; 'I' for Inactive)
REMARK    1  A    between atoms: C7_7  and  O10_10 
REMARK    2  A    between atoms: C9_9  and  O10_10 
ROOT
HETATM    1  C1  UNL     1     -43.355   5.662   1.154  1.00 20.00     0.000 C 
HETATM    2  C2  UNL     1     -42.816   7.001   1.105  1.00 20.00     0.022 C 
HETATM    3  C3  UNL     1     -43.349   4.872   0.070  1.00 20.00     0.008 C 
HETATM    4  C4  UNL     1     -42.054   7.392   0.073  1.00 20.00     0.048 C 
HETATM    5  C7  UNL     1     -42.766   5.341  -1.238  1.00 20.00     0.184 C 
HETATM    6  C8  UNL     1     -41.732   6.474  -1.073  1.00 20.00     0.247 C 
HETATM    7  F11 UNL     1     -40.506   5.912  -0.849  1.00 20.00    -0.240 F 
HETATM    8 CL12 UNL     1     -41.378   8.975   0.009  1.00 20.00    -0.086 Cl
ENDROOT
BRANCH   5   9
HETATM    9  O10 UNL     1     -42.146   4.254  -1.919  1.00 20.00    -0.373 OA
BRANCH   9  10
HETATM   10  C9  UNL     1     -43.027   3.668  -2.865  1.00 20.00     0.122 A 
HETATM   11  C5  UNL     1     -42.438   2.611  -3.755  1.00 20.00     0.034 A 
HETATM   12  C6  UNL     1     -43.369   2.223  -2.643  1.00 20.00     0.034 A 
ENDBRANCH   9  10
ENDBRANCH   5   9
TORSDOF 2
ENDMDL
MODEL 3
REMARK VINA RESULT:      -4.3     15.212     16.380
REMARK  2 active torsions:
REMARK  status: ('A' for Active; 'I' for Inactive)
REMARK    1  A    between atoms: C7_7  and  O10_10 
REMARK    2  A    between atoms: C9_9  and  O10_10 
ROOT
HETATM    1  C1  UNL     1     -33.460   4.168   2.861  1.00 20.00     0.000 C 
HETATM    2  C2  UNL     1     -34.140   4.316   4.127  1.00 20.00     0.022 C 
HETATM    3  C3  UNL     1     -33.209   5.228   2.080  1.00 20.00     0.008 C 
HETATM    4  C4  UNL     1     -34.291   5.528   4.682  1.00 20.00     0.048 C 
HETATM    5  C7  UNL     1     -33.610   6.621   2.496  1.00 20.00     0.184 C 
HETATM    6  C8  UNL     1     -33.774   6.777   4.022  1.00 20.00     0.247 C 
HETATM    7  F11 UNL     1     -32.556   7.081   4.560  1.00 20.00    -0.240 F 
HETATM    8 CL12 UNL     1     -35.073   5.725   6.204  1.00 20.00    -0.086 Cl
ENDROOT
BRANCH   5   9
HETATM    9  O10 UNL     1     -32.647   7.567   2.042  1.00 20.00    -0.373 OA
BRANCH   9  10
HETATM   10  C9  UNL     1     -33.261   8.620   1.316  1.00 20.00     0.122 A 
HETATM   11  C5  UNL     1     -32.362   9.415   0.413  1.00 20.00     0.034 A 
HETATM   12  C6  UNL     1     -33.340   8.438  -0.172  1.00 20.00     0.034 A 
ENDBRANCH   9  10
ENDBRANCH   5   9
TORSDOF 2
ENDMDL
MODEL 4
REMARK VINA RESULT:      -4.2     14.162     15.715
REMARK  2 active torsions:
REMARK  status: ('A' for Active; 'I' for Inactive)
REMARK    1  A    between atoms: C7_7  and  O10_10 
REMARK    2  A    between atoms: C9_9  and  O10_10 
ROOT
HETATM    1  C1  UNL     1     -35.315  17.007  -0.796  1.00 20.00     0.000 C 
HETATM    2  C2  UNL     1     -34.071  17.687  -0.520  1.00 20.00     0.022 C 
HETATM    3  C3  UNL     1     -35.684  16.719  -2.053  1.00 20.00     0.008 C 
HETATM    4  C4  UNL     1     -33.132  17.803  -1.470  1.00 20.00     0.048 C 
HETATM    5  C7  UNL     1     -34.811  17.078  -3.227  1.00 20.00     0.184 C 
HETATM    6  C8  UNL     1     -33.324  17.244  -2.853  1.00 20.00     0.247 C 
HETATM    7  F11 UNL     1     -32.721  16.019  -2.915  1.00 20.00    -0.240 F 
HETATM    8 CL12 UNL     1     -31.630  18.585  -1.153  1.00 20.00    -0.086 Cl
ENDROOT
BRANCH   5   9
HETATM    9  O10 UNL     1     -34.917  16.083  -4.242  1.00 20.00    -0.373 OA
BRANCH   9  10
HETATM   10  C9  UNL     1     -35.676  14.971  -3.797  1.00 20.00     0.122 A 
HETATM   11  C5  UNL     1     -36.168  14.034  -4.863  1.00 20.00     0.034 A 
HETATM   12  C6  UNL     1     -35.036  13.623  -3.967  1.00 20.00     0.034 A 
ENDBRANCH   9  10
ENDBRANCH   5   9
TORSDOF 2
ENDMDL
MODEL 5
REMARK VINA RESULT:      -4.1     14.863     16.424
REMARK  2 active torsions:
REMARK  status: ('A' for Active; 'I' for Inactive)
REMARK    1  A    between atoms: C7_7  and  O10_10 
REMARK    2  A    between atoms: C9_9  and  O10_10 
ROOT
HETATM    1  C1  UNL     1     -32.793  17.216  -2.545  1.00 20.00     0.000 C 
HETATM    2  C2  UNL     1     -33.599  17.529  -1.387  1.00 20.00     0.022 C 
HETATM    3  C3  UNL     1     -33.106  16.191  -3.351  1.00 20.00     0.008 C 
HETATM    4  C4  UNL     1     -34.818  16.990  -1.240  1.00 20.00     0.048 C 
HETATM    5  C7  UNL     1     -34.318  15.334  -3.094  1.00 20.00     0.184 C 
HETATM    6  C8  UNL     1     -35.399  16.043  -2.253  1.00 20.00     0.247 C 
HETATM    7  F11 UNL     1     -36.209  16.750  -3.096  1.00 20.00    -0.240 F 
HETATM    8 CL12 UNL     1     -35.807  17.371   0.118  1.00 20.00    -0.086 Cl
ENDROOT
BRANCH   5   9
HETATM    9  O10 UNL     1     -34.899  14.920  -4.327  1.00 20.00    -0.373 OA
BRANCH   9  10
HETATM   10  C9  UNL     1     -34.306  15.591  -5.428  1.00 20.00     0.122 A 
HETATM   11  C5  UNL     1     -34.695  15.099  -6.793  1.00 20.00     0.034 A 
HETATM   12  C6  UNL     1     -35.235  16.404  -6.284  1.00 20.00     0.034 A 
ENDBRANCH   9  10
ENDBRANCH   5   9
TORSDOF 2
ENDMDL
MODEL 6
REMARK VINA RESULT:      -4.1     15.696     17.704
REMARK  2 active torsions:
REMARK  status: ('A' for Active; 'I' for Inactive)
REMARK    1  A    between atoms: C7_7  and  O10_10 
REMARK    2  A    between atoms: C9_9  and  O10_10 
ROOT
HETATM    1  C1  UNL     1     -36.357  14.152  -4.845  1.00 20.00     0.000 C 
HETATM    2  C2  UNL     1     -35.748  14.329  -6.143  1.00 20.00     0.022 C 
HETATM    3  C3  UNL     1     -35.677  14.413  -3.719  1.00 20.00     0.008 C 
HETATM    4  C4  UNL     1     -34.600  15.011  -6.271  1.00 20.00     0.048 C 
HETATM    5  C7  UNL     1     -34.257  14.916  -3.759  1.00 20.00     0.184 C 
HETATM    6  C8  UNL     1     -33.895  15.613  -5.087  1.00 20.00     0.247 C 
HETATM    7  F11 UNL     1     -34.247  16.930  -4.995  1.00 20.00    -0.240 F 
HETATM    8 CL12 UNL     1     -33.871  15.257  -7.812  1.00 20.00    -0.086 Cl
ENDROOT
BRANCH   5   9
HETATM    9  O10 UNL     1     -34.027  15.827  -2.688  1.00 20.00    -0.373 OA
BRANCH   9  10
HETATM   10  C9  UNL     1     -35.230  16.127  -1.998  1.00 20.00     0.122 A 
HETATM   11  C5  UNL     1     -35.091  16.958  -0.755  1.00 20.00     0.034 A 
HETATM   12  C6  UNL     1     -35.654  17.567  -2.006  1.00 20.00     0.034 A 
ENDBRANCH   9  10
ENDBRANCH   5   9
TORSDOF 2
ENDMDL
MODEL 7
REMARK VINA RESULT:      -4.1     14.241     15.926
REMARK  2 active torsions:
REMARK  status: ('A' for Active; 'I' for Inactive)
REMARK    1  A    between atoms: C7_7  and  O10_10 
REMARK    2  A    between atoms: C9_9  and  O10_10 
ROOT
HETATM    1  C1  UNL     1     -32.836  17.515  -2.401  1.00 20.00     0.000 C 
HETATM    2  C2  UNL     1     -33.171  18.013  -1.087  1.00 20.00     0.022 C 
HETATM    3  C3  UNL     1     -33.531  16.515  -2.962  1.00 20.00     0.008 C 
HETATM    4  C4  UNL     1     -34.339  17.688  -0.512  1.00 20.00     0.048 C 
HETATM    5  C7  UNL     1     -34.700  15.880  -2.254  1.00 20.00     0.184 C 
HETATM    6  C8  UNL     1     -35.341  16.797  -1.193  1.00 20.00     0.247 C 
HETATM    7  F11 UNL     1     -36.275  17.583  -1.806  1.00 20.00    -0.240 F 
HETATM    8 CL12 UNL     1     -34.771  18.294   1.041  1.00 20.00    -0.086 Cl
ENDROOT
BRANCH   5   9
HETATM    9  O10 UNL     1     -35.700  15.503  -3.196  1.00 20.00    -0.373 OA
BRANCH   9  10
HETATM   10  C9  UNL     1     -35.257  14.437  -4.021  1.00 20.00     0.122 A 
HETATM   11  C5  UNL     1     -36.330  13.605  -4.662  1.00 20.00     0.034 A 
HETATM   12  C6  UNL     1     -35.539  14.576  -5.489  1.00 20.00     0.034 A 
ENDBRANCH   9  10
ENDBRANCH   5   9
TORSDOF 2
ENDMDL
MODEL 8
REMARK VINA RESULT:      -4.1     14.618     16.269
REMARK  2 active torsions:
REMARK  status: ('A' for Active; 'I' for Inactive)
REMARK    1  A    between atoms: C7_7  and  O10_10 
REMARK    2  A    between atoms: C9_9  and  O10_10 
ROOT
HETATM    1  C1  UNL     1     -35.278  16.578  -1.352  1.00 20.00     0.000 C 
HETATM    2  C2  UNL     1     -34.168  17.470  -1.104  1.00 20.00     0.022 C 
HETATM    3  C3  UNL     1     -35.545  16.131  -2.587  1.00 20.00     0.008 C 
HETATM    4  C4  UNL     1     -33.221  17.654  -2.035  1.00 20.00     0.048 C 
HETATM    5  C7  UNL     1     -34.692  16.524  -3.765  1.00 20.00     0.184 C 
HETATM    6  C8  UNL     1     -33.266  16.958  -3.368  1.00 20.00     0.247 C 
HETATM    7  F11 UNL     1     -32.477  15.844  -3.303  1.00 20.00    -0.240 F 
HETATM    8 CL12 UNL     1     -31.875  18.691  -1.750  1.00 20.00    -0.086 Cl
ENDROOT
BRANCH   5   9
HETATM    9  O10 UNL     1     -34.599  15.444  -4.689  1.00 20.00    -0.373 OA
BRANCH   9  10
HETATM   10  C9  UNL     1     -34.777  15.891  -6.024  1.00 20.00     0.122 A 
HETATM   11  C5  UNL     1     -34.011  15.146  -7.080  1.00 20.00     0.034 A 
HETATM   12  C6  UNL     1     -35.493  14.947  -6.948  1.00 20.00     0.034 A 
ENDBRANCH   9  10
ENDBRANCH   5   9
TORSDOF 2
ENDMDL
MODEL 9
REMARK VINA RESULT:      -4.0     13.807     16.199
REMARK  2 active torsions:
REMARK  status: ('A' for Active; 'I' for Inactive)
REMARK    1  A    between atoms: C7_7  and  O10_10 
REMARK    2  A    between atoms: C9_9  and  O10_10 
ROOT
HETATM    1  C1  UNL     1     -33.783  14.441  -4.555  1.00 20.00     0.000 C 
HETATM    2  C2  UNL     1     -35.210  14.645  -4.648  1.00 20.00     0.022 C 
HETATM    3  C3  UNL     1     -32.999  15.309  -3.899  1.00 20.00     0.008 C 
HETATM    4  C4  UNL     1     -35.823  15.542  -3.861  1.00 20.00     0.048 C 
HETATM    5  C7  UNL     1     -33.574  16.524  -3.217  1.00 20.00     0.184 C 
HETATM    6  C8  UNL     1     -35.067  16.373  -2.861  1.00 20.00     0.247 C 
HETATM    7  F11 UNL     1     -35.161  15.772  -1.637  1.00 20.00    -0.240 F 
HETATM    8 CL12 UNL     1     -37.527  15.781  -3.935  1.00 20.00    -0.086 Cl
ENDROOT
BRANCH   5   9
HETATM    9  O10 UNL     1     -32.847  16.811  -2.026  1.00 20.00    -0.373 OA
BRANCH   9  10
HETATM   10  C9  UNL     1     -32.837  18.203  -1.752  1.00 20.00     0.122 A 
HETATM   11  C5  UNL     1     -33.123  18.601  -0.332  1.00 20.00     0.034 A 
HETATM   12  C6  UNL     1     -31.724  18.694  -0.870  1.00 20.00     0.034 A 
ENDBRANCH   9  10
ENDBRANCH   5   9
TORSDOF 2
ENDMDL
