MODEL 1
REMARK VINA RESULT:      -5.0      0.000      0.000
REMARK  1 active torsions:
REMARK  status: ('A' for Active; 'I' for Inactive)
REMARK    1  A    between atoms: C5_5  and  C7_7 
ROOT
HETATM    1  C1  UNL     1     -33.025   7.376   3.937  1.00 20.00     0.071 A 
HETATM    2  C2  UNL     1     -34.119   4.916   3.493  1.00 20.00     0.126 A 
HETATM    3  C3  UNL     1     -34.313   5.507   4.732  1.00 20.00    -0.006 A 
HETATM    4  C4  UNL     1     -33.752   6.760   4.950  1.00 20.00     0.125 A 
HETATM    5  C5  UNL     1     -32.889   6.702   2.734  1.00 20.00     0.051 A 
HETATM    6  C6  UNL     1     -35.096   4.819   5.793  1.00 20.00     0.053 C 
HETATM    7  N8  UNL     1     -33.419   5.484   2.486  1.00 20.00    -0.264 NA
HETATM    8  F9  UNL     1     -33.907   7.380   6.128  1.00 20.00    -0.205 F 
ENDROOT
BRANCH   5   9
HETATM    9  C7  UNL     1     -32.115   7.334   1.626  1.00 20.00     0.173 C 
HETATM   10 CL10 UNL     1     -32.981   8.746   0.982  1.00 20.00    -0.124 Cl
ENDBRANCH   5   9
TORSDOF 1
ENDMDL
MODEL 2
REMARK VINA RESULT:      -4.9      1.688      2.090
REMARK  1 active torsions:
REMARK  status: ('A' for Active; 'I' for Inactive)
REMARK    1  A    between atoms: C5_5  and  C7_7 
ROOT
HETATM    1  C1  UNL     1     -33.351   5.436   2.572  1.00 20.00     0.071 A 
HETATM    2  C2  UNL     1     -33.662   6.972   4.805  1.00 20.00     0.126 A 
HETATM    3  C3  UNL     1     -34.161   5.680   4.823  1.00 20.00    -0.006 A 
HETATM    4  C4  UNL     1     -33.999   4.903   3.681  1.00 20.00     0.125 A 
HETATM    5  C5  UNL     1     -32.887   6.738   2.655  1.00 20.00     0.051 A 
HETATM    6  C6  UNL     1     -34.850   5.143   6.027  1.00 20.00     0.053 C 
HETATM    7  N8  UNL     1     -33.026   7.523   3.747  1.00 20.00    -0.264 NA
HETATM    8  F9  UNL     1     -34.462   3.646   3.641  1.00 20.00    -0.205 F 
ENDROOT
BRANCH   5   9
HETATM    9  C7  UNL     1     -32.187   7.341   1.483  1.00 20.00     0.173 C 
HETATM   10 CL10 UNL     1     -32.978   8.855   0.990  1.00 20.00    -0.124 Cl
ENDBRANCH   5   9
TORSDOF 1
ENDMDL
MODEL 3
REMARK VINA RESULT:      -4.4      9.773     10.272
REMARK  1 active torsions:
REMARK  status: ('A' for Active; 'I' for Inactive)
REMARK    1  A    between atoms: C5_5  and  C7_7 
ROOT
HETATM    1  C1  UNL     1     -41.861   5.630  -0.457  1.00 20.00     0.071 A 
HETATM    2  C2  UNL     1     -42.929   7.996  -1.298  1.00 20.00     0.126 A 
HETATM    3  C3  UNL     1     -41.923   8.032  -0.346  1.00 20.00    -0.006 A 
HETATM    4  C4  UNL     1     -41.384   6.821   0.078  1.00 20.00     0.125 A 
HETATM    5  C5  UNL     1     -42.870   5.702  -1.404  1.00 20.00     0.051 A 
HETATM    6  C6  UNL     1     -41.436   9.325   0.206  1.00 20.00     0.053 C 
HETATM    7  N8  UNL     1     -43.417   6.858  -1.840  1.00 20.00    -0.264 NA
HETATM    8  F9  UNL     1     -40.409   6.795   0.997  1.00 20.00    -0.205 F 
ENDROOT
BRANCH   5   9
HETATM    9  C7  UNL     1     -43.405   4.442  -1.999  1.00 20.00     0.173 C 
HETATM   10 CL10 UNL     1     -42.096   3.489  -2.733  1.00 20.00    -0.124 Cl
ENDBRANCH   5   9
TORSDOF 1
ENDMDL
MODEL 4
REMARK VINA RESULT:      -4.3     16.490     16.925
REMARK  1 active torsions:
REMARK  status: ('A' for Active; 'I' for Inactive)
REMARK    1  A    between atoms: C5_5  and  C7_7 
ROOT
HETATM    1  C1  UNL     1     -22.856  17.671   9.570  1.00 20.00     0.071 A 
HETATM    2  C2  UNL     1     -25.136  19.103   9.131  1.00 20.00     0.126 A 
HETATM    3  C3  UNL     1     -24.327  18.809   8.046  1.00 20.00    -0.006 A 
HETATM    4  C4  UNL     1     -23.167  18.078   8.278  1.00 20.00     0.125 A 
HETATM    5  C5  UNL     1     -23.730  18.016  10.588  1.00 20.00     0.051 A 
HETATM    6  C6  UNL     1     -24.690  19.261   6.676  1.00 20.00     0.053 C 
HETATM    7  N8  UNL     1     -24.866  18.724  10.400  1.00 20.00    -0.264 NA
HETATM    8  F9  UNL     1     -22.346  17.764   7.266  1.00 20.00    -0.205 F 
ENDROOT
BRANCH   5   9
HETATM    9  C7  UNL     1     -23.427  17.595  11.987  1.00 20.00     0.173 C 
HETATM   10 CL10 UNL     1     -21.691  17.764  12.330  1.00 20.00    -0.124 Cl
ENDBRANCH   5   9
TORSDOF 1
ENDMDL
MODEL 5
REMARK VINA RESULT:      -4.1     11.558     12.084
REMARK  1 active torsions:
REMARK  status: ('A' for Active; 'I' for Inactive)
REMARK    1  A    between atoms: C5_5  and  C7_7 
ROOT
HETATM    1  C1  UNL     1     -32.858  16.682  -2.776  1.00 20.00     0.071 A 
HETATM    2  C2  UNL     1     -35.423  15.861  -2.336  1.00 20.00     0.126 A 
HETATM    3  C3  UNL     1     -34.675  15.192  -3.291  1.00 20.00    -0.006 A 
HETATM    4  C4  UNL     1     -33.368  15.616  -3.509  1.00 20.00     0.125 A 
HETATM    5  C5  UNL     1     -33.688  17.284  -1.844  1.00 20.00     0.051 A 
HETATM    6  C6  UNL     1     -35.252  14.056  -4.058  1.00 20.00     0.053 C 
HETATM    7  N8  UNL     1     -34.962  16.900  -1.605  1.00 20.00    -0.264 NA
HETATM    8  F9  UNL     1     -32.597  15.007  -4.420  1.00 20.00    -0.205 F 
ENDROOT
BRANCH   5   9
HETATM    9  C7  UNL     1     -33.172  18.431  -1.039  1.00 20.00     0.173 C 
HETATM   10 CL10 UNL     1     -31.418  18.285  -0.794  1.00 20.00    -0.124 Cl
ENDBRANCH   5   9
TORSDOF 1
ENDMDL
MODEL 6
REMARK VINA RESULT:      -4.1     11.597     11.996
REMARK  1 active torsions:
REMARK  status: ('A' for Active; 'I' for Inactive)
REMARK    1  A    between atoms: C5_5  and  C7_7 
ROOT
HETATM    1  C1  UNL     1     -32.954  16.465  -3.038  1.00 20.00     0.071 A 
HETATM    2  C2  UNL     1     -35.126  16.639  -1.396  1.00 20.00     0.126 A 
HETATM    3  C3  UNL     1     -34.065  17.502  -1.174  1.00 20.00    -0.006 A 
HETATM    4  C4  UNL     1     -32.961  17.407  -2.015  1.00 20.00     0.125 A 
HETATM    5  C5  UNL     1     -34.065  15.649  -3.177  1.00 20.00     0.051 A 
HETATM    6  C6  UNL     1     -34.106  18.498  -0.070  1.00 20.00     0.053 C 
HETATM    7  N8  UNL     1     -35.154  15.712  -2.379  1.00 20.00    -0.264 NA
HETATM    8  F9  UNL     1     -31.906  18.216  -1.848  1.00 20.00    -0.205 F 
ENDROOT
BRANCH   5   9
HETATM    9  C7  UNL     1     -34.090  14.627  -4.264  1.00 20.00     0.173 C 
HETATM   10 CL10 UNL     1     -35.567  13.643  -4.166  1.00 20.00    -0.124 Cl
ENDBRANCH   5   9
TORSDOF 1
ENDMDL
MODEL 7
REMARK VINA RESULT:      -4.0     11.393     11.912
REMARK  1 active torsions:
REMARK  status: ('A' for Active; 'I' for Inactive)
REMARK    1  A    between atoms: C5_5  and  C7_7 
ROOT
HETATM    1  C1  UNL     1     -35.040  15.802  -2.293  1.00 20.00     0.071 A 
HETATM    2  C2  UNL     1     -32.831  17.402  -2.241  1.00 20.00     0.126 A 
HETATM    3  C3  UNL     1     -33.823  17.622  -1.298  1.00 20.00    -0.006 A 
HETATM    4  C4  UNL     1     -34.946  16.802  -1.331  1.00 20.00     0.125 A 
HETATM    5  C5  UNL     1     -33.994  15.663  -3.190  1.00 20.00     0.051 A 
HETATM    6  C6  UNL     1     -33.689  18.702  -0.284  1.00 20.00     0.053 C 
HETATM    7  N8  UNL     1     -32.889  16.441  -3.189  1.00 20.00    -0.264 NA
HETATM    8  F9  UNL     1     -35.936  16.968  -0.444  1.00 20.00    -0.205 F 
ENDROOT
BRANCH   5   9
HETATM    9  C7  UNL     1     -34.064  14.600  -4.235  1.00 20.00     0.173 C 
HETATM   10 CL10 UNL     1     -35.626  13.754  -4.166  1.00 20.00    -0.124 Cl
ENDBRANCH   5   9
TORSDOF 1
ENDMDL
MODEL 8
REMARK VINA RESULT:      -4.0     11.461     11.906
REMARK  1 active torsions:
REMARK  status: ('A' for Active; 'I' for Inactive)
REMARK    1  A    between atoms: C5_5  and  C7_7 
ROOT
HETATM    1  C1  UNL     1     -35.498  15.489  -2.563  1.00 20.00     0.071 A 
HETATM    2  C2  UNL     1     -33.030  16.131  -3.535  1.00 20.00     0.126 A 
HETATM    3  C3  UNL     1     -33.459  16.750  -2.371  1.00 20.00    -0.006 A 
HETATM    4  C4  UNL     1     -34.717  16.417  -1.883  1.00 20.00     0.125 A 
HETATM    5  C5  UNL     1     -34.978  14.926  -3.718  1.00 20.00     0.051 A 
HETATM    6  C6  UNL     1     -32.598  17.739  -1.669  1.00 20.00     0.053 C 
HETATM    7  N8  UNL     1     -33.760  15.225  -4.223  1.00 20.00    -0.264 NA
HETATM    8  F9  UNL     1     -35.184  16.983  -0.761  1.00 20.00    -0.205 F 
ENDROOT
BRANCH   5   9
HETATM    9  C7  UNL     1     -35.789  13.927  -4.473  1.00 20.00     0.173 C 
HETATM   10 CL10 UNL     1     -35.797  14.309  -6.209  1.00 20.00    -0.124 Cl
ENDBRANCH   5   9
TORSDOF 1
ENDMDL
MODEL 9
REMARK VINA RESULT:      -4.0     16.429     16.862
REMARK  1 active torsions:
REMARK  status: ('A' for Active; 'I' for Inactive)
REMARK    1  A    between atoms: C5_5  and  C7_7 
ROOT
HETATM    1  C1  UNL     1     -24.631  18.141  11.733  1.00 20.00     0.071 A 
HETATM    2  C2  UNL     1     -24.307  19.037   9.176  1.00 20.00     0.126 A 
HETATM    3  C3  UNL     1     -23.247  18.380   9.781  1.00 20.00    -0.006 A 
HETATM    4  C4  UNL     1     -23.420  17.927  11.084  1.00 20.00     0.125 A 
HETATM    5  C5  UNL     1     -25.629  18.808  11.040  1.00 20.00     0.051 A 
HETATM    6  C6  UNL     1     -21.965  18.168   9.057  1.00 20.00     0.053 C 
HETATM    7  N8  UNL     1     -25.497  19.263   9.774  1.00 20.00    -0.264 NA
HETATM    8  F9  UNL     1     -22.430  17.285  11.719  1.00 20.00    -0.205 F 
ENDROOT
BRANCH   5   9
HETATM    9  C7  UNL     1     -26.941  19.055  11.707  1.00 20.00     0.173 C 
HETATM   10 CL10 UNL     1     -28.231  19.251  10.499  1.00 20.00    -0.124 Cl
ENDBRANCH   5   9
TORSDOF 1
ENDMDL
