MODEL 1
REMARK VINA RESULT:      -5.4      0.000      0.000
REMARK  0 active torsions:
REMARK  status: ('A' for Active; 'I' for Inactive)
ROOT
HETATM    1  C1  UNL     1     -34.908   5.511   5.820  1.00 20.00     0.124 C 
HETATM    2  C2  UNL     1     -33.773   6.399   4.147  1.00 20.00     0.044 C 
HETATM    3  C3  UNL     1     -33.053   6.328   2.856  1.00 20.00     0.057 C 
HETATM    4  C4  UNL     1     -33.425   4.891   2.446  1.00 20.00     0.007 C 
HETATM    5  C5  UNL     1     -34.052   4.222   3.690  1.00 20.00     0.016 C 
HETATM    6  C6  UNL     1     -34.800   5.357   4.348  1.00 20.00     0.077 C 
HETATM    7  N7  UNL     1     -34.261   6.538   6.275  1.00 20.00    -0.166 NA
HETATM    8  N8  UNL     1     -33.518   7.120   5.188  1.00 20.00    -0.159 NA
ENDROOT
TORSDOF 0
ENDMDL
MODEL 2
REMARK VINA RESULT:      -5.4      1.951      3.169
REMARK  0 active torsions:
REMARK  status: ('A' for Active; 'I' for Inactive)
ROOT
HETATM    1  C1  UNL     1     -32.748   7.092   3.318  1.00 20.00     0.124 C 
HETATM    2  C2  UNL     1     -34.171   5.480   3.823  1.00 20.00     0.044 C 
HETATM    3  C3  UNL     1     -34.991   4.693   4.771  1.00 20.00     0.057 C 
HETATM    4  C4  UNL     1     -34.833   5.575   6.023  1.00 20.00     0.007 C 
HETATM    5  C5  UNL     1     -33.702   6.582   5.718  1.00 20.00     0.016 C 
HETATM    6  C6  UNL     1     -33.884   6.866   4.246  1.00 20.00     0.077 C 
HETATM    7  N7  UNL     1     -32.602   6.141   2.449  1.00 20.00    -0.166 NA
HETATM    8  N8  UNL     1     -33.526   5.087   2.775  1.00 20.00    -0.159 NA
ENDROOT
TORSDOF 0
ENDMDL
MODEL 3
REMARK VINA RESULT:      -4.5     16.756     17.104
REMARK  0 active torsions:
REMARK  status: ('A' for Active; 'I' for Inactive)
ROOT
HETATM    1  C1  UNL     1     -21.637  17.341   8.221  1.00 20.00     0.124 C 
HETATM    2  C2  UNL     1     -23.517  18.467   8.488  1.00 20.00     0.044 C 
HETATM    3  C3  UNL     1     -24.770  18.792   9.206  1.00 20.00     0.057 C 
HETATM    4  C4  UNL     1     -24.530  17.988  10.497  1.00 20.00     0.007 C 
HETATM    5  C5  UNL     1     -23.319  17.068  10.228  1.00 20.00     0.016 C 
HETATM    6  C6  UNL     1     -22.441  17.909   9.332  1.00 20.00     0.077 C 
HETATM    7  N7  UNL     1     -22.059  17.700   7.050  1.00 20.00    -0.166 NA
HETATM    8  N8  UNL     1     -23.286  18.434   7.218  1.00 20.00    -0.159 NA
ENDROOT
TORSDOF 0
ENDMDL
MODEL 4
REMARK VINA RESULT:      -4.4     12.391     12.827
REMARK  0 active torsions:
REMARK  status: ('A' for Active; 'I' for Inactive)
ROOT
HETATM    1  C1  UNL     1     -36.393  13.966  -4.824  1.00 20.00     0.124 C 
HETATM    2  C2  UNL     1     -34.312  14.678  -4.625  1.00 20.00     0.044 C 
HETATM    3  C3  UNL     1     -33.243  15.465  -3.971  1.00 20.00     0.057 C 
HETATM    4  C4  UNL     1     -33.999  15.895  -2.699  1.00 20.00     0.007 C 
HETATM    5  C5  UNL     1     -35.488  15.556  -2.931  1.00 20.00     0.016 C 
HETATM    6  C6  UNL     1     -35.428  14.284  -3.741  1.00 20.00     0.077 C 
HETATM    7  N7  UNL     1     -35.857  13.972  -6.004  1.00 20.00    -0.166 NA
HETATM    8  N8  UNL     1     -34.500  14.436  -5.880  1.00 20.00    -0.159 NA
ENDROOT
TORSDOF 0
ENDMDL
MODEL 5
REMARK VINA RESULT:      -4.4     11.901     12.544
REMARK  0 active torsions:
REMARK  status: ('A' for Active; 'I' for Inactive)
ROOT
HETATM    1  C1  UNL     1     -37.203  14.799  -4.065  1.00 20.00     0.124 C 
HETATM    2  C2  UNL     1     -35.157  13.969  -4.059  1.00 20.00     0.044 C 
HETATM    3  C3  UNL     1     -33.683  14.091  -4.106  1.00 20.00     0.057 C 
HETATM    4  C4  UNL     1     -33.558  15.618  -3.954  1.00 20.00     0.007 C 
HETATM    5  C5  UNL     1     -34.976  16.201  -4.145  1.00 20.00     0.016 C 
HETATM    6  C6  UNL     1     -35.865  15.150  -3.526  1.00 20.00     0.077 C 
HETATM    7  N7  UNL     1     -37.252  13.608  -4.573  1.00 20.00    -0.166 NA
HETATM    8  N8  UNL     1     -35.920  13.062  -4.573  1.00 20.00    -0.159 NA
ENDROOT
TORSDOF 0
ENDMDL
MODEL 6
REMARK VINA RESULT:      -4.2     11.582     12.666
REMARK  0 active torsions:
REMARK  status: ('A' for Active; 'I' for Inactive)
ROOT
HETATM    1  C1  UNL     1     -34.964  13.408  -4.060  1.00 20.00     0.124 C 
HETATM    2  C2  UNL     1     -36.550  14.943  -4.145  1.00 20.00     0.044 C 
HETATM    3  C3  UNL     1     -37.187  16.208  -3.716  1.00 20.00     0.057 C 
HETATM    4  C4  UNL     1     -36.050  16.772  -2.843  1.00 20.00     0.007 C 
HETATM    5  C5  UNL     1     -35.035  15.624  -2.640  1.00 20.00     0.016 C 
HETATM    6  C6  UNL     1     -35.087  14.884  -3.955  1.00 20.00     0.077 C 
HETATM    7  N7  UNL     1     -36.061  12.831  -4.438  1.00 20.00    -0.166 NA
HETATM    8  N8  UNL     1     -37.099  13.827  -4.494  1.00 20.00    -0.159 NA
ENDROOT
TORSDOF 0
ENDMDL
MODEL 7
REMARK VINA RESULT:      -4.2      9.092      9.588
REMARK  0 active torsions:
REMARK  status: ('A' for Active; 'I' for Inactive)
ROOT
HETATM    1  C1  UNL     1     -41.193   8.919   0.011  1.00 20.00     0.124 C 
HETATM    2  C2  UNL     1     -42.795   7.632   0.819  1.00 20.00     0.044 C 
HETATM    3  C3  UNL     1     -43.417   6.319   1.101  1.00 20.00     0.057 C 
HETATM    4  C4  UNL     1     -42.235   5.403   0.733  1.00 20.00     0.007 C 
HETATM    5  C5  UNL     1     -41.199   6.286   0.002  1.00 20.00     0.016 C 
HETATM    6  C6  UNL     1     -41.323   7.615   0.709  1.00 20.00     0.077 C 
HETATM    7  N7  UNL     1     -42.305   9.582  -0.042  1.00 20.00    -0.166 NA
HETATM    8  N8  UNL     1     -43.354   8.747   0.483  1.00 20.00    -0.159 NA
ENDROOT
TORSDOF 0
ENDMDL
MODEL 8
REMARK VINA RESULT:      -4.1      1.317      1.992
REMARK  0 active torsions:
REMARK  status: ('A' for Active; 'I' for Inactive)
ROOT
HETATM    1  C1  UNL     1     -34.402   6.292   5.823  1.00 20.00     0.124 C 
HETATM    2  C2  UNL     1     -33.950   5.144   3.992  1.00 20.00     0.044 C 
HETATM    3  C3  UNL     1     -33.467   5.019   2.599  1.00 20.00     0.057 C 
HETATM    4  C4  UNL     1     -32.856   6.422   2.423  1.00 20.00     0.007 C 
HETATM    5  C5  UNL     1     -33.335   7.269   3.623  1.00 20.00     0.016 C 
HETATM    6  C6  UNL     1     -33.372   6.269   4.755  1.00 20.00     0.077 C 
HETATM    7  N7  UNL     1     -35.213   5.283   5.773  1.00 20.00    -0.166 NA
HETATM    8  N8  UNL     1     -34.923   4.531   4.579  1.00 20.00    -0.159 NA
ENDROOT
TORSDOF 0
ENDMDL
MODEL 9
REMARK VINA RESULT:      -4.1     16.350     16.873
REMARK  0 active torsions:
REMARK  status: ('A' for Active; 'I' for Inactive)
ROOT
HETATM    1  C1  UNL     1     -24.988  19.263   6.936  1.00 20.00     0.124 C 
HETATM    2  C2  UNL     1     -23.612  18.100   8.212  1.00 20.00     0.044 C 
HETATM    3  C3  UNL     1     -23.077  17.664   9.521  1.00 20.00     0.057 C 
HETATM    4  C4  UNL     1     -24.155  18.269  10.441  1.00 20.00     0.007 C 
HETATM    5  C5  UNL     1     -24.998  19.225   9.568  1.00 20.00     0.016 C 
HETATM    6  C6  UNL     1     -25.025  18.532   8.227  1.00 20.00     0.077 C 
HETATM    7  N7  UNL     1     -23.888  19.080   6.276  1.00 20.00    -0.166 NA
HETATM    8  N8  UNL     1     -22.986  18.323   7.104  1.00 20.00    -0.159 NA
ENDROOT
TORSDOF 0
ENDMDL
