MODEL 1
REMARK VINA RESULT:      -4.7      0.000      0.000
REMARK  2 active torsions:
REMARK  status: ('A' for Active; 'I' for Inactive)
REMARK    1  A    between atoms: C1_1  and  C4_4 
REMARK    2  A    between atoms: C4_4  and  C5_5 
ROOT
HETATM    1  C2  UNL     1     -34.435   4.405   3.969  1.00 20.00     0.027 A 
HETATM    2  C3  UNL     1     -35.635   5.301   4.041  1.00 20.00     0.027 A 
HETATM    3  C4  UNL     1     -34.299   5.794   4.558  1.00 20.00     0.110 A 
ENDROOT
BRANCH   3   4
HETATM    4  C1  UNL     1     -33.593   6.807   3.735  1.00 20.00     0.249 C 
HETATM    5  O6  UNL     1     -32.666   6.537   2.981  1.00 20.00    -0.306 OA
ENDBRANCH   3   4
BRANCH   3   6
HETATM    6  C5  UNL     1     -34.136   5.891   6.054  1.00 20.00     0.401 C 
HETATM    7  F7  UNL     1     -33.818   4.690   6.579  1.00 20.00    -0.170 F 
HETATM    8  F8  UNL     1     -33.158   6.760   6.374  1.00 20.00    -0.170 F 
HETATM    9  F9  UNL     1     -35.277   6.311   6.635  1.00 20.00    -0.170 F 
ENDBRANCH   3   6
TORSDOF 2
ENDMDL
MODEL 2
REMARK VINA RESULT:      -4.7      0.004      1.259
REMARK  2 active torsions:
REMARK  status: ('A' for Active; 'I' for Inactive)
REMARK    1  A    between atoms: C1_1  and  C4_4 
REMARK    2  A    between atoms: C4_4  and  C5_5 
ROOT
HETATM    1  C2  UNL     1     -34.433   4.404   3.968  1.00 20.00     0.027 A 
HETATM    2  C3  UNL     1     -35.634   5.297   4.041  1.00 20.00     0.027 A 
HETATM    3  C4  UNL     1     -34.299   5.793   4.557  1.00 20.00     0.110 A 
ENDROOT
BRANCH   3   4
HETATM    4  C1  UNL     1     -33.595   6.807   3.734  1.00 20.00     0.249 C 
HETATM    5  O6  UNL     1     -32.661   6.540   2.986  1.00 20.00    -0.306 OA
ENDBRANCH   3   4
BRANCH   3   6
HETATM    6  C5  UNL     1     -34.135   5.890   6.053  1.00 20.00     0.401 C 
HETATM    7  F7  UNL     1     -35.278   6.310   6.634  1.00 20.00    -0.170 F 
HETATM    8  F8  UNL     1     -33.814   4.691   6.579  1.00 20.00    -0.170 F 
HETATM    9  F9  UNL     1     -33.159   6.762   6.373  1.00 20.00    -0.170 F 
ENDBRANCH   3   6
TORSDOF 2
ENDMDL
MODEL 3
REMARK VINA RESULT:      -4.2     12.274     13.024
REMARK  2 active torsions:
REMARK  status: ('A' for Active; 'I' for Inactive)
REMARK    1  A    between atoms: C1_1  and  C4_4 
REMARK    2  A    between atoms: C4_4  and  C5_5 
ROOT
HETATM    1  C2  UNL     1     -35.090  15.420  -2.649  1.00 20.00     0.027 A 
HETATM    2  C3  UNL     1     -35.318  16.273  -3.859  1.00 20.00     0.027 A 
HETATM    3  C4  UNL     1     -34.875  14.834  -4.029  1.00 20.00     0.110 A 
ENDROOT
BRANCH   3   4
HETATM    4  C1  UNL     1     -35.893  13.871  -4.516  1.00 20.00     0.249 C 
HETATM    5  O6  UNL     1     -35.779  12.655  -4.408  1.00 20.00    -0.306 OA
ENDBRANCH   3   4
BRANCH   3   6
HETATM    6  C5  UNL     1     -33.449  14.602  -4.460  1.00 20.00     0.401 C 
HETATM    7  F7  UNL     1     -32.623  15.502  -3.887  1.00 20.00    -0.170 F 
HETATM    8  F8  UNL     1     -33.036  13.369  -4.106  1.00 20.00    -0.170 F 
HETATM    9  F9  UNL     1     -33.327  14.717  -5.798  1.00 20.00    -0.170 F 
ENDBRANCH   3   6
TORSDOF 2
ENDMDL
MODEL 4
REMARK VINA RESULT:      -4.2      2.845      3.253
REMARK  2 active torsions:
REMARK  status: ('A' for Active; 'I' for Inactive)
REMARK    1  A    between atoms: C1_1  and  C4_4 
REMARK    2  A    between atoms: C4_4  and  C5_5 
ROOT
HETATM    1  C2  UNL     1     -35.529   5.467   4.049  1.00 20.00     0.027 A 
HETATM    2  C3  UNL     1     -34.591   4.487   4.685  1.00 20.00     0.027 A 
HETATM    3  C4  UNL     1     -34.041   5.750   4.053  1.00 20.00     0.110 A 
ENDROOT
BRANCH   3   4
HETATM    4  C1  UNL     1     -33.560   6.808   4.976  1.00 20.00     0.249 C 
HETATM    5  O6  UNL     1     -34.013   6.980   6.102  1.00 20.00    -0.306 OA
ENDBRANCH   3   4
BRANCH   3   6
HETATM    6  C5  UNL     1     -33.311   5.599   2.743  1.00 20.00     0.401 C 
HETATM    7  F7  UNL     1     -32.538   4.494   2.749  1.00 20.00    -0.170 F 
HETATM    8  F8  UNL     1     -34.182   5.494   1.719  1.00 20.00    -0.170 F 
HETATM    9  F9  UNL     1     -32.517   6.663   2.510  1.00 20.00    -0.170 F 
ENDBRANCH   3   6
TORSDOF 2
ENDMDL
MODEL 5
REMARK VINA RESULT:      -4.2      9.081      9.760
REMARK  2 active torsions:
REMARK  status: ('A' for Active; 'I' for Inactive)
REMARK    1  A    between atoms: C1_1  and  C4_4 
REMARK    2  A    between atoms: C4_4  and  C5_5 
ROOT
HETATM    1  C2  UNL     1     -41.073   5.737  -0.860  1.00 20.00     0.027 A 
HETATM    2  C3  UNL     1     -42.001   5.515   0.295  1.00 20.00     0.027 A 
HETATM    3  C4  UNL     1     -42.066   6.815  -0.480  1.00 20.00     0.110 A 
ENDROOT
BRANCH   3   4
HETATM    4  C1  UNL     1     -43.231   7.004  -1.379  1.00 20.00     0.249 C 
HETATM    5  O6  UNL     1     -43.404   8.009  -2.059  1.00 20.00    -0.306 OA
ENDBRANCH   3   4
BRANCH   3   6
HETATM    6  C5  UNL     1     -41.516   8.045   0.197  1.00 20.00     0.401 C 
HETATM    7  F7  UNL     1     -40.740   7.706   1.247  1.00 20.00    -0.170 F 
HETATM    8  F8  UNL     1     -40.769   8.770  -0.659  1.00 20.00    -0.170 F 
HETATM    9  F9  UNL     1     -42.513   8.830   0.652  1.00 20.00    -0.170 F 
ENDBRANCH   3   6
TORSDOF 2
ENDMDL
MODEL 6
REMARK VINA RESULT:      -4.1      1.644      2.192
REMARK  2 active torsions:
REMARK  status: ('A' for Active; 'I' for Inactive)
REMARK    1  A    between atoms: C1_1  and  C4_4 
REMARK    2  A    between atoms: C4_4  and  C5_5 
ROOT
HETATM    1  C2  UNL     1     -32.923   4.617   2.772  1.00 20.00     0.027 A 
HETATM    2  C3  UNL     1     -34.075   5.182   1.999  1.00 20.00     0.027 A 
HETATM    3  C4  UNL     1     -33.728   5.759   3.356  1.00 20.00     0.110 A 
ENDROOT
BRANCH   3   4
HETATM    4  C1  UNL     1     -33.084   7.096   3.373  1.00 20.00     0.249 C 
HETATM    5  O6  UNL     1     -31.870   7.261   3.362  1.00 20.00    -0.306 OA
ENDBRANCH   3   4
BRANCH   3   6
HETATM    6  C5  UNL     1     -34.655   5.430   4.499  1.00 20.00     0.401 C 
HETATM    7  F7  UNL     1     -34.440   6.258   5.542  1.00 20.00    -0.170 F 
HETATM    8  F8  UNL     1     -35.943   5.556   4.123  1.00 20.00    -0.170 F 
HETATM    9  F9  UNL     1     -34.464   4.165   4.923  1.00 20.00    -0.170 F 
ENDBRANCH   3   6
TORSDOF 2
ENDMDL
MODEL 7
REMARK VINA RESULT:      -4.1      1.639      2.520
REMARK  2 active torsions:
REMARK  status: ('A' for Active; 'I' for Inactive)
REMARK    1  A    between atoms: C1_1  and  C4_4 
REMARK    2  A    between atoms: C4_4  and  C5_5 
ROOT
HETATM    1  C2  UNL     1     -34.346   7.403   5.643  1.00 20.00     0.027 A 
HETATM    2  C3  UNL     1     -33.252   6.442   5.996  1.00 20.00     0.027 A 
HETATM    3  C4  UNL     1     -34.035   6.249   4.713  1.00 20.00     0.110 A 
ENDROOT
BRANCH   3   4
HETATM    4  C1  UNL     1     -33.337   6.576   3.445  1.00 20.00     0.249 C 
HETATM    5  O6  UNL     1     -33.046   5.739   2.599  1.00 20.00    -0.306 OA
ENDBRANCH   3   4
BRANCH   3   6
HETATM    6  C5  UNL     1     -35.024   5.112   4.678  1.00 20.00     0.401 C 
HETATM    7  F7  UNL     1     -36.100   5.437   3.932  1.00 20.00    -0.170 F 
HETATM    8  F8  UNL     1     -34.465   4.006   4.148  1.00 20.00    -0.170 F 
HETATM    9  F9  UNL     1     -35.453   4.810   5.920  1.00 20.00    -0.170 F 
ENDBRANCH   3   6
TORSDOF 2
ENDMDL
MODEL 8
REMARK VINA RESULT:      -4.1     12.479     13.356
REMARK  2 active torsions:
REMARK  status: ('A' for Active; 'I' for Inactive)
REMARK    1  A    between atoms: C1_1  and  C4_4 
REMARK    2  A    between atoms: C4_4  and  C5_5 
ROOT
HETATM    1  C2  UNL     1     -35.432  16.054  -5.866  1.00 20.00     0.027 A 
HETATM    2  C3  UNL     1     -34.625  14.998  -6.558  1.00 20.00     0.027 A 
HETATM    3  C4  UNL     1     -35.047  14.795  -5.117  1.00 20.00     0.110 A 
ENDROOT
BRANCH   3   4
HETATM    4  C1  UNL     1     -36.125  13.806  -4.866  1.00 20.00     0.249 C 
HETATM    5  O6  UNL     1     -35.913  12.649  -4.521  1.00 20.00    -0.306 OA
ENDBRANCH   3   4
BRANCH   3   6
HETATM    6  C5  UNL     1     -33.976  14.924  -4.064  1.00 20.00     0.401 C 
HETATM    7  F7  UNL     1     -34.514  14.883  -2.828  1.00 20.00    -0.170 F 
HETATM    8  F8  UNL     1     -33.081  13.921  -4.165  1.00 20.00    -0.170 F 
HETATM    9  F9  UNL     1     -33.314  16.091  -4.193  1.00 20.00    -0.170 F 
ENDBRANCH   3   6
TORSDOF 2
ENDMDL
MODEL 9
REMARK VINA RESULT:      -4.1     13.408     14.000
REMARK  2 active torsions:
REMARK  status: ('A' for Active; 'I' for Inactive)
REMARK    1  A    between atoms: C1_1  and  C4_4 
REMARK    2  A    between atoms: C4_4  and  C5_5 
ROOT
HETATM    1  C2  UNL     1     -33.358  14.409  -4.225  1.00 20.00     0.027 A 
HETATM    2  C3  UNL     1     -34.148  15.630  -3.865  1.00 20.00     0.027 A 
HETATM    3  C4  UNL     1     -34.713  14.639  -4.862  1.00 20.00     0.110 A 
ENDROOT
BRANCH   3   4
HETATM    4  C1  UNL     1     -35.830  13.780  -4.395  1.00 20.00     0.249 C 
HETATM    5  O6  UNL     1     -35.803  12.556  -4.435  1.00 20.00    -0.306 OA
ENDBRANCH   3   4
BRANCH   3   6
HETATM    6  C5  UNL     1     -34.728  15.055  -6.310  1.00 20.00     0.401 C 
HETATM    7  F7  UNL     1     -34.961  16.379  -6.426  1.00 20.00    -0.170 F 
HETATM    8  F8  UNL     1     -33.546  14.785  -6.899  1.00 20.00    -0.170 F 
HETATM    9  F9  UNL     1     -35.692  14.401  -6.988  1.00 20.00    -0.170 F 
ENDBRANCH   3   6
TORSDOF 2
ENDMDL
