MODEL 1
REMARK VINA RESULT:      -4.4      0.000      0.000
REMARK  0 active torsions:
REMARK  status: ('A' for Active; 'I' for Inactive)
ROOT
HETATM    1  C1  UNL     1     -26.756  19.195  11.831  1.00 20.00     0.013 C 
HETATM    2  C2  UNL     1     -25.790  18.505  11.654  1.00 20.00    -0.107 C 
HETATM    3  C3  UNL     1     -23.447  18.155  12.332  1.00 20.00     0.048 C 
HETATM    4  C4  UNL     1     -24.166  17.757   9.957  1.00 20.00     0.048 C 
HETATM    5  C5  UNL     1     -22.104  17.538  11.951  1.00 20.00     0.169 C 
HETATM    6  C6  UNL     1     -22.782  17.163   9.714  1.00 20.00     0.169 C 
HETATM    7  C7  UNL     1     -24.598  17.654  11.436  1.00 20.00     0.023 C 
HETATM    8  C8  UNL     1     -24.975  16.205  11.793  1.00 20.00     0.029 C 
HETATM    9  O9  UNL     1     -21.815  17.764  10.574  1.00 20.00    -0.391 OA
ENDROOT
TORSDOF 0
ENDMDL
MODEL 2
REMARK VINA RESULT:      -4.4      1.990      3.028
REMARK  0 active torsions:
REMARK  status: ('A' for Active; 'I' for Inactive)
ROOT
HETATM    1  C1  UNL     1     -24.762  15.643  11.770  1.00 20.00     0.013 C 
HETATM    2  C2  UNL     1     -24.166  16.429  11.085  1.00 20.00    -0.107 C 
HETATM    3  C3  UNL     1     -24.427  18.421   9.658  1.00 20.00     0.048 C 
HETATM    4  C4  UNL     1     -22.750  16.641   9.079  1.00 20.00     0.048 C 
HETATM    5  C5  UNL     1     -23.812  19.260   8.543  1.00 20.00     0.169 C 
HETATM    6  C6  UNL     1     -22.231  17.584   7.998  1.00 20.00     0.169 C 
HETATM    7  C7  UNL     1     -23.431  17.397  10.240  1.00 20.00     0.023 C 
HETATM    8  C8  UNL     1     -22.382  18.099  11.121  1.00 20.00     0.029 C 
HETATM    9  O9  UNL     1     -23.277  18.427   7.517  1.00 20.00    -0.391 OA
ENDROOT
TORSDOF 0
ENDMDL
MODEL 3
REMARK VINA RESULT:      -4.3      1.798      3.603
REMARK  0 active torsions:
REMARK  status: ('A' for Active; 'I' for Inactive)
ROOT
HETATM    1  C1  UNL     1     -22.316  17.113   8.650  1.00 20.00     0.013 C 
HETATM    2  C2  UNL     1     -22.939  17.237   9.669  1.00 20.00    -0.107 C 
HETATM    3  C3  UNL     1     -24.440  16.067  11.235  1.00 20.00     0.048 C 
HETATM    4  C4  UNL     1     -24.749  18.513  10.749  1.00 20.00     0.048 C 
HETATM    5  C5  UNL     1     -25.488  16.228  12.332  1.00 20.00     0.169 C 
HETATM    6  C6  UNL     1     -25.779  18.533  11.874  1.00 20.00     0.169 C 
HETATM    7  C7  UNL     1     -23.707  17.389  10.925  1.00 20.00     0.023 C 
HETATM    8  C8  UNL     1     -22.716  17.737  12.051  1.00 20.00     0.029 C 
HETATM    9  O9  UNL     1     -26.413  17.261  12.002  1.00 20.00    -0.391 OA
ENDROOT
TORSDOF 0
ENDMDL
MODEL 4
REMARK VINA RESULT:      -4.2     18.312     19.320
REMARK  0 active torsions:
REMARK  status: ('A' for Active; 'I' for Inactive)
ROOT
HETATM    1  C1  UNL     1     -33.270  17.029  -2.282  1.00 20.00     0.013 C 
HETATM    2  C2  UNL     1     -33.661  16.241  -3.099  1.00 20.00    -0.107 C 
HETATM    3  C3  UNL     1     -34.616  16.033  -5.361  1.00 20.00     0.048 C 
HETATM    4  C4  UNL     1     -35.331  14.479  -3.521  1.00 20.00     0.048 C 
HETATM    5  C5  UNL     1     -35.405  15.145  -6.319  1.00 20.00     0.169 C 
HETATM    6  C6  UNL     1     -36.078  13.680  -4.584  1.00 20.00     0.169 C 
HETATM    7  C7  UNL     1     -34.142  15.270  -4.107  1.00 20.00     0.023 C 
HETATM    8  C8  UNL     1     -32.978  14.325  -4.454  1.00 20.00     0.029 C 
HETATM    9  O9  UNL     1     -36.503  14.529  -5.650  1.00 20.00    -0.391 OA
ENDROOT
TORSDOF 0
ENDMDL
MODEL 5
REMARK VINA RESULT:      -4.1     17.016     17.995
REMARK  0 active torsions:
REMARK  status: ('A' for Active; 'I' for Inactive)
ROOT
HETATM    1  C1  UNL     1     -33.078  17.866  -1.147  1.00 20.00     0.013 C 
HETATM    2  C2  UNL     1     -33.498  17.224  -2.071  1.00 20.00    -0.107 C 
HETATM    3  C3  UNL     1     -35.211  15.583  -2.736  1.00 20.00     0.048 C 
HETATM    4  C4  UNL     1     -32.903  15.496  -3.724  1.00 20.00     0.048 C 
HETATM    5  C5  UNL     1     -35.608  14.520  -3.755  1.00 20.00     0.169 C 
HETATM    6  C6  UNL     1     -33.433  14.438  -4.687  1.00 20.00     0.169 C 
HETATM    7  C7  UNL     1     -34.015  16.434  -3.211  1.00 20.00     0.023 C 
HETATM    8  C8  UNL     1     -34.451  17.416  -4.314  1.00 20.00     0.029 C 
HETATM    9  O9  UNL     1     -34.493  13.695  -4.088  1.00 20.00    -0.391 OA
ENDROOT
TORSDOF 0
ENDMDL
MODEL 6
REMARK VINA RESULT:      -4.0     18.453     19.458
REMARK  0 active torsions:
REMARK  status: ('A' for Active; 'I' for Inactive)
ROOT
HETATM    1  C1  UNL     1     -33.226  16.782  -2.360  1.00 20.00     0.013 C 
HETATM    2  C2  UNL     1     -34.000  16.270  -3.121  1.00 20.00    -0.107 C 
HETATM    3  C3  UNL     1     -36.378  16.143  -3.752  1.00 20.00     0.048 C 
HETATM    4  C4  UNL     1     -34.911  14.106  -3.871  1.00 20.00     0.048 C 
HETATM    5  C5  UNL     1     -37.451  15.321  -4.459  1.00 20.00     0.169 C 
HETATM    6  C6  UNL     1     -36.069  13.402  -4.572  1.00 20.00     0.169 C 
HETATM    7  C7  UNL     1     -34.953  15.638  -4.060  1.00 20.00     0.023 C 
HETATM    8  C8  UNL     1     -34.538  16.021  -5.492  1.00 20.00     0.029 C 
HETATM    9  O9  UNL     1     -37.320  13.937  -4.144  1.00 20.00    -0.391 OA
ENDROOT
TORSDOF 0
ENDMDL
MODEL 7
REMARK VINA RESULT:      -4.0     17.072     18.043
REMARK  0 active torsions:
REMARK  status: ('A' for Active; 'I' for Inactive)
ROOT
HETATM    1  C1  UNL     1     -32.255  18.034  -1.426  1.00 20.00     0.013 C 
HETATM    2  C2  UNL     1     -32.978  17.393  -2.139  1.00 20.00    -0.107 C 
HETATM    3  C3  UNL     1     -33.049  15.492  -3.705  1.00 20.00     0.048 C 
HETATM    4  C4  UNL     1     -34.468  17.528  -4.097  1.00 20.00     0.048 C 
HETATM    5  C5  UNL     1     -33.811  14.830  -4.849  1.00 20.00     0.169 C 
HETATM    6  C6  UNL     1     -35.149  16.749  -5.218  1.00 20.00     0.169 C 
HETATM    7  C7  UNL     1     -33.869  16.602  -3.017  1.00 20.00     0.023 C 
HETATM    8  C8  UNL     1     -34.982  15.994  -2.144  1.00 20.00     0.029 C 
HETATM    9  O9  UNL     1     -34.251  15.803  -5.794  1.00 20.00    -0.391 OA
ENDROOT
TORSDOF 0
ENDMDL
MODEL 8
REMARK VINA RESULT:      -3.9     16.214     17.241
REMARK  0 active torsions:
REMARK  status: ('A' for Active; 'I' for Inactive)
ROOT
HETATM    1  C1  UNL     1     -34.794  14.031  -3.830  1.00 20.00     0.013 C 
HETATM    2  C2  UNL     1     -34.656  15.129  -3.365  1.00 20.00    -0.107 C 
HETATM    3  C3  UNL     1     -32.980  16.799  -2.672  1.00 20.00     0.048 C 
HETATM    4  C4  UNL     1     -35.119  16.520  -1.384  1.00 20.00     0.048 C 
HETATM    5  C5  UNL     1     -32.711  18.032  -1.817  1.00 20.00     0.169 C 
HETATM    6  C6  UNL     1     -34.727  17.770  -0.603  1.00 20.00     0.169 C 
HETATM    7  C7  UNL     1     -34.486  16.483  -2.791  1.00 20.00     0.023 C 
HETATM    8  C8  UNL     1     -35.180  17.489  -3.727  1.00 20.00     0.029 C 
HETATM    9  O9  UNL     1     -33.307  17.896  -0.529  1.00 20.00    -0.391 OA
ENDROOT
TORSDOF 0
ENDMDL
MODEL 9
REMARK VINA RESULT:      -3.9     18.490     19.424
REMARK  0 active torsions:
REMARK  status: ('A' for Active; 'I' for Inactive)
ROOT
HETATM    1  C1  UNL     1     -35.077  16.623  -1.257  1.00 20.00     0.013 C 
HETATM    2  C2  UNL     1     -35.012  16.147  -2.357  1.00 20.00    -0.107 C 
HETATM    3  C3  UNL     1     -35.357  16.621  -4.751  1.00 20.00     0.048 C 
HETATM    4  C4  UNL     1     -35.894  14.356  -3.802  1.00 20.00     0.048 C 
HETATM    5  C5  UNL     1     -35.598  16.019  -6.132  1.00 20.00     0.169 C 
HETATM    6  C6  UNL     1     -36.104  13.885  -5.238  1.00 20.00     0.169 C 
HETATM    7  C7  UNL     1     -34.932  15.560  -3.714  1.00 20.00     0.023 C 
HETATM    8  C8  UNL     1     -33.479  15.115  -3.956  1.00 20.00     0.029 C 
HETATM    9  O9  UNL     1     -36.550  14.959  -6.063  1.00 20.00    -0.391 OA
ENDROOT
TORSDOF 0
ENDMDL
