MODEL 1
REMARK VINA RESULT:      -5.2      0.000      0.000
REMARK  1 active torsions:
REMARK  status: ('A' for Active; 'I' for Inactive)
REMARK    1  A    between atoms: C3_3  and  C6_6 
ROOT
HETATM    1  C1  UNL     1     -33.476   6.946   4.855  1.00 20.00     0.055 A 
HETATM    2  C2  UNL     1     -34.888   5.067   5.221  1.00 20.00     0.160 A 
HETATM    3  C3  UNL     1     -33.113   6.396   3.630  1.00 20.00    -0.001 A 
HETATM    4  C4  UNL     1     -34.379   6.275   5.672  1.00 20.00     0.134 A 
HETATM    5  C5  UNL     1     -33.679   5.183   3.271  1.00 20.00     0.133 A 
HETATM    6  N7  UNL     1     -34.559   4.502   4.038  1.00 20.00    -0.245 NA
HETATM    7  F8  UNL     1     -34.745   6.779   6.855  1.00 20.00    -0.205 F 
HETATM    8 CL9  UNL     1     -33.310   4.403   1.783  1.00 20.00    -0.062 Cl
ENDROOT
BRANCH   3   9
HETATM    9  C6  UNL     1     -32.146   7.121   2.758  1.00 20.00     0.156 C 
HETATM   10 CL10 UNL     1     -32.989   7.923   1.414  1.00 20.00    -0.125 Cl
ENDBRANCH   3   9
TORSDOF 1
ENDMDL
MODEL 2
REMARK VINA RESULT:      -4.3     16.574     16.890
REMARK  1 active torsions:
REMARK  status: ('A' for Active; 'I' for Inactive)
REMARK    1  A    between atoms: C3_3  and  C6_6 
ROOT
HETATM    1  C1  UNL     1     -22.655  17.234   9.415  1.00 20.00     0.055 A 
HETATM    2  C2  UNL     1     -23.848  18.704   7.974  1.00 20.00     0.160 A 
HETATM    3  C3  UNL     1     -23.583  17.510  10.413  1.00 20.00    -0.001 A 
HETATM    4  C4  UNL     1     -22.783  17.838   8.169  1.00 20.00     0.134 A 
HETATM    5  C5  UNL     1     -24.611  18.390  10.118  1.00 20.00     0.133 A 
HETATM    6  N7  UNL     1     -24.768  18.996   8.920  1.00 20.00    -0.245 NA
HETATM    7  F8  UNL     1     -21.906  17.593   7.190  1.00 20.00    -0.205 F 
HETATM    8 CL9  UNL     1     -25.819  18.811  11.268  1.00 20.00    -0.062 Cl
ENDROOT
BRANCH   3   9
HETATM    9  C6  UNL     1     -23.442  16.858  11.746  1.00 20.00     0.156 C 
HETATM   10 CL10 UNL     1     -24.613  15.532  11.925  1.00 20.00    -0.125 Cl
ENDBRANCH   3   9
TORSDOF 1
ENDMDL
MODEL 3
REMARK VINA RESULT:      -4.2     16.511     16.958
REMARK  1 active torsions:
REMARK  status: ('A' for Active; 'I' for Inactive)
REMARK    1  A    between atoms: C3_3  and  C6_6 
ROOT
HETATM    1  C1  UNL     1     -25.159  18.694  10.293  1.00 20.00     0.055 A 
HETATM    2  C2  UNL     1     -24.090  17.983  12.296  1.00 20.00     0.160 A 
HETATM    3  C3  UNL     1     -23.959  18.498   9.619  1.00 20.00    -0.001 A 
HETATM    4  C4  UNL     1     -25.235  18.434  11.657  1.00 20.00     0.134 A 
HETATM    5  C5  UNL     1     -22.872  18.044  10.349  1.00 20.00     0.133 A 
HETATM    6  N7  UNL     1     -22.907  17.781  11.674  1.00 20.00    -0.245 NA
HETATM    7  F8  UNL     1     -26.375  18.616  12.332  1.00 20.00    -0.205 F 
HETATM    8 CL9  UNL     1     -21.336  17.763   9.629  1.00 20.00    -0.062 Cl
ENDROOT
BRANCH   3   9
HETATM    9  C6  UNL     1     -23.884  18.776   8.157  1.00 20.00     0.156 C 
HETATM   10 CL10 UNL     1     -25.514  18.892   7.454  1.00 20.00    -0.125 Cl
ENDBRANCH   3   9
TORSDOF 1
ENDMDL
MODEL 4
REMARK VINA RESULT:      -4.2     16.794     17.382
REMARK  1 active torsions:
REMARK  status: ('A' for Active; 'I' for Inactive)
REMARK    1  A    between atoms: C3_3  and  C6_6 
ROOT
HETATM    1  C1  UNL     1     -24.671  18.363   9.643  1.00 20.00     0.055 A 
HETATM    2  C2  UNL     1     -22.543  18.176   8.597  1.00 20.00     0.160 A 
HETATM    3  C3  UNL     1     -24.054  18.144  10.869  1.00 20.00    -0.001 A 
HETATM    4  C4  UNL     1     -23.909  18.381   8.480  1.00 20.00     0.134 A 
HETATM    5  C5  UNL     1     -22.682  17.950  10.879  1.00 20.00     0.133 A 
HETATM    6  N7  UNL     1     -21.909  17.960   9.771  1.00 20.00    -0.245 NA
HETATM    7  F8  UNL     1     -24.476  18.588   7.287  1.00 20.00    -0.205 F 
HETATM    8 CL9  UNL     1     -21.805  17.669  12.331  1.00 20.00    -0.062 Cl
ENDROOT
BRANCH   3   9
HETATM    9  C6  UNL     1     -24.876  18.127  12.112  1.00 20.00     0.156 C 
HETATM   10 CL10 UNL     1     -26.389  19.031  11.878  1.00 20.00    -0.125 Cl
ENDBRANCH   3   9
TORSDOF 1
ENDMDL
MODEL 5
REMARK VINA RESULT:      -4.2     16.575     17.157
REMARK  1 active torsions:
REMARK  status: ('A' for Active; 'I' for Inactive)
REMARK    1  A    between atoms: C3_3  and  C6_6 
ROOT
HETATM    1  C1  UNL     1     -23.681  18.595   8.621  1.00 20.00     0.055 A 
HETATM    2  C2  UNL     1     -25.334  18.722  10.326  1.00 20.00     0.160 A 
HETATM    3  C3  UNL     1     -22.763  18.189   9.583  1.00 20.00    -0.001 A 
HETATM    4  C4  UNL     1     -24.992  18.868   8.991  1.00 20.00     0.134 A 
HETATM    5  C5  UNL     1     -23.204  18.073  10.892  1.00 20.00     0.133 A 
HETATM    6  N7  UNL     1     -24.470  18.330  11.289  1.00 20.00    -0.245 NA
HETATM    7  F8  UNL     1     -25.896  19.262   8.087  1.00 20.00    -0.205 F 
HETATM    8 CL9  UNL     1     -22.165  17.580  12.171  1.00 20.00    -0.062 Cl
ENDROOT
BRANCH   3   9
HETATM    9  C6  UNL     1     -21.358  17.895   9.181  1.00 20.00     0.156 C 
HETATM   10 CL10 UNL     1     -21.305  17.186   7.551  1.00 20.00    -0.125 Cl
ENDBRANCH   3   9
TORSDOF 1
ENDMDL
MODEL 6
REMARK VINA RESULT:      -4.0      1.489      2.570
REMARK  1 active torsions:
REMARK  status: ('A' for Active; 'I' for Inactive)
REMARK    1  A    between atoms: C3_3  and  C6_6 
ROOT
HETATM    1  C1  UNL     1     -34.772   4.982   4.522  1.00 20.00     0.055 A 
HETATM    2  C2  UNL     1     -33.964   6.661   5.999  1.00 20.00     0.160 A 
HETATM    3  C3  UNL     1     -34.001   5.543   3.510  1.00 20.00    -0.001 A 
HETATM    4  C4  UNL     1     -34.759   5.545   5.793  1.00 20.00     0.134 A 
HETATM    5  C5  UNL     1     -33.240   6.659   3.818  1.00 20.00     0.133 A 
HETATM    6  N7  UNL     1     -33.202   7.235   5.040  1.00 20.00    -0.245 NA
HETATM    7  F8  UNL     1     -35.491   5.027   6.784  1.00 20.00    -0.205 F 
HETATM    8 CL9  UNL     1     -32.247   7.444   2.654  1.00 20.00    -0.062 Cl
ENDROOT
BRANCH   3   9
HETATM    9  C6  UNL     1     -34.018   4.934   2.150  1.00 20.00     0.156 C 
HETATM   10 CL10 UNL     1     -32.698   3.756   1.971  1.00 20.00    -0.125 Cl
ENDBRANCH   3   9
TORSDOF 1
ENDMDL
MODEL 7
REMARK VINA RESULT:      -4.0     12.254     12.847
REMARK  1 active torsions:
REMARK  status: ('A' for Active; 'I' for Inactive)
REMARK    1  A    between atoms: C3_3  and  C6_6 
ROOT
HETATM    1  C1  UNL     1     -32.960  16.641  -2.914  1.00 20.00     0.055 A 
HETATM    2  C2  UNL     1     -35.062  15.710  -2.301  1.00 20.00     0.160 A 
HETATM    3  C3  UNL     1     -33.124  17.592  -1.912  1.00 20.00    -0.001 A 
HETATM    4  C4  UNL     1     -33.943  15.679  -3.118  1.00 20.00     0.134 A 
HETATM    5  C5  UNL     1     -34.279  17.537  -1.149  1.00 20.00     0.133 A 
HETATM    6  N7  UNL     1     -35.255  16.618  -1.319  1.00 20.00    -0.245 NA
HETATM    7  F8  UNL     1     -33.813  14.753  -4.075  1.00 20.00    -0.205 F 
HETATM    8 CL9  UNL     1     -34.596  18.657   0.118  1.00 20.00    -0.062 Cl
ENDROOT
BRANCH   3   9
HETATM    9  C6  UNL     1     -32.067  18.620  -1.696  1.00 20.00     0.156 C 
HETATM   10 CL10 UNL     1     -31.006  18.158  -0.345  1.00 20.00    -0.125 Cl
ENDBRANCH   3   9
TORSDOF 1
ENDMDL
MODEL 8
REMARK VINA RESULT:      -4.0     11.940     12.434
REMARK  1 active torsions:
REMARK  status: ('A' for Active; 'I' for Inactive)
REMARK    1  A    between atoms: C3_3  and  C6_6 
ROOT
HETATM    1  C1  UNL     1     -35.624  15.239  -3.043  1.00 20.00     0.055 A 
HETATM    2  C2  UNL     1     -33.625  14.532  -4.121  1.00 20.00     0.160 A 
HETATM    3  C3  UNL     1     -34.925  16.323  -2.523  1.00 20.00    -0.001 A 
HETATM    4  C4  UNL     1     -34.970  14.322  -3.858  1.00 20.00     0.134 A 
HETATM    5  C5  UNL     1     -33.583  16.443  -2.846  1.00 20.00     0.133 A 
HETATM    6  N7  UNL     1     -32.913  15.573  -3.633  1.00 20.00    -0.245 NA
HETATM    7  F8  UNL     1     -35.616  13.270  -4.371  1.00 20.00    -0.205 F 
HETATM    8 CL9  UNL     1     -32.611  17.738  -2.264  1.00 20.00    -0.062 Cl
ENDROOT
BRANCH   3   9
HETATM    9  C6  UNL     1     -35.632  17.303  -1.652  1.00 20.00     0.156 C 
HETATM   10 CL10 UNL     1     -35.300  16.975   0.064  1.00 20.00    -0.125 Cl
ENDBRANCH   3   9
TORSDOF 1
ENDMDL
MODEL 9
REMARK VINA RESULT:      -3.8     12.144     12.441
REMARK  1 active torsions:
REMARK  status: ('A' for Active; 'I' for Inactive)
REMARK    1  A    between atoms: C3_3  and  C6_6 
ROOT
HETATM    1  C1  UNL     1     -32.969  16.298  -3.069  1.00 20.00     0.055 A 
HETATM    2  C2  UNL     1     -34.756  17.056  -1.694  1.00 20.00     0.160 A 
HETATM    3  C3  UNL     1     -33.851  15.410  -3.674  1.00 20.00    -0.001 A 
HETATM    4  C4  UNL     1     -33.421  17.140  -2.059  1.00 20.00     0.134 A 
HETATM    5  C5  UNL     1     -35.166  15.404  -3.237  1.00 20.00     0.133 A 
HETATM    6  N7  UNL     1     -35.642  16.206  -2.259  1.00 20.00    -0.245 NA
HETATM    7  F8  UNL     1     -32.595  18.003  -1.459  1.00 20.00    -0.205 F 
HETATM    8 CL9  UNL     1     -36.351  14.352  -3.906  1.00 20.00    -0.062 Cl
ENDROOT
BRANCH   3   9
HETATM    9  C6  UNL     1     -33.361  14.511  -4.758  1.00 20.00     0.156 C 
HETATM   10 CL10 UNL     1     -33.951  15.058  -6.344  1.00 20.00    -0.125 Cl
ENDBRANCH   3   9
TORSDOF 1
ENDMDL
