MODEL 1
REMARK VINA RESULT:      -3.5      0.000      0.000
REMARK  2 active torsions:
REMARK  status: ('A' for Active; 'I' for Inactive)
REMARK    1  A    between atoms: C7_7  and  P9_9 
REMARK    2  A    between atoms: C8_8  and  P9_9 
ROOT
HETATM    1  P9  UNL     1     -34.611  16.929  -5.050  1.00 20.00    -0.001 P 
HETATM    2 CL10 UNL     1     -36.495  17.397  -4.268  1.00 20.00    -0.094 Cl
ENDROOT
BRANCH   1   3
HETATM    3  C7  UNL     1     -35.124  15.582  -6.263  1.00 20.00    -0.014 C 
HETATM    4  C1  UNL     1     -36.070  16.187  -7.309  1.00 20.00     0.021 C 
HETATM    5  C2  UNL     1     -33.870  15.028  -6.954  1.00 20.00     0.021 C 
HETATM    6  C3  UNL     1     -35.840  14.455  -5.504  1.00 20.00     0.021 C 
ENDBRANCH   1   3
BRANCH   1   7
HETATM    7  C8  UNL     1     -33.953  15.848  -3.730  1.00 20.00    -0.014 C 
HETATM    8  C4  UNL     1     -33.083  16.688  -2.785  1.00 20.00     0.021 C 
HETATM    9  C5  UNL     1     -35.129  15.239  -2.953  1.00 20.00     0.021 C 
HETATM   10  C6  UNL     1     -33.109  14.728  -4.357  1.00 20.00     0.021 C 
ENDBRANCH   1   7
TORSDOF 2
ENDMDL
MODEL 2
REMARK VINA RESULT:      -3.5      0.051      1.376
REMARK  2 active torsions:
REMARK  status: ('A' for Active; 'I' for Inactive)
REMARK    1  A    between atoms: C7_7  and  P9_9 
REMARK    2  A    between atoms: C8_8  and  P9_9 
ROOT
HETATM    1  P9  UNL     1     -34.587  16.949  -5.033  1.00 20.00    -0.001 P 
HETATM    2 CL10 UNL     1     -36.461  17.467  -4.256  1.00 20.00    -0.094 Cl
ENDROOT
BRANCH   1   3
HETATM    3  C7  UNL     1     -35.130  15.594  -6.224  1.00 20.00    -0.014 C 
HETATM    4  C1  UNL     1     -36.095  16.194  -7.256  1.00 20.00     0.021 C 
HETATM    5  C2  UNL     1     -33.892  15.030  -6.936  1.00 20.00     0.021 C 
HETATM    6  C3  UNL     1     -35.834  14.476  -5.442  1.00 20.00     0.021 C 
ENDBRANCH   1   3
BRANCH   1   7
HETATM    7  C8  UNL     1     -33.949  15.876  -3.698  1.00 20.00    -0.014 C 
HETATM    8  C4  UNL     1     -33.100  14.757  -4.319  1.00 20.00     0.021 C 
HETATM    9  C5  UNL     1     -33.085  16.721  -2.751  1.00 20.00     0.021 C 
HETATM   10  C6  UNL     1     -35.126  15.266  -2.922  1.00 20.00     0.021 C 
ENDBRANCH   1   7
TORSDOF 2
ENDMDL
MODEL 3
REMARK VINA RESULT:      -3.5      0.023      1.373
REMARK  2 active torsions:
REMARK  status: ('A' for Active; 'I' for Inactive)
REMARK    1  A    between atoms: C7_7  and  P9_9 
REMARK    2  A    between atoms: C8_8  and  P9_9 
ROOT
HETATM    1  P9  UNL     1     -34.608  16.940  -5.038  1.00 20.00    -0.001 P 
HETATM    2 CL10 UNL     1     -36.498  17.405  -4.266  1.00 20.00    -0.094 Cl
ENDROOT
BRANCH   1   3
HETATM    3  C7  UNL     1     -35.113  15.594  -6.255  1.00 20.00    -0.014 C 
HETATM    4  C1  UNL     1     -35.839  14.478  -5.491  1.00 20.00     0.021 C 
HETATM    5  C2  UNL     1     -36.053  16.200  -7.307  1.00 20.00     0.021 C 
HETATM    6  C3  UNL     1     -33.862  15.027  -6.940  1.00 20.00     0.021 C 
ENDBRANCH   1   3
BRANCH   1   7
HETATM    7  C8  UNL     1     -33.955  15.859  -3.716  1.00 20.00    -0.014 C 
HETATM    8  C4  UNL     1     -33.066  16.693  -2.783  1.00 20.00     0.021 C 
HETATM    9  C5  UNL     1     -35.134  15.272  -2.926  1.00 20.00     0.021 C 
HETATM   10  C6  UNL     1     -33.132  14.723  -4.342  1.00 20.00     0.021 C 
ENDBRANCH   1   7
TORSDOF 2
ENDMDL
MODEL 4
REMARK VINA RESULT:      -3.4      1.597      2.115
REMARK  2 active torsions:
REMARK  status: ('A' for Active; 'I' for Inactive)
REMARK    1  A    between atoms: C7_7  and  P9_9 
REMARK    2  A    between atoms: C8_8  and  P9_9 
ROOT
HETATM    1  P9  UNL     1     -35.962  15.817  -4.758  1.00 20.00    -0.001 P 
HETATM    2 CL10 UNL     1     -36.163  13.734  -4.715  1.00 20.00    -0.094 Cl
ENDROOT
BRANCH   1   3
HETATM    3  C7  UNL     1     -35.150  15.997  -6.448  1.00 20.00    -0.014 C 
HETATM    4  C1  UNL     1     -36.204  15.751  -7.536  1.00 20.00     0.021 C 
HETATM    5  C2  UNL     1     -34.586  17.419  -6.581  1.00 20.00     0.021 C 
HETATM    6  C3  UNL     1     -34.014  14.973  -6.581  1.00 20.00     0.021 C 
ENDBRANCH   1   3
BRANCH   1   7
HETATM    7  C8  UNL     1     -34.467  16.037  -3.729  1.00 20.00    -0.014 C 
HETATM    8  C4  UNL     1     -34.862  15.950  -2.248  1.00 20.00     0.021 C 
HETATM    9  C5  UNL     1     -33.463  14.926  -4.067  1.00 20.00     0.021 C 
HETATM   10  C6  UNL     1     -33.841  17.409  -4.021  1.00 20.00     0.021 C 
ENDBRANCH   1   7
TORSDOF 2
ENDMDL
MODEL 5
REMARK VINA RESULT:      -3.4      2.080      3.617
REMARK  2 active torsions:
REMARK  status: ('A' for Active; 'I' for Inactive)
REMARK    1  A    between atoms: C7_7  and  P9_9 
REMARK    2  A    between atoms: C8_8  and  P9_9 
ROOT
HETATM    1  P9  UNL     1     -35.215  16.484  -5.047  1.00 20.00    -0.001 P 
HETATM    2 CL10 UNL     1     -34.736  15.137  -6.576  1.00 20.00    -0.094 Cl
ENDROOT
BRANCH   1   3
HETATM    3  C7  UNL     1     -34.473  15.548  -3.590  1.00 20.00    -0.014 C 
HETATM    4  C1  UNL     1     -34.642  14.041  -3.828  1.00 20.00     0.021 C 
HETATM    5  C2  UNL     1     -32.981  15.895  -3.483  1.00 20.00     0.021 C 
HETATM    6  C3  UNL     1     -35.196  15.956  -2.298  1.00 20.00     0.021 C 
ENDBRANCH   1   3
BRANCH   1   7
HETATM    7  C8  UNL     1     -36.970  16.060  -4.757  1.00 20.00    -0.014 C 
HETATM    8  C4  UNL     1     -37.484  16.860  -3.551  1.00 20.00     0.021 C 
HETATM    9  C5  UNL     1     -37.783  16.423  -6.008  1.00 20.00     0.021 C 
HETATM   10  C6  UNL     1     -37.095  14.556  -4.475  1.00 20.00     0.021 C 
ENDBRANCH   1   7
TORSDOF 2
ENDMDL
MODEL 6
REMARK VINA RESULT:      -3.4      1.180      2.205
REMARK  2 active torsions:
REMARK  status: ('A' for Active; 'I' for Inactive)
REMARK    1  A    between atoms: C7_7  and  P9_9 
REMARK    2  A    between atoms: C8_8  and  P9_9 
ROOT
HETATM    1  P9  UNL     1     -34.527  17.046  -4.715  1.00 20.00    -0.001 P 
HETATM    2 CL10 UNL     1     -36.610  17.039  -4.929  1.00 20.00    -0.094 Cl
ENDROOT
BRANCH   1   3
HETATM    3  C7  UNL     1     -34.203  15.207  -4.965  1.00 20.00    -0.014 C 
HETATM    4  C1  UNL     1     -35.386  14.410  -4.399  1.00 20.00     0.021 C 
HETATM    5  C2  UNL     1     -34.058  14.927  -6.467  1.00 20.00     0.021 C 
HETATM    6  C3  UNL     1     -32.912  14.811  -4.235  1.00 20.00     0.021 C 
ENDBRANCH   1   3
BRANCH   1   7
HETATM    7  C8  UNL     1     -34.372  17.088  -2.893  1.00 20.00    -0.014 C 
HETATM    8  C4  UNL     1     -32.884  17.034  -2.518  1.00 20.00     0.021 C 
HETATM    9  C5  UNL     1     -34.994  18.390  -2.371  1.00 20.00     0.021 C 
HETATM   10  C6  UNL     1     -35.105  15.882  -2.287  1.00 20.00     0.021 C 
ENDBRANCH   1   7
TORSDOF 2
ENDMDL
MODEL 7
REMARK VINA RESULT:      -2.7     24.961     26.074
REMARK  2 active torsions:
REMARK  status: ('A' for Active; 'I' for Inactive)
REMARK    1  A    between atoms: C7_7  and  P9_9 
REMARK    2  A    between atoms: C8_8  and  P9_9 
ROOT
HETATM    1  P9  UNL     1     -27.078  -3.436  12.134  1.00 20.00    -0.001 P 
HETATM    2 CL10 UNL     1     -28.111  -4.737  10.860  1.00 20.00    -0.094 Cl
ENDROOT
BRANCH   1   3
HETATM    3  C7  UNL     1     -27.776  -1.801  11.512  1.00 20.00    -0.014 C 
HETATM    4  C1  UNL     1     -29.107  -1.525  12.224  1.00 20.00     0.021 C 
HETATM    5  C2  UNL     1     -26.775  -0.680  11.826  1.00 20.00     0.021 C 
HETATM    6  C3  UNL     1     -28.004  -1.885   9.996  1.00 20.00     0.021 C 
ENDBRANCH   1   3
BRANCH   1   7
HETATM    7  C8  UNL     1     -25.454  -3.357  11.297  1.00 20.00    -0.014 C 
HETATM    8  C4  UNL     1     -24.609  -4.563  11.731  1.00 20.00     0.021 C 
HETATM    9  C5  UNL     1     -25.675  -3.395   9.778  1.00 20.00     0.021 C 
HETATM   10  C6  UNL     1     -24.739  -2.054  11.685  1.00 20.00     0.021 C 
ENDBRANCH   1   7
TORSDOF 2
ENDMDL
MODEL 8
REMARK VINA RESULT:      -2.6     24.940     26.109
REMARK  2 active torsions:
REMARK  status: ('A' for Active; 'I' for Inactive)
REMARK    1  A    between atoms: C7_7  and  P9_9 
REMARK    2  A    between atoms: C8_8  and  P9_9 
ROOT
HETATM    1  P9  UNL     1     -27.168  -2.427  12.277  1.00 20.00    -0.001 P 
HETATM    2 CL10 UNL     1     -27.053  -0.474  11.532  1.00 20.00    -0.094 Cl
ENDROOT
BRANCH   1   3
HETATM    3  C7  UNL     1     -25.662  -3.158  11.415  1.00 20.00    -0.014 C 
HETATM    4  C1  UNL     1     -24.467  -2.216  11.614  1.00 20.00     0.021 C 
HETATM    5  C2  UNL     1     -25.351  -4.529  12.032  1.00 20.00     0.021 C 
HETATM    6  C3  UNL     1     -25.956  -3.317   9.917  1.00 20.00     0.021 C 
ENDBRANCH   1   3
BRANCH   1   7
HETATM    7  C8  UNL     1     -28.456  -3.132  11.188  1.00 20.00    -0.014 C 
HETATM    8  C4  UNL     1     -29.834  -2.877  11.814  1.00 20.00     0.021 C 
HETATM    9  C5  UNL     1     -28.373  -2.452   9.814  1.00 20.00     0.021 C 
HETATM   10  C6  UNL     1     -28.226  -4.643  11.033  1.00 20.00     0.021 C 
ENDBRANCH   1   7
TORSDOF 2
ENDMDL
MODEL 9
REMARK VINA RESULT:      -2.4     24.952     25.651
REMARK  2 active torsions:
REMARK  status: ('A' for Active; 'I' for Inactive)
REMARK    1  A    between atoms: C7_7  and  P9_9 
REMARK    2  A    between atoms: C8_8  and  P9_9 
ROOT
HETATM    1  P9  UNL     1     -28.056  -2.771  10.010  1.00 20.00    -0.001 P 
HETATM    2 CL10 UNL     1     -28.051  -0.682   9.878  1.00 20.00    -0.094 Cl
ENDROOT
BRANCH   1   3
HETATM    3  C7  UNL     1     -29.210  -2.967  11.486  1.00 20.00    -0.014 C 
HETATM    4  C1  UNL     1     -29.160  -1.686  12.332  1.00 20.00     0.021 C 
HETATM    5  C2  UNL     1     -30.640  -3.196  10.975  1.00 20.00     0.021 C 
HETATM    6  C3  UNL     1     -28.762  -4.167  12.332  1.00 20.00     0.021 C 
ENDBRANCH   1   3
BRANCH   1   7
HETATM    7  C8  UNL     1     -26.475  -3.062  10.881  1.00 20.00    -0.014 C 
HETATM    8  C4  UNL     1     -25.368  -3.290   9.842  1.00 20.00     0.021 C 
HETATM    9  C5  UNL     1     -26.143  -1.830  11.734  1.00 20.00     0.021 C 
HETATM   10  C6  UNL     1     -26.605  -4.298  11.783  1.00 20.00     0.021 C 
ENDBRANCH   1   7
TORSDOF 2
ENDMDL
