MODEL 1
REMARK VINA RESULT:      -5.1      0.000      0.000
REMARK  1 active torsions:
REMARK  status: ('A' for Active; 'I' for Inactive)
REMARK    1  A    between atoms: C1_1  and  C3_3 
ROOT
HETATM    1  C2  UNL     1     -33.150   5.425   2.695  1.00 20.00     0.098 A 
HETATM    2  C3  UNL     1     -33.997   6.409   3.475  1.00 20.00     0.133 A 
HETATM    3  C4  UNL     1     -32.759   6.853   2.779  1.00 20.00     0.255 A 
HETATM    4  F7  UNL     1     -31.639   7.228   3.487  1.00 20.00    -0.205 F 
HETATM    5  F8  UNL     1     -32.834   7.664   1.670  1.00 20.00    -0.205 F 
ENDROOT
BRANCH   2   6
HETATM    6  C1  UNL     1     -34.018   6.328   4.939  1.00 20.00     0.133 C 
HETATM    7  C5  UNL     1     -34.843   5.223   5.544  1.00 20.00     0.091 C 
HETATM    8  O6  UNL     1     -33.392   7.123   5.638  1.00 20.00    -0.298 OA
ENDBRANCH   2   6
TORSDOF 1
ENDMDL
MODEL 2
REMARK VINA RESULT:      -4.8      2.814      3.745
REMARK  1 active torsions:
REMARK  status: ('A' for Active; 'I' for Inactive)
REMARK    1  A    between atoms: C1_1  and  C3_3 
ROOT
HETATM    1  C2  UNL     1     -33.653   6.832   5.815  1.00 20.00     0.098 A 
HETATM    2  C3  UNL     1     -34.383   6.424   4.552  1.00 20.00     0.133 A 
HETATM    3  C4  UNL     1     -34.484   5.604   5.790  1.00 20.00     0.255 A 
HETATM    4  F7  UNL     1     -33.895   4.363   5.873  1.00 20.00    -0.205 F 
HETATM    5  F8  UNL     1     -35.665   5.547   6.495  1.00 20.00    -0.205 F 
ENDROOT
BRANCH   2   6
HETATM    6  C1  UNL     1     -33.610   5.923   3.411  1.00 20.00     0.133 C 
HETATM    7  C5  UNL     1     -32.637   6.882   2.780  1.00 20.00     0.091 C 
HETATM    8  O6  UNL     1     -33.750   4.776   2.991  1.00 20.00    -0.298 OA
ENDBRANCH   2   6
TORSDOF 1
ENDMDL
MODEL 3
REMARK VINA RESULT:      -4.7      2.612      3.495
REMARK  1 active torsions:
REMARK  status: ('A' for Active; 'I' for Inactive)
REMARK    1  A    between atoms: C1_1  and  C3_3 
ROOT
HETATM    1  C2  UNL     1     -33.731   6.804   5.908  1.00 20.00     0.098 A 
HETATM    2  C3  UNL     1     -34.275   6.511   4.526  1.00 20.00     0.133 A 
HETATM    3  C4  UNL     1     -34.434   5.528   5.631  1.00 20.00     0.255 A 
HETATM    4  F7  UNL     1     -33.742   4.338   5.631  1.00 20.00    -0.205 F 
HETATM    5  F8  UNL     1     -35.674   5.282   6.175  1.00 20.00    -0.205 F 
ENDROOT
BRANCH   2   6
HETATM    6  C1  UNL     1     -33.337   6.232   3.434  1.00 20.00     0.133 C 
HETATM    7  C5  UNL     1     -33.556   4.957   2.663  1.00 20.00     0.091 C 
HETATM    8  O6  UNL     1     -32.418   7.002   3.161  1.00 20.00    -0.298 OA
ENDBRANCH   2   6
TORSDOF 1
ENDMDL
MODEL 4
REMARK VINA RESULT:      -4.5      2.429      3.474
REMARK  1 active torsions:
REMARK  status: ('A' for Active; 'I' for Inactive)
REMARK    1  A    between atoms: C1_1  and  C3_3 
ROOT
HETATM    1  C2  UNL     1     -35.685   5.378   4.344  1.00 20.00     0.098 A 
HETATM    2  C3  UNL     1     -34.280   4.856   4.122  1.00 20.00     0.133 A 
HETATM    3  C4  UNL     1     -34.627   5.610   5.357  1.00 20.00     0.255 A 
HETATM    4  F7  UNL     1     -34.140   6.879   5.578  1.00 20.00    -0.205 F 
HETATM    5  F8  UNL     1     -34.674   4.971   6.575  1.00 20.00    -0.205 F 
ENDROOT
BRANCH   2   6
HETATM    6  C1  UNL     1     -33.439   5.485   3.099  1.00 20.00     0.133 C 
HETATM    7  C5  UNL     1     -33.063   4.635   1.915  1.00 20.00     0.091 C 
HETATM    8  O6  UNL     1     -33.060   6.651   3.203  1.00 20.00    -0.298 OA
ENDBRANCH   2   6
TORSDOF 1
ENDMDL
MODEL 5
REMARK VINA RESULT:      -4.2      1.695      1.944
REMARK  1 active torsions:
REMARK  status: ('A' for Active; 'I' for Inactive)
REMARK    1  A    between atoms: C1_1  and  C3_3 
ROOT
HETATM    1  C2  UNL     1     -34.009   3.948   3.608  1.00 20.00     0.098 A 
HETATM    2  C3  UNL     1     -34.775   5.179   4.046  1.00 20.00     0.133 A 
HETATM    3  C4  UNL     1     -33.710   5.272   3.011  1.00 20.00     0.255 A 
HETATM    4  F7  UNL     1     -32.515   5.902   3.273  1.00 20.00    -0.205 F 
HETATM    5  F8  UNL     1     -34.033   5.535   1.699  1.00 20.00    -0.205 F 
ENDROOT
BRANCH   2   6
HETATM    6  C1  UNL     1     -34.537   5.729   5.385  1.00 20.00     0.133 C 
HETATM    7  C5  UNL     1     -33.817   7.049   5.456  1.00 20.00     0.091 C 
HETATM    8  O6  UNL     1     -34.909   5.141   6.399  1.00 20.00    -0.298 OA
ENDBRANCH   2   6
TORSDOF 1
ENDMDL
MODEL 6
REMARK VINA RESULT:      -4.2     11.220     11.621
REMARK  1 active torsions:
REMARK  status: ('A' for Active; 'I' for Inactive)
REMARK    1  A    between atoms: C1_1  and  C3_3 
ROOT
HETATM    1  C2  UNL     1     -33.475  14.376  -4.200  1.00 20.00     0.098 A 
HETATM    2  C3  UNL     1     -34.846  14.750  -4.726  1.00 20.00     0.133 A 
HETATM    3  C4  UNL     1     -34.248  15.476  -3.573  1.00 20.00     0.255 A 
HETATM    4  F7  UNL     1     -34.755  15.335  -2.301  1.00 20.00    -0.205 F 
HETATM    5  F8  UNL     1     -33.837  16.783  -3.708  1.00 20.00    -0.205 F 
ENDROOT
BRANCH   2   6
HETATM    6  C1  UNL     1     -35.969  13.834  -4.503  1.00 20.00     0.133 C 
HETATM    7  C5  UNL     1     -37.321  14.460  -4.287  1.00 20.00     0.091 C 
HETATM    8  O6  UNL     1     -35.815  12.614  -4.495  1.00 20.00    -0.298 OA
ENDBRANCH   2   6
TORSDOF 1
ENDMDL
MODEL 7
REMARK VINA RESULT:      -4.0     11.160     11.710
REMARK  1 active torsions:
REMARK  status: ('A' for Active; 'I' for Inactive)
REMARK    1  A    between atoms: C1_1  and  C3_3 
ROOT
HETATM    1  C2  UNL     1     -34.287  15.873  -4.067  1.00 20.00     0.098 A 
HETATM    2  C3  UNL     1     -34.612  14.437  -3.714  1.00 20.00     0.133 A 
HETATM    3  C4  UNL     1     -33.493  14.759  -4.641  1.00 20.00     0.255 A 
HETATM    4  F7  UNL     1     -33.573  14.466  -5.984  1.00 20.00    -0.205 F 
HETATM    5  F8  UNL     1     -32.187  14.561  -4.255  1.00 20.00    -0.205 F 
ENDROOT
BRANCH   2   6
HETATM    6  C1  UNL     1     -35.840  13.834  -4.241  1.00 20.00     0.133 C 
HETATM    7  C5  UNL     1     -37.080  14.687  -4.213  1.00 20.00     0.091 C 
HETATM    8  O6  UNL     1     -35.856  12.686  -4.684  1.00 20.00    -0.298 OA
ENDBRANCH   2   6
TORSDOF 1
ENDMDL
MODEL 8
REMARK VINA RESULT:      -4.0      9.259      9.721
REMARK  1 active torsions:
REMARK  status: ('A' for Active; 'I' for Inactive)
REMARK    1  A    between atoms: C1_1  and  C3_3 
ROOT
HETATM    1  C2  UNL     1     -41.166   7.073  -1.100  1.00 20.00     0.098 A 
HETATM    2  C3  UNL     1     -41.410   6.429   0.249  1.00 20.00     0.133 A 
HETATM    3  C4  UNL     1     -41.389   5.610  -0.994  1.00 20.00     0.255 A 
HETATM    4  F7  UNL     1     -42.540   5.043  -1.492  1.00 20.00    -0.205 F 
HETATM    5  F8  UNL     1     -40.359   4.729  -1.232  1.00 20.00    -0.205 F 
ENDROOT
BRANCH   2   6
HETATM    6  C1  UNL     1     -42.681   6.672   0.938  1.00 20.00     0.133 C 
HETATM    7  C5  UNL     1     -43.295   5.503   1.659  1.00 20.00     0.091 C 
HETATM    8  O6  UNL     1     -43.218   7.779   0.927  1.00 20.00    -0.298 OA
ENDBRANCH   2   6
TORSDOF 1
ENDMDL
MODEL 9
REMARK VINA RESULT:      -4.0     11.035     11.557
REMARK  1 active torsions:
REMARK  status: ('A' for Active; 'I' for Inactive)
REMARK    1  A    between atoms: C1_1  and  C3_3 
ROOT
HETATM    1  C2  UNL     1     -34.751  16.460  -3.990  1.00 20.00     0.098 A 
HETATM    2  C3  UNL     1     -34.961  15.168  -3.227  1.00 20.00     0.133 A 
HETATM    3  C4  UNL     1     -33.643  15.860  -3.208  1.00 20.00     0.255 A 
HETATM    4  F7  UNL     1     -32.549  15.324  -3.849  1.00 20.00    -0.205 F 
HETATM    5  F8  UNL     1     -33.190  16.468  -2.059  1.00 20.00    -0.205 F 
ENDROOT
BRANCH   2   6
HETATM    6  C1  UNL     1     -35.113  13.915  -3.973  1.00 20.00     0.133 C 
HETATM    7  C5  UNL     1     -36.372  13.759  -4.784  1.00 20.00     0.091 C 
HETATM    8  O6  UNL     1     -34.254  13.036  -3.939  1.00 20.00    -0.298 OA
ENDBRANCH   2   6
TORSDOF 1
ENDMDL
