MODEL 1
REMARK VINA RESULT:      -4.8      0.000      0.000
REMARK  0 active torsions:
REMARK  status: ('A' for Active; 'I' for Inactive)
ROOT
HETATM    1  C1  UNL     1     -32.193   7.246   2.424  1.00 20.00     0.012 C 
HETATM    2  C2  UNL     1     -33.082   6.855   3.130  1.00 20.00    -0.110 C 
HETATM    3  C3  UNL     1     -33.855   6.515   5.465  1.00 20.00     0.045 C 
HETATM    4  C4  UNL     1     -34.794   5.499   6.077  1.00 20.00     0.169 C 
HETATM    5  C5  UNL     1     -34.408   4.884   3.864  1.00 20.00     0.184 C 
HETATM    6  C6  UNL     1     -34.166   6.378   3.991  1.00 20.00     0.090 C 
HETATM    7  O7  UNL     1     -34.911   4.430   5.131  1.00 20.00    -0.390 OA
ENDROOT
TORSDOF 0
ENDMDL
MODEL 2
REMARK VINA RESULT:      -4.0      1.955      3.628
REMARK  0 active torsions:
REMARK  status: ('A' for Active; 'I' for Inactive)
ROOT
HETATM    1  C1  UNL     1     -34.920   5.143   6.153  1.00 20.00     0.012 C 
HETATM    2  C2  UNL     1     -34.500   5.768   5.219  1.00 20.00    -0.110 C 
HETATM    3  C3  UNL     1     -33.497   5.652   2.950  1.00 20.00     0.045 C 
HETATM    4  C4  UNL     1     -32.558   6.583   2.215  1.00 20.00     0.169 C 
HETATM    5  C5  UNL     1     -32.738   7.328   4.415  1.00 20.00     0.184 C 
HETATM    6  C6  UNL     1     -33.987   6.531   4.079  1.00 20.00     0.090 C 
HETATM    7  O7  UNL     1     -31.968   7.433   3.206  1.00 20.00    -0.390 OA
ENDROOT
TORSDOF 0
ENDMDL
MODEL 3
REMARK VINA RESULT:      -3.7     16.549     17.135
REMARK  0 active torsions:
REMARK  status: ('A' for Active; 'I' for Inactive)
ROOT
HETATM    1  C1  UNL     1     -23.058  17.186  11.850  1.00 20.00     0.012 C 
HETATM    2  C2  UNL     1     -23.102  17.797  10.818  1.00 20.00    -0.110 C 
HETATM    3  C3  UNL     1     -24.558  18.673   9.007  1.00 20.00     0.045 C 
HETATM    4  C4  UNL     1     -24.293  18.940   7.541  1.00 20.00     0.169 C 
HETATM    5  C5  UNL     1     -22.441  17.834   8.421  1.00 20.00     0.184 C 
HETATM    6  C6  UNL     1     -23.156  18.543   9.558  1.00 20.00     0.090 C 
HETATM    7  O7  UNL     1     -23.102  18.217   7.204  1.00 20.00    -0.390 OA
ENDROOT
TORSDOF 0
ENDMDL
MODEL 4
REMARK VINA RESULT:      -3.7     11.829     12.460
REMARK  0 active torsions:
REMARK  status: ('A' for Active; 'I' for Inactive)
ROOT
HETATM    1  C1  UNL     1     -32.648  17.643  -1.841  1.00 20.00     0.012 C 
HETATM    2  C2  UNL     1     -33.180  16.923  -2.640  1.00 20.00    -0.110 C 
HETATM    3  C3  UNL     1     -34.960  15.235  -3.023  1.00 20.00     0.045 C 
HETATM    4  C4  UNL     1     -35.063  14.083  -3.998  1.00 20.00     0.169 C 
HETATM    5  C5  UNL     1     -32.907  14.954  -4.135  1.00 20.00     0.184 C 
HETATM    6  C6  UNL     1     -33.829  16.045  -3.616  1.00 20.00     0.090 C 
HETATM    7  O7  UNL     1     -33.734  13.829  -4.470  1.00 20.00    -0.390 OA
ENDROOT
TORSDOF 0
ENDMDL
MODEL 5
REMARK VINA RESULT:      -3.7     12.123     12.883
REMARK  0 active torsions:
REMARK  status: ('A' for Active; 'I' for Inactive)
ROOT
HETATM    1  C1  UNL     1     -34.939  16.121  -1.872  1.00 20.00     0.012 C 
HETATM    2  C2  UNL     1     -34.854  15.523  -2.910  1.00 20.00    -0.110 C 
HETATM    3  C3  UNL     1     -34.849  15.693  -5.387  1.00 20.00     0.045 C 
HETATM    4  C4  UNL     1     -35.273  14.719  -6.465  1.00 20.00     0.169 C 
HETATM    5  C5  UNL     1     -35.908  13.838  -4.404  1.00 20.00     0.184 C 
HETATM    6  C6  UNL     1     -34.750  14.794  -4.175  1.00 20.00     0.090 C 
HETATM    7  O7  UNL     1     -36.096  13.736  -5.825  1.00 20.00    -0.390 OA
ENDROOT
TORSDOF 0
ENDMDL
MODEL 6
REMARK VINA RESULT:      -3.5     16.929     17.488
REMARK  0 active torsions:
REMARK  status: ('A' for Active; 'I' for Inactive)
ROOT
HETATM    1  C1  UNL     1     -25.832  18.525  11.932  1.00 20.00     0.012 C 
HETATM    2  C2  UNL     1     -24.987  18.262  11.122  1.00 20.00    -0.110 C 
HETATM    3  C3  UNL     1     -22.575  17.815  10.738  1.00 20.00     0.045 C 
HETATM    4  C4  UNL     1     -21.686  18.048   9.536  1.00 20.00     0.169 C 
HETATM    5  C5  UNL     1     -23.746  19.049   9.115  1.00 20.00     0.184 C 
HETATM    6  C6  UNL     1     -23.956  17.941  10.133  1.00 20.00     0.090 C 
HETATM    7  O7  UNL     1     -22.375  18.981   8.695  1.00 20.00    -0.390 OA
ENDROOT
TORSDOF 0
ENDMDL
MODEL 7
REMARK VINA RESULT:      -3.5      8.977      9.399
REMARK  0 active torsions:
REMARK  status: ('A' for Active; 'I' for Inactive)
ROOT
HETATM    1  C1  UNL     1     -41.384   9.661   0.422  1.00 20.00     0.012 C 
HETATM    2  C2  UNL     1     -41.421   8.464   0.350  1.00 20.00    -0.110 C 
HETATM    3  C3  UNL     1     -41.158   6.483  -1.125  1.00 20.00     0.045 C 
HETATM    4  C4  UNL     1     -41.796   5.112  -1.092  1.00 20.00     0.169 C 
HETATM    5  C5  UNL     1     -42.856   6.439   0.503  1.00 20.00     0.184 C 
HETATM    6  C6  UNL     1     -41.466   7.003   0.262  1.00 20.00     0.090 C 
HETATM    7  O7  UNL     1     -42.951   5.219  -0.250  1.00 20.00    -0.390 OA
ENDROOT
TORSDOF 0
ENDMDL
MODEL 8
REMARK VINA RESULT:      -3.5     11.507     12.231
REMARK  0 active torsions:
REMARK  status: ('A' for Active; 'I' for Inactive)
ROOT
HETATM    1  C1  UNL     1     -33.567  16.616  -2.293  1.00 20.00     0.012 C 
HETATM    2  C2  UNL     1     -34.197  15.987  -3.097  1.00 20.00    -0.110 C 
HETATM    3  C3  UNL     1     -36.458  15.279  -3.842  1.00 20.00     0.045 C 
HETATM    4  C4  UNL     1     -36.938  14.039  -4.563  1.00 20.00     0.169 C 
HETATM    5  C5  UNL     1     -34.700  13.725  -4.001  1.00 20.00     0.184 C 
HETATM    6  C6  UNL     1     -34.965  15.219  -4.079  1.00 20.00     0.090 C 
HETATM    7  O7  UNL     1     -35.899  13.061  -4.430  1.00 20.00    -0.390 OA
ENDROOT
TORSDOF 0
ENDMDL
MODEL 9
REMARK VINA RESULT:      -3.5      9.221      9.777
REMARK  0 active torsions:
REMARK  status: ('A' for Active; 'I' for Inactive)
ROOT
HETATM    1  C1  UNL     1     -41.055   4.924  -1.232  1.00 20.00     0.012 C 
HETATM    2  C2  UNL     1     -41.220   6.110  -1.150  1.00 20.00    -0.110 C 
HETATM    3  C3  UNL     1     -41.106   8.106   0.324  1.00 20.00     0.045 C 
HETATM    4  C4  UNL     1     -41.892   9.398   0.332  1.00 20.00     0.169 C 
HETATM    5  C5  UNL     1     -42.876   7.964  -1.218  1.00 20.00     0.184 C 
HETATM    6  C6  UNL     1     -41.422   7.557  -1.050  1.00 20.00     0.090 C 
HETATM    7  O7  UNL     1     -43.069   9.165  -0.453  1.00 20.00    -0.390 OA
ENDROOT
TORSDOF 0
ENDMDL
