MODEL 1
REMARK VINA RESULT:      -3.8      0.000      0.000
REMARK  1 active torsions:
REMARK  status: ('A' for Active; 'I' for Inactive)
REMARK    1  A    between atoms: C1_1  and  C5_5 
ROOT
HETATM    1  C3  UNL     1     -34.523   5.968   5.939  1.00 20.00     0.009 A 
HETATM    2  C4  UNL     1     -35.184   5.094   4.915  1.00 20.00     0.009 A 
HETATM    3  C5  UNL     1     -33.809   5.647   4.653  1.00 20.00     0.009 A 
ENDROOT
BRANCH   3   4
HETATM    4  C1  UNL     1     -33.650   6.693   3.654  1.00 20.00    -0.015 C 
HETATM    5  C2  UNL     1     -32.739   6.646   2.676  1.00 20.00     0.052 C 
HETATM    6 BR6  UNL     1     -32.517   7.965   1.391  1.00 20.00    -0.064 Br
ENDBRANCH   3   4
TORSDOF 1
ENDMDL
MODEL 2
REMARK VINA RESULT:      -3.5      2.438      4.181
REMARK  1 active torsions:
REMARK  status: ('A' for Active; 'I' for Inactive)
REMARK    1  A    between atoms: C1_1  and  C5_5 
ROOT
HETATM    1  C3  UNL     1     -32.176   7.642   0.645  1.00 20.00     0.009 A 
HETATM    2  C4  UNL     1     -32.978   8.634   1.432  1.00 20.00     0.009 A 
HETATM    3  C5  UNL     1     -32.293   7.495   2.138  1.00 20.00     0.009 A 
ENDROOT
BRANCH   3   4
HETATM    4  C1  UNL     1     -33.102   6.414   2.680  1.00 20.00    -0.015 C 
HETATM    5  C2  UNL     1     -33.768   6.499   3.836  1.00 20.00     0.052 C 
HETATM    6 BR6  UNL     1     -34.806   5.137   4.548  1.00 20.00    -0.064 Br
ENDBRANCH   3   4
TORSDOF 1
ENDMDL
MODEL 3
REMARK VINA RESULT:      -3.3      1.535      2.041
REMARK  1 active torsions:
REMARK  status: ('A' for Active; 'I' for Inactive)
REMARK    1  A    between atoms: C1_1  and  C5_5 
ROOT
HETATM    1  C3  UNL     1     -34.162   5.130   3.676  1.00 20.00     0.009 A 
HETATM    2  C4  UNL     1     -33.341   4.646   2.519  1.00 20.00     0.009 A 
HETATM    3  C5  UNL     1     -33.010   5.958   3.176  1.00 20.00     0.009 A 
ENDROOT
BRANCH   3   4
HETATM    4  C1  UNL     1     -33.287   7.194   2.460  1.00 20.00    -0.015 C 
HETATM    5  C2  UNL     1     -32.520   7.660   1.469  1.00 20.00     0.052 C 
HETATM    6 BR6  UNL     1     -32.852   9.231   0.540  1.00 20.00    -0.064 Br
ENDBRANCH   3   4
TORSDOF 1
ENDMDL
MODEL 4
REMARK VINA RESULT:      -3.1     11.832     12.434
REMARK  1 active torsions:
REMARK  status: ('A' for Active; 'I' for Inactive)
REMARK    1  A    between atoms: C1_1  and  C5_5 
ROOT
HETATM    1  C3  UNL     1     -34.211  15.341  -3.249  1.00 20.00     0.009 A 
HETATM    2  C4  UNL     1     -35.042  15.966  -2.169  1.00 20.00     0.009 A 
HETATM    3  C5  UNL     1     -34.014  16.791  -2.895  1.00 20.00     0.009 A 
ENDROOT
BRANCH   3   4
HETATM    4  C1  UNL     1     -32.804  17.187  -2.191  1.00 20.00    -0.015 C 
HETATM    5  C2  UNL     1     -32.797  18.034  -1.156  1.00 20.00     0.052 C 
HETATM    6 BR6  UNL     1     -31.269  18.554  -0.242  1.00 20.00    -0.064 Br
ENDBRANCH   3   4
TORSDOF 1
ENDMDL
MODEL 5
REMARK VINA RESULT:      -3.1     11.487     11.982
REMARK  1 active torsions:
REMARK  status: ('A' for Active; 'I' for Inactive)
REMARK    1  A    between atoms: C1_1  and  C5_5 
ROOT
HETATM    1  C3  UNL     1     -33.250  14.749  -4.200  1.00 20.00     0.009 A 
HETATM    2  C4  UNL     1     -34.623  14.197  -3.960  1.00 20.00     0.009 A 
HETATM    3  C5  UNL     1     -34.345  15.653  -3.700  1.00 20.00     0.009 A 
ENDROOT
BRANCH   3   4
HETATM    4  C1  UNL     1     -34.298  16.126  -2.325  1.00 20.00    -0.015 C 
HETATM    5  C2  UNL     1     -35.346  16.666  -1.694  1.00 20.00     0.052 C 
HETATM    6 BR6  UNL     1     -35.311  17.276   0.057  1.00 20.00    -0.064 Br
ENDBRANCH   3   4
TORSDOF 1
ENDMDL
MODEL 6
REMARK VINA RESULT:      -3.0      2.003      2.214
REMARK  1 active torsions:
REMARK  status: ('A' for Active; 'I' for Inactive)
REMARK    1  A    between atoms: C1_1  and  C5_5 
ROOT
HETATM    1  C3  UNL     1     -34.819   5.357   6.387  1.00 20.00     0.009 A 
HETATM    2  C4  UNL     1     -34.096   6.505   5.750  1.00 20.00     0.009 A 
HETATM    3  C5  UNL     1     -35.045   5.672   4.933  1.00 20.00     0.009 A 
ENDROOT
BRANCH   3   4
HETATM    4  C1  UNL     1     -34.505   4.774   3.924  1.00 20.00    -0.015 C 
HETATM    5  C2  UNL     1     -33.680   5.171   2.948  1.00 20.00     0.052 C 
HETATM    6 BR6  UNL     1     -32.978   4.046   1.651  1.00 20.00    -0.064 Br
ENDBRANCH   3   4
TORSDOF 1
ENDMDL
MODEL 7
REMARK VINA RESULT:      -3.0     11.640     12.046
REMARK  1 active torsions:
REMARK  status: ('A' for Active; 'I' for Inactive)
REMARK    1  A    between atoms: C1_1  and  C5_5 
ROOT
HETATM    1  C3  UNL     1     -36.086  14.005  -4.235  1.00 20.00     0.009 A 
HETATM    2  C4  UNL     1     -35.235  14.641  -5.292  1.00 20.00     0.009 A 
HETATM    3  C5  UNL     1     -34.662  14.380  -3.925  1.00 20.00     0.009 A 
ENDROOT
BRANCH   3   4
HETATM    4  C1  UNL     1     -34.404  15.507  -3.042  1.00 20.00    -0.015 C 
HETATM    5  C2  UNL     1     -33.282  16.234  -3.081  1.00 20.00     0.052 C 
HETATM    6 BR6  UNL     1     -32.930  17.674  -1.968  1.00 20.00    -0.064 Br
ENDBRANCH   3   4
TORSDOF 1
ENDMDL
MODEL 8
REMARK VINA RESULT:      -3.0     12.004     12.518
REMARK  1 active torsions:
REMARK  status: ('A' for Active; 'I' for Inactive)
REMARK    1  A    between atoms: C1_1  and  C5_5 
ROOT
HETATM    1  C3  UNL     1     -33.694  16.642  -2.268  1.00 20.00     0.009 A 
HETATM    2  C4  UNL     1     -35.016  15.935  -2.265  1.00 20.00     0.009 A 
HETATM    3  C5  UNL     1     -33.952  15.530  -3.249  1.00 20.00     0.009 A 
ENDROOT
BRANCH   3   4
HETATM    4  C1  UNL     1     -34.132  15.856  -4.655  1.00 20.00    -0.015 C 
HETATM    5  C2  UNL     1     -33.944  14.977  -5.646  1.00 20.00     0.052 C 
HETATM    6 BR6  UNL     1     -34.167  15.368  -7.445  1.00 20.00    -0.064 Br
ENDBRANCH   3   4
TORSDOF 1
ENDMDL
MODEL 9
REMARK VINA RESULT:      -3.0     16.504     17.005
REMARK  1 active torsions:
REMARK  status: ('A' for Active; 'I' for Inactive)
REMARK    1  A    between atoms: C1_1  and  C5_5 
ROOT
HETATM    1  C3  UNL     1     -22.364  17.447   8.242  1.00 20.00     0.009 A 
HETATM    2  C4  UNL     1     -21.648  18.088   9.393  1.00 20.00     0.009 A 
HETATM    3  C5  UNL     1     -22.856  17.227   9.648  1.00 20.00     0.009 A 
ENDROOT
BRANCH   3   4
HETATM    4  C1  UNL     1     -24.096  17.860  10.068  1.00 20.00    -0.015 C 
HETATM    5  C2  UNL     1     -24.464  17.983  11.348  1.00 20.00     0.052 C 
HETATM    6 BR6  UNL     1     -26.039  18.785  11.910  1.00 20.00    -0.064 Br
ENDBRANCH   3   4
TORSDOF 1
ENDMDL
