MODEL 1
REMARK VINA RESULT:      -5.2      0.000      0.000
REMARK  2 active torsions:
REMARK  status: ('A' for Active; 'I' for Inactive)
REMARK    1  A    between atoms: C4_4  and  C6_6 
REMARK    2  A    between atoms: C6_6  and  O7_7 
ROOT
HETATM    1  C1  UNL     1     -33.577   4.946   2.724  1.00 20.00     0.013 C 
HETATM    2  C2  UNL     1     -34.170   4.229   3.927  1.00 20.00     0.079 C 
HETATM    3  C3  UNL     1     -33.926   6.535   4.564  1.00 20.00     0.085 C 
HETATM    4  C4  UNL     1     -33.104   6.297   3.284  1.00 20.00     0.015 C 
HETATM    5  C5  UNL     1     -34.877   5.356   4.646  1.00 20.00     0.244 C 
HETATM    6  F8  UNL     1     -36.035   5.654   4.008  1.00 20.00    -0.206 F 
HETATM    7  F9  UNL     1     -35.181   5.038   5.916  1.00 20.00    -0.206 F 
ENDROOT
BRANCH   4   8
HETATM    8  C6  UNL     1     -33.242   7.423   2.269  1.00 20.00     0.168 C 
BRANCH   8   9
HETATM    9  O7  UNL     1     -32.068   7.470   1.475  1.00 20.00    -0.400 OA
HETATM   10  H19 UNL     1     -32.215   6.880   0.717  1.00 20.00     0.209 HD
ENDBRANCH   8   9
ENDBRANCH   4   8
TORSDOF 2
ENDMDL
MODEL 2
REMARK VINA RESULT:      -5.0      1.686      2.389
REMARK  2 active torsions:
REMARK  status: ('A' for Active; 'I' for Inactive)
REMARK    1  A    between atoms: C4_4  and  C6_6 
REMARK    2  A    between atoms: C6_6  and  O7_7 
ROOT
HETATM    1  C1  UNL     1     -33.225   7.072   4.986  1.00 20.00     0.013 C 
HETATM    2  C2  UNL     1     -34.131   6.759   6.167  1.00 20.00     0.079 C 
HETATM    3  C3  UNL     1     -34.910   5.408   4.336  1.00 20.00     0.085 C 
HETATM    4  C4  UNL     1     -33.968   6.488   3.773  1.00 20.00     0.015 C 
HETATM    5  C5  UNL     1     -34.621   5.370   5.825  1.00 20.00     0.244 C 
HETATM    6  F8  UNL     1     -33.648   4.463   6.081  1.00 20.00    -0.206 F 
HETATM    7  F9  UNL     1     -35.703   5.021   6.543  1.00 20.00    -0.206 F 
ENDROOT
BRANCH   4   8
HETATM    8  C6  UNL     1     -33.014   5.953   2.715  1.00 20.00     0.168 C 
BRANCH   8   9
HETATM    9  O7  UNL     1     -33.274   4.572   2.521  1.00 20.00    -0.400 OA
HETATM   10  H19 UNL     1     -32.417   4.141   2.366  1.00 20.00     0.209 HD
ENDBRANCH   8   9
ENDBRANCH   4   8
TORSDOF 2
ENDMDL
MODEL 3
REMARK VINA RESULT:      -4.7      2.704      3.480
REMARK  2 active torsions:
REMARK  status: ('A' for Active; 'I' for Inactive)
REMARK    1  A    between atoms: C4_4  and  C6_6 
REMARK    2  A    between atoms: C6_6  and  O7_7 
ROOT
HETATM    1  C1  UNL     1     -33.843   4.334   3.702  1.00 20.00     0.013 C 
HETATM    2  C2  UNL     1     -33.331   4.946   2.407  1.00 20.00     0.079 C 
HETATM    3  C3  UNL     1     -34.301   6.747   3.672  1.00 20.00     0.085 C 
HETATM    4  C4  UNL     1     -34.760   5.416   4.295  1.00 20.00     0.015 C 
HETATM    5  C5  UNL     1     -33.107   6.386   2.809  1.00 20.00     0.244 C 
HETATM    6  F8  UNL     1     -31.967   6.489   3.535  1.00 20.00    -0.206 F 
HETATM    7  F9  UNL     1     -32.986   7.199   1.745  1.00 20.00    -0.206 F 
ENDROOT
BRANCH   4   8
HETATM    8  C6  UNL     1     -34.728   5.429   5.817  1.00 20.00     0.168 C 
BRANCH   8   9
HETATM    9  O7  UNL     1     -34.153   6.650   6.251  1.00 20.00    -0.400 OA
HETATM   10  H19 UNL     1     -34.571   7.359   5.735  1.00 20.00     0.209 HD
ENDBRANCH   8   9
ENDBRANCH   4   8
TORSDOF 2
ENDMDL
MODEL 4
REMARK VINA RESULT:      -4.5     12.145     12.582
REMARK  2 active torsions:
REMARK  status: ('A' for Active; 'I' for Inactive)
REMARK    1  A    between atoms: C4_4  and  C6_6 
REMARK    2  A    between atoms: C6_6  and  O7_7 
ROOT
HETATM    1  C1  UNL     1     -35.453  15.390  -3.141  1.00 20.00     0.013 C 
HETATM    2  C2  UNL     1     -34.950  16.127  -1.909  1.00 20.00     0.079 C 
HETATM    3  C3  UNL     1     -33.059  15.886  -3.375  1.00 20.00     0.085 C 
HETATM    4  C4  UNL     1     -34.172  14.940  -3.862  1.00 20.00     0.015 C 
HETATM    5  C5  UNL     1     -33.754  16.874  -2.457  1.00 20.00     0.244 C 
HETATM    6  F8  UNL     1     -34.171  17.948  -3.170  1.00 20.00    -0.206 F 
HETATM    7  F9  UNL     1     -32.942  17.320  -1.484  1.00 20.00    -0.206 F 
ENDROOT
BRANCH   4   8
HETATM    8  C6  UNL     1     -34.332  14.938  -5.375  1.00 20.00     0.168 C 
BRANCH   8   9
HETATM    9  O7  UNL     1     -33.108  14.529  -5.963  1.00 20.00    -0.400 OA
HETATM   10  H19 UNL     1     -32.612  14.049  -5.280  1.00 20.00     0.209 HD
ENDBRANCH   8   9
ENDBRANCH   4   8
TORSDOF 2
ENDMDL
MODEL 5
REMARK VINA RESULT:      -4.4      8.787      9.414
REMARK  2 active torsions:
REMARK  status: ('A' for Active; 'I' for Inactive)
REMARK    1  A    between atoms: C4_4  and  C6_6 
REMARK    2  A    between atoms: C6_6  and  O7_7 
ROOT
HETATM    1  C1  UNL     1     -41.774   6.244  -0.871  1.00 20.00     0.013 C 
HETATM    2  C2  UNL     1     -41.326   7.687  -1.050  1.00 20.00     0.079 C 
HETATM    3  C3  UNL     1     -43.024   7.708   0.653  1.00 20.00     0.085 C 
HETATM    4  C4  UNL     1     -43.081   6.350  -0.069  1.00 20.00     0.015 C 
HETATM    5  C5  UNL     1     -41.670   8.289   0.295  1.00 20.00     0.244 C 
HETATM    6  F8  UNL     1     -40.750   7.913   1.216  1.00 20.00    -0.206 F 
HETATM    7  F9  UNL     1     -41.687   9.633   0.261  1.00 20.00    -0.206 F 
ENDROOT
BRANCH   4   8
HETATM    8  C6  UNL     1     -43.271   5.177   0.882  1.00 20.00     0.168 C 
BRANCH   8   9
HETATM    9  O7  UNL     1     -42.005   4.797   1.397  1.00 20.00    -0.400 OA
HETATM   10  H19 UNL     1     -42.151   4.495   2.309  1.00 20.00     0.209 HD
ENDBRANCH   8   9
ENDBRANCH   4   8
TORSDOF 2
ENDMDL
MODEL 6
REMARK VINA RESULT:      -4.3     16.902     17.672
REMARK  2 active torsions:
REMARK  status: ('A' for Active; 'I' for Inactive)
REMARK    1  A    between atoms: C4_4  and  C6_6 
REMARK    2  A    between atoms: C6_6  and  O7_7 
ROOT
HETATM    1  C1  UNL     1     -24.749  18.161   9.882  1.00 20.00     0.013 C 
HETATM    2  C2  UNL     1     -23.662  18.876   9.094  1.00 20.00     0.079 C 
HETATM    3  C3  UNL     1     -22.582  17.891  11.004  1.00 20.00     0.085 C 
HETATM    4  C4  UNL     1     -24.102  17.874  11.246  1.00 20.00     0.015 C 
HETATM    5  C5  UNL     1     -22.423  18.116   9.512  1.00 20.00     0.244 C 
HETATM    6  F8  UNL     1     -22.376  16.924   8.870  1.00 20.00    -0.206 F 
HETATM    7  F9  UNL     1     -21.293  18.782   9.217  1.00 20.00    -0.206 F 
ENDROOT
BRANCH   4   8
HETATM    8  C6  UNL     1     -24.594  16.569  11.855  1.00 20.00     0.168 C 
BRANCH   8   9
HETATM    9  O7  UNL     1     -23.475  15.742  12.127  1.00 20.00    -0.400 OA
HETATM   10  H19 UNL     1     -22.907  15.764  11.339  1.00 20.00     0.209 HD
ENDBRANCH   8   9
ENDBRANCH   4   8
TORSDOF 2
ENDMDL
MODEL 7
REMARK VINA RESULT:      -4.3     11.868     12.625
REMARK  2 active torsions:
REMARK  status: ('A' for Active; 'I' for Inactive)
REMARK    1  A    between atoms: C4_4  and  C6_6 
REMARK    2  A    between atoms: C6_6  and  O7_7 
ROOT
HETATM    1  C1  UNL     1     -35.095  15.980  -5.185  1.00 20.00     0.013 C 
HETATM    2  C2  UNL     1     -34.092  16.857  -4.450  1.00 20.00     0.079 C 
HETATM    3  C3  UNL     1     -34.896  15.254  -2.847  1.00 20.00     0.085 C 
HETATM    4  C4  UNL     1     -35.838  15.234  -4.065  1.00 20.00     0.015 C 
HETATM    5  C5  UNL     1     -33.635  15.942  -3.336  1.00 20.00     0.244 C 
HETATM    6  F8  UNL     1     -32.768  15.022  -3.822  1.00 20.00    -0.206 F 
HETATM    7  F9  UNL     1     -33.010  16.612  -2.352  1.00 20.00    -0.206 F 
ENDROOT
BRANCH   4   8
HETATM    8  C6  UNL     1     -36.246  13.828  -4.480  1.00 20.00     0.168 C 
BRANCH   8   9
HETATM    9  O7  UNL     1     -37.659  13.729  -4.434  1.00 20.00    -0.400 OA
HETATM   10  H19 UNL     1     -37.946  14.149  -3.606  1.00 20.00     0.209 HD
ENDBRANCH   8   9
ENDBRANCH   4   8
TORSDOF 2
ENDMDL
MODEL 8
REMARK VINA RESULT:      -4.3      8.643      9.027
REMARK  2 active torsions:
REMARK  status: ('A' for Active; 'I' for Inactive)
REMARK    1  A    between atoms: C4_4  and  C6_6 
REMARK    2  A    between atoms: C6_6  and  O7_7 
ROOT
HETATM    1  C1  UNL     1     -40.847   7.256  -0.829  1.00 20.00     0.013 C 
HETATM    2  C2  UNL     1     -41.104   5.776  -0.592  1.00 20.00     0.079 C 
HETATM    3  C3  UNL     1     -42.512   6.966   0.952  1.00 20.00     0.085 C 
HETATM    4  C4  UNL     1     -41.466   7.949   0.395  1.00 20.00     0.015 C 
HETATM    5  C5  UNL     1     -42.498   5.791  -0.007  1.00 20.00     0.244 C 
HETATM    6  F8  UNL     1     -43.408   5.990  -0.991  1.00 20.00    -0.206 F 
HETATM    7  F9  UNL     1     -42.806   4.634   0.604  1.00 20.00    -0.206 F 
ENDROOT
BRANCH   4   8
HETATM    8  C6  UNL     1     -42.052   9.311   0.052  1.00 20.00     0.168 C 
BRANCH   8   9
HETATM    9  O7  UNL     1     -41.163  10.319   0.504  1.00 20.00    -0.400 OA
HETATM   10  H19 UNL     1     -40.389  10.298  -0.084  1.00 20.00     0.209 HD
ENDBRANCH   8   9
ENDBRANCH   4   8
TORSDOF 2
ENDMDL
MODEL 9
REMARK VINA RESULT:      -4.3     11.781     12.428
REMARK  2 active torsions:
REMARK  status: ('A' for Active; 'I' for Inactive)
REMARK    1  A    between atoms: C4_4  and  C6_6 
REMARK    2  A    between atoms: C6_6  and  O7_7 
ROOT
HETATM    1  C1  UNL     1     -35.239  16.171  -2.937  1.00 20.00     0.013 C 
HETATM    2  C2  UNL     1     -33.733  15.961  -2.936  1.00 20.00     0.079 C 
HETATM    3  C3  UNL     1     -34.679  14.098  -4.128  1.00 20.00     0.085 C 
HETATM    4  C4  UNL     1     -35.812  14.812  -3.368  1.00 20.00     0.015 C 
HETATM    5  C5  UNL     1     -33.537  15.097  -4.162  1.00 20.00     0.244 C 
HETATM    6  F8  UNL     1     -33.626  15.858  -5.280  1.00 20.00    -0.206 F 
HETATM    7  F9  UNL     1     -32.336  14.494  -4.173  1.00 20.00    -0.206 F 
ENDROOT
BRANCH   4   8
HETATM    8  C6  UNL     1     -37.083  14.955  -4.192  1.00 20.00     0.168 C 
BRANCH   8   9
HETATM    9  O7  UNL     1     -37.627  13.666  -4.421  1.00 20.00    -0.400 OA
HETATM   10  H19 UNL     1     -37.333  13.100  -3.688  1.00 20.00     0.209 HD
ENDBRANCH   8   9
ENDBRANCH   4   8
TORSDOF 2
ENDMDL
