MODEL 1
REMARK VINA RESULT:      -4.2      0.000      0.000
REMARK  2 active torsions:
REMARK  status: ('A' for Active; 'I' for Inactive)
REMARK    1  A    between atoms: C4_4  and  O9_9 
REMARK    2  A    between atoms: C7_7  and  O9_9 
ROOT
HETATM    1  C1  UNL     1     -34.383   4.919   4.640  1.00 20.00     0.155 C 
HETATM    2  C2  UNL     1     -34.879   5.378   6.023  1.00 20.00     0.084 C 
HETATM    3  C3  UNL     1     -34.278   6.764   5.695  1.00 20.00     0.047 C 
HETATM    4  C4  UNL     1     -33.537   6.193   4.459  1.00 20.00     0.191 C 
HETATM    5  O8  UNL     1     -34.587   3.937   3.959  1.00 20.00    -0.295 OA
ENDROOT
BRANCH   4   6
HETATM    6  O9  UNL     1     -33.764   6.862   3.210  1.00 20.00    -0.374 OA
BRANCH   6   7
HETATM    7  C7  UNL     1     -32.548   7.069   2.515  1.00 20.00     0.114 C 
HETATM    8  C5  UNL     1     -32.791   8.018   1.351  1.00 20.00     0.039 C 
HETATM    9  C6  UNL     1     -31.505   7.612   3.481  1.00 20.00     0.039 C 
ENDBRANCH   6   7
ENDBRANCH   4   6
TORSDOF 2
ENDMDL
MODEL 2
REMARK VINA RESULT:      -4.2     15.798     16.787
REMARK  2 active torsions:
REMARK  status: ('A' for Active; 'I' for Inactive)
REMARK    1  A    between atoms: C4_4  and  O9_9 
REMARK    2  A    between atoms: C7_7  and  O9_9 
ROOT
HETATM    1  C1  UNL     1     -24.466  18.968   7.093  1.00 20.00     0.155 C 
HETATM    2  C2  UNL     1     -25.889  19.263   7.602  1.00 20.00     0.084 C 
HETATM    3  C3  UNL     1     -25.315  19.170   9.034  1.00 20.00     0.047 C 
HETATM    4  C4  UNL     1     -23.982  18.583   8.504  1.00 20.00     0.191 C 
HETATM    5  O8  UNL     1     -23.936  19.024   6.005  1.00 20.00    -0.295 OA
ENDROOT
BRANCH   4   6
HETATM    6  O9  UNL     1     -22.781  19.257   8.905  1.00 20.00    -0.374 OA
BRANCH   6   7
HETATM    7  C7  UNL     1     -21.857  18.352   9.480  1.00 20.00     0.114 C 
HETATM    8  C5  UNL     1     -22.396  17.869  10.818  1.00 20.00     0.039 C 
HETATM    9  C6  UNL     1     -21.617  17.200   8.515  1.00 20.00     0.039 C 
ENDBRANCH   6   7
ENDBRANCH   4   6
TORSDOF 2
ENDMDL
MODEL 3
REMARK VINA RESULT:      -4.1     15.732     16.655
REMARK  2 active torsions:
REMARK  status: ('A' for Active; 'I' for Inactive)
REMARK    1  A    between atoms: C4_4  and  O9_9 
REMARK    2  A    between atoms: C7_7  and  O9_9 
ROOT
HETATM    1  C1  UNL     1     -23.852  18.443   7.723  1.00 20.00     0.155 C 
HETATM    2  C2  UNL     1     -25.104  19.263   7.366  1.00 20.00     0.084 C 
HETATM    3  C3  UNL     1     -25.450  19.250   8.872  1.00 20.00     0.047 C 
HETATM    4  C4  UNL     1     -24.362  18.182   9.153  1.00 20.00     0.191 C 
HETATM    5  O8  UNL     1     -22.851  18.130   7.115  1.00 20.00    -0.295 OA
ENDROOT
BRANCH   4   6
HETATM    6  O9  UNL     1     -23.404  18.498  10.173  1.00 20.00    -0.374 OA
BRANCH   6   7
HETATM    7  C7  UNL     1     -23.054  17.345  10.917  1.00 20.00     0.114 C 
HETATM    8  C5  UNL     1     -22.676  17.757  12.332  1.00 20.00     0.039 C 
HETATM    9  C6  UNL     1     -24.220  16.368  10.904  1.00 20.00     0.039 C 
ENDBRANCH   6   7
ENDBRANCH   4   6
TORSDOF 2
ENDMDL
MODEL 4
REMARK VINA RESULT:      -3.9     11.550     12.158
REMARK  2 active torsions:
REMARK  status: ('A' for Active; 'I' for Inactive)
REMARK    1  A    between atoms: C4_4  and  O9_9 
REMARK    2  A    between atoms: C7_7  and  O9_9 
ROOT
HETATM    1  C1  UNL     1     -36.522  13.939  -4.376  1.00 20.00     0.155 C 
HETATM    2  C2  UNL     1     -37.959  14.488  -4.338  1.00 20.00     0.084 C 
HETATM    3  C3  UNL     1     -37.338  15.896  -4.201  1.00 20.00     0.047 C 
HETATM    4  C4  UNL     1     -35.934  15.294  -3.940  1.00 20.00     0.191 C 
HETATM    5  O8  UNL     1     -36.043  12.860  -4.650  1.00 20.00    -0.295 OA
ENDROOT
BRANCH   4   6
HETATM    6  O9  UNL     1     -34.870  15.759  -4.784  1.00 20.00    -0.374 OA
BRANCH   6   7
HETATM    7  C7  UNL     1     -33.650  15.832  -4.070  1.00 20.00     0.114 C 
HETATM    8  C5  UNL     1     -33.945  16.028  -2.591  1.00 20.00     0.039 C 
HETATM    9  C6  UNL     1     -32.843  14.566  -4.324  1.00 20.00     0.039 C 
ENDBRANCH   6   7
ENDBRANCH   4   6
TORSDOF 2
ENDMDL
MODEL 5
REMARK VINA RESULT:      -3.8     11.592     12.436
REMARK  2 active torsions:
REMARK  status: ('A' for Active; 'I' for Inactive)
REMARK    1  A    between atoms: C4_4  and  O9_9 
REMARK    2  A    between atoms: C7_7  and  O9_9 
ROOT
HETATM    1  C1  UNL     1     -35.740  13.910  -5.021  1.00 20.00     0.155 C 
HETATM    2  C2  UNL     1     -35.832  14.517  -6.433  1.00 20.00     0.084 C 
HETATM    3  C3  UNL     1     -34.988  15.696  -5.899  1.00 20.00     0.047 C 
HETATM    4  C4  UNL     1     -35.170  15.216  -4.436  1.00 20.00     0.191 C 
HETATM    5  O8  UNL     1     -36.007  12.823  -4.556  1.00 20.00    -0.295 OA
ENDROOT
BRANCH   4   6
HETATM    6  O9  UNL     1     -33.971  15.029  -3.670  1.00 20.00    -0.374 OA
BRANCH   6   7
HETATM    7  C7  UNL     1     -33.916  15.933  -2.583  1.00 20.00     0.114 C 
HETATM    8  C5  UNL     1     -33.115  17.160  -2.991  1.00 20.00     0.039 C 
HETATM    9  C6  UNL     1     -35.333  16.296  -2.161  1.00 20.00     0.039 C 
ENDBRANCH   6   7
ENDBRANCH   4   6
TORSDOF 2
ENDMDL
MODEL 6
REMARK VINA RESULT:      -3.7      1.158      2.110
REMARK  2 active torsions:
REMARK  status: ('A' for Active; 'I' for Inactive)
REMARK    1  A    between atoms: C4_4  and  O9_9 
REMARK    2  A    between atoms: C7_7  and  O9_9 
ROOT
HETATM    1  C1  UNL     1     -34.082   6.302   5.466  1.00 20.00     0.155 C 
HETATM    2  C2  UNL     1     -34.957   5.089   5.829  1.00 20.00     0.084 C 
HETATM    3  C3  UNL     1     -34.922   4.711   4.330  1.00 20.00     0.047 C 
HETATM    4  C4  UNL     1     -34.308   6.084   3.958  1.00 20.00     0.191 C 
HETATM    5  O8  UNL     1     -33.455   7.109   6.118  1.00 20.00    -0.295 OA
ENDROOT
BRANCH   4   6
HETATM    6  O9  UNL     1     -33.095   6.056   3.192  1.00 20.00    -0.374 OA
BRANCH   6   7
HETATM    7  C7  UNL     1     -32.705   7.362   2.809  1.00 20.00     0.114 C 
HETATM    8  C5  UNL     1     -31.414   7.731   3.523  1.00 20.00     0.039 C 
HETATM    9  C6  UNL     1     -32.552   7.416   1.296  1.00 20.00     0.039 C 
ENDBRANCH   6   7
ENDBRANCH   4   6
TORSDOF 2
ENDMDL
MODEL 7
REMARK VINA RESULT:      -3.7     15.597     16.260
REMARK  2 active torsions:
REMARK  status: ('A' for Active; 'I' for Inactive)
REMARK    1  A    between atoms: C4_4  and  O9_9 
REMARK    2  A    between atoms: C7_7  and  O9_9 
ROOT
HETATM    1  C1  UNL     1     -25.015  16.729  11.724  1.00 20.00     0.155 C 
HETATM    2  C2  UNL     1     -26.183  17.525  12.332  1.00 20.00     0.084 C 
HETATM    3  C3  UNL     1     -25.729  18.715  11.456  1.00 20.00     0.047 C 
HETATM    4  C4  UNL     1     -24.403  17.997  11.099  1.00 20.00     0.191 C 
HETATM    5  O8  UNL     1     -24.704  15.558  11.731  1.00 20.00    -0.295 OA
ENDROOT
BRANCH   4   6
HETATM    6  O9  UNL     1     -24.103  17.864   9.702  1.00 20.00    -0.374 OA
BRANCH   6   7
HETATM    7  C7  UNL     1     -22.751  18.192   9.439  1.00 20.00     0.114 C 
HETATM    8  C5  UNL     1     -21.908  17.862  10.661  1.00 20.00     0.039 C 
HETATM    9  C6  UNL     1     -22.283  17.433   8.205  1.00 20.00     0.039 C 
ENDBRANCH   6   7
ENDBRANCH   4   6
TORSDOF 2
ENDMDL
MODEL 8
REMARK VINA RESULT:      -3.6     11.655     12.226
REMARK  2 active torsions:
REMARK  status: ('A' for Active; 'I' for Inactive)
REMARK    1  A    between atoms: C4_4  and  O9_9 
REMARK    2  A    between atoms: C7_7  and  O9_9 
ROOT
HETATM    1  C1  UNL     1     -33.487  15.553  -3.538  1.00 20.00     0.155 C 
HETATM    2  C2  UNL     1     -33.612  16.484  -2.320  1.00 20.00     0.084 C 
HETATM    3  C3  UNL     1     -35.103  16.079  -2.258  1.00 20.00     0.047 C 
HETATM    4  C4  UNL     1     -35.015  15.399  -3.648  1.00 20.00     0.191 C 
HETATM    5  O8  UNL     1     -32.547  15.109  -4.162  1.00 20.00    -0.295 OA
ENDROOT
BRANCH   4   6
HETATM    6  O9  UNL     1     -35.453  14.034  -3.721  1.00 20.00    -0.374 OA
BRANCH   6   7
HETATM    7  C7  UNL     1     -36.401  13.859  -4.759  1.00 20.00     0.114 C 
HETATM    8  C5  UNL     1     -37.713  14.515  -4.354  1.00 20.00     0.039 C 
HETATM    9  C6  UNL     1     -35.847  14.447  -6.048  1.00 20.00     0.039 C 
ENDBRANCH   6   7
ENDBRANCH   4   6
TORSDOF 2
ENDMDL
MODEL 9
REMARK VINA RESULT:      -3.5     11.740     12.511
REMARK  2 active torsions:
REMARK  status: ('A' for Active; 'I' for Inactive)
REMARK    1  A    between atoms: C4_4  and  O9_9 
REMARK    2  A    between atoms: C7_7  and  O9_9 
ROOT
HETATM    1  C1  UNL     1     -36.529  14.366  -4.914  1.00 20.00     0.155 C 
HETATM    2  C2  UNL     1     -35.818  14.354  -6.279  1.00 20.00     0.084 C 
HETATM    3  C3  UNL     1     -34.793  15.337  -5.670  1.00 20.00     0.047 C 
HETATM    4  C4  UNL     1     -35.689  15.561  -4.425  1.00 20.00     0.191 C 
HETATM    5  O8  UNL     1     -37.405  13.690  -4.418  1.00 20.00    -0.295 OA
ENDROOT
BRANCH   4   6
HETATM    6  O9  UNL     1     -35.073  15.347  -3.146  1.00 20.00    -0.374 OA
BRANCH   6   7
HETATM    7  C7  UNL     1     -34.674  16.574  -2.563  1.00 20.00     0.114 C 
HETATM    8  C5  UNL     1     -35.196  16.644  -1.136  1.00 20.00     0.039 C 
HETATM    9  C6  UNL     1     -33.157  16.684  -2.618  1.00 20.00     0.039 C 
ENDBRANCH   6   7
ENDBRANCH   4   6
TORSDOF 2
ENDMDL
