MODEL 1
REMARK VINA RESULT:      -4.6      0.000      0.000
REMARK  1 active torsions:
REMARK  status: ('A' for Active; 'I' for Inactive)
REMARK    1  A    between atoms: C3_3  and  C6_6 
ROOT
HETATM    1  C1  UNL     1     -22.569  17.518   9.390  1.00 20.00     0.068 A 
HETATM    2  C2  UNL     1     -24.633  18.430  10.141  1.00 20.00     0.126 A 
HETATM    3  C3  UNL     1     -23.462  17.749  10.431  1.00 20.00    -0.023 A 
HETATM    4  C4  UNL     1     -22.872  17.968   8.110  1.00 20.00     0.212 A 
HETATM    5  C5  UNL     1     -24.070  18.639   7.924  1.00 20.00     0.175 A 
HETATM    6  N7  UNL     1     -24.961  18.882   8.911  1.00 20.00    -0.244 NA
HETATM    7  O8  UNL     1     -22.045  17.754   7.153  1.00 20.00    -0.285 OA
HETATM    8 CL9  UNL     1     -24.597  19.263   6.400  1.00 20.00    -0.058 Cl
ENDROOT
BRANCH   3   9
HETATM    9  C6  UNL     1     -23.168  17.280  11.812  1.00 20.00     0.154 C 
HETATM   10 CL10 UNL     1     -21.553  17.817  12.332  1.00 20.00    -0.126 Cl
ENDBRANCH   3   9
TORSDOF 1
ENDMDL
MODEL 2
REMARK VINA RESULT:      -4.6     16.374     17.105
REMARK  1 active torsions:
REMARK  status: ('A' for Active; 'I' for Inactive)
REMARK    1  A    between atoms: C3_3  and  C6_6 
ROOT
HETATM    1  C1  UNL     1     -33.334   5.462   2.588  1.00 20.00     0.068 A 
HETATM    2  C2  UNL     1     -33.066   7.486   3.807  1.00 20.00     0.126 A 
HETATM    3  C3  UNL     1     -32.863   6.769   2.639  1.00 20.00    -0.023 A 
HETATM    4  C4  UNL     1     -33.983   4.919   3.692  1.00 20.00     0.212 A 
HETATM    5  C5  UNL     1     -34.135   5.719   4.812  1.00 20.00     0.175 A 
HETATM    6  N7  UNL     1     -33.691   6.993   4.899  1.00 20.00    -0.244 NA
HETATM    7  O8  UNL     1     -34.416   3.713   3.640  1.00 20.00    -0.285 OA
HETATM    8 CL9  UNL     1     -34.916   5.201   6.266  1.00 20.00    -0.058 Cl
ENDROOT
BRANCH   3   9
HETATM    9  C6  UNL     1     -32.164   7.378   1.475  1.00 20.00     0.154 C 
HETATM   10 CL10 UNL     1     -32.983   8.870   0.956  1.00 20.00    -0.126 Cl
ENDBRANCH   3   9
TORSDOF 1
ENDMDL
MODEL 3
REMARK VINA RESULT:      -4.5     16.577     18.046
REMARK  1 active torsions:
REMARK  status: ('A' for Active; 'I' for Inactive)
REMARK    1  A    between atoms: C3_3  and  C6_6 
ROOT
HETATM    1  C1  UNL     1     -34.524  14.402  -3.922  1.00 20.00     0.068 A 
HETATM    2  C2  UNL     1     -35.466  16.519  -3.388  1.00 20.00     0.126 A 
HETATM    3  C3  UNL     1     -34.343  15.717  -3.509  1.00 20.00    -0.023 A 
HETATM    4  C4  UNL     1     -35.805  13.935  -4.196  1.00 20.00     0.212 A 
HETATM    5  C5  UNL     1     -36.863  14.818  -4.043  1.00 20.00     0.175 A 
HETATM    6  N7  UNL     1     -36.726  16.102  -3.645  1.00 20.00    -0.244 NA
HETATM    7  O8  UNL     1     -35.968  12.722  -4.577  1.00 20.00    -0.285 OA
HETATM    8 CL9  UNL     1     -38.514  14.400  -4.342  1.00 20.00    -0.058 Cl
ENDROOT
BRANCH   3   9
HETATM    9  C6  UNL     1     -32.986  16.247  -3.208  1.00 20.00     0.154 C 
HETATM   10 CL10 UNL     1     -33.040  17.391  -1.846  1.00 20.00    -0.126 Cl
ENDBRANCH   3   9
TORSDOF 1
ENDMDL
MODEL 4
REMARK VINA RESULT:      -4.4      2.348      2.728
REMARK  1 active torsions:
REMARK  status: ('A' for Active; 'I' for Inactive)
REMARK    1  A    between atoms: C3_3  and  C6_6 
ROOT
HETATM    1  C1  UNL     1     -24.812  18.827   8.954  1.00 20.00     0.068 A 
HETATM    2  C2  UNL     1     -23.612  17.593  10.596  1.00 20.00     0.126 A 
HETATM    3  C3  UNL     1     -24.711  18.370  10.264  1.00 20.00    -0.023 A 
HETATM    4  C4  UNL     1     -23.825  18.499   8.031  1.00 20.00     0.212 A 
HETATM    5  C5  UNL     1     -22.766  17.717   8.464  1.00 20.00     0.175 A 
HETATM    6  N7  UNL     1     -22.635  17.254   9.727  1.00 20.00    -0.244 NA
HETATM    7  O8  UNL     1     -23.922  18.922   6.825  1.00 20.00    -0.285 OA
HETATM    8 CL9  UNL     1     -21.459  17.220   7.447  1.00 20.00    -0.058 Cl
ENDROOT
BRANCH   3   9
HETATM    9  C6  UNL     1     -25.750  18.703  11.275  1.00 20.00     0.154 C 
HETATM   10 CL10 UNL     1     -26.178  17.270  12.238  1.00 20.00    -0.126 Cl
ENDBRANCH   3   9
TORSDOF 1
ENDMDL
MODEL 5
REMARK VINA RESULT:      -4.3     15.181     16.663
REMARK  1 active torsions:
REMARK  status: ('A' for Active; 'I' for Inactive)
REMARK    1  A    between atoms: C3_3  and  C6_6 
ROOT
HETATM    1  C1  UNL     1     -33.012  15.838  -3.475  1.00 20.00     0.068 A 
HETATM    2  C2  UNL     1     -34.928  16.462  -2.212  1.00 20.00     0.126 A 
HETATM    3  C3  UNL     1     -33.587  16.651  -2.505  1.00 20.00    -0.023 A 
HETATM    4  C4  UNL     1     -33.784  14.872  -4.112  1.00 20.00     0.212 A 
HETATM    5  C5  UNL     1     -35.116  14.763  -3.746  1.00 20.00     0.175 A 
HETATM    6  N7  UNL     1     -35.710  15.535  -2.809  1.00 20.00    -0.244 NA
HETATM    7  O8  UNL     1     -33.250  14.124  -5.006  1.00 20.00    -0.285 OA
HETATM    8 CL9  UNL     1     -36.213  13.618  -4.438  1.00 20.00    -0.058 Cl
ENDROOT
BRANCH   3   9
HETATM    9  C6  UNL     1     -32.788  17.693  -1.805  1.00 20.00     0.154 C 
HETATM   10 CL10 UNL     1     -33.527  18.114  -0.242  1.00 20.00    -0.126 Cl
ENDBRANCH   3   9
TORSDOF 1
ENDMDL
MODEL 6
REMARK VINA RESULT:      -4.2     16.158     16.911
REMARK  1 active torsions:
REMARK  status: ('A' for Active; 'I' for Inactive)
REMARK    1  A    between atoms: C3_3  and  C6_6 
ROOT
HETATM    1  C1  UNL     1     -32.976   7.379   3.881  1.00 20.00     0.068 A 
HETATM    2  C2  UNL     1     -33.492   5.497   2.521  1.00 20.00     0.126 A 
HETATM    3  C3  UNL     1     -32.881   6.734   2.653  1.00 20.00    -0.023 A 
HETATM    4  C4  UNL     1     -33.671   6.776   4.924  1.00 20.00     0.212 A 
HETATM    5  C5  UNL     1     -34.247   5.538   4.690  1.00 20.00     0.175 A 
HETATM    6  N7  UNL     1     -34.174   4.881   3.511  1.00 20.00    -0.244 NA
HETATM    7  O8  UNL     1     -33.757   7.375   6.055  1.00 20.00    -0.285 OA
HETATM    8 CL9  UNL     1     -35.142   4.654   5.876  1.00 20.00    -0.058 Cl
ENDROOT
BRANCH   3   9
HETATM    9  C6  UNL     1     -32.145   7.352   1.517  1.00 20.00     0.154 C 
HETATM   10 CL10 UNL     1     -32.961   8.833   0.966  1.00 20.00    -0.126 Cl
ENDBRANCH   3   9
TORSDOF 1
ENDMDL
MODEL 7
REMARK VINA RESULT:      -4.1     16.721     18.182
REMARK  1 active torsions:
REMARK  status: ('A' for Active; 'I' for Inactive)
REMARK    1  A    between atoms: C3_3  and  C6_6 
ROOT
HETATM    1  C1  UNL     1     -34.992  14.673  -3.413  1.00 20.00     0.068 A 
HETATM    2  C2  UNL     1     -34.348  16.643  -4.579  1.00 20.00     0.126 A 
HETATM    3  C3  UNL     1     -34.428  15.944  -3.386  1.00 20.00    -0.023 A 
HETATM    4  C4  UNL     1     -35.453  14.149  -4.616  1.00 20.00     0.212 A 
HETATM    5  C5  UNL     1     -35.326  14.930  -5.754  1.00 20.00     0.175 A 
HETATM    6  N7  UNL     1     -34.783  16.168  -5.766  1.00 20.00    -0.244 NA
HETATM    7  O8  UNL     1     -35.972  12.977  -4.637  1.00 20.00    -0.285 OA
HETATM    8 CL9  UNL     1     -35.846  14.430  -7.326  1.00 20.00    -0.058 Cl
ENDROOT
BRANCH   3   9
HETATM    9  C6  UNL     1     -33.926  16.533  -2.115  1.00 20.00     0.154 C 
HETATM   10 CL10 UNL     1     -35.246  16.706  -0.934  1.00 20.00    -0.126 Cl
ENDBRANCH   3   9
TORSDOF 1
ENDMDL
MODEL 8
REMARK VINA RESULT:      -4.1     14.735     16.029
REMARK  1 active torsions:
REMARK  status: ('A' for Active; 'I' for Inactive)
REMARK    1  A    between atoms: C3_3  and  C6_6 
ROOT
HETATM    1  C1  UNL     1     -32.851  16.711  -2.969  1.00 20.00     0.068 A 
HETATM    2  C2  UNL     1     -34.949  15.921  -2.175  1.00 20.00     0.126 A 
HETATM    3  C3  UNL     1     -33.911  15.818  -3.086  1.00 20.00    -0.023 A 
HETATM    4  C4  UNL     1     -32.864  17.667  -1.959  1.00 20.00     0.212 A 
HETATM    5  C5  UNL     1     -33.950  17.687  -1.098  1.00 20.00     0.175 A 
HETATM    6  N7  UNL     1     -34.997  16.835  -1.181  1.00 20.00    -0.244 NA
HETATM    7  O8  UNL     1     -31.885  18.488  -1.854  1.00 20.00    -0.285 OA
HETATM    8 CL9  UNL     1     -34.122  18.807   0.208  1.00 20.00    -0.058 Cl
ENDROOT
BRANCH   3   9
HETATM    9  C6  UNL     1     -33.927  14.784  -4.156  1.00 20.00     0.154 C 
HETATM   10 CL10 UNL     1     -35.418  13.815  -4.076  1.00 20.00    -0.126 Cl
ENDBRANCH   3   9
TORSDOF 1
ENDMDL
MODEL 9
REMARK VINA RESULT:      -4.0     17.722     19.081
REMARK  1 active torsions:
REMARK  status: ('A' for Active; 'I' for Inactive)
REMARK    1  A    between atoms: C3_3  and  C6_6 
ROOT
HETATM    1  C1  UNL     1     -35.881  15.930  -3.820  1.00 20.00     0.068 A 
HETATM    2  C2  UNL     1     -36.125  13.654  -4.466  1.00 20.00     0.126 A 
HETATM    3  C3  UNL     1     -35.293  14.705  -4.116  1.00 20.00    -0.023 A 
HETATM    4  C4  UNL     1     -37.264  16.064  -3.884  1.00 20.00     0.212 A 
HETATM    5  C5  UNL     1     -38.007  14.952  -4.245  1.00 20.00     0.175 A 
HETATM    6  N7  UNL     1     -37.472  13.747  -4.539  1.00 20.00    -0.244 NA
HETATM    7  O8  UNL     1     -37.802  17.196  -3.610  1.00 20.00    -0.285 OA
HETATM    8 CL9  UNL     1     -39.732  14.948  -4.372  1.00 20.00    -0.058 Cl
ENDROOT
BRANCH   3   9
HETATM    9  C6  UNL     1     -33.817  14.529  -4.057  1.00 20.00     0.154 C 
HETATM   10 CL10 UNL     1     -33.034  15.975  -3.378  1.00 20.00    -0.126 Cl
ENDBRANCH   3   9
TORSDOF 1
ENDMDL
