MODEL 1
REMARK VINA RESULT:      -5.7      0.000      0.000
REMARK  1 active torsions:
REMARK  status: ('A' for Active; 'I' for Inactive)
REMARK    1  A    between atoms: C1_1  and  C4_4 
ROOT
HETATM    1  C2  UNL     1     -34.067  14.566  -4.673  1.00 20.00     0.026 C 
HETATM    2  C3  UNL     1     -35.521  15.444  -2.908  1.00 20.00     0.026 C 
HETATM    3  C4  UNL     1     -35.531  14.892  -4.340  1.00 20.00     0.088 C 
HETATM    4  C5  UNL     1     -33.249  15.446  -3.775  1.00 20.00     0.069 A 
HETATM    5  C6  UNL     1     -34.138  15.983  -2.697  1.00 20.00     0.069 A 
HETATM    6  C7  UNL     1     -33.494  16.911  -3.666  1.00 20.00     0.252 A 
HETATM    7  F10 UNL     1     -34.232  17.586  -4.611  1.00 20.00    -0.205 F 
HETATM    8  F11 UNL     1     -32.485  17.755  -3.255  1.00 20.00    -0.205 F 
ENDROOT
BRANCH   3   9
HETATM    9  C1  UNL     1     -36.399  13.655  -4.440  1.00 20.00     0.177 C 
HETATM   10  O8  UNL     1     -35.773  12.561  -4.496  1.00 20.00    -0.648 OA
HETATM   11  O9  UNL     1     -37.642  13.880  -4.454  1.00 20.00    -0.648 OA
ENDBRANCH   3   9
TORSDOF 1
ENDMDL
MODEL 2
REMARK VINA RESULT:      -5.6      1.285      1.851
REMARK  1 active torsions:
REMARK  status: ('A' for Active; 'I' for Inactive)
REMARK    1  A    between atoms: C1_1  and  C4_4 
ROOT
HETATM    1  C2  UNL     1     -35.542  16.241  -4.394  1.00 20.00     0.026 C 
HETATM    2  C3  UNL     1     -34.257  14.217  -3.891  1.00 20.00     0.026 C 
HETATM    3  C4  UNL     1     -35.683  14.786  -3.923  1.00 20.00     0.088 C 
HETATM    4  C5  UNL     1     -34.142  16.643  -4.036  1.00 20.00     0.069 A 
HETATM    5  C6  UNL     1     -33.357  15.405  -3.729  1.00 20.00     0.069 A 
HETATM    6  C7  UNL     1     -33.582  16.431  -2.674  1.00 20.00     0.252 A 
HETATM    7  F10 UNL     1     -34.398  16.181  -1.594  1.00 20.00    -0.205 F 
HETATM    8  F11 UNL     1     -32.536  17.207  -2.225  1.00 20.00    -0.205 F 
ENDROOT
BRANCH   3   9
HETATM    9  C1  UNL     1     -36.563  13.993  -4.865  1.00 20.00     0.177 C 
HETATM   10  O8  UNL     1     -37.711  13.710  -4.421  1.00 20.00    -0.648 OA
HETATM   11  O9  UNL     1     -36.034  13.715  -5.977  1.00 20.00    -0.648 OA
ENDBRANCH   3   9
TORSDOF 1
ENDMDL
MODEL 3
REMARK VINA RESULT:      -5.3     11.308     11.704
REMARK  1 active torsions:
REMARK  status: ('A' for Active; 'I' for Inactive)
REMARK    1  A    between atoms: C1_1  and  C4_4 
ROOT
HETATM    1  C2  UNL     1     -33.716   5.465   2.879  1.00 20.00     0.026 C 
HETATM    2  C3  UNL     1     -32.891   7.240   4.351  1.00 20.00     0.026 C 
HETATM    3  C4  UNL     1     -34.145   6.429   3.995  1.00 20.00     0.088 C 
HETATM    4  C5  UNL     1     -32.530   6.111   2.227  1.00 20.00     0.069 A 
HETATM    5  C6  UNL     1     -32.026   7.197   3.128  1.00 20.00     0.069 A 
HETATM    6  C7  UNL     1     -32.551   7.529   1.775  1.00 20.00     0.252 A 
HETATM    7  F10 UNL     1     -33.734   8.212   1.614  1.00 20.00    -0.205 F 
HETATM    8  F11 UNL     1     -31.695   7.954   0.783  1.00 20.00    -0.205 F 
ENDROOT
BRANCH   3   9
HETATM    9  C1  UNL     1     -34.662   5.671   5.199  1.00 20.00     0.177 C 
HETATM   10  O8  UNL     1     -34.535   6.265   6.306  1.00 20.00    -0.648 OA
HETATM   11  O9  UNL     1     -35.156   4.538   4.940  1.00 20.00    -0.648 OA
ENDBRANCH   3   9
TORSDOF 1
ENDMDL
MODEL 4
REMARK VINA RESULT:      -5.0     17.699     18.619
REMARK  1 active torsions:
REMARK  status: ('A' for Active; 'I' for Inactive)
REMARK    1  A    between atoms: C1_1  and  C4_4 
ROOT
HETATM    1  C2  UNL     1     -24.198  18.042   9.252  1.00 20.00     0.026 C 
HETATM    2  C3  UNL     1     -22.741  17.736  11.197  1.00 20.00     0.026 C 
HETATM    3  C4  UNL     1     -22.936  17.312   9.734  1.00 20.00     0.088 C 
HETATM    4  C5  UNL     1     -24.993  18.327  10.492  1.00 20.00     0.069 A 
HETATM    5  C6  UNL     1     -24.101  18.140  11.681  1.00 20.00     0.069 A 
HETATM    6  C7  UNL     1     -25.297  17.272  11.497  1.00 20.00     0.252 A 
HETATM    7  F10 UNL     1     -25.172  15.935  11.192  1.00 20.00    -0.205 F 
HETATM    8  F11 UNL     1     -26.385  17.401  12.332  1.00 20.00    -0.205 F 
ENDROOT
BRANCH   3   9
HETATM    9  C1  UNL     1     -21.735  17.690   8.894  1.00 20.00     0.177 C 
HETATM   10  O8  UNL     1     -21.329  18.877   9.038  1.00 20.00    -0.648 OA
HETATM   11  O9  UNL     1     -21.293  16.766   8.155  1.00 20.00    -0.648 OA
ENDBRANCH   3   9
TORSDOF 1
ENDMDL
MODEL 5
REMARK VINA RESULT:      -4.9      1.771      2.186
REMARK  1 active torsions:
REMARK  status: ('A' for Active; 'I' for Inactive)
REMARK    1  A    between atoms: C1_1  and  C4_4 
ROOT
HETATM    1  C2  UNL     1     -35.990  13.715  -4.493  1.00 20.00     0.026 C 
HETATM    2  C3  UNL     1     -35.889  15.889  -3.371  1.00 20.00     0.026 C 
HETATM    3  C4  UNL     1     -36.607  15.121  -4.490  1.00 20.00     0.088 C 
HETATM    4  C5  UNL     1     -34.627  13.875  -3.887  1.00 20.00     0.069 A 
HETATM    5  C6  UNL     1     -34.566  15.204  -3.201  1.00 20.00     0.069 A 
HETATM    6  C7  UNL     1     -33.671  14.915  -4.355  1.00 20.00     0.252 A 
HETATM    7  F10 UNL     1     -33.836  15.548  -5.566  1.00 20.00    -0.205 F 
HETATM    8  F11 UNL     1     -32.317  14.751  -4.160  1.00 20.00    -0.205 F 
ENDROOT
BRANCH   3   9
HETATM    9  C1  UNL     1     -38.098  15.060  -4.236  1.00 20.00     0.177 C 
HETATM   10  O8  UNL     1     -38.622  13.920  -4.372  1.00 20.00    -0.648 OA
HETATM   11  O9  UNL     1     -38.627  16.162  -3.918  1.00 20.00    -0.648 OA
ENDBRANCH   3   9
TORSDOF 1
ENDMDL
MODEL 6
REMARK VINA RESULT:      -4.8      2.089      2.452
REMARK  1 active torsions:
REMARK  status: ('A' for Active; 'I' for Inactive)
REMARK    1  A    between atoms: C1_1  and  C4_4 
ROOT
HETATM    1  C2  UNL     1     -35.025  16.701  -4.611  1.00 20.00     0.026 C 
HETATM    2  C3  UNL     1     -33.423  14.911  -4.134  1.00 20.00     0.026 C 
HETATM    3  C4  UNL     1     -34.829  15.179  -4.688  1.00 20.00     0.088 C 
HETATM    4  C5  UNL     1     -34.097  17.169  -3.530  1.00 20.00     0.069 A 
HETATM    5  C6  UNL     1     -33.117  16.074  -3.239  1.00 20.00     0.069 A 
HETATM    6  C7  UNL     1     -34.063  16.532  -2.185  1.00 20.00     0.252 A 
HETATM    7  F10 UNL     1     -35.092  15.729  -1.747  1.00 20.00    -0.205 F 
HETATM    8  F11 UNL     1     -33.602  17.237  -1.095  1.00 20.00    -0.205 F 
ENDROOT
BRANCH   3   9
HETATM    9  C1  UNL     1     -34.955  14.687  -6.114  1.00 20.00     0.177 C 
HETATM   10  O8  UNL     1     -34.048  15.077  -6.901  1.00 20.00    -0.648 OA
HETATM   11  O9  UNL     1     -35.954  13.946  -6.333  1.00 20.00    -0.648 OA
ENDBRANCH   3   9
TORSDOF 1
ENDMDL
MODEL 7
REMARK VINA RESULT:      -4.6      1.786      2.365
REMARK  1 active torsions:
REMARK  status: ('A' for Active; 'I' for Inactive)
REMARK    1  A    between atoms: C1_1  and  C4_4 
ROOT
HETATM    1  C2  UNL     1     -33.001  16.253  -3.313  1.00 20.00     0.026 C 
HETATM    2  C3  UNL     1     -35.200  15.669  -2.406  1.00 20.00     0.026 C 
HETATM    3  C4  UNL     1     -34.349  15.614  -3.683  1.00 20.00     0.088 C 
HETATM    4  C5  UNL     1     -33.293  17.156  -2.152  1.00 20.00     0.069 A 
HETATM    5  C6  UNL     1     -34.637  16.798  -1.597  1.00 20.00     0.069 A 
HETATM    6  C7  UNL     1     -34.402  18.148  -2.180  1.00 20.00     0.252 A 
HETATM    7  F10 UNL     1     -34.991  18.531  -3.363  1.00 20.00    -0.205 F 
HETATM    8  F11 UNL     1     -34.361  19.259  -1.366  1.00 20.00    -0.205 F 
ENDROOT
BRANCH   3   9
HETATM    9  C1  UNL     1     -34.163  14.187  -4.152  1.00 20.00     0.177 C 
HETATM   10  O8  UNL     1     -35.203  13.471  -4.125  1.00 20.00    -0.648 OA
HETATM   11  O9  UNL     1     -32.988  13.896  -4.511  1.00 20.00    -0.648 OA
ENDBRANCH   3   9
TORSDOF 1
ENDMDL
MODEL 8
REMARK VINA RESULT:      -4.5      3.525      4.339
REMARK  1 active torsions:
REMARK  status: ('A' for Active; 'I' for Inactive)
REMARK    1  A    between atoms: C1_1  and  C4_4 
ROOT
HETATM    1  C2  UNL     1     -33.947  16.221  -4.560  1.00 20.00     0.026 C 
HETATM    2  C3  UNL     1     -34.883  15.920  -2.317  1.00 20.00     0.026 C 
HETATM    3  C4  UNL     1     -33.573  16.191  -3.071  1.00 20.00     0.088 C 
HETATM    4  C5  UNL     1     -35.203  15.409  -4.673  1.00 20.00     0.069 A 
HETATM    5  C6  UNL     1     -35.775  15.225  -3.302  1.00 20.00     0.069 A 
HETATM    6  C7  UNL     1     -35.319  14.046  -4.087  1.00 20.00     0.252 A 
HETATM    7  F10 UNL     1     -34.204  13.327  -3.719  1.00 20.00    -0.205 F 
HETATM    8  F11 UNL     1     -36.236  13.149  -4.590  1.00 20.00    -0.205 F 
ENDROOT
BRANCH   3   9
HETATM    9  C1  UNL     1     -32.959  17.505  -2.638  1.00 20.00     0.177 C 
HETATM   10  O8  UNL     1     -32.696  18.311  -3.573  1.00 20.00    -0.648 OA
HETATM   11  O9  UNL     1     -32.788  17.625  -1.393  1.00 20.00    -0.648 OA
ENDBRANCH   3   9
TORSDOF 1
ENDMDL
MODEL 9
REMARK VINA RESULT:      -4.4      3.204      4.065
REMARK  1 active torsions:
REMARK  status: ('A' for Active; 'I' for Inactive)
REMARK    1  A    between atoms: C1_1  and  C4_4 
ROOT
HETATM    1  C2  UNL     1     -35.184  15.832  -2.304  1.00 20.00     0.026 C 
HETATM    2  C3  UNL     1     -32.999  16.888  -2.636  1.00 20.00     0.026 C 
HETATM    3  C4  UNL     1     -34.427  17.158  -2.140  1.00 20.00     0.088 C 
HETATM    4  C5  UNL     1     -34.452  15.086  -3.380  1.00 20.00     0.069 A 
HETATM    5  C6  UNL     1     -33.117  15.732  -3.583  1.00 20.00     0.069 A 
HETATM    6  C7  UNL     1     -34.114  15.712  -4.688  1.00 20.00     0.252 A 
HETATM    7  F10 UNL     1     -34.736  16.864  -5.113  1.00 20.00    -0.205 F 
HETATM    8  F11 UNL     1     -33.903  14.927  -5.800  1.00 20.00    -0.205 F 
ENDROOT
BRANCH   3   9
HETATM    9  C1  UNL     1     -34.424  17.606  -0.694  1.00 20.00     0.177 C 
HETATM   10  O8  UNL     1     -35.401  17.204  -0.003  1.00 20.00    -0.648 OA
HETATM   11  O9  UNL     1     -33.440  18.327  -0.364  1.00 20.00    -0.648 OA
ENDBRANCH   3   9
TORSDOF 1
ENDMDL
