MODEL 1
REMARK VINA RESULT:      -4.5      0.000      0.000
REMARK  2 active torsions:
REMARK  status: ('A' for Active; 'I' for Inactive)
REMARK    1  A    between atoms: C8_8  and  O11_11 
REMARK    2  A    between atoms: C9_9  and  O11_11 
ROOT
HETATM    1  C1  UNL     1     -21.932  17.757   8.042  1.00 20.00     0.092 C 
HETATM    2  C2  UNL     1     -24.000  18.562   7.449  1.00 20.00     0.027 C 
HETATM    3  C3  UNL     1     -24.734  19.263   6.569  1.00 20.00     0.040 C 
HETATM    4  C4  UNL     1     -22.215  17.749   9.520  1.00 20.00     0.079 C 
HETATM    5  C5  UNL     1     -24.540  18.253   8.820  1.00 20.00     0.090 C 
HETATM    6  C8  UNL     1     -23.468  18.533   9.863  1.00 20.00     0.132 C 
HETATM    7  N10 UNL     1     -22.746  18.119   7.101  1.00 20.00    -0.270 NA
ENDROOT
BRANCH   6   8
HETATM    8  O11 UNL     1     -23.925  18.132  11.148  1.00 20.00    -0.380 OA
BRANCH   8   9
HETATM    9  C9  UNL     1     -24.943  17.146  11.050  1.00 20.00     0.122 A 
HETATM   10  C6  UNL     1     -24.657  15.830  11.714  1.00 20.00     0.034 A 
HETATM   11  C7  UNL     1     -25.637  16.784  12.332  1.00 20.00     0.034 A 
ENDBRANCH   8   9
ENDBRANCH   6   8
TORSDOF 2
ENDMDL
MODEL 2
REMARK VINA RESULT:      -4.3     15.981     17.926
REMARK  2 active torsions:
REMARK  status: ('A' for Active; 'I' for Inactive)
REMARK    1  A    between atoms: C8_8  and  O11_11 
REMARK    2  A    between atoms: C9_9  and  O11_11 
ROOT
HETATM    1  C1  UNL     1     -35.943  13.555  -4.776  1.00 20.00     0.092 C 
HETATM    2  C2  UNL     1     -35.290  14.941  -6.488  1.00 20.00     0.027 C 
HETATM    3  C3  UNL     1     -35.267  15.175  -7.810  1.00 20.00     0.040 C 
HETATM    4  C4  UNL     1     -34.819  13.946  -3.856  1.00 20.00     0.079 C 
HETATM    5  C5  UNL     1     -34.367  15.688  -5.563  1.00 20.00     0.090 C 
HETATM    6  C8  UNL     1     -33.730  14.713  -4.584  1.00 20.00     0.132 C 
HETATM    7  N10 UNL     1     -36.162  14.013  -5.969  1.00 20.00    -0.270 NA
ENDROOT
BRANCH   6   8
HETATM    8  O11 UNL     1     -32.950  15.422  -3.631  1.00 20.00    -0.380 OA
BRANCH   8   9
HETATM    9  C9  UNL     1     -33.549  16.665  -3.295  1.00 20.00     0.122 A 
HETATM   10  C6  UNL     1     -34.136  16.768  -1.917  1.00 20.00     0.034 A 
HETATM   11  C7  UNL     1     -32.850  17.471  -2.238  1.00 20.00     0.034 A 
ENDBRANCH   8   9
ENDBRANCH   6   8
TORSDOF 2
ENDMDL
MODEL 3
REMARK VINA RESULT:      -4.1     14.370     16.376
REMARK  2 active torsions:
REMARK  status: ('A' for Active; 'I' for Inactive)
REMARK    1  A    between atoms: C8_8  and  O11_11 
REMARK    2  A    between atoms: C9_9  and  O11_11 
ROOT
HETATM    1  C1  UNL     1     -33.212  14.589  -4.429  1.00 20.00     0.092 C 
HETATM    2  C2  UNL     1     -35.454  14.498  -3.938  1.00 20.00     0.027 C 
HETATM    3  C3  UNL     1     -36.690  14.161  -4.341  1.00 20.00     0.040 C 
HETATM    4  C4  UNL     1     -32.934  15.778  -3.551  1.00 20.00     0.079 C 
HETATM    5  C5  UNL     1     -35.258  15.418  -2.762  1.00 20.00     0.090 C 
HETATM    6  C8  UNL     1     -34.211  16.467  -3.108  1.00 20.00     0.132 C 
HETATM    7  N10 UNL     1     -34.356  14.002  -4.599  1.00 20.00    -0.270 NA
ENDROOT
BRANCH   6   8
HETATM    8  O11 UNL     1     -33.931  17.266  -1.966  1.00 20.00    -0.380 OA
BRANCH   8   9
HETATM    9  C9  UNL     1     -32.580  17.702  -1.958  1.00 20.00     0.122 A 
HETATM   10  C6  UNL     1     -32.361  19.184  -1.861  1.00 20.00     0.034 A 
HETATM   11  C7  UNL     1     -32.088  18.307  -0.675  1.00 20.00     0.034 A 
ENDBRANCH   8   9
ENDBRANCH   6   8
TORSDOF 2
ENDMDL
MODEL 4
REMARK VINA RESULT:      -4.1     15.786     16.828
REMARK  2 active torsions:
REMARK  status: ('A' for Active; 'I' for Inactive)
REMARK    1  A    between atoms: C8_8  and  O11_11 
REMARK    2  A    between atoms: C9_9  and  O11_11 
ROOT
HETATM    1  C1  UNL     1     -34.036   4.140   3.377  1.00 20.00     0.092 C 
HETATM    2  C2  UNL     1     -34.340   5.521   5.188  1.00 20.00     0.027 C 
HETATM    3  C3  UNL     1     -35.060   5.809   6.285  1.00 20.00     0.040 C 
HETATM    4  C4  UNL     1     -33.401   5.197   2.514  1.00 20.00     0.079 C 
HETATM    5  C5  UNL     1     -33.402   6.540   4.600  1.00 20.00     0.090 C 
HETATM    6  C8  UNL     1     -33.587   6.588   3.090  1.00 20.00     0.132 C 
HETATM    7  N10 UNL     1     -34.456   4.286   4.595  1.00 20.00    -0.270 NA
ENDROOT
BRANCH   6   8
HETATM    8  O11 UNL     1     -32.625   7.459   2.511  1.00 20.00    -0.380 OA
BRANCH   8   9
HETATM    9  C9  UNL     1     -32.945   7.760   1.161  1.00 20.00     0.122 A 
HETATM   10  C6  UNL     1     -32.905   9.212   0.778  1.00 20.00     0.034 A 
HETATM   11  C7  UNL     1     -31.820   8.284   0.316  1.00 20.00     0.034 A 
ENDBRANCH   8   9
ENDBRANCH   6   8
TORSDOF 2
ENDMDL
MODEL 5
REMARK VINA RESULT:      -4.0      2.069      2.851
REMARK  2 active torsions:
REMARK  status: ('A' for Active; 'I' for Inactive)
REMARK    1  A    between atoms: C8_8  and  O11_11 
REMARK    2  A    between atoms: C9_9  and  O11_11 
ROOT
HETATM    1  C1  UNL     1     -21.762  17.966  11.638  1.00 20.00     0.092 C 
HETATM    2  C2  UNL     1     -22.603  17.571   9.537  1.00 20.00     0.027 C 
HETATM    3  C3  UNL     1     -22.482  17.765   8.213  1.00 20.00     0.040 C 
HETATM    4  C4  UNL     1     -23.093  17.861  12.332  1.00 20.00     0.079 C 
HETATM    5  C5  UNL     1     -23.896  17.072  10.122  1.00 20.00     0.090 C 
HETATM    6  C8  UNL     1     -24.250  17.898  11.351  1.00 20.00     0.132 C 
HETATM    7  N10 UNL     1     -21.538  17.826  10.368  1.00 20.00    -0.270 NA
ENDROOT
BRANCH   6   8
HETATM    8  O11 UNL     1     -25.406  17.360  11.980  1.00 20.00    -0.380 OA
BRANCH   8   9
HETATM    9  C9  UNL     1     -26.334  18.380  12.314  1.00 20.00     0.122 A 
HETATM   10  C6  UNL     1     -26.935  19.134  11.163  1.00 20.00     0.034 A 
HETATM   11  C7  UNL     1     -27.761  18.132  11.915  1.00 20.00     0.034 A 
ENDBRANCH   8   9
ENDBRANCH   6   8
TORSDOF 2
ENDMDL
MODEL 6
REMARK VINA RESULT:      -4.0     16.283     18.181
REMARK  2 active torsions:
REMARK  status: ('A' for Active; 'I' for Inactive)
REMARK    1  A    between atoms: C8_8  and  O11_11 
REMARK    2  A    between atoms: C9_9  and  O11_11 
ROOT
HETATM    1  C1  UNL     1     -36.115  13.566  -4.540  1.00 20.00     0.092 C 
HETATM    2  C2  UNL     1     -37.917  14.956  -4.227  1.00 20.00     0.027 C 
HETATM    3  C3  UNL     1     -39.213  15.205  -4.478  1.00 20.00     0.040 C 
HETATM    4  C4  UNL     1     -35.085  14.654  -4.395  1.00 20.00     0.079 C 
HETATM    5  C5  UNL     1     -37.019  16.039  -3.693  1.00 20.00     0.090 C 
HETATM    6  C8  UNL     1     -35.707  16.036  -4.463  1.00 20.00     0.132 C 
HETATM    7  N10 UNL     1     -37.402  13.702  -4.456  1.00 20.00    -0.270 NA
ENDROOT
BRANCH   6   8
HETATM    8  O11 UNL     1     -34.807  16.975  -3.890  1.00 20.00    -0.380 OA
BRANCH   8   9
HETATM    9  C9  UNL     1     -34.134  16.427  -2.766  1.00 20.00     0.122 A 
HETATM   10  C6  UNL     1     -32.944  17.195  -2.266  1.00 20.00     0.034 A 
HETATM   11  C7  UNL     1     -34.229  17.214  -1.491  1.00 20.00     0.034 A 
ENDBRANCH   8   9
ENDBRANCH   6   8
TORSDOF 2
ENDMDL
MODEL 7
REMARK VINA RESULT:      -4.0     14.735     16.567
REMARK  2 active torsions:
REMARK  status: ('A' for Active; 'I' for Inactive)
REMARK    1  A    between atoms: C8_8  and  O11_11 
REMARK    2  A    between atoms: C9_9  and  O11_11 
ROOT
HETATM    1  C1  UNL     1     -32.990  14.874  -4.166  1.00 20.00     0.092 C 
HETATM    2  C2  UNL     1     -35.208  14.280  -4.092  1.00 20.00     0.027 C 
HETATM    3  C3  UNL     1     -36.214  13.584  -4.646  1.00 20.00     0.040 C 
HETATM    4  C4  UNL     1     -33.190  16.205  -3.493  1.00 20.00     0.079 C 
HETATM    5  C5  UNL     1     -35.492  15.372  -3.096  1.00 20.00     0.090 C 
HETATM    6  C8  UNL     1     -34.654  16.597  -3.433  1.00 20.00     0.132 C 
HETATM    7  N10 UNL     1     -33.906  13.996  -4.431  1.00 20.00    -0.270 NA
ENDROOT
BRANCH   6   8
HETATM    8  O11 UNL     1     -34.825  17.592  -2.432  1.00 20.00    -0.380 OA
BRANCH   8   9
HETATM    9  C9  UNL     1     -34.582  17.067  -1.135  1.00 20.00     0.122 A 
HETATM   10  C6  UNL     1     -34.093  18.045  -0.105  1.00 20.00     0.034 A 
HETATM   11  C7  UNL     1     -35.504  17.538  -0.048  1.00 20.00     0.034 A 
ENDBRANCH   8   9
ENDBRANCH   6   8
TORSDOF 2
ENDMDL
MODEL 8
REMARK VINA RESULT:      -3.9     15.239     16.216
REMARK  2 active torsions:
REMARK  status: ('A' for Active; 'I' for Inactive)
REMARK    1  A    between atoms: C8_8  and  O11_11 
REMARK    2  A    between atoms: C9_9  and  O11_11 
ROOT
HETATM    1  C1  UNL     1     -33.067   7.437   5.362  1.00 20.00     0.092 C 
HETATM    2  C2  UNL     1     -34.332   5.805   4.355  1.00 20.00     0.027 C 
HETATM    3  C3  UNL     1     -35.013   4.656   4.489  1.00 20.00     0.040 C 
HETATM    4  C4  UNL     1     -32.300   7.793   4.117  1.00 20.00     0.079 C 
HETATM    5  C5  UNL     1     -33.932   6.302   2.992  1.00 20.00     0.090 C 
HETATM    6  C8  UNL     1     -32.480   6.757   3.024  1.00 20.00     0.132 C 
HETATM    7  N10 UNL     1     -33.996   6.539   5.468  1.00 20.00    -0.270 NA
ENDROOT
BRANCH   6   8
HETATM    8  O11 UNL     1     -32.127   7.338   1.775  1.00 20.00    -0.380 OA
BRANCH   8   9
HETATM    9  C9  UNL     1     -33.193   8.111   1.244  1.00 20.00     0.122 A 
HETATM   10  C6  UNL     1     -32.844   9.498   0.788  1.00 20.00     0.034 A 
HETATM   11  C7  UNL     1     -33.116   8.423  -0.223  1.00 20.00     0.034 A 
ENDBRANCH   8   9
ENDBRANCH   6   8
TORSDOF 2
ENDMDL
MODEL 9
REMARK VINA RESULT:      -3.9     17.332     19.226
REMARK  2 active torsions:
REMARK  status: ('A' for Active; 'I' for Inactive)
REMARK    1  A    between atoms: C8_8  and  O11_11 
REMARK    2  A    between atoms: C9_9  and  O11_11 
ROOT
HETATM    1  C1  UNL     1     -34.648  14.979  -5.908  1.00 20.00     0.092 C 
HETATM    2  C2  UNL     1     -34.676  15.648  -3.711  1.00 20.00     0.027 C 
HETATM    3  C3  UNL     1     -33.970  15.944  -2.607  1.00 20.00     0.040 C 
HETATM    4  C4  UNL     1     -36.003  14.327  -5.862  1.00 20.00     0.079 C 
HETATM    5  C5  UNL     1     -36.155  15.385  -3.624  1.00 20.00     0.090 C 
HETATM    6  C8  UNL     1     -36.499  14.147  -4.440  1.00 20.00     0.132 C 
HETATM    7  N10 UNL     1     -34.048  15.587  -4.932  1.00 20.00    -0.270 NA
ENDROOT
BRANCH   6   8
HETATM    8  O11 UNL     1     -37.908  13.958  -4.463  1.00 20.00    -0.380 OA
BRANCH   8   9
HETATM    9  C9  UNL     1     -38.596  15.154  -4.130  1.00 20.00     0.122 A 
HETATM   10  C6  UNL     1     -39.329  15.833  -5.251  1.00 20.00     0.034 A 
HETATM   11  C7  UNL     1     -40.095  15.094  -4.193  1.00 20.00     0.034 A 
ENDBRANCH   8   9
ENDBRANCH   6   8
TORSDOF 2
ENDMDL
