MODEL 1
REMARK VINA RESULT:      -5.3      0.000      0.000
REMARK  0 active torsions:
REMARK  status: ('A' for Active; 'I' for Inactive)
ROOT
HETATM    1  C1  UNL     1     -34.247   6.588   5.884  1.00 20.00     0.032 A 
HETATM    2  C2  UNL     1     -33.134   7.244   3.690  1.00 20.00     0.037 A 
HETATM    3  C3  UNL     1     -33.140   5.524   1.952  1.00 20.00     0.003 A 
HETATM    4  C4  UNL     1     -34.825   5.407   6.162  1.00 20.00     0.118 A 
HETATM    5  C5  UNL     1     -33.780   6.453   4.546  1.00 20.00    -0.008 A 
HETATM    6  C6  UNL     1     -32.808   6.762   2.363  1.00 20.00     0.031 A 
HETATM    7  C7  UNL     1     -34.176   5.085   4.163  1.00 20.00     0.048 A 
HETATM    8  C8  UNL     1     -33.872   4.522   2.806  1.00 20.00     0.088 A 
HETATM    9  N9  UNL     1     -34.799   4.470   5.137  1.00 20.00    -0.264 NA
HETATM   10 CL10 UNL     1     -31.969   7.839   1.304  1.00 20.00    -0.085 Cl
ENDROOT
TORSDOF 0
ENDMDL
MODEL 2
REMARK VINA RESULT:      -4.9     16.401     16.983
REMARK  0 active torsions:
REMARK  status: ('A' for Active; 'I' for Inactive)
ROOT
HETATM    1  C1  UNL     1     -25.727  19.263   7.865  1.00 20.00     0.032 A 
HETATM    2  C2  UNL     1     -24.671  18.501  10.052  1.00 20.00     0.037 A 
HETATM    3  C3  UNL     1     -22.379  17.667   9.879  1.00 20.00     0.003 A 
HETATM    4  C4  UNL     1     -25.148  19.248   6.652  1.00 20.00     0.118 A 
HETATM    5  C5  UNL     1     -24.735  18.743   8.743  1.00 20.00    -0.008 A 
HETATM    6  C6  UNL     1     -23.461  17.949  10.627  1.00 20.00     0.031 A 
HETATM    7  C7  UNL     1     -23.587  18.459   7.862  1.00 20.00     0.048 A 
HETATM    8  C8  UNL     1     -22.304  17.889   8.391  1.00 20.00     0.088 A 
HETATM    9  N9  UNL     1     -23.846  18.765   6.616  1.00 20.00    -0.264 NA
HETATM   10 CL10 UNL     1     -23.445  17.660  12.331  1.00 20.00    -0.085 Cl
ENDROOT
TORSDOF 0
ENDMDL
MODEL 3
REMARK VINA RESULT:      -4.9     16.719     17.046
REMARK  0 active torsions:
REMARK  status: ('A' for Active; 'I' for Inactive)
ROOT
HETATM    1  C1  UNL     1     -21.943  17.128   9.117  1.00 20.00     0.032 A 
HETATM    2  C2  UNL     1     -23.891  17.915  10.555  1.00 20.00     0.037 A 
HETATM    3  C3  UNL     1     -25.576  19.259   9.400  1.00 20.00     0.003 A 
HETATM    4  C4  UNL     1     -21.765  17.380   7.809  1.00 20.00     0.118 A 
HETATM    5  C5  UNL     1     -23.165  17.780   9.446  1.00 20.00    -0.008 A 
HETATM    6  C6  UNL     1     -25.125  18.674  10.525  1.00 20.00     0.031 A 
HETATM    7  C7  UNL     1     -23.598  18.394   8.177  1.00 20.00     0.048 A 
HETATM    8  C8  UNL     1     -24.864  19.192   8.074  1.00 20.00     0.088 A 
HETATM    9  N9  UNL     1     -22.754  18.149   7.207  1.00 20.00    -0.264 NA
HETATM   10 CL10 UNL     1     -26.017  18.809  11.998  1.00 20.00    -0.085 Cl
ENDROOT
TORSDOF 0
ENDMDL
MODEL 4
REMARK VINA RESULT:      -4.7     16.811     17.462
REMARK  0 active torsions:
REMARK  status: ('A' for Active; 'I' for Inactive)
ROOT
HETATM    1  C1  UNL     1     -23.165  18.138   8.268  1.00 20.00     0.032 A 
HETATM    2  C2  UNL     1     -24.980  18.509  10.013  1.00 20.00     0.037 A 
HETATM    3  C3  UNL     1     -24.304  18.130  12.332  1.00 20.00     0.003 A 
HETATM    4  C4  UNL     1     -21.897  17.761   8.505  1.00 20.00     0.118 A 
HETATM    5  C5  UNL     1     -23.767  18.203   9.556  1.00 20.00    -0.008 A 
HETATM    6  C6  UNL     1     -25.250  18.469  11.436  1.00 20.00     0.031 A 
HETATM    7  C7  UNL     1     -22.683  17.823  10.480  1.00 20.00     0.048 A 
HETATM    8  C8  UNL     1     -22.891  17.762  11.964  1.00 20.00     0.088 A 
HETATM    9  N9  UNL     1     -21.571  17.561   9.841  1.00 20.00    -0.264 NA
HETATM   10 CL10 UNL     1     -26.844  18.877  11.961  1.00 20.00    -0.085 Cl
ENDROOT
TORSDOF 0
ENDMDL
MODEL 5
REMARK VINA RESULT:      -4.6     12.131     12.325
REMARK  0 active torsions:
REMARK  status: ('A' for Active; 'I' for Inactive)
ROOT
HETATM    1  C1  UNL     1     -36.774  14.580  -3.927  1.00 20.00     0.032 A 
HETATM    2  C2  UNL     1     -35.436  16.131  -2.416  1.00 20.00     0.037 A 
HETATM    3  C3  UNL     1     -33.041  16.258  -2.895  1.00 20.00     0.003 A 
HETATM    4  C4  UNL     1     -36.291  13.843  -4.941  1.00 20.00     0.118 A 
HETATM    5  C5  UNL     1     -35.639  15.263  -3.406  1.00 20.00    -0.008 A 
HETATM    6  C6  UNL     1     -34.102  16.637  -2.159  1.00 20.00     0.031 A 
HETATM    7  C7  UNL     1     -34.523  14.803  -4.253  1.00 20.00     0.048 A 
HETATM    8  C8  UNL     1     -33.118  15.286  -4.044  1.00 20.00     0.088 A 
HETATM    9  N9  UNL     1     -34.924  13.956  -5.166  1.00 20.00    -0.264 NA
HETATM   10 CL10 UNL     1     -33.909  17.760  -0.861  1.00 20.00    -0.085 Cl
ENDROOT
TORSDOF 0
ENDMDL
MODEL 6
REMARK VINA RESULT:      -4.5     11.904     12.295
REMARK  0 active torsions:
REMARK  status: ('A' for Active; 'I' for Inactive)
ROOT
HETATM    1  C1  UNL     1     -34.865  17.273  -1.118  1.00 20.00     0.032 A 
HETATM    2  C2  UNL     1     -35.555  15.426  -2.727  1.00 20.00     0.037 A 
HETATM    3  C3  UNL     1     -33.834  14.712  -4.311  1.00 20.00     0.003 A 
HETATM    4  C4  UNL     1     -33.665  17.875  -1.063  1.00 20.00     0.118 A 
HETATM    5  C5  UNL     1     -34.744  16.325  -2.173  1.00 20.00    -0.008 A 
HETATM    6  C6  UNL     1     -35.083  14.603  -3.822  1.00 20.00     0.031 A 
HETATM    7  C7  UNL     1     -33.362  16.500  -2.657  1.00 20.00     0.048 A 
HETATM    8  C8  UNL     1     -32.808  15.682  -3.785  1.00 20.00     0.088 A 
HETATM    9  N9  UNL     1     -32.728  17.429  -1.986  1.00 20.00    -0.264 NA
HETATM   10 CL10 UNL     1     -36.186  13.456  -4.495  1.00 20.00    -0.085 Cl
ENDROOT
TORSDOF 0
ENDMDL
MODEL 7
REMARK VINA RESULT:      -4.5     11.611     12.445
REMARK  0 active torsions:
REMARK  status: ('A' for Active; 'I' for Inactive)
ROOT
HETATM    1  C1  UNL     1     -38.268  16.245  -3.864  1.00 20.00     0.032 A 
HETATM    2  C2  UNL     1     -35.751  16.317  -3.491  1.00 20.00     0.037 A 
HETATM    3  C3  UNL     1     -34.562  14.227  -3.932  1.00 20.00     0.003 A 
HETATM    4  C4  UNL     1     -38.983  15.184  -4.275  1.00 20.00     0.118 A 
HETATM    5  C5  UNL     1     -36.925  15.776  -3.813  1.00 20.00    -0.008 A 
HETATM    6  C6  UNL     1     -34.544  15.518  -3.553  1.00 20.00     0.031 A 
HETATM    7  C7  UNL     1     -37.020  14.367  -4.236  1.00 20.00     0.048 A 
HETATM    8  C8  UNL     1     -35.811  13.482  -4.324  1.00 20.00     0.088 A 
HETATM    9  N9  UNL     1     -38.253  14.024  -4.509  1.00 20.00    -0.264 NA
HETATM   10 CL10 UNL     1     -33.055  16.282  -3.123  1.00 20.00    -0.085 Cl
ENDROOT
TORSDOF 0
ENDMDL
MODEL 8
REMARK VINA RESULT:      -4.5     11.913     12.545
REMARK  0 active torsions:
REMARK  status: ('A' for Active; 'I' for Inactive)
ROOT
HETATM    1  C1  UNL     1     -33.395  15.114  -4.094  1.00 20.00     0.032 A 
HETATM    2  C2  UNL     1     -32.656  17.023  -2.582  1.00 20.00     0.037 A 
HETATM    3  C3  UNL     1     -34.273  17.703  -0.878  1.00 20.00     0.003 A 
HETATM    4  C4  UNL     1     -34.569  14.461  -4.038  1.00 20.00     0.118 A 
HETATM    5  C5  UNL     1     -33.471  16.079  -3.051  1.00 20.00    -0.008 A 
HETATM    6  C6  UNL     1     -33.073  17.852  -1.469  1.00 20.00     0.031 A 
HETATM    7  C7  UNL     1     -34.800  15.859  -2.452  1.00 20.00     0.048 A 
HETATM    8  C8  UNL     1     -35.296  16.680  -1.298  1.00 20.00     0.088 A 
HETATM    9  N9  UNL     1     -35.447  14.891  -3.050  1.00 20.00    -0.264 NA
HETATM   10 CL10 UNL     1     -31.968  19.057  -0.910  1.00 20.00    -0.085 Cl
ENDROOT
TORSDOF 0
ENDMDL
MODEL 9
REMARK VINA RESULT:      -4.4     12.009     12.787
REMARK  0 active torsions:
REMARK  status: ('A' for Active; 'I' for Inactive)
ROOT
HETATM    1  C1  UNL     1     -31.961  18.500  -1.425  1.00 20.00     0.032 A 
HETATM    2  C2  UNL     1     -32.911  16.611  -2.842  1.00 20.00     0.037 A 
HETATM    3  C3  UNL     1     -35.153  15.857  -2.223  1.00 20.00     0.003 A 
HETATM    4  C4  UNL     1     -32.570  19.106  -0.392  1.00 20.00     0.118 A 
HETATM    5  C5  UNL     1     -32.896  17.525  -1.873  1.00 20.00    -0.008 A 
HETATM    6  C6  UNL     1     -34.070  15.759  -3.016  1.00 20.00     0.031 A 
HETATM    7  C7  UNL     1     -34.048  17.689  -0.967  1.00 20.00     0.048 A 
HETATM    8  C8  UNL     1     -35.280  16.841  -1.090  1.00 20.00     0.088 A 
HETATM    9  N9  UNL     1     -33.841  18.635  -0.087  1.00 20.00    -0.264 NA
HETATM   10 CL10 UNL     1     -34.024  14.595  -4.291  1.00 20.00    -0.085 Cl
ENDROOT
TORSDOF 0
ENDMDL
