MODEL 1
REMARK VINA RESULT:      -4.8      0.000      0.000
REMARK  0 active torsions:
REMARK  status: ('A' for Active; 'I' for Inactive)
ROOT
HETATM    1  C1  UNL     1     -32.656   7.665   3.479  1.00 20.00     0.057 A 
HETATM    2  C2  UNL     1     -33.804   6.761   5.584  1.00 20.00     0.008 A 
HETATM    3  C3  UNL     1     -34.529   4.550   3.970  1.00 20.00     0.143 A 
HETATM    4  C4  UNL     1     -33.399   6.789   4.320  1.00 20.00    -0.005 A 
HETATM    5  C5  UNL     1     -32.634   7.041   2.286  1.00 20.00     0.127 A 
HETATM    6  C6  UNL     1     -33.746   5.677   3.449  1.00 20.00     0.085 A 
HETATM    7  C7  UNL     1     -34.606   5.611   6.125  1.00 20.00     0.176 A 
HETATM    8  N8  UNL     1     -34.925   4.515   5.190  1.00 20.00    -0.296 NA
HETATM    9  N9  UNL     1     -33.295   5.815   2.234  1.00 20.00    -0.235 NA
HETATM   10 CL10 UNL     1     -31.862   7.669   0.899  1.00 20.00    -0.062 Cl
ENDROOT
TORSDOF 0
ENDMDL
MODEL 2
REMARK VINA RESULT:      -4.8     16.464     16.761
REMARK  0 active torsions:
REMARK  status: ('A' for Active; 'I' for Inactive)
ROOT
HETATM    1  C1  UNL     1     -24.378  17.840  11.178  1.00 20.00     0.057 A 
HETATM    2  C2  UNL     1     -22.547  17.221   9.496  1.00 20.00     0.008 A 
HETATM    3  C3  UNL     1     -24.017  18.791   7.655  1.00 20.00     0.143 A 
HETATM    4  C4  UNL     1     -23.657  17.787   9.951  1.00 20.00    -0.005 A 
HETATM    5  C5  UNL     1     -25.441  18.619  10.906  1.00 20.00     0.127 A 
HETATM    6  C6  UNL     1     -24.450  18.603   9.045  1.00 20.00     0.085 A 
HETATM    7  C7  UNL     1     -22.097  17.408   8.074  1.00 20.00     0.176 A 
HETATM    8  N8  UNL     1     -22.945  18.248   7.206  1.00 20.00    -0.296 NA
HETATM    9  N9  UNL     1     -25.515  19.106   9.603  1.00 20.00    -0.235 NA
HETATM   10 CL10 UNL     1     -26.648  19.013  12.048  1.00 20.00    -0.062 Cl
ENDROOT
TORSDOF 0
ENDMDL
MODEL 3
REMARK VINA RESULT:      -4.5     11.988     12.381
REMARK  0 active torsions:
REMARK  status: ('A' for Active; 'I' for Inactive)
ROOT
HETATM    1  C1  UNL     1     -34.889  16.178  -2.070  1.00 20.00     0.057 A 
HETATM    2  C2  UNL     1     -36.180  14.664  -3.684  1.00 20.00     0.008 A 
HETATM    3  C3  UNL     1     -33.965  14.997  -5.416  1.00 20.00     0.143 A 
HETATM    4  C4  UNL     1     -35.187  15.426  -3.241  1.00 20.00    -0.005 A 
HETATM    5  C5  UNL     1     -33.678  16.712  -2.317  1.00 20.00     0.127 A 
HETATM    6  C6  UNL     1     -34.027  15.629  -4.094  1.00 20.00     0.085 A 
HETATM    7  C7  UNL     1     -36.125  14.013  -5.037  1.00 20.00     0.176 A 
HETATM    8  N8  UNL     1     -34.919  14.259  -5.853  1.00 20.00    -0.296 NA
HETATM    9  N9  UNL     1     -33.119  16.394  -3.553  1.00 20.00    -0.235 NA
HETATM   10 CL10 UNL     1     -32.842  17.721  -1.222  1.00 20.00    -0.062 Cl
ENDROOT
TORSDOF 0
ENDMDL
MODEL 4
REMARK VINA RESULT:      -4.5     16.184     16.642
REMARK  0 active torsions:
REMARK  status: ('A' for Active; 'I' for Inactive)
ROOT
HETATM    1  C1  UNL     1     -23.235  18.367   8.311  1.00 20.00     0.057 A 
HETATM    2  C2  UNL     1     -22.632  17.731  10.718  1.00 20.00     0.008 A 
HETATM    3  C3  UNL     1     -25.278  18.513  11.353  1.00 20.00     0.143 A 
HETATM    4  C4  UNL     1     -23.381  18.164   9.712  1.00 20.00    -0.005 A 
HETATM    5  C5  UNL     1     -24.431  18.843   7.917  1.00 20.00     0.127 A 
HETATM    6  C6  UNL     1     -24.748  18.579   9.985  1.00 20.00     0.085 A 
HETATM    7  C7  UNL     1     -23.167  17.661  12.121  1.00 20.00     0.176 A 
HETATM    8  N8  UNL     1     -24.562  18.096  12.331  1.00 20.00    -0.296 NA
HETATM    9  N9  UNL     1     -25.385  18.985   8.923  1.00 20.00    -0.235 NA
HETATM   10 CL10 UNL     1     -24.804  19.261   6.304  1.00 20.00    -0.062 Cl
ENDROOT
TORSDOF 0
ENDMDL
MODEL 5
REMARK VINA RESULT:      -4.4     15.677     16.105
REMARK  0 active torsions:
REMARK  status: ('A' for Active; 'I' for Inactive)
ROOT
HETATM    1  C1  UNL     1     -23.738  18.687   8.954  1.00 20.00     0.057 A 
HETATM    2  C2  UNL     1     -25.586  18.956  10.708  1.00 20.00     0.008 A 
HETATM    3  C3  UNL     1     -24.839  16.365  11.570  1.00 20.00     0.143 A 
HETATM    4  C4  UNL     1     -24.595  18.372  10.047  1.00 20.00    -0.005 A 
HETATM    5  C5  UNL     1     -22.953  17.601   8.824  1.00 20.00     0.127 A 
HETATM    6  C6  UNL     1     -24.173  17.040  10.450  1.00 20.00     0.085 A 
HETATM    7  C7  UNL     1     -26.273  18.271  11.856  1.00 20.00     0.176 A 
HETATM    8  N8  UNL     1     -25.797  16.921  12.215  1.00 20.00    -0.296 NA
HETATM    9  N9  UNL     1     -23.194  16.570   9.729  1.00 20.00    -0.235 NA
HETATM   10 CL10 UNL     1     -21.728  17.449   7.643  1.00 20.00    -0.062 Cl
ENDROOT
TORSDOF 0
ENDMDL
MODEL 6
REMARK VINA RESULT:      -4.3     11.583     12.215
REMARK  0 active torsions:
REMARK  status: ('A' for Active; 'I' for Inactive)
ROOT
HETATM    1  C1  UNL     1     -34.065  16.003  -2.636  1.00 20.00     0.057 A 
HETATM    2  C2  UNL     1     -34.801  13.917  -3.928  1.00 20.00     0.008 A 
HETATM    3  C3  UNL     1     -37.363  15.120  -3.975  1.00 20.00     0.143 A 
HETATM    4  C4  UNL     1     -34.913  15.099  -3.337  1.00 20.00    -0.005 A 
HETATM    5  C5  UNL     1     -34.872  17.030  -2.309  1.00 20.00     0.127 A 
HETATM    6  C6  UNL     1     -36.209  15.760  -3.332  1.00 20.00     0.085 A 
HETATM    7  C7  UNL     1     -35.978  13.255  -4.589  1.00 20.00     0.176 A 
HETATM    8  N8  UNL     1     -37.264  13.978  -4.549  1.00 20.00    -0.296 NA
HETATM    9  N9  UNL     1     -36.197  16.912  -2.723  1.00 20.00    -0.235 NA
HETATM   10 CL10 UNL     1     -34.353  18.408  -1.444  1.00 20.00    -0.062 Cl
ENDROOT
TORSDOF 0
ENDMDL
MODEL 7
REMARK VINA RESULT:      -4.2     15.423     15.893
REMARK  0 active torsions:
REMARK  status: ('A' for Active; 'I' for Inactive)
ROOT
HETATM    1  C1  UNL     1     -26.322  19.258   5.369  1.00 20.00     0.057 A 
HETATM    2  C2  UNL     1     -26.654  19.261   7.910  1.00 20.00     0.008 A 
HETATM    3  C3  UNL     1     -23.826  19.260   8.057  1.00 20.00     0.143 A 
HETATM    4  C4  UNL     1     -25.998  19.260   6.756  1.00 20.00    -0.005 A 
HETATM    5  C5  UNL     1     -25.127  19.256   4.749  1.00 20.00     0.127 A 
HETATM    6  C6  UNL     1     -24.544  19.259   6.776  1.00 20.00     0.085 A 
HETATM    7  C7  UNL     1     -25.926  19.263   9.225  1.00 20.00     0.176 A 
HETATM    8  N8  UNL     1     -24.451  19.262   9.176  1.00 20.00    -0.296 NA
HETATM    9  N9  UNL     1     -24.013  19.257   5.586  1.00 20.00    -0.235 NA
HETATM   10 CL10 UNL     1     -24.936  19.252   3.052  1.00 20.00    -0.062 Cl
ENDROOT
TORSDOF 0
ENDMDL
MODEL 8
REMARK VINA RESULT:      -4.2     11.873     12.279
REMARK  0 active torsions:
REMARK  status: ('A' for Active; 'I' for Inactive)
ROOT
HETATM    1  C1  UNL     1     -34.970  15.510  -2.810  1.00 20.00     0.057 A 
HETATM    2  C2  UNL     1     -35.238  16.910  -0.682  1.00 20.00     0.008 A 
HETATM    3  C3  UNL     1     -32.701  17.983  -1.334  1.00 20.00     0.143 A 
HETATM    4  C4  UNL     1     -34.665  16.451  -1.786  1.00 20.00    -0.005 A 
HETATM    5  C5  UNL     1     -33.906  15.556  -3.633  1.00 20.00     0.127 A 
HETATM    6  C6  UNL     1     -33.359  16.969  -2.166  1.00 20.00     0.085 A 
HETATM    7  C7  UNL     1     -34.570  17.949   0.175  1.00 20.00     0.176 A 
HETATM    8  N8  UNL     1     -33.248  18.434  -0.266  1.00 20.00    -0.296 NA
HETATM    9  N9  UNL     1     -32.897  16.444  -3.266  1.00 20.00    -0.235 NA
HETATM   10 CL10 UNL     1     -33.754  14.608  -5.045  1.00 20.00    -0.062 Cl
ENDROOT
TORSDOF 0
ENDMDL
MODEL 9
REMARK VINA RESULT:      -4.1      9.900     10.406
REMARK  0 active torsions:
REMARK  status: ('A' for Active; 'I' for Inactive)
ROOT
HETATM    1  C1  UNL     1     -41.408   5.399  -0.826  1.00 20.00     0.057 A 
HETATM    2  C2  UNL     1     -40.999   7.676   0.273  1.00 20.00     0.008 A 
HETATM    3  C3  UNL     1     -43.392   8.478  -1.012  1.00 20.00     0.143 A 
HETATM    4  C4  UNL     1     -41.614   6.760  -0.464  1.00 20.00    -0.005 A 
HETATM    5  C5  UNL     1     -42.453   5.105  -1.622  1.00 20.00     0.127 A 
HETATM    6  C6  UNL     1     -42.846   7.122  -1.147  1.00 20.00     0.085 A 
HETATM    7  C7  UNL     1     -41.551   9.067   0.417  1.00 20.00     0.176 A 
HETATM    8  N8  UNL     1     -42.805   9.369  -0.301  1.00 20.00    -0.296 NA
HETATM    9  N9  UNL     1     -43.357   6.143  -1.839  1.00 20.00    -0.235 NA
HETATM   10 CL10 UNL     1     -42.699   3.577  -2.344  1.00 20.00    -0.062 Cl
ENDROOT
TORSDOF 0
ENDMDL
