MODEL 1
REMARK VINA RESULT:      -4.8      0.000      0.000
REMARK  1 active torsions:
REMARK  status: ('A' for Active; 'I' for Inactive)
REMARK    1  A    between atoms: C6_6  and  C8_8 
ROOT
HETATM    1  C1  UNL     1     -37.197  14.460  -4.118  1.00 20.00     0.099 C 
HETATM    2  C2  UNL     1     -35.883  15.997  -2.742  1.00 20.00     0.031 A 
HETATM    3  C3  UNL     1     -34.754  14.474  -4.239  1.00 20.00     0.046 A 
HETATM    4  C4  UNL     1     -33.470  16.000  -2.876  1.00 20.00     0.032 A 
HETATM    5  C5  UNL     1     -35.935  14.980  -3.696  1.00 20.00     0.046 A 
HETATM    6  C6  UNL     1     -34.652  16.507  -2.331  1.00 20.00    -0.041 A 
HETATM    7  C7  UNL     1     -33.523  14.983  -3.829  1.00 20.00     0.036 A 
HETATM    8  N9  UNL     1     -38.222  14.037  -4.460  1.00 20.00    -0.191 NA
HETATM    9 CL10 UNL     1     -32.066  14.361  -4.501  1.00 20.00    -0.084 Cl
ENDROOT
BRANCH   6  10
HETATM   10  C8  UNL     1     -34.596  17.595  -1.313  1.00 20.00     0.153 C 
HETATM   11 CL11 UNL     1     -35.442  17.108   0.174  1.00 20.00    -0.126 Cl
ENDBRANCH   6  10
TORSDOF 1
ENDMDL
MODEL 2
REMARK VINA RESULT:      -4.8      2.489      3.806
REMARK  1 active torsions:
REMARK  status: ('A' for Active; 'I' for Inactive)
REMARK    1  A    between atoms: C6_6  and  C8_8 
ROOT
HETATM    1  C1  UNL     1     -34.348  14.855  -3.576  1.00 20.00     0.099 C 
HETATM    2  C2  UNL     1     -33.092  16.688  -2.555  1.00 20.00     0.031 A 
HETATM    3  C3  UNL     1     -35.334  16.209  -1.793  1.00 20.00     0.046 A 
HETATM    4  C4  UNL     1     -34.080  18.015  -0.794  1.00 20.00     0.032 A 
HETATM    5  C5  UNL     1     -34.257  15.926  -2.635  1.00 20.00     0.046 A 
HETATM    6  C6  UNL     1     -33.003  17.733  -1.635  1.00 20.00    -0.041 A 
HETATM    7  C7  UNL     1     -35.245  17.253  -0.874  1.00 20.00     0.036 A 
HETATM    8  N9  UNL     1     -34.421  13.985  -4.341  1.00 20.00    -0.191 NA
HETATM    9 CL10 UNL     1     -36.571  17.599   0.167  1.00 20.00    -0.084 Cl
ENDROOT
BRANCH   6  10
HETATM   10  C8  UNL     1     -31.757  18.547  -1.550  1.00 20.00     0.153 C 
HETATM   11 CL11 UNL     1     -30.898  18.224  -0.026  1.00 20.00    -0.126 Cl
ENDBRANCH   6  10
TORSDOF 1
ENDMDL
MODEL 3
REMARK VINA RESULT:      -4.7      3.216      5.458
REMARK  1 active torsions:
REMARK  status: ('A' for Active; 'I' for Inactive)
REMARK    1  A    between atoms: C6_6  and  C8_8 
ROOT
HETATM    1  C1  UNL     1     -31.679  18.196  -0.865  1.00 20.00     0.099 C 
HETATM    2  C2  UNL     1     -33.049  16.883  -2.407  1.00 20.00     0.031 A 
HETATM    3  C3  UNL     1     -34.081  17.931  -0.492  1.00 20.00     0.046 A 
HETATM    4  C4  UNL     1     -35.421  16.633  -2.025  1.00 20.00     0.032 A 
HETATM    5  C5  UNL     1     -32.946  17.665  -1.257  1.00 20.00     0.046 A 
HETATM    6  C6  UNL     1     -34.286  16.366  -2.791  1.00 20.00    -0.041 A 
HETATM    7  C7  UNL     1     -35.318  17.415  -0.875  1.00 20.00     0.036 A 
HETATM    8  N9  UNL     1     -30.649  18.627  -0.546  1.00 20.00    -0.191 NA
HETATM    9 CL10 UNL     1     -36.720  17.747   0.067  1.00 20.00    -0.084 Cl
ENDROOT
BRANCH   6  10
HETATM   10  C8  UNL     1     -34.396  15.530  -4.021  1.00 20.00     0.153 C 
HETATM   11 CL11 UNL     1     -32.897  14.612  -4.294  1.00 20.00    -0.126 Cl
ENDBRANCH   6  10
TORSDOF 1
ENDMDL
MODEL 4
REMARK VINA RESULT:      -4.4      2.991      3.701
REMARK  1 active torsions:
REMARK  status: ('A' for Active; 'I' for Inactive)
REMARK    1  A    between atoms: C6_6  and  C8_8 
ROOT
HETATM    1  C1  UNL     1     -36.410  17.714  -0.102  1.00 20.00     0.099 C 
HETATM    2  C2  UNL     1     -34.102  18.152  -0.783  1.00 20.00     0.031 A 
HETATM    3  C3  UNL     1     -35.315  16.321  -1.789  1.00 20.00     0.046 A 
HETATM    4  C4  UNL     1     -33.037  16.768  -2.453  1.00 20.00     0.032 A 
HETATM    5  C5  UNL     1     -35.267  17.393  -0.896  1.00 20.00     0.046 A 
HETATM    6  C6  UNL     1     -32.987  17.840  -1.560  1.00 20.00    -0.041 A 
HETATM    7  C7  UNL     1     -34.201  16.009  -2.566  1.00 20.00     0.036 A 
HETATM    8  N9  UNL     1     -37.338  17.975   0.545  1.00 20.00    -0.191 NA
HETATM    9 CL10 UNL     1     -34.262  14.689  -3.669  1.00 20.00    -0.084 Cl
ENDROOT
BRANCH   6  10
HETATM   10  C8  UNL     1     -31.743  18.652  -1.440  1.00 20.00     0.153 C 
HETATM   11 CL11 UNL     1     -30.834  18.199   0.021  1.00 20.00    -0.126 Cl
ENDBRANCH   6  10
TORSDOF 1
ENDMDL
MODEL 5
REMARK VINA RESULT:      -4.4      4.608      6.609
REMARK  1 active torsions:
REMARK  status: ('A' for Active; 'I' for Inactive)
REMARK    1  A    between atoms: C6_6  and  C8_8 
ROOT
HETATM    1  C1  UNL     1     -30.530  18.944   1.108  1.00 20.00     0.099 C 
HETATM    2  C2  UNL     1     -31.738  18.284  -0.914  1.00 20.00     0.031 A 
HETATM    3  C3  UNL     1     -32.921  18.432   1.188  1.00 20.00     0.046 A 
HETATM    4  C4  UNL     1     -34.100  17.784  -0.818  1.00 20.00     0.032 A 
HETATM    5  C5  UNL     1     -31.738  18.549   0.456  1.00 20.00     0.046 A 
HETATM    6  C6  UNL     1     -32.918  17.901  -1.551  1.00 20.00    -0.041 A 
HETATM    7  C7  UNL     1     -34.100  18.050   0.551  1.00 20.00     0.036 A 
HETATM    8  N9  UNL     1     -29.548  19.263   1.637  1.00 20.00    -0.191 NA
HETATM    9 CL10 UNL     1     -35.560  17.909   1.453  1.00 20.00    -0.084 Cl
ENDROOT
BRANCH   6  10
HETATM   10  C8  UNL     1     -32.918  17.618  -3.015  1.00 20.00     0.153 C 
HETATM   11 CL11 UNL     1     -33.194  15.888  -3.321  1.00 20.00    -0.126 Cl
ENDBRANCH   6  10
TORSDOF 1
ENDMDL
MODEL 6
REMARK VINA RESULT:      -4.4      2.793      4.416
REMARK  1 active torsions:
REMARK  status: ('A' for Active; 'I' for Inactive)
REMARK    1  A    between atoms: C6_6  and  C8_8 
ROOT
HETATM    1  C1  UNL     1     -36.225  17.705   0.373  1.00 20.00     0.099 C 
HETATM    2  C2  UNL     1     -35.329  16.458  -1.530  1.00 20.00     0.031 A 
HETATM    3  C3  UNL     1     -33.953  18.115  -0.435  1.00 20.00     0.046 A 
HETATM    4  C4  UNL     1     -33.082  16.874  -2.315  1.00 20.00     0.032 A 
HETATM    5  C5  UNL     1     -35.162  17.425  -0.538  1.00 20.00     0.046 A 
HETATM    6  C6  UNL     1     -34.290  16.183  -2.419  1.00 20.00    -0.041 A 
HETATM    7  C7  UNL     1     -32.914  17.840  -1.323  1.00 20.00     0.036 A 
HETATM    8  N9  UNL     1     -37.090  17.933   1.113  1.00 20.00    -0.191 NA
HETATM    9 CL10 UNL     1     -31.423  18.689  -1.194  1.00 20.00    -0.084 Cl
ENDROOT
BRANCH   6  10
HETATM   10  C8  UNL     1     -34.469  15.149  -3.478  1.00 20.00     0.153 C 
HETATM   11 CL11 UNL     1     -32.910  14.748  -4.235  1.00 20.00    -0.126 Cl
ENDBRANCH   6  10
TORSDOF 1
ENDMDL
MODEL 7
REMARK VINA RESULT:      -4.4      2.066      2.172
REMARK  1 active torsions:
REMARK  status: ('A' for Active; 'I' for Inactive)
REMARK    1  A    between atoms: C6_6  and  C8_8 
ROOT
HETATM    1  C1  UNL     1     -35.422  13.831  -4.255  1.00 20.00     0.099 C 
HETATM    2  C2  UNL     1     -34.739  15.617  -2.729  1.00 20.00     0.031 A 
HETATM    3  C3  UNL     1     -34.748  16.021  -5.111  1.00 20.00     0.046 A 
HETATM    4  C4  UNL     1     -34.078  17.775  -3.592  1.00 20.00     0.032 A 
HETATM    5  C5  UNL     1     -34.965  15.166  -4.030  1.00 20.00     0.046 A 
HETATM    6  C6  UNL     1     -34.296  16.921  -2.510  1.00 20.00    -0.041 A 
HETATM    7  C7  UNL     1     -34.304  17.324  -4.892  1.00 20.00     0.036 A 
HETATM    8  N9  UNL     1     -35.792  12.746  -4.437  1.00 20.00    -0.191 NA
HETATM    9 CL10 UNL     1     -34.039  18.380  -6.226  1.00 20.00    -0.084 Cl
ENDROOT
BRANCH   6  10
HETATM   10  C8  UNL     1     -34.055  17.403  -1.120  1.00 20.00     0.153 C 
HETATM   11 CL11 UNL     1     -35.433  17.003  -0.068  1.00 20.00    -0.126 Cl
ENDBRANCH   6  10
TORSDOF 1
ENDMDL
MODEL 8
REMARK VINA RESULT:      -4.4      2.429      3.089
REMARK  1 active torsions:
REMARK  status: ('A' for Active; 'I' for Inactive)
REMARK    1  A    between atoms: C6_6  and  C8_8 
ROOT
HETATM    1  C1  UNL     1     -34.149  14.972  -3.703  1.00 20.00     0.099 C 
HETATM    2  C2  UNL     1     -35.276  16.303  -1.988  1.00 20.00     0.031 A 
HETATM    3  C3  UNL     1     -32.951  16.724  -2.487  1.00 20.00     0.046 A 
HETATM    4  C4  UNL     1     -34.078  18.031  -0.798  1.00 20.00     0.032 A 
HETATM    5  C5  UNL     1     -34.125  16.007  -2.718  1.00 20.00     0.046 A 
HETATM    6  C6  UNL     1     -35.254  17.314  -1.028  1.00 20.00    -0.041 A 
HETATM    7  C7  UNL     1     -32.927  17.735  -1.528  1.00 20.00     0.036 A 
HETATM    8  N9  UNL     1     -34.170  14.131  -4.503  1.00 20.00    -0.191 NA
HETATM    9 CL10 UNL     1     -31.479  18.622  -1.246  1.00 20.00    -0.084 Cl
ENDROOT
BRANCH   6  10
HETATM   10  C8  UNL     1     -36.485  17.631  -0.249  1.00 20.00     0.153 C 
HETATM   11 CL11 UNL     1     -36.134  17.665   1.494  1.00 20.00    -0.126 Cl
ENDBRANCH   6  10
TORSDOF 1
ENDMDL
MODEL 9
REMARK VINA RESULT:      -4.4      3.453      4.458
REMARK  1 active torsions:
REMARK  status: ('A' for Active; 'I' for Inactive)
REMARK    1  A    between atoms: C6_6  and  C8_8 
ROOT
HETATM    1  C1  UNL     1     -31.734  18.237  -0.932  1.00 20.00     0.099 C 
HETATM    2  C2  UNL     1     -34.139  17.989  -0.562  1.00 20.00     0.031 A 
HETATM    3  C3  UNL     1     -33.073  16.752  -2.342  1.00 20.00     0.046 A 
HETATM    4  C4  UNL     1     -35.446  16.516  -1.962  1.00 20.00     0.032 A 
HETATM    5  C5  UNL     1     -32.992  17.656  -1.282  1.00 20.00     0.046 A 
HETATM    6  C6  UNL     1     -35.366  17.420  -0.902  1.00 20.00    -0.041 A 
HETATM    7  C7  UNL     1     -34.299  16.182  -2.682  1.00 20.00     0.036 A 
HETATM    8  N9  UNL     1     -30.713  18.711  -0.649  1.00 20.00    -0.191 NA
HETATM    9 CL10 UNL     1     -34.398  15.064  -3.986  1.00 20.00    -0.084 Cl
ENDROOT
BRANCH   6  10
HETATM   10  C8  UNL     1     -36.593  17.776  -0.132  1.00 20.00     0.153 C 
HETATM   11 CL11 UNL     1     -36.258  17.784   1.615  1.00 20.00    -0.126 Cl
ENDBRANCH   6  10
TORSDOF 1
ENDMDL
