MODEL 1
REMARK VINA RESULT:      -5.1      0.000      0.000
REMARK  2 active torsions:
REMARK  status: ('A' for Active; 'I' for Inactive)
REMARK    1  A    between atoms: C1_1  and  C3_3 
REMARK    2  A    between atoms: C1_1  and  C5_5 
ROOT
HETATM    1  C2  UNL     1     -35.563   5.620   4.110  1.00 20.00     0.098 A 
HETATM    2  C3  UNL     1     -34.148   6.148   4.229  1.00 20.00     0.134 A 
HETATM    3  C4  UNL     1     -34.564   4.914   4.949  1.00 20.00     0.255 A 
HETATM    4  F7  UNL     1     -34.681   4.913   6.320  1.00 20.00    -0.205 F 
HETATM    5  F8  UNL     1     -34.089   3.677   4.575  1.00 20.00    -0.205 F 
ENDROOT
BRANCH   2   6
HETATM    6  C1  UNL     1     -33.250   6.048   3.074  1.00 20.00     0.146 C 
HETATM    7  O6  UNL     1     -33.301   5.070   2.330  1.00 20.00    -0.297 OA
BRANCH   6   8
HETATM    8  C5  UNL     1     -32.297   7.205   2.890  1.00 20.00     0.164 C 
HETATM    9 BR9  UNL     1     -32.624   8.077   1.192  1.00 20.00    -0.089 Br
ENDBRANCH   6   8
ENDBRANCH   2   6
TORSDOF 2
ENDMDL
MODEL 2
REMARK VINA RESULT:      -4.4      1.502      1.651
REMARK  2 active torsions:
REMARK  status: ('A' for Active; 'I' for Inactive)
REMARK    1  A    between atoms: C1_1  and  C3_3 
REMARK    2  A    between atoms: C1_1  and  C5_5 
ROOT
HETATM    1  C2  UNL     1     -34.775   5.061   5.513  1.00 20.00     0.098 A 
HETATM    2  C3  UNL     1     -34.569   6.153   4.483  1.00 20.00     0.134 A 
HETATM    3  C4  UNL     1     -34.141   6.346   5.895  1.00 20.00     0.255 A 
HETATM    4  F7  UNL     1     -34.804   7.237   6.708  1.00 20.00    -0.205 F 
HETATM    5  F8  UNL     1     -32.808   6.392   6.236  1.00 20.00    -0.205 F 
ENDROOT
BRANCH   2   6
HETATM    6  C1  UNL     1     -33.559   5.964   3.437  1.00 20.00     0.146 C 
HETATM    7  O6  UNL     1     -33.562   4.947   2.745  1.00 20.00    -0.297 OA
BRANCH   6   8
HETATM    8  C5  UNL     1     -32.557   7.084   3.292  1.00 20.00     0.164 C 
HETATM    9 BR9  UNL     1     -32.561   7.755   1.474  1.00 20.00    -0.089 Br
ENDBRANCH   6   8
ENDBRANCH   2   6
TORSDOF 2
ENDMDL
MODEL 3
REMARK VINA RESULT:      -4.4      3.327      4.036
REMARK  2 active torsions:
REMARK  status: ('A' for Active; 'I' for Inactive)
REMARK    1  A    between atoms: C1_1  and  C3_3 
REMARK    2  A    between atoms: C1_1  and  C5_5 
ROOT
HETATM    1  C2  UNL     1     -31.977   7.345   3.430  1.00 20.00     0.098 A 
HETATM    2  C3  UNL     1     -33.382   6.832   3.188  1.00 20.00     0.134 A 
HETATM    3  C4  UNL     1     -32.603   7.468   2.091  1.00 20.00     0.255 A 
HETATM    4  F7  UNL     1     -32.968   8.702   1.603  1.00 20.00    -0.205 F 
HETATM    5  F8  UNL     1     -32.131   6.729   1.030  1.00 20.00    -0.205 F 
ENDROOT
BRANCH   2   6
HETATM    6  C1  UNL     1     -33.618   5.385   3.166  1.00 20.00     0.146 C 
HETATM    7  O6  UNL     1     -32.946   4.656   2.438  1.00 20.00    -0.297 OA
BRANCH   6   8
HETATM    8  C5  UNL     1     -34.716   4.892   4.078  1.00 20.00     0.164 C 
HETATM    9 BR9  UNL     1     -34.541   5.698   5.831  1.00 20.00    -0.089 Br
ENDBRANCH   6   8
ENDBRANCH   2   6
TORSDOF 2
ENDMDL
MODEL 4
REMARK VINA RESULT:      -4.3      1.774      2.001
REMARK  2 active torsions:
REMARK  status: ('A' for Active; 'I' for Inactive)
REMARK    1  A    between atoms: C1_1  and  C3_3 
REMARK    2  A    between atoms: C1_1  and  C5_5 
ROOT
HETATM    1  C2  UNL     1     -34.069   4.579   3.710  1.00 20.00     0.098 A 
HETATM    2  C3  UNL     1     -34.118   6.087   3.574  1.00 20.00     0.134 A 
HETATM    3  C4  UNL     1     -35.129   5.362   4.389  1.00 20.00     0.255 A 
HETATM    4  F7  UNL     1     -36.436   5.279   3.967  1.00 20.00    -0.205 F 
HETATM    5  F8  UNL     1     -35.146   5.467   5.762  1.00 20.00    -0.205 F 
ENDROOT
BRANCH   2   6
HETATM    6  C1  UNL     1     -33.093   6.897   4.239  1.00 20.00     0.146 C 
HETATM    7  O6  UNL     1     -33.201   7.180   5.431  1.00 20.00    -0.297 OA
BRANCH   6   8
HETATM    8  C5  UNL     1     -31.941   7.333   3.365  1.00 20.00     0.164 C 
HETATM    9 BR9  UNL     1     -32.574   7.746   1.581  1.00 20.00    -0.089 Br
ENDBRANCH   6   8
ENDBRANCH   2   6
TORSDOF 2
ENDMDL
MODEL 5
REMARK VINA RESULT:      -4.0     12.099     12.720
REMARK  2 active torsions:
REMARK  status: ('A' for Active; 'I' for Inactive)
REMARK    1  A    between atoms: C1_1  and  C3_3 
REMARK    2  A    between atoms: C1_1  and  C5_5 
ROOT
HETATM    1  C2  UNL     1     -33.601  14.528  -4.416  1.00 20.00     0.098 A 
HETATM    2  C3  UNL     1     -34.974  14.140  -3.906  1.00 20.00     0.134 A 
HETATM    3  C4  UNL     1     -34.364  15.446  -3.536  1.00 20.00     0.255 A 
HETATM    4  F7  UNL     1     -33.948  15.681  -2.245  1.00 20.00    -0.205 F 
HETATM    5  F8  UNL     1     -34.864  16.630  -4.029  1.00 20.00    -0.205 F 
ENDROOT
BRANCH   2   6
HETATM    6  C1  UNL     1     -36.100  14.103  -4.844  1.00 20.00     0.146 C 
HETATM    7  O6  UNL     1     -35.933  13.718  -6.000  1.00 20.00    -0.297 OA
BRANCH   6   8
HETATM    8  C5  UNL     1     -37.426  14.560  -4.285  1.00 20.00     0.164 C 
HETATM    9 BR9  UNL     1     -38.045  16.132  -5.232  1.00 20.00    -0.089 Br
ENDBRANCH   6   8
ENDBRANCH   2   6
TORSDOF 2
ENDMDL
MODEL 6
REMARK VINA RESULT:      -4.0      4.098      4.896
REMARK  2 active torsions:
REMARK  status: ('A' for Active; 'I' for Inactive)
REMARK    1  A    between atoms: C1_1  and  C3_3 
REMARK    2  A    between atoms: C1_1  and  C5_5 
ROOT
HETATM    1  C2  UNL     1     -32.858   9.249   1.384  1.00 20.00     0.098 A 
HETATM    2  C3  UNL     1     -33.344   7.830   1.597  1.00 20.00     0.134 A 
HETATM    3  C4  UNL     1     -32.638   8.214   0.345  1.00 20.00     0.255 A 
HETATM    4  F7  UNL     1     -33.318   8.270  -0.850  1.00 20.00    -0.205 F 
HETATM    5  F8  UNL     1     -31.368   7.757   0.075  1.00 20.00    -0.205 F 
ENDROOT
BRANCH   2   6
HETATM    6  C1  UNL     1     -32.665   6.985   2.585  1.00 20.00     0.146 C 
HETATM    7  O6  UNL     1     -31.798   7.458   3.318  1.00 20.00    -0.297 OA
BRANCH   6   8
HETATM    8  C5  UNL     1     -33.109   5.542   2.619  1.00 20.00     0.164 C 
HETATM    9 BR9  UNL     1     -34.484   5.296   3.961  1.00 20.00    -0.089 Br
ENDBRANCH   6   8
ENDBRANCH   2   6
TORSDOF 2
ENDMDL
MODEL 7
REMARK VINA RESULT:      -4.0     11.819     12.207
REMARK  2 active torsions:
REMARK  status: ('A' for Active; 'I' for Inactive)
REMARK    1  A    between atoms: C1_1  and  C3_3 
REMARK    2  A    between atoms: C1_1  and  C5_5 
ROOT
HETATM    1  C2  UNL     1     -35.785  14.450  -5.958  1.00 20.00     0.098 A 
HETATM    2  C3  UNL     1     -35.362  15.085  -4.649  1.00 20.00     0.134 A 
HETATM    3  C4  UNL     1     -36.276  13.911  -4.666  1.00 20.00     0.255 A 
HETATM    4  F7  UNL     1     -37.598  14.052  -4.310  1.00 20.00    -0.205 F 
HETATM    5  F8  UNL     1     -35.859  12.677  -4.222  1.00 20.00    -0.205 F 
ENDROOT
BRANCH   2   6
HETATM    6  C1  UNL     1     -33.978  14.922  -4.192  1.00 20.00     0.146 C 
HETATM    7  O6  UNL     1     -33.273  14.024  -4.650  1.00 20.00    -0.297 OA
BRANCH   6   8
HETATM    8  C5  UNL     1     -33.517  15.915  -3.152  1.00 20.00     0.164 C 
HETATM    9 BR9  UNL     1     -34.973  16.352  -1.951  1.00 20.00    -0.089 Br
ENDBRANCH   6   8
ENDBRANCH   2   6
TORSDOF 2
ENDMDL
MODEL 8
REMARK VINA RESULT:      -4.0      8.934      9.670
REMARK  2 active torsions:
REMARK  status: ('A' for Active; 'I' for Inactive)
REMARK    1  A    between atoms: C1_1  and  C3_3 
REMARK    2  A    between atoms: C1_1  and  C5_5 
ROOT
HETATM    1  C2  UNL     1     -42.996   7.303   0.709  1.00 20.00     0.098 A 
HETATM    2  C3  UNL     1     -42.350   7.127  -0.650  1.00 20.00     0.134 A 
HETATM    3  C4  UNL     1     -41.607   7.763   0.471  1.00 20.00     0.255 A 
HETATM    4  F7  UNL     1     -41.313   9.107   0.439  1.00 20.00    -0.205 F 
HETATM    5  F8  UNL     1     -40.547   7.125   1.076  1.00 20.00    -0.205 F 
ENDROOT
BRANCH   2   6
HETATM    6  C1  UNL     1     -41.982   5.779  -1.095  1.00 20.00     0.146 C 
HETATM    7  O6  UNL     1     -40.800   5.480  -1.257  1.00 20.00    -0.297 OA
BRANCH   6   8
HETATM    8  C5  UNL     1     -43.135   4.833  -1.327  1.00 20.00     0.164 C 
HETATM    9 BR9  UNL     1     -42.653   3.500  -2.647  1.00 20.00    -0.089 Br
ENDBRANCH   6   8
ENDBRANCH   2   6
TORSDOF 2
ENDMDL
MODEL 9
REMARK VINA RESULT:      -3.9     11.767     12.481
REMARK  2 active torsions:
REMARK  status: ('A' for Active; 'I' for Inactive)
REMARK    1  A    between atoms: C1_1  and  C3_3 
REMARK    2  A    between atoms: C1_1  and  C5_5 
ROOT
HETATM    1  C2  UNL     1     -34.896  15.292  -2.967  1.00 20.00     0.098 A 
HETATM    2  C3  UNL     1     -35.620  15.219  -4.295  1.00 20.00     0.134 A 
HETATM    3  C4  UNL     1     -34.558  14.236  -3.951  1.00 20.00     0.255 A 
HETATM    4  F7  UNL     1     -33.349  14.256  -4.609  1.00 20.00    -0.205 F 
HETATM    5  F8  UNL     1     -34.863  12.919  -3.692  1.00 20.00    -0.205 F 
ENDROOT
BRANCH   2   6
HETATM    6  C1  UNL     1     -37.023  14.794  -4.320  1.00 20.00     0.146 C 
HETATM    7  O6  UNL     1     -37.313  13.614  -4.512  1.00 20.00    -0.297 OA
BRANCH   6   8
HETATM    8  C5  UNL     1     -38.038  15.891  -4.098  1.00 20.00     0.164 C 
HETATM    9 BR9  UNL     1     -39.832  15.201  -4.339  1.00 20.00    -0.089 Br
ENDBRANCH   6   8
ENDBRANCH   2   6
TORSDOF 2
ENDMDL
