MODEL 1
REMARK VINA RESULT:      -4.2      0.000      0.000
REMARK  1 active torsions:
REMARK  status: ('A' for Active; 'I' for Inactive)
REMARK    1  A    between atoms: C1_1  and  C4_4 
ROOT
HETATM    1  C2  UNL     1     -33.827  15.491  -3.360  1.00 20.00     0.038 C 
HETATM    2  C3  UNL     1     -33.063  14.658  -4.371  1.00 20.00     0.169 C 
HETATM    3  C4  UNL     1     -35.265  14.860  -5.130  1.00 20.00     0.190 C 
HETATM    4  C5  UNL     1     -34.999  16.028  -4.174  1.00 20.00    -0.013 C 
HETATM    5  C6  UNL     1     -34.566  17.269  -4.981  1.00 20.00     0.018 C 
HETATM    6  C7  UNL     1     -36.189  16.416  -3.292  1.00 20.00     0.018 C 
HETATM    7  O9  UNL     1     -34.012  14.192  -5.340  1.00 20.00    -0.378 OA
ENDROOT
BRANCH   3   8
HETATM    8  C1  UNL     1     -36.164  13.792  -4.587  1.00 20.00     0.263 C 
HETATM    9  O8  UNL     1     -35.849  12.608  -4.528  1.00 20.00    -0.304 OA
ENDBRANCH   3   8
TORSDOF 1
ENDMDL
MODEL 2
REMARK VINA RESULT:      -4.1      1.402      2.500
REMARK  1 active torsions:
REMARK  status: ('A' for Active; 'I' for Inactive)
REMARK    1  A    between atoms: C1_1  and  C4_4 
ROOT
HETATM    1  C2  UNL     1     -34.796  16.711  -4.741  1.00 20.00     0.038 C 
HETATM    2  C3  UNL     1     -36.235  17.003  -4.359  1.00 20.00     0.169 C 
HETATM    3  C4  UNL     1     -35.725  14.841  -3.628  1.00 20.00     0.190 C 
HETATM    4  C5  UNL     1     -34.403  15.602  -3.773  1.00 20.00    -0.013 C 
HETATM    5  C6  UNL     1     -33.998  16.200  -2.410  1.00 20.00     0.018 C 
HETATM    6  C7  UNL     1     -33.236  14.760  -4.297  1.00 20.00     0.018 C 
HETATM    7  O9  UNL     1     -36.783  15.793  -3.817  1.00 20.00    -0.378 OA
ENDROOT
BRANCH   3   8
HETATM    8  C1  UNL     1     -35.975  13.802  -4.677  1.00 20.00     0.263 C 
HETATM    9  O8  UNL     1     -35.918  12.596  -4.462  1.00 20.00    -0.304 OA
ENDBRANCH   3   8
TORSDOF 1
ENDMDL
MODEL 3
REMARK VINA RESULT:      -4.0     17.816     19.089
REMARK  1 active torsions:
REMARK  status: ('A' for Active; 'I' for Inactive)
REMARK    1  A    between atoms: C1_1  and  C4_4 
ROOT
HETATM    1  C2  UNL     1     -24.507  18.489  10.818  1.00 20.00     0.038 C 
HETATM    2  C3  UNL     1     -24.814  18.388   9.336  1.00 20.00     0.169 C 
HETATM    3  C4  UNL     1     -22.858  17.175   9.746  1.00 20.00     0.190 C 
HETATM    4  C5  UNL     1     -23.624  17.273  11.069  1.00 20.00    -0.013 C 
HETATM    5  C6  UNL     1     -24.492  16.011  11.259  1.00 20.00     0.018 C 
HETATM    6  C7  UNL     1     -22.740  17.442  12.308  1.00 20.00     0.018 C 
HETATM    7  O9  UNL     1     -23.714  17.702   8.721  1.00 20.00    -0.378 OA
ENDROOT
BRANCH   3   8
HETATM    8  C1  UNL     1     -21.625  18.021   9.665  1.00 20.00     0.263 C 
HETATM    9  O8  UNL     1     -21.546  19.037   8.982  1.00 20.00    -0.304 OA
ENDBRANCH   3   8
TORSDOF 1
ENDMDL
MODEL 4
REMARK VINA RESULT:      -3.9      1.277      1.466
REMARK  1 active torsions:
REMARK  status: ('A' for Active; 'I' for Inactive)
REMARK    1  A    between atoms: C1_1  and  C4_4 
ROOT
HETATM    1  C2  UNL     1     -33.579  15.011  -4.782  1.00 20.00     0.038 C 
HETATM    2  C3  UNL     1     -34.016  14.885  -6.228  1.00 20.00     0.169 C 
HETATM    3  C4  UNL     1     -35.926  15.265  -4.934  1.00 20.00     0.190 C 
HETATM    4  C5  UNL     1     -34.723  15.790  -4.144  1.00 20.00    -0.013 C 
HETATM    5  C6  UNL     1     -34.552  17.301  -4.405  1.00 20.00     0.018 C 
HETATM    6  C7  UNL     1     -34.805  15.567  -2.631  1.00 20.00     0.018 C 
HETATM    7  O9  UNL     1     -35.451  14.908  -6.241  1.00 20.00    -0.378 OA
ENDROOT
BRANCH   3   8
HETATM    8  C1  UNL     1     -36.526  13.999  -4.404  1.00 20.00     0.263 C 
HETATM    9  O8  UNL     1     -37.726  13.749  -4.448  1.00 20.00    -0.304 OA
ENDBRANCH   3   8
TORSDOF 1
ENDMDL
MODEL 5
REMARK VINA RESULT:      -3.9      1.514      2.055
REMARK  1 active torsions:
REMARK  status: ('A' for Active; 'I' for Inactive)
REMARK    1  A    between atoms: C1_1  and  C4_4 
ROOT
HETATM    1  C2  UNL     1     -34.439  14.683  -3.912  1.00 20.00     0.038 C 
HETATM    2  C3  UNL     1     -34.688  13.187  -3.931  1.00 20.00     0.169 C 
HETATM    3  C4  UNL     1     -36.310  14.200  -5.276  1.00 20.00     0.190 C 
HETATM    4  C5  UNL     1     -35.120  15.161  -5.188  1.00 20.00    -0.013 C 
HETATM    5  C6  UNL     1     -34.191  14.947  -6.402  1.00 20.00     0.018 C 
HETATM    6  C7  UNL     1     -35.499  16.643  -5.125  1.00 20.00     0.018 C 
HETATM    7  O9  UNL     1     -35.907  12.970  -4.656  1.00 20.00    -0.378 OA
ENDROOT
BRANCH   3   8
HETATM    8  C1  UNL     1     -37.521  14.622  -4.503  1.00 20.00     0.263 C 
HETATM    9  O8  UNL     1     -38.508  13.910  -4.351  1.00 20.00    -0.304 OA
ENDBRANCH   3   8
TORSDOF 1
ENDMDL
MODEL 6
REMARK VINA RESULT:      -3.8      1.616      2.431
REMARK  1 active torsions:
REMARK  status: ('A' for Active; 'I' for Inactive)
REMARK    1  A    between atoms: C1_1  and  C4_4 
ROOT
HETATM    1  C2  UNL     1     -34.213  16.556  -4.226  1.00 20.00     0.038 C 
HETATM    2  C3  UNL     1     -34.504  16.423  -2.744  1.00 20.00     0.169 C 
HETATM    3  C4  UNL     1     -35.286  14.490  -3.803  1.00 20.00     0.190 C 
HETATM    4  C5  UNL     1     -34.216  15.111  -4.708  1.00 20.00    -0.013 C 
HETATM    5  C6  UNL     1     -32.852  14.449  -4.425  1.00 20.00     0.018 C 
HETATM    6  C7  UNL     1     -34.505  14.999  -6.208  1.00 20.00     0.018 C 
HETATM    7  O9  UNL     1     -35.273  15.224  -2.569  1.00 20.00    -0.378 OA
ENDROOT
BRANCH   3   8
HETATM    8  C1  UNL     1     -36.692  14.632  -4.299  1.00 20.00     0.263 C 
HETATM    9  O8  UNL     1     -37.451  13.682  -4.462  1.00 20.00    -0.304 OA
ENDBRANCH   3   8
TORSDOF 1
ENDMDL
MODEL 7
REMARK VINA RESULT:      -3.7      1.436      2.752
REMARK  1 active torsions:
REMARK  status: ('A' for Active; 'I' for Inactive)
REMARK    1  A    between atoms: C1_1  and  C4_4 
ROOT
HETATM    1  C2  UNL     1     -35.266  17.073  -3.925  1.00 20.00     0.038 C 
HETATM    2  C3  UNL     1     -36.325  16.063  -4.321  1.00 20.00     0.169 C 
HETATM    3  C4  UNL     1     -34.515  14.887  -3.423  1.00 20.00     0.190 C 
HETATM    4  C5  UNL     1     -34.445  16.320  -2.885  1.00 20.00    -0.013 C 
HETATM    5  C6  UNL     1     -35.133  16.390  -1.506  1.00 20.00     0.018 C 
HETATM    6  C7  UNL     1     -33.027  16.882  -2.746  1.00 20.00     0.018 C 
HETATM    7  O9  UNL     1     -35.761  14.758  -4.124  1.00 20.00    -0.378 OA
ENDROOT
BRANCH   3   8
HETATM    8  C1  UNL     1     -33.480  14.546  -4.451  1.00 20.00     0.263 C 
HETATM    9  O8  UNL     1     -33.737  14.370  -5.637  1.00 20.00    -0.304 OA
ENDBRANCH   3   8
TORSDOF 1
ENDMDL
MODEL 8
REMARK VINA RESULT:      -3.6      1.754      2.696
REMARK  1 active torsions:
REMARK  status: ('A' for Active; 'I' for Inactive)
REMARK    1  A    between atoms: C1_1  and  C4_4 
ROOT
HETATM    1  C2  UNL     1     -35.742  14.875  -3.903  1.00 20.00     0.038 C 
HETATM    2  C3  UNL     1     -36.243  13.622  -4.595  1.00 20.00     0.169 C 
HETATM    3  C4  UNL     1     -35.100  14.907  -6.179  1.00 20.00     0.190 C 
HETATM    4  C5  UNL     1     -34.592  15.324  -4.795  1.00 20.00    -0.013 C 
HETATM    5  C6  UNL     1     -33.311  14.535  -4.455  1.00 20.00     0.018 C 
HETATM    6  C7  UNL     1     -34.291  16.819  -4.648  1.00 20.00     0.018 C 
HETATM    7  O9  UNL     1     -35.946  13.762  -5.992  1.00 20.00    -0.378 OA
ENDROOT
BRANCH   3   8
HETATM    8  C1  UNL     1     -35.983  15.909  -6.856  1.00 20.00     0.263 C 
HETATM    9  O8  UNL     1     -37.048  15.620  -7.391  1.00 20.00    -0.304 OA
ENDBRANCH   3   8
TORSDOF 1
ENDMDL
MODEL 9
REMARK VINA RESULT:      -3.5     11.223     12.490
REMARK  1 active torsions:
REMARK  status: ('A' for Active; 'I' for Inactive)
REMARK    1  A    between atoms: C1_1  and  C4_4 
ROOT
HETATM    1  C2  UNL     1     -41.047   5.809  -0.814  1.00 20.00     0.038 C 
HETATM    2  C3  UNL     1     -42.097   4.941  -1.479  1.00 20.00     0.169 C 
HETATM    3  C4  UNL     1     -43.196   6.399  -0.019  1.00 20.00     0.190 C 
HETATM    4  C5  UNL     1     -41.843   7.030  -0.368  1.00 20.00    -0.013 C 
HETATM    5  C6  UNL     1     -42.019   8.013  -1.544  1.00 20.00     0.018 C 
HETATM    6  C7  UNL     1     -41.168   7.774   0.788  1.00 20.00     0.018 C 
HETATM    7  O9  UNL     1     -43.355   5.246  -0.860  1.00 20.00    -0.378 OA
ENDROOT
BRANCH   3   8
HETATM    8  C1  UNL     1     -43.299   5.855   1.373  1.00 20.00     0.263 C 
HETATM    9  O8  UNL     1     -43.417   4.661   1.625  1.00 20.00    -0.304 OA
ENDBRANCH   3   8
TORSDOF 1
ENDMDL
