MODEL 1
REMARK VINA RESULT:      -5.0      0.000      0.000
REMARK  1 active torsions:
REMARK  status: ('A' for Active; 'I' for Inactive)
REMARK    1  A    between atoms: C2_2  and  C7_7 
ROOT
HETATM    1  C1  UNL     1     -33.280   5.297   2.270  1.00 20.00     0.149 A 
HETATM    2  C2  UNL     1     -32.915   6.496   2.948  1.00 20.00    -0.001 A 
HETATM    3  C3  UNL     1     -33.473   6.342   4.184  1.00 20.00     0.039 A 
HETATM    4  C4  UNL     1     -33.635   6.994   5.496  1.00 20.00     0.061 C 
HETATM    5  C5  UNL     1     -34.765   6.138   6.137  1.00 20.00     0.028 C 
HETATM    6  C6  UNL     1     -34.761   4.784   5.399  1.00 20.00     0.151 C 
HETATM    7  N8  UNL     1     -34.009   4.458   3.028  1.00 20.00    -0.184 NA
HETATM    8  N9  UNL     1     -34.094   5.140   4.165  1.00 20.00    -0.274 N 
ENDROOT
BRANCH   2   9
HETATM    9  C7  UNL     1     -32.125   7.625   2.433  1.00 20.00     0.156 C 
HETATM   10 CL10 UNL     1     -32.822   8.268   0.920  1.00 20.00    -0.125 Cl
ENDBRANCH   2   9
TORSDOF 1
ENDMDL
MODEL 2
REMARK VINA RESULT:      -4.3     16.315     16.741
REMARK  1 active torsions:
REMARK  status: ('A' for Active; 'I' for Inactive)
REMARK    1  A    between atoms: C2_2  and  C7_7 
ROOT
HETATM    1  C1  UNL     1     -25.809  19.263   9.664  1.00 20.00     0.149 A 
HETATM    2  C2  UNL     1     -24.632  18.814   8.999  1.00 20.00    -0.001 A 
HETATM    3  C3  UNL     1     -23.895  18.257  10.004  1.00 20.00     0.039 A 
HETATM    4  C4  UNL     1     -22.623  17.573  10.295  1.00 20.00     0.061 C 
HETATM    5  C5  UNL     1     -22.566  17.656  11.847  1.00 20.00     0.028 C 
HETATM    6  C6  UNL     1     -24.016  17.871  12.327  1.00 20.00     0.151 C 
HETATM    7  N8  UNL     1     -25.806  19.004  10.984  1.00 20.00    -0.184 NA
HETATM    8  N9  UNL     1     -24.632  18.401  11.130  1.00 20.00    -0.274 N 
ENDROOT
BRANCH   2   9
HETATM    9  C7  UNL     1     -24.298  18.926   7.571  1.00 20.00     0.156 C 
HETATM   10 CL10 UNL     1     -25.771  18.980   6.562  1.00 20.00    -0.125 Cl
ENDBRANCH   2   9
TORSDOF 1
ENDMDL
MODEL 3
REMARK VINA RESULT:      -4.2     16.354     16.648
REMARK  1 active torsions:
REMARK  status: ('A' for Active; 'I' for Inactive)
REMARK    1  A    between atoms: C2_2  and  C7_7 
ROOT
HETATM    1  C1  UNL     1     -22.880  17.999   8.455  1.00 20.00     0.149 A 
HETATM    2  C2  UNL     1     -24.166  18.522   8.776  1.00 20.00    -0.001 A 
HETATM    3  C3  UNL     1     -24.274  18.296  10.117  1.00 20.00     0.039 A 
HETATM    4  C4  UNL     1     -25.167  18.470  11.276  1.00 20.00     0.061 C 
HETATM    5  C5  UNL     1     -24.502  17.541  12.332  1.00 20.00     0.028 C 
HETATM    6  C6  UNL     1     -23.035  17.359  11.892  1.00 20.00     0.151 C 
HETATM    7  N8  UNL     1     -22.235  17.486   9.518  1.00 20.00    -0.184 NA
HETATM    8  N9  UNL     1     -23.120  17.691  10.486  1.00 20.00    -0.274 N 
ENDROOT
BRANCH   2   9
HETATM    9  C7  UNL     1     -25.139  19.154   7.872  1.00 20.00     0.156 C 
HETATM   10 CL10 UNL     1     -24.503  19.263   6.207  1.00 20.00    -0.125 Cl
ENDBRANCH   2   9
TORSDOF 1
ENDMDL
MODEL 4
REMARK VINA RESULT:      -4.1     16.180     16.796
REMARK  1 active torsions:
REMARK  status: ('A' for Active; 'I' for Inactive)
REMARK    1  A    between atoms: C2_2  and  C7_7 
ROOT
HETATM    1  C1  UNL     1     -25.388  19.084   8.094  1.00 20.00     0.149 A 
HETATM    2  C2  UNL     1     -25.068  18.932   9.474  1.00 20.00    -0.001 A 
HETATM    3  C3  UNL     1     -23.808  18.407   9.450  1.00 20.00     0.039 A 
HETATM    4  C4  UNL     1     -22.707  17.940  10.310  1.00 20.00     0.061 C 
HETATM    5  C5  UNL     1     -21.807  17.185   9.291  1.00 20.00     0.028 C 
HETATM    6  C6  UNL     1     -22.164  17.740   7.897  1.00 20.00     0.151 C 
HETATM    7  N8  UNL     1     -24.401  18.686   7.272  1.00 20.00    -0.184 NA
HETATM    8  N9  UNL     1     -23.480  18.289   8.142  1.00 20.00    -0.274 N 
ENDROOT
BRANCH   2   9
HETATM    9  C7  UNL     1     -25.900  19.263  10.641  1.00 20.00     0.156 C 
HETATM   10 CL10 UNL     1     -25.953  17.910  11.806  1.00 20.00    -0.125 Cl
ENDBRANCH   2   9
TORSDOF 1
ENDMDL
MODEL 5
REMARK VINA RESULT:      -4.1     11.819     12.494
REMARK  1 active torsions:
REMARK  status: ('A' for Active; 'I' for Inactive)
REMARK    1  A    between atoms: C2_2  and  C7_7 
ROOT
HETATM    1  C1  UNL     1     -34.250  17.853  -0.413  1.00 20.00     0.149 A 
HETATM    2  C2  UNL     1     -33.151  17.842  -1.319  1.00 20.00    -0.001 A 
HETATM    3  C3  UNL     1     -33.514  16.907  -2.245  1.00 20.00     0.039 A 
HETATM    4  C4  UNL     1     -33.075  16.237  -3.482  1.00 20.00     0.061 C 
HETATM    5  C5  UNL     1     -34.070  15.044  -3.566  1.00 20.00     0.028 C 
HETATM    6  C6  UNL     1     -35.296  15.436  -2.717  1.00 20.00     0.151 C 
HETATM    7  N8  UNL     1     -35.227  16.991  -0.750  1.00 20.00    -0.184 NA
HETATM    8  N9  UNL     1     -34.728  16.451  -1.856  1.00 20.00    -0.274 N 
ENDROOT
BRANCH   2   9
HETATM    9  C7  UNL     1     -31.922  18.648  -1.264  1.00 20.00     0.156 C 
HETATM   10 CL10 UNL     1     -30.911  18.195   0.137  1.00 20.00    -0.125 Cl
ENDBRANCH   2   9
TORSDOF 1
ENDMDL
MODEL 6
REMARK VINA RESULT:      -4.0     11.670     11.997
REMARK  1 active torsions:
REMARK  status: ('A' for Active; 'I' for Inactive)
REMARK    1  A    between atoms: C2_2  and  C7_7 
ROOT
HETATM    1  C1  UNL     1     -33.460  14.371  -4.487  1.00 20.00     0.149 A 
HETATM    2  C2  UNL     1     -34.772  14.443  -3.934  1.00 20.00    -0.001 A 
HETATM    3  C3  UNL     1     -34.690  15.491  -3.063  1.00 20.00     0.039 A 
HETATM    4  C4  UNL     1     -35.467  16.284  -2.094  1.00 20.00     0.061 C 
HETATM    5  C5  UNL     1     -34.344  17.060  -1.348  1.00 20.00     0.028 C 
HETATM    6  C6  UNL     1     -33.121  17.071  -2.287  1.00 20.00     0.151 C 
HETATM    7  N8  UNL     1     -32.625  15.305  -3.998  1.00 20.00    -0.184 NA
HETATM    8  N9  UNL     1     -33.418  15.946  -3.147  1.00 20.00    -0.274 N 
ENDROOT
BRANCH   2   9
HETATM    9  C7  UNL     1     -35.931  13.590  -4.235  1.00 20.00     0.156 C 
HETATM   10 CL10 UNL     1     -37.408  14.564  -4.481  1.00 20.00    -0.125 Cl
ENDBRANCH   2   9
TORSDOF 1
ENDMDL
MODEL 7
REMARK VINA RESULT:      -4.0      1.463      2.138
REMARK  1 active torsions:
REMARK  status: ('A' for Active; 'I' for Inactive)
REMARK    1  A    between atoms: C2_2  and  C7_7 
ROOT
HETATM    1  C1  UNL     1     -32.129   7.835   3.954  1.00 20.00     0.149 A 
HETATM    2  C2  UNL     1     -32.802   6.967   3.047  1.00 20.00    -0.001 A 
HETATM    3  C3  UNL     1     -33.693   6.308   3.843  1.00 20.00     0.039 A 
HETATM    4  C4  UNL     1     -34.757   5.289   3.832  1.00 20.00     0.061 C 
HETATM    5  C5  UNL     1     -34.924   4.989   5.349  1.00 20.00     0.028 C 
HETATM    6  C6  UNL     1     -34.364   6.213   6.102  1.00 20.00     0.151 C 
HETATM    7  N8  UNL     1     -32.568   7.726   5.221  1.00 20.00    -0.184 NA
HETATM    8  N9  UNL     1     -33.505   6.794   5.093  1.00 20.00    -0.274 N 
ENDROOT
BRANCH   2   9
HETATM    9  C7  UNL     1     -32.585   6.822   1.600  1.00 20.00     0.156 C 
HETATM   10 CL10 UNL     1     -32.682   8.399   0.767  1.00 20.00    -0.125 Cl
ENDBRANCH   2   9
TORSDOF 1
ENDMDL
MODEL 8
REMARK VINA RESULT:      -4.0     11.638     12.024
REMARK  1 active torsions:
REMARK  status: ('A' for Active; 'I' for Inactive)
REMARK    1  A    between atoms: C2_2  and  C7_7 
ROOT
HETATM    1  C1  UNL     1     -32.820  14.841  -4.149  1.00 20.00     0.149 A 
HETATM    2  C2  UNL     1     -33.576  15.884  -3.539  1.00 20.00    -0.001 A 
HETATM    3  C3  UNL     1     -34.864  15.445  -3.647  1.00 20.00     0.039 A 
HETATM    4  C4  UNL     1     -36.260  15.795  -3.334  1.00 20.00     0.061 C 
HETATM    5  C5  UNL     1     -37.046  14.772  -4.203  1.00 20.00     0.028 C 
HETATM    6  C6  UNL     1     -36.077  13.607  -4.491  1.00 20.00     0.151 C 
HETATM    7  N8  UNL     1     -33.580  13.828  -4.602  1.00 20.00    -0.184 NA
HETATM    8  N9  UNL     1     -34.797  14.248  -4.274  1.00 20.00    -0.274 N 
ENDROOT
BRANCH   2   9
HETATM    9  C7  UNL     1     -33.080  17.131  -2.937  1.00 20.00     0.156 C 
HETATM   10 CL10 UNL     1     -33.776  17.391  -1.314  1.00 20.00    -0.125 Cl
ENDBRANCH   2   9
TORSDOF 1
ENDMDL
MODEL 9
REMARK VINA RESULT:      -3.9     11.740     13.281
REMARK  1 active torsions:
REMARK  status: ('A' for Active; 'I' for Inactive)
REMARK    1  A    between atoms: C2_2  and  C7_7 
ROOT
HETATM    1  C1  UNL     1     -35.903  13.827  -4.353  1.00 20.00     0.149 A 
HETATM    2  C2  UNL     1     -35.284  15.073  -4.046  1.00 20.00    -0.001 A 
HETATM    3  C3  UNL     1     -35.075  15.632  -5.273  1.00 20.00     0.039 A 
HETATM    4  C4  UNL     1     -34.535  16.824  -5.951  1.00 20.00     0.061 C 
HETATM    5  C5  UNL     1     -34.442  16.335  -7.425  1.00 20.00     0.028 C 
HETATM    6  C6  UNL     1     -35.420  15.150  -7.556  1.00 20.00     0.151 C 
HETATM    7  N8  UNL     1     -36.068  13.625  -5.673  1.00 20.00    -0.184 NA
HETATM    8  N9  UNL     1     -35.552  14.741  -6.174  1.00 20.00    -0.274 N 
ENDROOT
BRANCH   2   9
HETATM    9  C7  UNL     1     -34.954  15.620  -2.721  1.00 20.00     0.156 C 
HETATM   10 CL10 UNL     1     -33.311  16.320  -2.699  1.00 20.00    -0.125 Cl
ENDBRANCH   2   9
TORSDOF 1
ENDMDL
