MODEL 1
REMARK VINA RESULT:      -4.7      0.000      0.000
REMARK  1 active torsions:
REMARK  status: ('A' for Active; 'I' for Inactive)
REMARK    1  A    between atoms: C1_1  and  C2_2 
ROOT
HETATM    1  C2  UNL     1     -34.817   5.362   4.438  1.00 20.00     0.285 C 
HETATM    2  F3  UNL     1     -36.106   5.488   4.021  1.00 20.00    -0.204 F 
HETATM    3 CL6  UNL     1     -34.819   5.094   6.207  1.00 20.00    -0.063 Cl
HETATM    4 CL7  UNL     1     -34.116   3.903   3.672  1.00 20.00    -0.063 Cl
ENDROOT
BRANCH   1   5
HETATM    5  C1  UNL     1     -34.031   6.624   4.062  1.00 20.00     0.249 C 
HETATM    6 CL4  UNL     1     -32.830   6.294   2.774  1.00 20.00    -0.102 Cl
HETATM    7 CL5  UNL     1     -33.139   7.287   5.467  1.00 20.00    -0.102 Cl
ENDBRANCH   1   5
TORSDOF 1
ENDMDL
MODEL 2
REMARK VINA RESULT:      -4.1      1.130      1.487
REMARK  1 active torsions:
REMARK  status: ('A' for Active; 'I' for Inactive)
REMARK    1  A    between atoms: C1_1  and  C2_2 
ROOT
HETATM    1  C2  UNL     1     -34.458   5.743   4.401  1.00 20.00     0.285 C 
HETATM    2  F3  UNL     1     -35.797   5.894   4.217  1.00 20.00    -0.204 F 
HETATM    3 CL6  UNL     1     -33.948   6.817   5.739  1.00 20.00    -0.063 Cl
HETATM    4 CL7  UNL     1     -34.146   4.056   4.914  1.00 20.00    -0.063 Cl
ENDROOT
BRANCH   1   5
HETATM    5  C1  UNL     1     -33.721   6.078   3.100  1.00 20.00     0.249 C 
HETATM    6 CL4  UNL     1     -33.062   4.607   2.317  1.00 20.00    -0.102 Cl
HETATM    7 CL5  UNL     1     -32.346   7.190   3.388  1.00 20.00    -0.102 Cl
ENDBRANCH   1   5
TORSDOF 1
ENDMDL
MODEL 3
REMARK VINA RESULT:      -3.9      1.482      2.253
REMARK  1 active torsions:
REMARK  status: ('A' for Active; 'I' for Inactive)
REMARK    1  A    between atoms: C1_1  and  C2_2 
ROOT
HETATM    1  C2  UNL     1     -34.061   6.384   4.220  1.00 20.00     0.285 C 
HETATM    2  F3  UNL     1     -34.838   7.364   3.685  1.00 20.00    -0.204 F 
HETATM    3 CL6  UNL     1     -33.520   6.914   5.841  1.00 20.00    -0.063 Cl
HETATM    4 CL7  UNL     1     -35.072   4.921   4.440  1.00 20.00    -0.063 Cl
ENDROOT
BRANCH   1   5
HETATM    5  C1  UNL     1     -32.872   6.108   3.293  1.00 20.00     0.249 C 
HETATM    6 CL4  UNL     1     -32.608   7.453   2.140  1.00 20.00    -0.102 Cl
HETATM    7 CL5  UNL     1     -33.120   4.619   2.328  1.00 20.00    -0.102 Cl
ENDBRANCH   1   5
TORSDOF 1
ENDMDL
MODEL 4
REMARK VINA RESULT:      -3.8      2.168      3.411
REMARK  1 active torsions:
REMARK  status: ('A' for Active; 'I' for Inactive)
REMARK    1  A    between atoms: C1_1  and  C2_2 
ROOT
HETATM    1  C2  UNL     1     -32.958   6.569   3.030  1.00 20.00     0.285 C 
HETATM    2  F3  UNL     1     -31.771   6.861   3.626  1.00 20.00    -0.204 F 
HETATM    3 CL6  UNL     1     -33.178   7.674   1.639  1.00 20.00    -0.063 Cl
HETATM    4 CL7  UNL     1     -32.871   4.901   2.384  1.00 20.00    -0.063 Cl
ENDROOT
BRANCH   1   5
HETATM    5  C1  UNL     1     -34.094   6.717   4.049  1.00 20.00     0.249 C 
HETATM    6 CL4  UNL     1     -33.465   7.051   5.693  1.00 20.00    -0.102 Cl
HETATM    7 CL5  UNL     1     -35.086   5.229   4.150  1.00 20.00    -0.102 Cl
ENDBRANCH   1   5
TORSDOF 1
ENDMDL
MODEL 5
REMARK VINA RESULT:      -3.7      1.794      3.277
REMARK  1 active torsions:
REMARK  status: ('A' for Active; 'I' for Inactive)
REMARK    1  A    between atoms: C1_1  and  C2_2 
ROOT
HETATM    1  C2  UNL     1     -33.209   6.611   3.145  1.00 20.00     0.285 C 
HETATM    2  F3  UNL     1     -33.683   7.376   2.125  1.00 20.00    -0.204 F 
HETATM    3 CL6  UNL     1     -32.809   4.991   2.497  1.00 20.00    -0.063 Cl
HETATM    4 CL7  UNL     1     -31.688   7.345   3.741  1.00 20.00    -0.063 Cl
ENDROOT
BRANCH   1   5
HETATM    5  C1  UNL     1     -34.263   6.526   4.255  1.00 20.00     0.249 C 
HETATM    6 CL4  UNL     1     -33.576   6.962   5.852  1.00 20.00    -0.102 Cl
HETATM    7 CL5  UNL     1     -34.939   4.873   4.398  1.00 20.00    -0.102 Cl
ENDBRANCH   1   5
TORSDOF 1
ENDMDL
MODEL 6
REMARK VINA RESULT:      -3.6      8.889      9.244
REMARK  1 active torsions:
REMARK  status: ('A' for Active; 'I' for Inactive)
REMARK    1  A    between atoms: C1_1  and  C2_2 
ROOT
HETATM    1  C2  UNL     1     -41.396   6.731   0.023  1.00 20.00     0.285 C 
HETATM    2  F3  UNL     1     -40.426   6.928   0.956  1.00 20.00    -0.204 F 
HETATM    3 CL6  UNL     1     -40.888   5.387  -1.044  1.00 20.00    -0.063 Cl
HETATM    4 CL7  UNL     1     -42.891   6.216   0.864  1.00 20.00    -0.063 Cl
ENDROOT
BRANCH   1   5
HETATM    5  C1  UNL     1     -41.615   8.024  -0.769  1.00 20.00     0.249 C 
HETATM    6 CL4  UNL     1     -41.389   9.474   0.259  1.00 20.00    -0.102 Cl
HETATM    7 CL5  UNL     1     -43.270   8.107  -1.451  1.00 20.00    -0.102 Cl
ENDBRANCH   1   5
TORSDOF 1
ENDMDL
MODEL 7
REMARK VINA RESULT:      -3.6      8.971      9.408
REMARK  1 active torsions:
REMARK  status: ('A' for Active; 'I' for Inactive)
REMARK    1  A    between atoms: C1_1  and  C2_2 
ROOT
HETATM    1  C2  UNL     1     -41.684   7.544   0.298  1.00 20.00     0.285 C 
HETATM    2  F3  UNL     1     -40.642   7.047   1.017  1.00 20.00    -0.204 F 
HETATM    3 CL6  UNL     1     -43.197   7.211   1.193  1.00 20.00    -0.063 Cl
HETATM    4 CL7  UNL     1     -41.499   9.323   0.193  1.00 20.00    -0.063 Cl
ENDROOT
BRANCH   1   5
HETATM    5  C1  UNL     1     -41.700   6.901  -1.093  1.00 20.00     0.249 C 
HETATM    6 CL4  UNL     1     -43.373   6.597  -1.660  1.00 20.00    -0.102 Cl
HETATM    7 CL5  UNL     1     -40.840   5.329  -1.102  1.00 20.00    -0.102 Cl
ENDBRANCH   1   5
TORSDOF 1
ENDMDL
MODEL 8
REMARK VINA RESULT:      -3.5      0.947      3.307
REMARK  1 active torsions:
REMARK  status: ('A' for Active; 'I' for Inactive)
REMARK    1  A    between atoms: C1_1  and  C2_2 
ROOT
HETATM    1  C2  UNL     1     -33.965   6.582   4.077  1.00 20.00     0.285 C 
HETATM    2  F3  UNL     1     -34.781   7.560   3.599  1.00 20.00    -0.204 F 
HETATM    3 CL6  UNL     1     -32.722   6.229   2.838  1.00 20.00    -0.063 Cl
HETATM    4 CL7  UNL     1     -33.119   7.211   5.525  1.00 20.00    -0.063 Cl
ENDROOT
BRANCH   1   5
HETATM    5  C1  UNL     1     -34.795   5.338   4.410  1.00 20.00     0.249 C 
HETATM    6 CL4  UNL     1     -34.891   5.062   6.178  1.00 20.00    -0.102 Cl
HETATM    7 CL5  UNL     1     -34.093   3.861   3.677  1.00 20.00    -0.102 Cl
ENDBRANCH   1   5
TORSDOF 1
ENDMDL
MODEL 9
REMARK VINA RESULT:      -3.5      1.741      2.269
REMARK  1 active torsions:
REMARK  status: ('A' for Active; 'I' for Inactive)
REMARK    1  A    between atoms: C1_1  and  C2_2 
ROOT
HETATM    1  C2  UNL     1     -34.419   5.480   4.208  1.00 20.00     0.285 C 
HETATM    2  F3  UNL     1     -34.134   4.209   4.603  1.00 20.00    -0.204 F 
HETATM    3 CL6  UNL     1     -36.187   5.614   3.970  1.00 20.00    -0.063 Cl
HETATM    4 CL7  UNL     1     -33.966   6.596   5.533  1.00 20.00    -0.063 Cl
ENDROOT
BRANCH   1   5
HETATM    5  C1  UNL     1     -33.653   5.800   2.920  1.00 20.00     0.249 C 
HETATM    6 CL4  UNL     1     -32.890   4.336   2.224  1.00 20.00    -0.102 Cl
HETATM    7 CL5  UNL     1     -32.350   6.996   3.208  1.00 20.00    -0.102 Cl
ENDBRANCH   1   5
TORSDOF 1
ENDMDL
