MODEL 1
REMARK VINA RESULT:      -4.9      0.000      0.000
REMARK  2 active torsions:
REMARK  status: ('A' for Active; 'I' for Inactive)
REMARK    1  A    between atoms: C7_7  and  O10_10 
REMARK    2  A    between atoms: C8_8  and  O10_10 
ROOT
HETATM    1  C1  UNL     1     -34.623   5.478   4.553  1.00 20.00     0.153 C 
HETATM    2  C2  UNL     1     -33.354   5.276   2.679  1.00 20.00     0.121 C 
HETATM    3  C3  UNL     1     -33.965   6.543   5.029  1.00 20.00     0.114 C 
HETATM    4  C4  UNL     1     -32.754   7.079   4.340  1.00 20.00     0.109 C 
HETATM    5  C7  UNL     1     -32.701   6.623   2.888  1.00 20.00     0.168 C 
HETATM    6  N9  UNL     1     -34.265   4.758   3.444  1.00 20.00    -0.272 NA
HETATM    7  F11 UNL     1     -34.415   7.149   6.149  1.00 20.00    -0.209 F 
ENDROOT
BRANCH   5   8
HETATM    8  O10 UNL     1     -33.426   7.536   2.076  1.00 20.00    -0.375 OA
BRANCH   8   9
HETATM    9  C8  UNL     1     -32.596   8.127   1.085  1.00 20.00     0.122 A 
HETATM   10  C5  UNL     1     -33.267   8.497  -0.207  1.00 20.00     0.034 A 
HETATM   11  C6  UNL     1     -32.872   9.568   0.766  1.00 20.00     0.034 A 
ENDBRANCH   8   9
ENDBRANCH   5   8
TORSDOF 2
ENDMDL
MODEL 2
REMARK VINA RESULT:      -4.3     14.688     15.475
REMARK  2 active torsions:
REMARK  status: ('A' for Active; 'I' for Inactive)
REMARK    1  A    between atoms: C7_7  and  O10_10 
REMARK    2  A    between atoms: C8_8  and  O10_10 
ROOT
HETATM    1  C1  UNL     1     -23.477  16.677  10.051  1.00 20.00     0.153 C 
HETATM    2  C2  UNL     1     -22.503  17.645   8.239  1.00 20.00     0.121 C 
HETATM    3  C3  UNL     1     -24.337  17.678  10.274  1.00 20.00     0.114 C 
HETATM    4  C4  UNL     1     -24.298  18.931   9.463  1.00 20.00     0.109 C 
HETATM    5  C7  UNL     1     -23.573  18.708   8.142  1.00 20.00     0.168 C 
HETATM    6  N9  UNL     1     -22.476  16.688   9.115  1.00 20.00    -0.272 NA
HETATM    7  F11 UNL     1     -25.265  17.545  11.246  1.00 20.00    -0.209 F 
ENDROOT
BRANCH   5   8
HETATM    8  O10 UNL     1     -24.496  18.241   7.167  1.00 20.00    -0.375 OA
BRANCH   8   9
HETATM    9  C8  UNL     1     -25.405  19.263   6.777  1.00 20.00     0.122 A 
HETATM   10  C5  UNL     1     -26.062  19.089   5.438  1.00 20.00     0.034 A 
HETATM   11  C6  UNL     1     -26.850  18.863   6.694  1.00 20.00     0.034 A 
ENDBRANCH   8   9
ENDBRANCH   5   8
TORSDOF 2
ENDMDL
MODEL 3
REMARK VINA RESULT:      -4.3     16.066     16.908
REMARK  2 active torsions:
REMARK  status: ('A' for Active; 'I' for Inactive)
REMARK    1  A    between atoms: C7_7  and  O10_10 
REMARK    2  A    between atoms: C8_8  and  O10_10 
ROOT
HETATM    1  C1  UNL     1     -21.777  17.816  10.761  1.00 20.00     0.153 C 
HETATM    2  C2  UNL     1     -23.407  17.610  12.332  1.00 20.00     0.121 C 
HETATM    3  C3  UNL     1     -22.508  17.308   9.762  1.00 20.00     0.114 C 
HETATM    4  C4  UNL     1     -23.879  16.766  10.000  1.00 20.00     0.109 C 
HETATM    5  C7  UNL     1     -24.466  17.308  11.298  1.00 20.00     0.168 C 
HETATM    6  N9  UNL     1     -22.162  17.870  12.075  1.00 20.00    -0.272 NA
HETATM    7  F11 UNL     1     -21.999  17.297   8.511  1.00 20.00    -0.209 F 
ENDROOT
BRANCH   5   8
HETATM    8  O10 UNL     1     -25.123  18.542  11.043  1.00 20.00    -0.375 OA
BRANCH   8   9
HETATM    9  C8  UNL     1     -26.097  18.830  12.038  1.00 20.00     0.122 A 
HETATM   10  C5  UNL     1     -27.513  18.971  11.557  1.00 20.00     0.034 A 
HETATM   11  C6  UNL     1     -27.097  17.746  12.316  1.00 20.00     0.034 A 
ENDBRANCH   8   9
ENDBRANCH   5   8
TORSDOF 2
ENDMDL
MODEL 4
REMARK VINA RESULT:      -4.2     10.702     11.563
REMARK  2 active torsions:
REMARK  status: ('A' for Active; 'I' for Inactive)
REMARK    1  A    between atoms: C7_7  and  O10_10 
REMARK    2  A    between atoms: C8_8  and  O10_10 
ROOT
HETATM    1  C1  UNL     1     -35.969  14.464  -6.048  1.00 20.00     0.153 C 
HETATM    2  C2  UNL     1     -33.735  14.883  -6.064  1.00 20.00     0.121 C 
HETATM    3  C3  UNL     1     -36.013  14.092  -4.763  1.00 20.00     0.114 C 
HETATM    4  C4  UNL     1     -34.770  13.988  -3.942  1.00 20.00     0.109 C 
HETATM    5  C7  UNL     1     -33.635  14.797  -4.558  1.00 20.00     0.168 C 
HETATM    6  N9  UNL     1     -34.828  14.751  -6.751  1.00 20.00    -0.272 NA
HETATM    7  F11 UNL     1     -37.207  13.816  -4.196  1.00 20.00    -0.209 F 
ENDROOT
BRANCH   5   8
HETATM    8  O10 UNL     1     -33.697  16.136  -4.088  1.00 20.00    -0.375 OA
BRANCH   8   9
HETATM    9  C8  UNL     1     -33.370  16.221  -2.707  1.00 20.00     0.122 A 
HETATM   10  C5  UNL     1     -33.002  17.584  -2.195  1.00 20.00     0.034 A 
HETATM   11  C6  UNL     1     -34.333  16.986  -1.846  1.00 20.00     0.034 A 
ENDBRANCH   8   9
ENDBRANCH   5   8
TORSDOF 2
ENDMDL
MODEL 5
REMARK VINA RESULT:      -4.1     11.079     11.739
REMARK  2 active torsions:
REMARK  status: ('A' for Active; 'I' for Inactive)
REMARK    1  A    between atoms: C7_7  and  O10_10 
REMARK    2  A    between atoms: C8_8  and  O10_10 
ROOT
HETATM    1  C1  UNL     1     -30.776  18.171   0.892  1.00 20.00     0.153 C 
HETATM    2  C2  UNL     1     -31.768  18.616  -1.104  1.00 20.00     0.121 C 
HETATM    3  C3  UNL     1     -31.874  18.393   1.624  1.00 20.00     0.114 C 
HETATM    4  C4  UNL     1     -33.139  18.883   0.999  1.00 20.00     0.109 C 
HETATM    5  C7  UNL     1     -33.153  18.608  -0.500  1.00 20.00     0.168 C 
HETATM    6  N9  UNL     1     -30.666  18.388  -0.456  1.00 20.00    -0.272 NA
HETATM    7  F11 UNL     1     -31.840  18.156   2.954  1.00 20.00    -0.209 F 
ENDROOT
BRANCH   5   8
HETATM    8  O10 UNL     1     -33.674  17.308  -0.739  1.00 20.00    -0.375 OA
BRANCH   8   9
HETATM    9  C8  UNL     1     -34.190  17.187  -2.059  1.00 20.00     0.122 A 
HETATM   10  C5  UNL     1     -33.698  16.013  -2.857  1.00 20.00     0.034 A 
HETATM   11  C6  UNL     1     -35.095  16.015  -2.308  1.00 20.00     0.034 A 
ENDBRANCH   8   9
ENDBRANCH   5   8
TORSDOF 2
ENDMDL
MODEL 6
REMARK VINA RESULT:      -4.0     10.575     11.523
REMARK  2 active torsions:
REMARK  status: ('A' for Active; 'I' for Inactive)
REMARK    1  A    between atoms: C7_7  and  O10_10 
REMARK    2  A    between atoms: C8_8  and  O10_10 
ROOT
HETATM    1  C1  UNL     1     -35.875  14.984  -3.769  1.00 20.00     0.153 C 
HETATM    2  C2  UNL     1     -34.841  17.003  -3.917  1.00 20.00     0.121 C 
HETATM    3  C3  UNL     1     -34.749  14.266  -3.866  1.00 20.00     0.114 C 
HETATM    4  C4  UNL     1     -33.429  14.919  -4.110  1.00 20.00     0.109 C 
HETATM    5  C7  UNL     1     -33.470  16.395  -3.735  1.00 20.00     0.168 C 
HETATM    6  N9  UNL     1     -35.960  16.345  -3.908  1.00 20.00    -0.272 NA
HETATM    7  F11 UNL     1     -34.810  12.923  -3.729  1.00 20.00    -0.209 F 
ENDROOT
BRANCH   5   8
HETATM    8  O10 UNL     1     -33.159  16.544  -2.356  1.00 20.00    -0.375 OA
BRANCH   8   9
HETATM    9  C8  UNL     1     -33.023  17.913  -1.996  1.00 20.00     0.122 A 
HETATM   10  C5  UNL     1     -33.236  18.240  -0.546  1.00 20.00     0.034 A 
HETATM   11  C6  UNL     1     -31.850  18.251  -1.121  1.00 20.00     0.034 A 
ENDBRANCH   8   9
ENDBRANCH   5   8
TORSDOF 2
ENDMDL
MODEL 7
REMARK VINA RESULT:      -3.9     11.042     11.898
REMARK  2 active torsions:
REMARK  status: ('A' for Active; 'I' for Inactive)
REMARK    1  A    between atoms: C7_7  and  O10_10 
REMARK    2  A    between atoms: C8_8  and  O10_10 
ROOT
HETATM    1  C1  UNL     1     -34.110  14.864  -6.303  1.00 20.00     0.153 C 
HETATM    2  C2  UNL     1     -34.092  14.180  -4.136  1.00 20.00     0.121 C 
HETATM    3  C3  UNL     1     -35.444  14.911  -6.404  1.00 20.00     0.114 C 
HETATM    4  C4  UNL     1     -36.323  14.466  -5.282  1.00 20.00     0.109 C 
HETATM    5  C7  UNL     1     -35.566  14.461  -3.960  1.00 20.00     0.168 C 
HETATM    6  N9  UNL     1     -33.414  14.392  -5.222  1.00 20.00    -0.272 NA
HETATM    7  F11 UNL     1     -36.003  15.381  -7.539  1.00 20.00    -0.209 F 
ENDROOT
BRANCH   5   8
HETATM    8  O10 UNL     1     -35.648  15.747  -3.361  1.00 20.00    -0.375 OA
BRANCH   8   9
HETATM    9  C8  UNL     1     -34.715  15.888  -2.296  1.00 20.00     0.122 A 
HETATM   10  C5  UNL     1     -34.157  17.266  -2.083  1.00 20.00     0.034 A 
HETATM   11  C6  UNL     1     -35.170  16.710  -1.125  1.00 20.00     0.034 A 
ENDBRANCH   8   9
ENDBRANCH   5   8
TORSDOF 2
ENDMDL
MODEL 8
REMARK VINA RESULT:      -3.9      9.818     10.389
REMARK  2 active torsions:
REMARK  status: ('A' for Active; 'I' for Inactive)
REMARK    1  A    between atoms: C7_7  and  O10_10 
REMARK    2  A    between atoms: C8_8  and  O10_10 
ROOT
HETATM    1  C1  UNL     1     -42.508   7.564   0.564  1.00 20.00     0.153 C 
HETATM    2  C2  UNL     1     -43.033   5.353   0.578  1.00 20.00     0.121 C 
HETATM    3  C3  UNL     1     -41.506   7.444  -0.315  1.00 20.00     0.114 C 
HETATM    4  C4  UNL     1     -41.071   6.108  -0.820  1.00 20.00     0.109 C 
HETATM    5  C7  UNL     1     -42.164   5.065  -0.625  1.00 20.00     0.168 C 
HETATM    6  N9  UNL     1     -43.208   6.522   1.113  1.00 20.00    -0.272 NA
HETATM    7  F11 UNL     1     -40.884   8.557  -0.762  1.00 20.00    -0.209 F 
ENDROOT
BRANCH   5   8
HETATM    8  O10 UNL     1     -43.038   5.077  -1.746  1.00 20.00    -0.375 OA
BRANCH   8   9
HETATM    9  C8  UNL     1     -43.295   3.761  -2.221  1.00 20.00     0.122 A 
HETATM   10  C5  UNL     1     -43.417   3.608  -3.710  1.00 20.00     0.034 A 
HETATM   11  C6  UNL     1     -42.189   3.115  -3.004  1.00 20.00     0.034 A 
ENDBRANCH   8   9
ENDBRANCH   5   8
TORSDOF 2
ENDMDL
MODEL 9
REMARK VINA RESULT:      -3.9     11.349     11.910
REMARK  2 active torsions:
REMARK  status: ('A' for Active; 'I' for Inactive)
REMARK    1  A    between atoms: C7_7  and  O10_10 
REMARK    2  A    between atoms: C8_8  and  O10_10 
ROOT
HETATM    1  C1  UNL     1     -36.102  13.771  -5.318  1.00 20.00     0.153 C 
HETATM    2  C2  UNL     1     -37.513  14.949  -3.980  1.00 20.00     0.121 C 
HETATM    3  C3  UNL     1     -35.355  14.827  -5.664  1.00 20.00     0.114 C 
HETATM    4  C4  UNL     1     -35.708  16.208  -5.218  1.00 20.00     0.109 C 
HETATM    5  C7  UNL     1     -36.629  16.174  -4.004  1.00 20.00     0.168 C 
HETATM    6  N9  UNL     1     -37.251  13.824  -4.574  1.00 20.00    -0.272 NA
HETATM    7  F11 UNL     1     -34.253  14.636  -6.422  1.00 20.00    -0.209 F 
ENDROOT
BRANCH   5   8
HETATM    8  O10 UNL     1     -35.849  16.114  -2.818  1.00 20.00    -0.375 OA
BRANCH   8   9
HETATM    9  C8  UNL     1     -34.803  17.076  -2.831  1.00 20.00     0.122 A 
HETATM   10  C5  UNL     1     -34.140  17.352  -1.512  1.00 20.00     0.034 A 
HETATM   11  C6  UNL     1     -33.422  16.553  -2.560  1.00 20.00     0.034 A 
ENDBRANCH   8   9
ENDBRANCH   5   8
TORSDOF 2
ENDMDL
