MODEL 1
REMARK VINA RESULT:      -4.9      0.000      0.000
REMARK  1 active torsions:
REMARK  status: ('A' for Active; 'I' for Inactive)
REMARK    1  A    between atoms: C3_3  and  C7_7 
ROOT
HETATM    1  C1  UNL     1     -35.458  15.552  -2.530  1.00 20.00     0.024 A 
HETATM    2  C2  UNL     1     -33.687  15.238  -4.086  1.00 20.00     0.131 A 
HETATM    3  C3  UNL     1     -34.967  14.916  -3.664  1.00 20.00     0.024 A 
HETATM    4  C4  UNL     1     -34.665  16.479  -1.861  1.00 20.00    -0.021 A 
HETATM    5  C5  UNL     1     -33.399  16.731  -2.363  1.00 20.00     0.131 A 
HETATM    6  C6  UNL     1     -35.197  17.158  -0.645  1.00 20.00     0.051 C 
HETATM    7  N8  UNL     1     -32.887  16.132  -3.462  1.00 20.00    -0.248 NA
HETATM    8 CL11 UNL     1     -32.325  17.853  -1.624  1.00 20.00    -0.062 Cl
ENDROOT
BRANCH   3   9
HETATM    9  C7  UNL     1     -35.789  13.919  -4.401  1.00 20.00     0.388 C 
HETATM   10  F9  UNL     1     -37.110  14.067  -4.112  1.00 20.00    -0.209 F 
HETATM   11  F10 UNL     1     -35.459  12.651  -4.037  1.00 20.00    -0.209 F 
ENDBRANCH   3   9
TORSDOF 1
ENDMDL
MODEL 2
REMARK VINA RESULT:      -4.8      2.018      2.680
REMARK  1 active torsions:
REMARK  status: ('A' for Active; 'I' for Inactive)
REMARK    1  A    between atoms: C3_3  and  C7_7 
ROOT
HETATM    1  C1  UNL     1     -32.951  16.652  -2.774  1.00 20.00     0.024 A 
HETATM    2  C2  UNL     1     -35.117  15.807  -2.274  1.00 20.00     0.131 A 
HETATM    3  C3  UNL     1     -33.970  15.749  -3.051  1.00 20.00     0.024 A 
HETATM    4  C4  UNL     1     -33.105  17.573  -1.743  1.00 20.00    -0.021 A 
HETATM    5  C5  UNL     1     -34.290  17.549  -1.026  1.00 20.00     0.131 A 
HETATM    6  C6  UNL     1     -32.009  18.539  -1.451  1.00 20.00     0.051 C 
HETATM    7  N8  UNL     1     -35.303  16.687  -1.265  1.00 20.00    -0.248 NA
HETATM    8 CL11 UNL     1     -34.600  18.637   0.270  1.00 20.00    -0.062 Cl
ENDROOT
BRANCH   3   9
HETATM    9  C7  UNL     1     -33.837  14.753  -4.147  1.00 20.00     0.388 C 
HETATM   10  F9  UNL     1     -34.460  13.587  -3.826  1.00 20.00    -0.209 F 
HETATM   11  F10 UNL     1     -32.530  14.440  -4.365  1.00 20.00    -0.209 F 
ENDBRANCH   3   9
TORSDOF 1
ENDMDL
MODEL 3
REMARK VINA RESULT:      -4.7     15.606     16.565
REMARK  1 active torsions:
REMARK  status: ('A' for Active; 'I' for Inactive)
REMARK    1  A    between atoms: C3_3  and  C7_7 
ROOT
HETATM    1  C1  UNL     1     -25.215  18.881   9.624  1.00 20.00     0.024 A 
HETATM    2  C2  UNL     1     -23.098  18.478   8.617  1.00 20.00     0.131 A 
HETATM    3  C3  UNL     1     -24.421  18.869   8.483  1.00 20.00     0.024 A 
HETATM    4  C4  UNL     1     -24.670  18.508  10.848  1.00 20.00    -0.021 A 
HETATM    5  C5  UNL     1     -23.337  18.133  10.876  1.00 20.00     0.131 A 
HETATM    6  C6  UNL     1     -25.526  18.521  12.068  1.00 20.00     0.051 C 
HETATM    7  N8  UNL     1     -22.534  18.108   9.788  1.00 20.00    -0.248 NA
HETATM    8 CL11 UNL     1     -22.549  17.649  12.326  1.00 20.00    -0.062 Cl
ENDROOT
BRANCH   3   9
HETATM    9  C7  UNL     1     -24.974  19.262   7.159  1.00 20.00     0.388 C 
HETATM   10  F9  UNL     1     -25.989  18.435   6.789  1.00 20.00    -0.209 F 
HETATM   11  F10 UNL     1     -24.028  19.165   6.187  1.00 20.00    -0.209 F 
ENDBRANCH   3   9
TORSDOF 1
ENDMDL
MODEL 4
REMARK VINA RESULT:      -4.4      3.781      4.843
REMARK  1 active torsions:
REMARK  status: ('A' for Active; 'I' for Inactive)
REMARK    1  A    between atoms: C3_3  and  C7_7 
ROOT
HETATM    1  C1  UNL     1     -33.012  16.469  -2.724  1.00 20.00     0.024 A 
HETATM    2  C2  UNL     1     -34.938  17.202  -1.537  1.00 20.00     0.131 A 
HETATM    3  C3  UNL     1     -33.575  17.305  -1.768  1.00 20.00     0.024 A 
HETATM    4  C4  UNL     1     -33.816  15.567  -3.413  1.00 20.00    -0.021 A 
HETATM    5  C5  UNL     1     -35.167  15.541  -3.108  1.00 20.00     0.131 A 
HETATM    6  C6  UNL     1     -33.207  14.671  -4.437  1.00 20.00     0.051 C 
HETATM    7  N8  UNL     1     -35.751  16.338  -2.185  1.00 20.00    -0.248 NA
HETATM    8 CL11 UNL     1     -36.264  14.470  -3.889  1.00 20.00    -0.062 Cl
ENDROOT
BRANCH   3   9
HETATM    9  C7  UNL     1     -32.742  18.280  -1.015  1.00 20.00     0.388 C 
HETATM   10  F9  UNL     1     -31.418  17.993  -1.144  1.00 20.00    -0.209 F 
HETATM   11  F10 UNL     1     -33.015  18.228   0.317  1.00 20.00    -0.209 F 
ENDBRANCH   3   9
TORSDOF 1
ENDMDL
MODEL 5
REMARK VINA RESULT:      -4.4      3.720      4.171
REMARK  1 active torsions:
REMARK  status: ('A' for Active; 'I' for Inactive)
REMARK    1  A    between atoms: C3_3  and  C7_7 
ROOT
HETATM    1  C1  UNL     1     -35.755  15.871  -3.813  1.00 20.00     0.024 A 
HETATM    2  C2  UNL     1     -36.054  13.613  -4.499  1.00 20.00     0.131 A 
HETATM    3  C3  UNL     1     -35.195  14.645  -4.150  1.00 20.00     0.024 A 
HETATM    4  C4  UNL     1     -37.137  16.029  -3.834  1.00 20.00    -0.021 A 
HETATM    5  C5  UNL     1     -37.908  14.937  -4.197  1.00 20.00     0.131 A 
HETATM    6  C6  UNL     1     -37.732  17.347  -3.472  1.00 20.00     0.051 C 
HETATM    7  N8  UNL     1     -37.400  13.729  -4.531  1.00 20.00    -0.248 NA
HETATM    8 CL11 UNL     1     -39.625  15.006  -4.262  1.00 20.00    -0.062 Cl
ENDROOT
BRANCH   3   9
HETATM    9  C7  UNL     1     -33.722  14.445  -4.138  1.00 20.00     0.388 C 
HETATM   10  F9  UNL     1     -33.108  15.383  -3.367  1.00 20.00    -0.209 F 
HETATM   11  F10 UNL     1     -33.202  14.578  -5.388  1.00 20.00    -0.209 F 
ENDBRANCH   3   9
TORSDOF 1
ENDMDL
MODEL 6
REMARK VINA RESULT:      -4.3     10.937     11.217
REMARK  1 active torsions:
REMARK  status: ('A' for Active; 'I' for Inactive)
REMARK    1  A    between atoms: C3_3  and  C7_7 
ROOT
HETATM    1  C1  UNL     1     -32.938   7.542   3.603  1.00 20.00     0.024 A 
HETATM    2  C2  UNL     1     -33.051   5.977   1.815  1.00 20.00     0.131 A 
HETATM    3  C3  UNL     1     -32.664   7.225   2.278  1.00 20.00     0.024 A 
HETATM    4  C4  UNL     1     -33.582   6.614   4.416  1.00 20.00    -0.021 A 
HETATM    5  C5  UNL     1     -33.929   5.395   3.858  1.00 20.00     0.131 A 
HETATM    6  C6  UNL     1     -33.875   6.960   5.836  1.00 20.00     0.051 C 
HETATM    7  N8  UNL     1     -33.679   5.051   2.574  1.00 20.00    -0.248 NA
HETATM    8 CL11 UNL     1     -34.729   4.167   4.758  1.00 20.00    -0.062 Cl
ENDROOT
BRANCH   3   9
HETATM    9  C7  UNL     1     -31.977   8.195   1.384  1.00 20.00     0.388 C 
HETATM   10  F9  UNL     1     -32.828   9.179   0.987  1.00 20.00    -0.209 F 
HETATM   11  F10 UNL     1     -31.541   7.586   0.248  1.00 20.00    -0.209 F 
ENDBRANCH   3   9
TORSDOF 1
ENDMDL
MODEL 7
REMARK VINA RESULT:      -4.3     12.185     13.149
REMARK  1 active torsions:
REMARK  status: ('A' for Active; 'I' for Inactive)
REMARK    1  A    between atoms: C3_3  and  C7_7 
ROOT
HETATM    1  C1  UNL     1     -26.586  19.244   5.506  1.00 20.00     0.024 A 
HETATM    2  C2  UNL     1     -24.235  19.262   5.151  1.00 20.00     0.131 A 
HETATM    3  C3  UNL     1     -25.516  19.256   4.620  1.00 20.00     0.024 A 
HETATM    4  C4  UNL     1     -26.349  19.238   6.877  1.00 20.00    -0.021 A 
HETATM    5  C5  UNL     1     -25.032  19.244   7.306  1.00 20.00     0.131 A 
HETATM    6  C6  UNL     1     -27.501  19.224   7.822  1.00 20.00     0.051 C 
HETATM    7  N8  UNL     1     -23.965  19.256   6.476  1.00 20.00    -0.248 NA
HETATM    8 CL11 UNL     1     -24.610  19.237   8.973  1.00 20.00    -0.062 Cl
ENDROOT
BRANCH   3   9
HETATM    9  C7  UNL     1     -25.736  19.261   3.150  1.00 20.00     0.388 C 
HETATM   10  F9  UNL     1     -26.785  18.464   2.811  1.00 20.00    -0.209 F 
HETATM   11  F10 UNL     1     -24.652  18.767   2.493  1.00 20.00    -0.209 F 
ENDBRANCH   3   9
TORSDOF 1
ENDMDL
MODEL 8
REMARK VINA RESULT:      -4.3      3.061      4.048
REMARK  1 active torsions:
REMARK  status: ('A' for Active; 'I' for Inactive)
REMARK    1  A    between atoms: C3_3  and  C7_7 
ROOT
HETATM    1  C1  UNL     1     -35.431  15.910  -2.264  1.00 20.00     0.024 A 
HETATM    2  C2  UNL     1     -33.275  16.911  -2.361  1.00 20.00     0.131 A 
HETATM    3  C3  UNL     1     -34.488  16.763  -1.704  1.00 20.00     0.024 A 
HETATM    4  C4  UNL     1     -35.139  15.238  -3.446  1.00 20.00    -0.021 A 
HETATM    5  C5  UNL     1     -33.899  15.454  -4.025  1.00 20.00     0.131 A 
HETATM    6  C6  UNL     1     -36.155  14.324  -4.043  1.00 20.00     0.051 C 
HETATM    7  N8  UNL     1     -32.956  16.276  -3.511  1.00 20.00    -0.248 NA
HETATM    8 CL11 UNL     1     -33.421  14.683  -5.487  1.00 20.00    -0.062 Cl
ENDROOT
BRANCH   3   9
HETATM    9  C7  UNL     1     -34.770  17.496  -0.442  1.00 20.00     0.388 C 
HETATM   10  F9  UNL     1     -33.615  17.859   0.180  1.00 20.00    -0.209 F 
HETATM   11  F10 UNL     1     -35.446  16.709   0.438  1.00 20.00    -0.209 F 
ENDBRANCH   3   9
TORSDOF 1
ENDMDL
MODEL 9
REMARK VINA RESULT:      -4.3      3.375      4.374
REMARK  1 active torsions:
REMARK  status: ('A' for Active; 'I' for Inactive)
REMARK    1  A    between atoms: C3_3  and  C7_7 
ROOT
HETATM    1  C1  UNL     1     -34.032  15.898  -2.637  1.00 20.00     0.024 A 
HETATM    2  C2  UNL     1     -36.280  16.644  -2.855  1.00 20.00     0.131 A 
HETATM    3  C3  UNL     1     -35.101  16.623  -2.125  1.00 20.00     0.024 A 
HETATM    4  C4  UNL     1     -34.169  15.226  -3.847  1.00 20.00    -0.021 A 
HETATM    5  C5  UNL     1     -35.388  15.309  -4.499  1.00 20.00     0.131 A 
HETATM    6  C6  UNL     1     -33.019  14.449  -4.391  1.00 20.00     0.051 C 
HETATM    7  N8  UNL     1     -36.451  16.003  -4.033  1.00 20.00    -0.248 NA
HETATM    8 CL11 UNL     1     -35.682  14.521  -6.000  1.00 20.00    -0.062 Cl
ENDROOT
BRANCH   3   9
HETATM    9  C7  UNL     1     -34.986  17.352  -0.834  1.00 20.00     0.388 C 
HETATM   10  F9  UNL     1     -33.685  17.614  -0.535  1.00 20.00    -0.209 F 
HETATM   11  F10 UNL     1     -35.470  16.602   0.193  1.00 20.00    -0.209 F 
ENDBRANCH   3   9
TORSDOF 1
ENDMDL
