MODEL 1
REMARK VINA RESULT:      -5.7      0.000      0.000
REMARK  1 active torsions:
REMARK  status: ('A' for Active; 'I' for Inactive)
REMARK    1  A    between atoms: C3_3  and  C6_6 
ROOT
HETATM    1  C1  UNL     1     -32.887  15.826  -3.715  1.00 20.00    -0.025 C 
HETATM    2  C2  UNL     1     -33.217  16.558  -2.641  1.00 20.00    -0.026 C 
HETATM    3  C4  UNL     1     -33.802  14.817  -4.369  1.00 20.00     0.015 C 
HETATM    4  C5  UNL     1     -34.562  16.484  -1.959  1.00 20.00     0.008 C 
HETATM    5  C6  UNL     1     -35.078  14.578  -3.525  1.00 20.00     0.066 C 
HETATM    6  C7  UNL     1     -35.656  15.857  -2.868  1.00 20.00     0.000 C 
HETATM    7  C9  UNL     1     -34.044  15.211  -5.831  1.00 20.00     0.015 C 
HETATM    8  C10 UNL     1     -34.963  17.852  -1.398  1.00 20.00     0.014 C 
HETATM    9  C11 UNL     1     -36.246  16.854  -3.876  1.00 20.00     0.011 C 
ENDROOT
BRANCH   5  10
HETATM   10  C3  UNL     1     -36.125  13.775  -4.245  1.00 20.00     0.128 C 
HETATM   11  C8  UNL     1     -37.476  14.417  -4.407  1.00 20.00     0.091 C 
HETATM   12  O12 UNL     1     -35.888  12.651  -4.681  1.00 20.00    -0.298 OA
ENDBRANCH   5  10
TORSDOF 1
ENDMDL
MODEL 2
REMARK VINA RESULT:      -5.3      2.775      4.951
REMARK  1 active torsions:
REMARK  status: ('A' for Active; 'I' for Inactive)
REMARK    1  A    between atoms: C3_3  and  C6_6 
ROOT
HETATM    1  C1  UNL     1     -35.326  16.187  -1.886  1.00 20.00    -0.025 C 
HETATM    2  C2  UNL     1     -35.005  15.375  -2.903  1.00 20.00    -0.026 C 
HETATM    3  C4  UNL     1     -34.441  17.298  -1.373  1.00 20.00     0.015 C 
HETATM    4  C5  UNL     1     -33.718  15.482  -3.685  1.00 20.00     0.008 C 
HETATM    5  C6  UNL     1     -33.035  17.247  -2.019  1.00 20.00     0.066 C 
HETATM    6  C7  UNL     1     -33.038  16.872  -3.522  1.00 20.00     0.000 C 
HETATM    7  C9  UNL     1     -35.172  18.640  -1.494  1.00 20.00     0.015 C 
HETATM    8  C10 UNL     1     -33.937  15.092  -5.149  1.00 20.00     0.014 C 
HETATM    9  C11 UNL     1     -33.653  17.952  -4.425  1.00 20.00     0.011 C 
ENDROOT
BRANCH   5  10
HETATM   10  C3  UNL     1     -32.202  18.464  -1.730  1.00 20.00     0.128 C 
HETATM   11  C8  UNL     1     -31.759  18.657  -0.305  1.00 20.00     0.091 C 
HETATM   12  O12 UNL     1     -31.897  19.261  -2.614  1.00 20.00    -0.298 OA
ENDBRANCH   5  10
TORSDOF 1
ENDMDL
MODEL 3
REMARK VINA RESULT:      -5.2      1.132      1.334
REMARK  1 active torsions:
REMARK  status: ('A' for Active; 'I' for Inactive)
REMARK    1  A    between atoms: C3_3  and  C6_6 
ROOT
HETATM    1  C1  UNL     1     -33.488  14.833  -4.490  1.00 20.00    -0.025 C 
HETATM    2  C2  UNL     1     -33.138  15.570  -3.426  1.00 20.00    -0.026 C 
HETATM    3  C4  UNL     1     -34.911  14.469  -4.840  1.00 20.00     0.015 C 
HETATM    4  C5  UNL     1     -34.131  16.153  -2.449  1.00 20.00     0.008 C 
HETATM    5  C6  UNL     1     -35.893  14.866  -3.711  1.00 20.00     0.066 C 
HETATM    6  C7  UNL     1     -35.570  16.221  -3.034  1.00 20.00     0.000 C 
HETATM    7  C9  UNL     1     -35.256  15.012  -6.233  1.00 20.00     0.015 C 
HETATM    8  C10 UNL     1     -33.639  17.500  -1.912  1.00 20.00     0.014 C 
HETATM    9  C11 UNL     1     -35.791  17.435  -3.949  1.00 20.00     0.011 C 
ENDROOT
BRANCH   5  10
HETATM   10  C3  UNL     1     -37.337  14.749  -4.110  1.00 20.00     0.128 C 
HETATM   11  C8  UNL     1     -38.158  16.009  -4.055  1.00 20.00     0.091 C 
HETATM   12  O12 UNL     1     -37.823  13.677  -4.464  1.00 20.00    -0.298 OA
ENDBRANCH   5  10
TORSDOF 1
ENDMDL
MODEL 4
REMARK VINA RESULT:      -5.0      1.828      2.796
REMARK  1 active torsions:
REMARK  status: ('A' for Active; 'I' for Inactive)
REMARK    1  A    between atoms: C3_3  and  C6_6 
ROOT
HETATM    1  C1  UNL     1     -33.023  17.962  -1.141  1.00 20.00    -0.025 C 
HETATM    2  C2  UNL     1     -33.987  17.906  -0.210  1.00 20.00    -0.026 C 
HETATM    3  C4  UNL     1     -33.026  17.156  -2.418  1.00 20.00     0.015 C 
HETATM    4  C5  UNL     1     -35.219  17.042  -0.334  1.00 20.00     0.008 C 
HETATM    5  C6  UNL     1     -34.164  16.106  -2.423  1.00 20.00     0.066 C 
HETATM    6  C7  UNL     1     -35.492  16.603  -1.801  1.00 20.00     0.000 C 
HETATM    7  C9  UNL     1     -32.998  18.102  -3.625  1.00 20.00     0.015 C 
HETATM    8  C10 UNL     1     -36.426  17.719   0.322  1.00 20.00     0.014 C 
HETATM    9  C11 UNL     1     -36.194  17.686  -2.633  1.00 20.00     0.011 C 
ENDROOT
BRANCH   5  10
HETATM   10  C3  UNL     1     -34.362  15.450  -3.761  1.00 20.00     0.128 C 
HETATM   11  C8  UNL     1     -33.224  14.614  -4.279  1.00 20.00     0.091 C 
HETATM   12  O12 UNL     1     -35.404  15.589  -4.398  1.00 20.00    -0.298 OA
ENDBRANCH   5  10
TORSDOF 1
ENDMDL
MODEL 5
REMARK VINA RESULT:      -4.8      2.374      4.335
REMARK  1 active torsions:
REMARK  status: ('A' for Active; 'I' for Inactive)
REMARK    1  A    between atoms: C3_3  and  C6_6 
ROOT
HETATM    1  C1  UNL     1     -36.457  16.248  -3.875  1.00 20.00    -0.025 C 
HETATM    2  C2  UNL     1     -35.599  15.309  -4.298  1.00 20.00    -0.026 C 
HETATM    3  C4  UNL     1     -36.298  17.028  -2.591  1.00 20.00     0.015 C 
HETATM    4  C5  UNL     1     -34.343  14.925  -3.552  1.00 20.00     0.008 C 
HETATM    5  C6  UNL     1     -35.146  16.463  -1.724  1.00 20.00     0.066 C 
HETATM    6  C7  UNL     1     -33.904  16.012  -2.531  1.00 20.00     0.000 C 
HETATM    7  C9  UNL     1     -36.213  18.526  -2.904  1.00 20.00     0.015 C 
HETATM    8  C10 UNL     1     -33.229  14.535  -4.527  1.00 20.00     0.014 C 
HETATM    9  C11 UNL     1     -33.137  17.173  -3.181  1.00 20.00     0.011 C 
ENDROOT
BRANCH   5  10
HETATM   10  C3  UNL     1     -34.790  17.346  -0.560  1.00 20.00     0.128 C 
HETATM   11  C8  UNL     1     -35.775  17.397   0.575  1.00 20.00     0.091 C 
HETATM   12  O12 UNL     1     -33.744  17.992  -0.539  1.00 20.00    -0.298 OA
ENDBRANCH   5  10
TORSDOF 1
ENDMDL
MODEL 6
REMARK VINA RESULT:      -4.8      1.175      1.936
REMARK  1 active torsions:
REMARK  status: ('A' for Active; 'I' for Inactive)
REMARK    1  A    between atoms: C3_3  and  C6_6 
ROOT
HETATM    1  C1  UNL     1     -34.504  16.363  -2.108  1.00 20.00    -0.025 C 
HETATM    2  C2  UNL     1     -35.483  17.277  -2.041  1.00 20.00    -0.026 C 
HETATM    3  C4  UNL     1     -34.528  15.157  -3.017  1.00 20.00     0.015 C 
HETATM    4  C5  UNL     1     -36.731  17.230  -2.890  1.00 20.00     0.008 C 
HETATM    5  C6  UNL     1     -35.906  14.990  -3.702  1.00 20.00     0.066 C 
HETATM    6  C7  UNL     1     -36.564  16.322  -4.142  1.00 20.00     0.000 C 
HETATM    7  C9  UNL     1     -33.323  15.200  -3.964  1.00 20.00     0.015 C 
HETATM    8  C10 UNL     1     -37.207  18.643  -3.236  1.00 20.00     0.014 C 
HETATM    9  C11 UNL     1     -35.830  17.019  -5.297  1.00 20.00     0.011 C 
ENDROOT
BRANCH   5  10
HETATM   10  C3  UNL     1     -35.907  13.958  -4.794  1.00 20.00     0.128 C 
HETATM   11  C8  UNL     1     -35.921  14.470  -6.208  1.00 20.00     0.091 C 
HETATM   12  O12 UNL     1     -35.894  12.754  -4.543  1.00 20.00    -0.298 OA
ENDBRANCH   5  10
TORSDOF 1
ENDMDL
MODEL 7
REMARK VINA RESULT:      -4.7      1.364      1.992
REMARK  1 active torsions:
REMARK  status: ('A' for Active; 'I' for Inactive)
REMARK    1  A    between atoms: C3_3  and  C6_6 
ROOT
HETATM    1  C1  UNL     1     -34.340  17.689  -4.977  1.00 20.00    -0.025 C 
HETATM    2  C2  UNL     1     -33.438  17.988  -4.031  1.00 20.00    -0.026 C 
HETATM    3  C4  UNL     1     -34.987  16.333  -5.135  1.00 20.00     0.015 C 
HETATM    4  C5  UNL     1     -32.969  17.009  -2.983  1.00 20.00     0.008 C 
HETATM    5  C6  UNL     1     -34.327  15.279  -4.213  1.00 20.00     0.066 C 
HETATM    6  C7  UNL     1     -33.945  15.810  -2.810  1.00 20.00     0.000 C 
HETATM    7  C9  UNL     1     -36.509  16.467  -4.998  1.00 20.00     0.015 C 
HETATM    8  C10 UNL     1     -32.664  17.727  -1.665  1.00 20.00     0.014 C 
HETATM    9  C11 UNL     1     -35.156  16.143  -1.926  1.00 20.00     0.011 C 
ENDROOT
BRANCH   5  10
HETATM   10  C3  UNL     1     -35.086  13.983  -4.153  1.00 20.00     0.128 C 
HETATM   11  C8  UNL     1     -36.571  14.058  -4.383  1.00 20.00     0.091 C 
HETATM   12  O12 UNL     1     -34.521  12.915  -3.928  1.00 20.00    -0.298 OA
ENDBRANCH   5  10
TORSDOF 1
ENDMDL
MODEL 8
REMARK VINA RESULT:      -4.6      1.220      2.209
REMARK  1 active torsions:
REMARK  status: ('A' for Active; 'I' for Inactive)
REMARK    1  A    between atoms: C3_3  and  C6_6 
ROOT
HETATM    1  C1  UNL     1     -34.450  17.229  -1.653  1.00 20.00    -0.025 C 
HETATM    2  C2  UNL     1     -35.618  17.887  -1.682  1.00 20.00    -0.026 C 
HETATM    3  C4  UNL     1     -34.172  15.957  -2.419  1.00 20.00     0.015 C 
HETATM    4  C5  UNL     1     -36.804  17.450  -2.509  1.00 20.00     0.008 C 
HETATM    5  C6  UNL     1     -35.459  15.393  -3.069  1.00 20.00     0.066 C 
HETATM    6  C7  UNL     1     -36.404  16.473  -3.651  1.00 20.00     0.000 C 
HETATM    7  C9  UNL     1     -32.994  16.178  -3.376  1.00 20.00     0.015 C 
HETATM    8  C10 UNL     1     -37.594  18.663  -3.009  1.00 20.00     0.014 C 
HETATM    9  C11 UNL     1     -35.835  17.190  -4.885  1.00 20.00     0.011 C 
ENDROOT
BRANCH   5  10
HETATM   10  C3  UNL     1     -35.195  14.274  -4.037  1.00 20.00     0.128 C 
HETATM   11  C8  UNL     1     -36.366  13.792  -4.849  1.00 20.00     0.091 C 
HETATM   12  O12 UNL     1     -34.076  13.779  -4.160  1.00 20.00    -0.298 OA
ENDBRANCH   5  10
TORSDOF 1
ENDMDL
MODEL 9
REMARK VINA RESULT:      -4.6      1.609      2.929
REMARK  1 active torsions:
REMARK  status: ('A' for Active; 'I' for Inactive)
REMARK    1  A    between atoms: C3_3  and  C6_6 
ROOT
HETATM    1  C1  UNL     1     -36.289  15.630  -3.168  1.00 20.00    -0.025 C 
HETATM    2  C2  UNL     1     -35.391  16.436  -2.582  1.00 20.00    -0.026 C 
HETATM    3  C4  UNL     1     -36.188  15.140  -4.593  1.00 20.00     0.015 C 
HETATM    4  C5  UNL     1     -34.144  16.939  -3.270  1.00 20.00     0.008 C 
HETATM    5  C6  UNL     1     -35.042  15.848  -5.357  1.00 20.00     0.066 C 
HETATM    6  C7  UNL     1     -33.766  16.084  -4.513  1.00 20.00     0.000 C 
HETATM    7  C9  UNL     1     -36.142  13.607  -4.610  1.00 20.00     0.015 C 
HETATM    8  C10 UNL     1     -32.993  17.084  -2.271  1.00 20.00     0.014 C 
HETATM    9  C11 UNL     1     -33.019  14.793  -4.150  1.00 20.00     0.011 C 
ENDROOT
BRANCH   5  10
HETATM   10  C3  UNL     1     -34.745  15.225  -6.693  1.00 20.00     0.128 C 
HETATM   11  C8  UNL     1     -35.840  15.279  -7.722  1.00 20.00     0.091 C 
HETATM   12  O12 UNL     1     -33.659  14.700  -6.931  1.00 20.00    -0.298 OA
ENDBRANCH   5  10
TORSDOF 1
ENDMDL
