MODEL 1
REMARK VINA RESULT:      -4.8      0.000      0.000
REMARK  1 active torsions:
REMARK  status: ('A' for Active; 'I' for Inactive)
REMARK    1  A    between atoms: C4_4  and  C8_8 
ROOT
HETATM    1  C1  UNL     1     -37.395  14.401  -4.547  1.00 20.00     0.079 A 
HETATM    2  C2  UNL     1     -35.112  14.612  -3.519  1.00 20.00     0.088 A 
HETATM    3  C3  UNL     1     -37.598  15.651  -4.125  1.00 20.00     0.146 A 
HETATM    4  C4  UNL     1     -35.434  15.863  -3.147  1.00 20.00     0.064 A 
HETATM    5  C5  UNL     1     -36.089  13.782  -4.258  1.00 20.00     0.176 A 
HETATM    6  O10 UNL     1     -35.825  12.638  -4.612  1.00 20.00    -0.288 OA
HETATM    7  O11 UNL     1     -36.683  16.411  -3.439  1.00 20.00    -0.326 OA
ENDROOT
BRANCH   4   8
HETATM    8  C8  UNL     1     -34.496  16.737  -2.405  1.00 20.00     0.006 A 
HETATM    9  C6  UNL     1     -33.800  17.812  -3.203  1.00 20.00     0.017 A 
HETATM   10  C7  UNL     1     -33.033  16.607  -2.751  1.00 20.00     0.017 A 
HETATM   11  C9  UNL     1     -34.869  17.033  -0.982  1.00 20.00     0.022 C 
ENDBRANCH   4   8
TORSDOF 1
ENDMDL
MODEL 2
REMARK VINA RESULT:      -4.7      0.438      1.369
REMARK  1 active torsions:
REMARK  status: ('A' for Active; 'I' for Inactive)
REMARK    1  A    between atoms: C4_4  and  C8_8 
ROOT
HETATM    1  C1  UNL     1     -37.394  14.400  -4.557  1.00 20.00     0.079 A 
HETATM    2  C2  UNL     1     -35.133  14.627  -3.485  1.00 20.00     0.088 A 
HETATM    3  C3  UNL     1     -37.616  15.646  -4.133  1.00 20.00     0.146 A 
HETATM    4  C4  UNL     1     -35.474  15.873  -3.113  1.00 20.00     0.064 A 
HETATM    5  C5  UNL     1     -36.087  13.792  -4.246  1.00 20.00     0.176 A 
HETATM    6  O10 UNL     1     -35.807  12.653  -4.601  1.00 20.00    -0.288 OA
HETATM    7  O11 UNL     1     -36.722  16.411  -3.426  1.00 20.00    -0.326 OA
ENDROOT
BRANCH   4   8
HETATM    8  C8  UNL     1     -34.558  16.752  -2.349  1.00 20.00     0.006 A 
HETATM    9  C6  UNL     1     -34.920  17.014  -0.907  1.00 20.00     0.017 A 
HETATM   10  C7  UNL     1     -35.103  18.095  -1.928  1.00 20.00     0.017 A 
HETATM   11  C9  UNL     1     -33.106  16.653  -2.713  1.00 20.00     0.022 C 
ENDBRANCH   4   8
TORSDOF 1
ENDMDL
MODEL 3
REMARK VINA RESULT:      -4.5      2.163      4.479
REMARK  1 active torsions:
REMARK  status: ('A' for Active; 'I' for Inactive)
REMARK    1  A    between atoms: C4_4  and  C8_8 
ROOT
HETATM    1  C1  UNL     1     -33.948  17.856  -0.798  1.00 20.00     0.079 A 
HETATM    2  C2  UNL     1     -32.915  16.802  -2.832  1.00 20.00     0.088 A 
HETATM    3  C3  UNL     1     -34.954  16.996  -0.979  1.00 20.00     0.146 A 
HETATM    4  C4  UNL     1     -33.983  15.988  -2.908  1.00 20.00     0.064 A 
HETATM    5  C5  UNL     1     -32.825  17.808  -1.752  1.00 20.00     0.176 A 
HETATM    6  O10 UNL     1     -31.865  18.564  -1.654  1.00 20.00    -0.288 OA
HETATM    7  O11 UNL     1     -35.026  16.066  -1.986  1.00 20.00    -0.326 OA
ENDROOT
BRANCH   4   8
HETATM    8  C8  UNL     1     -34.125  14.963  -3.968  1.00 20.00     0.006 A 
HETATM    9  C6  UNL     1     -35.219  15.190  -4.984  1.00 20.00     0.017 A 
HETATM   10  C7  UNL     1     -35.382  14.129  -3.939  1.00 20.00     0.017 A 
HETATM   11  C9  UNL     1     -32.851  14.316  -4.424  1.00 20.00     0.022 C 
ENDBRANCH   4   8
TORSDOF 1
ENDMDL
MODEL 4
REMARK VINA RESULT:      -4.5      1.484      1.715
REMARK  1 active torsions:
REMARK  status: ('A' for Active; 'I' for Inactive)
REMARK    1  A    between atoms: C4_4  and  C8_8 
ROOT
HETATM    1  C1  UNL     1     -35.775  14.269  -5.826  1.00 20.00     0.079 A 
HETATM    2  C2  UNL     1     -36.127  15.165  -3.505  1.00 20.00     0.088 A 
HETATM    3  C3  UNL     1     -34.650  14.987  -5.832  1.00 20.00     0.146 A 
HETATM    4  C4  UNL     1     -34.972  15.843  -3.630  1.00 20.00     0.064 A 
HETATM    5  C5  UNL     1     -36.614  14.317  -4.615  1.00 20.00     0.176 A 
HETATM    6  O10 UNL     1     -37.662  13.686  -4.532  1.00 20.00    -0.288 OA
HETATM    7  O11 UNL     1     -34.208  15.771  -4.795  1.00 20.00    -0.326 OA
ENDROOT
BRANCH   4   8
HETATM    8  C8  UNL     1     -34.438  16.706  -2.552  1.00 20.00     0.006 A 
HETATM    9  C6  UNL     1     -33.961  18.079  -2.961  1.00 20.00     0.017 A 
HETATM   10  C7  UNL     1     -32.963  17.021  -2.606  1.00 20.00     0.017 A 
HETATM   11  C9  UNL     1     -35.085  16.546  -1.208  1.00 20.00     0.022 C 
ENDBRANCH   4   8
TORSDOF 1
ENDMDL
MODEL 5
REMARK VINA RESULT:      -4.4      2.353      4.386
REMARK  1 active torsions:
REMARK  status: ('A' for Active; 'I' for Inactive)
REMARK    1  A    between atoms: C4_4  and  C8_8 
ROOT
HETATM    1  C1  UNL     1     -33.719  17.914  -0.950  1.00 20.00     0.079 A 
HETATM    2  C2  UNL     1     -35.022  16.049  -2.016  1.00 20.00     0.088 A 
HETATM    3  C3  UNL     1     -32.808  17.696  -1.901  1.00 20.00     0.146 A 
HETATM    4  C4  UNL     1     -34.035  15.926  -2.922  1.00 20.00     0.064 A 
HETATM    5  C5  UNL     1     -34.928  17.070  -0.950  1.00 20.00     0.176 A 
HETATM    6  O10 UNL     1     -35.810  17.209  -0.111  1.00 20.00    -0.288 OA
HETATM    7  O11 UNL     1     -32.906  16.744  -2.885  1.00 20.00    -0.326 OA
ENDROOT
BRANCH   4   8
HETATM    8  C8  UNL     1     -34.076  14.921  -4.009  1.00 20.00     0.006 A 
HETATM    9  C6  UNL     1     -35.122  15.125  -5.078  1.00 20.00     0.017 A 
HETATM   10  C7  UNL     1     -35.297  14.035  -4.066  1.00 20.00     0.017 A 
HETATM   11  C9  UNL     1     -32.753  14.338  -4.407  1.00 20.00     0.022 C 
ENDBRANCH   4   8
TORSDOF 1
ENDMDL
MODEL 6
REMARK VINA RESULT:      -4.4      1.588      2.137
REMARK  1 active torsions:
REMARK  status: ('A' for Active; 'I' for Inactive)
REMARK    1  A    between atoms: C4_4  and  C8_8 
ROOT
HETATM    1  C1  UNL     1     -37.901  15.976  -5.300  1.00 20.00     0.079 A 
HETATM    2  C2  UNL     1     -36.108  14.762  -4.025  1.00 20.00     0.088 A 
HETATM    3  C3  UNL     1     -36.994  16.941  -5.472  1.00 20.00     0.146 A 
HETATM    4  C4  UNL     1     -35.285  15.798  -4.265  1.00 20.00     0.064 A 
HETATM    5  C5  UNL     1     -37.496  14.782  -4.536  1.00 20.00     0.176 A 
HETATM    6  O10 UNL     1     -38.271  13.853  -4.335  1.00 20.00    -0.288 OA
HETATM    7  O11 UNL     1     -35.708  16.911  -4.992  1.00 20.00    -0.326 OA
ENDROOT
BRANCH   4   8
HETATM    8  C8  UNL     1     -33.887  15.831  -3.778  1.00 20.00     0.006 A 
HETATM    9  C6  UNL     1     -33.667  16.395  -2.395  1.00 20.00     0.017 A 
HETATM   10  C7  UNL     1     -33.266  17.194  -3.597  1.00 20.00     0.017 A 
HETATM   11  C9  UNL     1     -33.011  14.702  -4.235  1.00 20.00     0.022 C 
ENDBRANCH   4   8
TORSDOF 1
ENDMDL
MODEL 7
REMARK VINA RESULT:      -4.3      1.679      2.451
REMARK  1 active torsions:
REMARK  status: ('A' for Active; 'I' for Inactive)
REMARK    1  A    between atoms: C4_4  and  C8_8 
ROOT
HETATM    1  C1  UNL     1     -33.879  14.411  -4.454  1.00 20.00     0.079 A 
HETATM    2  C2  UNL     1     -35.325  15.591  -2.771  1.00 20.00     0.088 A 
HETATM    3  C3  UNL     1     -32.889  15.188  -4.008  1.00 20.00     0.146 A 
HETATM    4  C4  UNL     1     -34.250  16.313  -2.407  1.00 20.00     0.064 A 
HETATM    5  C5  UNL     1     -35.209  14.573  -3.838  1.00 20.00     0.176 A 
HETATM    6  O10 UNL     1     -36.169  13.898  -4.192  1.00 20.00    -0.288 OA
HETATM    7  O11 UNL     1     -33.009  16.130  -3.016  1.00 20.00    -0.326 OA
ENDROOT
BRANCH   4   8
HETATM    8  C8  UNL     1     -34.309  17.345  -1.346  1.00 20.00     0.006 A 
HETATM    9  C6  UNL     1     -34.073  18.772  -1.778  1.00 20.00     0.017 A 
HETATM   10  C7  UNL     1     -33.015  18.043  -1.008  1.00 20.00     0.017 A 
HETATM   11  C9  UNL     1     -35.290  17.087  -0.241  1.00 20.00     0.022 C 
ENDBRANCH   4   8
TORSDOF 1
ENDMDL
MODEL 8
REMARK VINA RESULT:      -4.3      1.429      1.679
REMARK  1 active torsions:
REMARK  status: ('A' for Active; 'I' for Inactive)
REMARK    1  A    between atoms: C4_4  and  C8_8 
ROOT
HETATM    1  C1  UNL     1     -35.511  14.310  -4.423  1.00 20.00     0.079 A 
HETATM    2  C2  UNL     1     -33.790  15.541  -3.069  1.00 20.00     0.088 A 
HETATM    3  C3  UNL     1     -36.414  15.050  -3.775  1.00 20.00     0.146 A 
HETATM    4  C4  UNL     1     -34.790  16.225  -2.485  1.00 20.00     0.064 A 
HETATM    5  C5  UNL     1     -34.089  14.519  -4.096  1.00 20.00     0.176 A 
HETATM    6  O10 UNL     1     -33.201  13.879  -4.647  1.00 20.00    -0.288 OA
HETATM    7  O11 UNL     1     -36.123  15.996  -2.823  1.00 20.00    -0.326 OA
ENDROOT
BRANCH   4   8
HETATM    8  C8  UNL     1     -34.547  17.257  -1.451  1.00 20.00     0.006 A 
HETATM    9  C6  UNL     1     -34.231  18.648  -1.946  1.00 20.00     0.017 A 
HETATM   10  C7  UNL     1     -33.144  17.804  -1.356  1.00 20.00     0.017 A 
HETATM   11  C9  UNL     1     -35.344  17.114  -0.188  1.00 20.00     0.022 C 
ENDBRANCH   4   8
TORSDOF 1
ENDMDL
MODEL 9
REMARK VINA RESULT:      -4.2      2.290      4.540
REMARK  1 active torsions:
REMARK  status: ('A' for Active; 'I' for Inactive)
REMARK    1  A    between atoms: C4_4  and  C8_8 
ROOT
HETATM    1  C1  UNL     1     -33.715  17.941  -0.511  1.00 20.00     0.079 A 
HETATM    2  C2  UNL     1     -32.868  17.090  -2.718  1.00 20.00     0.088 A 
HETATM    3  C3  UNL     1     -34.819  17.236  -0.769  1.00 20.00     0.146 A 
HETATM    4  C4  UNL     1     -34.025  16.421  -2.864  1.00 20.00     0.064 A 
HETATM    5  C5  UNL     1     -32.631  17.909  -1.509  1.00 20.00     0.176 A 
HETATM    6  O10 UNL     1     -31.586  18.530  -1.345  1.00 20.00    -0.288 OA
HETATM    7  O11 UNL     1     -35.027  16.480  -1.895  1.00 20.00    -0.326 OA
ENDROOT
BRANCH   4   8
HETATM    8  C8  UNL     1     -34.315  15.587  -4.053  1.00 20.00     0.006 A 
HETATM    9  C6  UNL     1     -34.533  14.114  -3.807  1.00 20.00     0.017 A 
HETATM   10  C7  UNL     1     -33.262  14.582  -4.447  1.00 20.00     0.017 A 
HETATM   11  C9  UNL     1     -35.107  16.255  -5.139  1.00 20.00     0.022 C 
ENDBRANCH   4   8
TORSDOF 1
ENDMDL
