MODEL 1
REMARK VINA RESULT:      -4.9      0.000      0.000
REMARK  0 active torsions:
REMARK  status: ('A' for Active; 'I' for Inactive)
ROOT
HETATM    1  C1  UNL     1     -33.504  14.601  -4.380  1.00 20.00    -0.025 C 
HETATM    2  C2  UNL     1     -34.568  14.019  -3.793  1.00 20.00    -0.025 C 
HETATM    3  C3  UNL     1     -33.033  17.388  -2.130  1.00 20.00    -0.024 C 
HETATM    4  C4  UNL     1     -33.796  17.478  -1.017  1.00 20.00    -0.025 C 
HETATM    5  C5  UNL     1     -35.353  15.926  -4.717  1.00 20.00     0.018 C 
HETATM    6  C6  UNL     1     -33.808  16.073  -4.530  1.00 20.00     0.016 C 
HETATM    7  C7  UNL     1     -35.549  15.128  -3.418  1.00 20.00     0.014 C 
HETATM    8  C8  UNL     1     -33.896  16.865  -3.215  1.00 20.00     0.021 C 
HETATM    9  C9  UNL     1     -35.167  16.805  -1.189  1.00 20.00     0.009 C 
HETATM   10  C10 UNL     1     -34.765  15.914  -2.348  1.00 20.00     0.009 C 
HETATM   11  C11 UNL     1     -36.318  17.763  -1.446  1.00 20.00     0.014 C 
ENDROOT
TORSDOF 0
ENDMDL
MODEL 2
REMARK VINA RESULT:      -4.6     11.476     13.042
REMARK  0 active torsions:
REMARK  status: ('A' for Active; 'I' for Inactive)
ROOT
HETATM    1  C1  UNL     1     -41.910   9.158   0.357  1.00 20.00    -0.025 C 
HETATM    2  C2  UNL     1     -41.119   8.607  -0.584  1.00 20.00    -0.025 C 
HETATM    3  C3  UNL     1     -43.411   6.163   1.706  1.00 20.00    -0.024 C 
HETATM    4  C4  UNL     1     -42.991   4.954   1.266  1.00 20.00    -0.025 C 
HETATM    5  C5  UNL     1     -43.232   8.365  -1.349  1.00 20.00     0.018 C 
HETATM    6  C6  UNL     1     -43.293   8.572   0.199  1.00 20.00     0.016 C 
HETATM    7  C7  UNL     1     -41.939   7.536  -1.301  1.00 20.00     0.014 C 
HETATM    8  C8  UNL     1     -43.417   7.078   0.541  1.00 20.00     0.021 C 
HETATM    9  C9  UNL     1     -42.454   5.008  -0.174  1.00 20.00     0.009 C 
HETATM   10  C10 UNL     1     -42.174   6.498  -0.185  1.00 20.00     0.009 C 
HETATM   11  C11 UNL     1     -43.417   4.497  -1.232  1.00 20.00     0.014 C 
ENDROOT
TORSDOF 0
ENDMDL
MODEL 3
REMARK VINA RESULT:      -4.6      1.366      4.156
REMARK  0 active torsions:
REMARK  status: ('A' for Active; 'I' for Inactive)
ROOT
HETATM    1  C1  UNL     1     -35.402  17.270   0.761  1.00 20.00    -0.025 C 
HETATM    2  C2  UNL     1     -34.255  17.966   0.885  1.00 20.00    -0.025 C 
HETATM    3  C3  UNL     1     -34.821  15.727  -2.453  1.00 20.00    -0.024 C 
HETATM    4  C4  UNL     1     -33.623  15.892  -3.061  1.00 20.00    -0.025 C 
HETATM    5  C5  UNL     1     -35.435  19.023  -0.728  1.00 20.00     0.018 C 
HETATM    6  C6  UNL     1     -35.972  17.559  -0.608  1.00 20.00     0.016 C 
HETATM    7  C7  UNL     1     -33.973  18.629  -0.463  1.00 20.00     0.014 C 
HETATM    8  C8  UNL     1     -35.158  17.009  -1.790  1.00 20.00     0.021 C 
HETATM    9  C9  UNL     1     -32.941  17.212  -2.667  1.00 20.00     0.009 C 
HETATM   10  C10 UNL     1     -33.717  17.416  -1.379  1.00 20.00     0.009 C 
HETATM   11  C11 UNL     1     -33.052  18.320  -3.700  1.00 20.00     0.014 C 
ENDROOT
TORSDOF 0
ENDMDL
MODEL 4
REMARK VINA RESULT:      -4.6      1.106      1.438
REMARK  0 active torsions:
REMARK  status: ('A' for Active; 'I' for Inactive)
ROOT
HETATM    1  C1  UNL     1     -33.221  15.894  -3.466  1.00 20.00    -0.025 C 
HETATM    2  C2  UNL     1     -34.311  15.139  -3.231  1.00 20.00    -0.025 C 
HETATM    3  C3  UNL     1     -33.378  18.081  -0.595  1.00 20.00    -0.024 C 
HETATM    4  C4  UNL     1     -34.320  17.866   0.351  1.00 20.00    -0.025 C 
HETATM    5  C5  UNL     1     -35.098  17.173  -3.825  1.00 20.00     0.018 C 
HETATM    6  C6  UNL     1     -33.624  17.343  -3.331  1.00 20.00     0.016 C 
HETATM    7  C7  UNL     1     -35.435  16.079  -2.799  1.00 20.00     0.014 C 
HETATM    8  C8  UNL     1     -33.999  17.792  -1.909  1.00 20.00     0.021 C 
HETATM    9  C9  UNL     1     -35.579  17.191  -0.216  1.00 20.00     0.009 C 
HETATM   10  C10 UNL     1     -34.912  16.622  -1.454  1.00 20.00     0.009 C 
HETATM   11  C11 UNL     1     -36.751  18.128  -0.455  1.00 20.00     0.014 C 
ENDROOT
TORSDOF 0
ENDMDL
MODEL 5
REMARK VINA RESULT:      -4.6      1.344      3.282
REMARK  0 active torsions:
REMARK  status: ('A' for Active; 'I' for Inactive)
ROOT
HETATM    1  C1  UNL     1     -37.551  15.781  -4.847  1.00 20.00    -0.025 C 
HETATM    2  C2  UNL     1     -36.783  16.021  -5.926  1.00 20.00    -0.025 C 
HETATM    3  C3  UNL     1     -35.021  15.903  -2.272  1.00 20.00    -0.024 C 
HETATM    4  C4  UNL     1     -33.755  16.248  -2.602  1.00 20.00    -0.025 C 
HETATM    5  C5  UNL     1     -36.241  13.934  -5.246  1.00 20.00     0.018 C 
HETATM    6  C6  UNL     1     -36.888  14.689  -4.040  1.00 20.00     0.016 C 
HETATM    7  C7  UNL     1     -35.516  15.179  -5.783  1.00 20.00     0.014 C 
HETATM    8  C8  UNL     1     -35.555  15.076  -3.379  1.00 20.00     0.021 C 
HETATM    9  C9  UNL     1     -33.408  15.886  -4.055  1.00 20.00     0.009 C 
HETATM   10  C10 UNL     1     -34.841  15.807  -4.547  1.00 20.00     0.009 C 
HETATM   11  C11 UNL     1     -32.572  14.628  -4.216  1.00 20.00     0.014 C 
ENDROOT
TORSDOF 0
ENDMDL
MODEL 6
REMARK VINA RESULT:      -4.6      1.053      2.501
REMARK  0 active torsions:
REMARK  status: ('A' for Active; 'I' for Inactive)
ROOT
HETATM    1  C1  UNL     1     -35.517  15.844  -4.224  1.00 20.00    -0.025 C 
HETATM    2  C2  UNL     1     -34.794  16.807  -4.830  1.00 20.00    -0.025 C 
HETATM    3  C3  UNL     1     -35.169  16.908  -0.789  1.00 20.00    -0.024 C 
HETATM    4  C4  UNL     1     -34.535  18.071  -0.517  1.00 20.00    -0.025 C 
HETATM    5  C5  UNL     1     -33.292  15.511  -3.746  1.00 20.00     0.018 C 
HETATM    6  C6  UNL     1     -34.692  15.296  -3.083  1.00 20.00     0.016 C 
HETATM    7  C7  UNL     1     -33.521  17.008  -4.010  1.00 20.00     0.014 C 
HETATM    8  C8  UNL     1     -34.452  16.269  -1.917  1.00 20.00     0.021 C 
HETATM    9  C9  UNL     1     -33.486  18.432  -1.581  1.00 20.00     0.009 C 
HETATM   10  C10 UNL     1     -34.069  17.565  -2.681  1.00 20.00     0.009 C 
HETATM   11  C11 UNL     1     -32.049  18.138  -1.185  1.00 20.00     0.014 C 
ENDROOT
TORSDOF 0
ENDMDL
MODEL 7
REMARK VINA RESULT:      -4.5      0.999      3.821
REMARK  0 active torsions:
REMARK  status: ('A' for Active; 'I' for Inactive)
ROOT
HETATM    1  C1  UNL     1     -36.122  17.466  -1.464  1.00 20.00    -0.025 C 
HETATM    2  C2  UNL     1     -34.974  16.964  -0.971  1.00 20.00    -0.025 C 
HETATM    3  C3  UNL     1     -36.706  15.109  -4.138  1.00 20.00    -0.024 C 
HETATM    4  C4  UNL     1     -35.884  14.043  -4.273  1.00 20.00    -0.025 C 
HETATM    5  C5  UNL     1     -34.431  17.878  -2.966  1.00 20.00     0.018 C 
HETATM    6  C6  UNL     1     -35.968  17.590  -2.961  1.00 20.00     0.016 C 
HETATM    7  C7  UNL     1     -34.078  16.618  -2.159  1.00 20.00     0.014 C 
HETATM    8  C8  UNL     1     -35.869  16.260  -3.725  1.00 20.00     0.021 C 
HETATM    9  C9  UNL     1     -34.470  14.320  -3.738  1.00 20.00     0.009 C 
HETATM   10  C10 UNL     1     -34.861  15.478  -2.841  1.00 20.00     0.009 C 
HETATM   11  C11 UNL     1     -33.432  14.619  -4.807  1.00 20.00     0.014 C 
ENDROOT
TORSDOF 0
ENDMDL
MODEL 8
REMARK VINA RESULT:      -4.5      1.180      1.656
REMARK  0 active torsions:
REMARK  status: ('A' for Active; 'I' for Inactive)
ROOT
HETATM    1  C1  UNL     1     -35.518  14.349  -5.748  1.00 20.00    -0.025 C 
HETATM    2  C2  UNL     1     -36.244  13.803  -4.753  1.00 20.00    -0.025 C 
HETATM    3  C3  UNL     1     -33.429  16.572  -3.814  1.00 20.00    -0.024 C 
HETATM    4  C4  UNL     1     -33.501  16.542  -2.464  1.00 20.00    -0.025 C 
HETATM    5  C5  UNL     1     -36.972  15.935  -4.936  1.00 20.00     0.018 C 
HETATM    6  C6  UNL     1     -35.546  15.848  -5.570  1.00 20.00     0.016 C 
HETATM    7  C7  UNL     1     -36.656  14.934  -3.813  1.00 20.00     0.014 C 
HETATM    8  C8  UNL     1     -34.804  16.379  -4.333  1.00 20.00     0.021 C 
HETATM    9  C9  UNL     1     -34.881  16.093  -1.959  1.00 20.00     0.009 C 
HETATM   10  C10 UNL     1     -35.301  15.396  -3.239  1.00 20.00     0.009 C 
HETATM   11  C11 UNL     1     -35.782  17.218  -1.480  1.00 20.00     0.014 C 
ENDROOT
TORSDOF 0
ENDMDL
MODEL 9
REMARK VINA RESULT:      -4.5      1.258      1.728
REMARK  0 active torsions:
REMARK  status: ('A' for Active; 'I' for Inactive)
ROOT
HETATM    1  C1  UNL     1     -33.385  15.712  -3.601  1.00 20.00    -0.025 C 
HETATM    2  C2  UNL     1     -34.513  15.369  -2.948  1.00 20.00    -0.025 C 
HETATM    3  C3  UNL     1     -32.062  18.141  -1.277  1.00 20.00    -0.024 C 
HETATM    4  C4  UNL     1     -32.692  18.339  -0.097  1.00 20.00    -0.025 C 
HETATM    5  C5  UNL     1     -34.865  17.469  -3.708  1.00 20.00     0.018 C 
HETATM    6  C6  UNL     1     -33.322  17.220  -3.655  1.00 20.00     0.016 C 
HETATM    7  C7  UNL     1     -35.154  16.657  -2.435  1.00 20.00     0.014 C 
HETATM    8  C8  UNL     1     -33.109  17.919  -2.302  1.00 20.00     0.021 C 
HETATM    9  C9  UNL     1     -34.197  18.037  -0.175  1.00 20.00     0.009 C 
HETATM   10  C10 UNL     1     -34.119  17.154  -1.406  1.00 20.00     0.009 C 
HETATM   11  C11 UNL     1     -35.088  19.262  -0.282  1.00 20.00     0.014 C 
ENDROOT
TORSDOF 0
ENDMDL
