MODEL 1
REMARK VINA RESULT:      -5.4      0.000      0.000
REMARK  0 active torsions:
REMARK  status: ('A' for Active; 'I' for Inactive)
ROOT
HETATM    1  C1  UNL     1     -36.213  13.712  -4.967  1.00 20.00     0.147 A 
HETATM    2  C2  UNL     1     -35.222  14.547  -4.420  1.00 20.00    -0.015 A 
HETATM    3  C3  UNL     1     -35.887  15.296  -3.481  1.00 20.00     0.036 A 
HETATM    4  C4  UNL     1     -33.778  14.707  -4.709  1.00 20.00     0.043 C 
HETATM    5  C5  UNL     1     -35.308  16.330  -2.586  1.00 20.00     0.068 C 
HETATM    6  C6  UNL     1     -33.083  15.505  -3.584  1.00 20.00     0.014 C 
HETATM    7  C7  UNL     1     -33.889  16.750  -3.088  1.00 20.00    -0.042 C 
HETATM    8  C8  UNL     1     -33.125  17.404  -1.923  1.00 20.00     0.015 C 
HETATM    9  C9  UNL     1     -34.015  17.789  -4.220  1.00 20.00     0.015 C 
HETATM   10  N10 UNL     1     -37.415  13.913  -4.413  1.00 20.00    -0.186 NA
HETATM   11  N11 UNL     1     -37.185  14.884  -3.508  1.00 20.00    -0.282 N 
HETATM   12  H25 UNL     1     -37.961  15.216  -2.949  1.00 20.00     0.189 HD
ENDROOT
TORSDOF 0
ENDMDL
MODEL 2
REMARK VINA RESULT:      -4.9      1.399      2.204
REMARK  0 active torsions:
REMARK  status: ('A' for Active; 'I' for Inactive)
ROOT
HETATM    1  C1  UNL     1     -36.731  13.966  -4.576  1.00 20.00     0.147 A 
HETATM    2  C2  UNL     1     -36.173  15.134  -4.027  1.00 20.00    -0.015 A 
HETATM    3  C3  UNL     1     -34.913  14.757  -3.631  1.00 20.00     0.036 A 
HETATM    4  C4  UNL     1     -36.707  16.502  -3.832  1.00 20.00     0.043 C 
HETATM    5  C5  UNL     1     -33.877  15.616  -3.002  1.00 20.00     0.068 C 
HETATM    6  C6  UNL     1     -35.566  17.492  -3.510  1.00 20.00     0.014 C 
HETATM    7  C7  UNL     1     -34.514  16.947  -2.489  1.00 20.00    -0.042 C 
HETATM    8  C8  UNL     1     -33.401  17.996  -2.317  1.00 20.00     0.015 C 
HETATM    9  C9  UNL     1     -35.173  16.721  -1.113  1.00 20.00     0.015 C 
HETATM   10  N10 UNL     1     -35.887  12.927  -4.536  1.00 20.00    -0.186 NA
HETATM   11  N11 UNL     1     -34.785  13.441  -3.955  1.00 20.00    -0.282 N 
HETATM   12  H25 UNL     1     -33.989  12.833  -3.811  1.00 20.00     0.189 HD
ENDROOT
TORSDOF 0
ENDMDL
MODEL 3
REMARK VINA RESULT:      -4.9     17.201     17.892
REMARK  0 active torsions:
REMARK  status: ('A' for Active; 'I' for Inactive)
ROOT
HETATM    1  C1  UNL     1     -22.442  17.124   8.418  1.00 20.00     0.147 A 
HETATM    2  C2  UNL     1     -23.394  17.200   9.449  1.00 20.00    -0.015 A 
HETATM    3  C3  UNL     1     -24.097  18.349   9.180  1.00 20.00     0.036 A 
HETATM    4  C4  UNL     1     -23.670  16.338  10.622  1.00 20.00     0.043 C 
HETATM    5  C5  UNL     1     -25.242  18.900   9.950  1.00 20.00     0.068 C 
HETATM    6  C6  UNL     1     -25.046  16.678  11.236  1.00 20.00     0.014 C 
HETATM    7  C7  UNL     1     -25.337  18.210  11.349  1.00 20.00    -0.042 C 
HETATM    8  C8  UNL     1     -26.761  18.405  11.901  1.00 20.00     0.015 C 
HETATM    9  C9  UNL     1     -24.349  18.870  12.332  1.00 20.00     0.015 C 
HETATM   10  N10 UNL     1     -22.537  18.144   7.556  1.00 20.00    -0.186 NA
HETATM   11  N11 UNL     1     -23.557  18.875   8.047  1.00 20.00    -0.282 N 
HETATM   12  H25 UNL     1     -23.825  19.719   7.556  1.00 20.00     0.189 HD
ENDROOT
TORSDOF 0
ENDMDL
MODEL 4
REMARK VINA RESULT:      -4.8      1.342      2.218
REMARK  0 active torsions:
REMARK  status: ('A' for Active; 'I' for Inactive)
ROOT
HETATM    1  C1  UNL     1     -37.814  15.085  -4.490  1.00 20.00     0.147 A 
HETATM    2  C2  UNL     1     -36.805  15.891  -3.936  1.00 20.00    -0.015 A 
HETATM    3  C3  UNL     1     -35.770  15.022  -3.690  1.00 20.00     0.036 A 
HETATM    4  C4  UNL     1     -36.743  17.335  -3.611  1.00 20.00     0.043 C 
HETATM    5  C5  UNL     1     -34.438  15.353  -3.122  1.00 20.00     0.068 C 
HETATM    6  C6  UNL     1     -35.285  17.773  -3.350  1.00 20.00     0.014 C 
HETATM    7  C7  UNL     1     -34.463  16.774  -2.472  1.00 20.00    -0.042 C 
HETATM    8  C8  UNL     1     -33.017  17.290  -2.355  1.00 20.00     0.015 C 
HETATM    9  C9  UNL     1     -35.058  16.696  -1.052  1.00 20.00     0.015 C 
HETATM   10  N10 UNL     1     -37.446  13.802  -4.594  1.00 20.00    -0.186 NA
HETATM   11  N11 UNL     1     -36.192  13.794  -4.100  1.00 20.00    -0.282 N 
HETATM   12  H25 UNL     1     -35.691  12.915  -4.071  1.00 20.00     0.189 HD
ENDROOT
TORSDOF 0
ENDMDL
MODEL 5
REMARK VINA RESULT:      -4.7      2.306      2.898
REMARK  0 active torsions:
REMARK  status: ('A' for Active; 'I' for Inactive)
ROOT
HETATM    1  C1  UNL     1     -34.774  15.673  -6.409  1.00 20.00     0.147 A 
HETATM    2  C2  UNL     1     -34.667  16.362  -5.189  1.00 20.00    -0.015 A 
HETATM    3  C3  UNL     1     -33.615  15.756  -4.546  1.00 20.00     0.036 A 
HETATM    4  C4  UNL     1     -35.447  17.473  -4.595  1.00 20.00     0.043 C 
HETATM    5  C5  UNL     1     -33.055  16.108  -3.216  1.00 20.00     0.068 C 
HETATM    6  C6  UNL     1     -34.694  18.086  -3.394  1.00 20.00     0.014 C 
HETATM    7  C7  UNL     1     -34.045  17.033  -2.437  1.00 20.00    -0.042 C 
HETATM    8  C8  UNL     1     -33.268  17.775  -1.335  1.00 20.00     0.015 C 
HETATM    9  C9  UNL     1     -35.140  16.183  -1.760  1.00 20.00     0.015 C 
HETATM   10  N10 UNL     1     -33.856  14.706  -6.534  1.00 20.00    -0.186 NA
HETATM   11  N11 UNL     1     -33.162  14.782  -5.382  1.00 20.00    -0.282 N 
HETATM   12  H25 UNL     1     -32.397  14.135  -5.237  1.00 20.00     0.189 HD
ENDROOT
TORSDOF 0
ENDMDL
MODEL 6
REMARK VINA RESULT:      -4.5      1.792      2.517
REMARK  0 active torsions:
REMARK  status: ('A' for Active; 'I' for Inactive)
ROOT
HETATM    1  C1  UNL     1     -33.211  14.897  -4.417  1.00 20.00     0.147 A 
HETATM    2  C2  UNL     1     -33.433  15.869  -3.425  1.00 20.00    -0.015 A 
HETATM    3  C3  UNL     1     -34.624  15.502  -2.847  1.00 20.00     0.036 A 
HETATM    4  C4  UNL     1     -32.668  17.069  -3.012  1.00 20.00     0.043 C 
HETATM    5  C5  UNL     1     -35.318  16.177  -1.721  1.00 20.00     0.068 C 
HETATM    6  C6  UNL     1     -33.166  17.587  -1.645  1.00 20.00     0.014 C 
HETATM    7  C7  UNL     1     -34.722  17.603  -1.492  1.00 20.00    -0.042 C 
HETATM    8  C8  UNL     1     -35.076  18.065  -0.067  1.00 20.00     0.015 C 
HETATM    9  C9  UNL     1     -35.346  18.603  -2.487  1.00 20.00     0.015 C 
HETATM   10  N10 UNL     1     -34.185  13.979  -4.461  1.00 20.00    -0.186 NA
HETATM   11  N11 UNL     1     -35.032  14.373  -3.490  1.00 20.00    -0.282 N 
HETATM   12  H25 UNL     1     -35.867  13.825  -3.327  1.00 20.00     0.189 HD
ENDROOT
TORSDOF 0
ENDMDL
MODEL 7
REMARK VINA RESULT:      -4.4      3.221      4.697
REMARK  0 active torsions:
REMARK  status: ('A' for Active; 'I' for Inactive)
ROOT
HETATM    1  C1  UNL     1     -33.785  18.502  -0.171  1.00 20.00     0.147 A 
HETATM    2  C2  UNL     1     -34.117  17.552  -1.153  1.00 20.00    -0.015 A 
HETATM    3  C3  UNL     1     -32.985  17.451  -1.926  1.00 20.00     0.036 A 
HETATM    4  C4  UNL     1     -35.355  16.786  -1.427  1.00 20.00     0.043 C 
HETATM    5  C5  UNL     1     -32.779  16.566  -3.100  1.00 20.00     0.068 C 
HETATM    6  C6  UNL     1     -35.071  15.623  -2.403  1.00 20.00     0.014 C 
HETATM    7  C7  UNL     1     -34.147  16.006  -3.605  1.00 20.00    -0.042 C 
HETATM    8  C8  UNL     1     -33.886  14.746  -4.451  1.00 20.00     0.015 C 
HETATM    9  C9  UNL     1     -34.845  17.047  -4.504  1.00 20.00     0.015 C 
HETATM   10  N10 UNL     1     -32.537  18.965  -0.307  1.00 20.00    -0.186 NA
HETATM   11  N11 UNL     1     -32.072  18.304  -1.385  1.00 20.00    -0.282 N 
HETATM   12  H25 UNL     1     -31.127  18.490  -1.694  1.00 20.00     0.189 HD
ENDROOT
TORSDOF 0
ENDMDL
MODEL 8
REMARK VINA RESULT:      -4.4      1.425      2.109
REMARK  0 active torsions:
REMARK  status: ('A' for Active; 'I' for Inactive)
ROOT
HETATM    1  C1  UNL     1     -34.846  13.451  -3.986  1.00 20.00     0.147 A 
HETATM    2  C2  UNL     1     -35.047  14.762  -3.520  1.00 20.00    -0.015 A 
HETATM    3  C3  UNL     1     -36.330  15.068  -3.906  1.00 20.00     0.036 A 
HETATM    4  C4  UNL     1     -34.171  15.714  -2.799  1.00 20.00     0.043 C 
HETATM    5  C5  UNL     1     -37.066  16.332  -3.648  1.00 20.00     0.068 C 
HETATM    6  C6  UNL     1     -34.997  16.882  -2.217  1.00 20.00     0.014 C 
HETATM    7  C7  UNL     1     -36.076  17.453  -3.195  1.00 20.00    -0.042 C 
HETATM    8  C8  UNL     1     -36.872  18.552  -2.468  1.00 20.00     0.015 C 
HETATM    9  C9  UNL     1     -35.399  18.089  -4.425  1.00 20.00     0.015 C 
HETATM   10  N10 UNL     1     -35.921  12.960  -4.615  1.00 20.00    -0.186 NA
HETATM   11  N11 UNL     1     -36.811  13.968  -4.549  1.00 20.00    -0.282 N 
HETATM   12  H25 UNL     1     -37.723  13.834  -4.967  1.00 20.00     0.189 HD
ENDROOT
TORSDOF 0
ENDMDL
MODEL 9
REMARK VINA RESULT:      -4.3      2.360      2.772
REMARK  0 active torsions:
REMARK  status: ('A' for Active; 'I' for Inactive)
ROOT
HETATM    1  C1  UNL     1     -33.974  15.130  -6.829  1.00 20.00     0.147 A 
HETATM    2  C2  UNL     1     -34.200  15.318  -5.454  1.00 20.00    -0.015 A 
HETATM    3  C3  UNL     1     -34.599  16.629  -5.350  1.00 20.00     0.036 A 
HETATM    4  C4  UNL     1     -34.056  14.420  -4.285  1.00 20.00     0.043 C 
HETATM    5  C5  UNL     1     -34.988  17.350  -4.112  1.00 20.00     0.068 C 
HETATM    6  C6  UNL     1     -34.770  15.015  -3.051  1.00 20.00     0.014 C 
HETATM    7  C7  UNL     1     -34.535  16.548  -2.850  1.00 20.00    -0.042 C 
HETATM    8  C8  UNL     1     -35.359  17.021  -1.639  1.00 20.00     0.015 C 
HETATM    9  C9  UNL     1     -33.047  16.825  -2.554  1.00 20.00     0.015 C 
HETATM   10  N10 UNL     1     -34.217  16.236  -7.544  1.00 20.00    -0.186 NA
HETATM   11  N11 UNL     1     -34.599  17.133  -6.614  1.00 20.00    -0.282 N 
HETATM   12  H25 UNL     1     -34.840  18.068  -6.918  1.00 20.00     0.189 HD
ENDROOT
TORSDOF 0
ENDMDL
