MODEL 1
REMARK VINA RESULT:      -5.1      0.000      0.000
REMARK  0 active torsions:
REMARK  status: ('A' for Active; 'I' for Inactive)
ROOT
HETATM    1  C1  UNL     1     -25.613  16.723  12.203  1.00 20.00    -0.025 C 
HETATM    2  C2  UNL     1     -24.568  15.899  12.027  1.00 20.00    -0.025 C 
HETATM    3  C3  UNL     1     -24.650  19.263   9.494  1.00 20.00    -0.024 C 
HETATM    4  C4  UNL     1     -23.475  19.127   8.876  1.00 20.00    -0.025 C 
HETATM    5  C5  UNL     1     -23.720  18.035  12.127  1.00 20.00     0.018 C 
HETATM    6  C6  UNL     1     -25.193  18.086  11.701  1.00 20.00     0.016 C 
HETATM    7  C7  UNL     1     -23.453  16.712  11.401  1.00 20.00     0.014 C 
HETATM    8  C8  UNL     1     -25.096  18.001  10.157  1.00 20.00     0.021 C 
HETATM    9  C9  UNL     1     -22.908  17.744   8.994  1.00 20.00     0.009 C 
HETATM   10  C10 UNL     1     -23.891  17.014   9.939  1.00 20.00     0.009 C 
HETATM   11  C11 UNL     1     -21.448  17.733   9.423  1.00 20.00     0.014 C 
ENDROOT
TORSDOF 0
ENDMDL
MODEL 2
REMARK VINA RESULT:      -5.0     17.321     18.463
REMARK  0 active torsions:
REMARK  status: ('A' for Active; 'I' for Inactive)
ROOT
HETATM    1  C1  UNL     1     -35.941  14.018  -5.392  1.00 20.00    -0.025 C 
HETATM    2  C2  UNL     1     -36.922  14.338  -4.534  1.00 20.00    -0.025 C 
HETATM    3  C3  UNL     1     -33.118  15.863  -3.565  1.00 20.00    -0.024 C 
HETATM    4  C4  UNL     1     -33.424  16.624  -2.511  1.00 20.00    -0.025 C 
HETATM    5  C5  UNL     1     -35.780  16.282  -4.993  1.00 20.00     0.018 C 
HETATM    6  C6  UNL     1     -34.869  15.076  -5.256  1.00 20.00     0.016 C 
HETATM    7  C7  UNL     1     -36.500  15.607  -3.820  1.00 20.00     0.014 C 
HETATM    8  C8  UNL     1     -34.186  14.868  -3.882  1.00 20.00     0.021 C 
HETATM    9  C9  UNL     1     -34.754  16.280  -1.909  1.00 20.00     0.009 C 
HETATM   10  C10 UNL     1     -35.337  15.214  -2.866  1.00 20.00     0.009 C 
HETATM   11  C11 UNL     1     -35.631  17.500  -1.667  1.00 20.00     0.014 C 
ENDROOT
TORSDOF 0
ENDMDL
MODEL 3
REMARK VINA RESULT:      -4.8     16.462     17.677
REMARK  0 active torsions:
REMARK  status: ('A' for Active; 'I' for Inactive)
ROOT
HETATM    1  C1  UNL     1     -34.666  14.552  -4.800  1.00 20.00    -0.025 C 
HETATM    2  C2  UNL     1     -35.842  14.498  -4.154  1.00 20.00    -0.025 C 
HETATM    3  C3  UNL     1     -33.004  17.136  -2.503  1.00 20.00    -0.024 C 
HETATM    4  C4  UNL     1     -33.737  17.709  -1.545  1.00 20.00    -0.025 C 
HETATM    5  C5  UNL     1     -35.336  16.726  -4.426  1.00 20.00     0.018 C 
HETATM    6  C6  UNL     1     -34.047  15.895  -4.483  1.00 20.00     0.016 C 
HETATM    7  C7  UNL     1     -36.003  15.803  -3.400  1.00 20.00     0.014 C 
HETATM    8  C8  UNL     1     -33.607  15.862  -2.998  1.00 20.00     0.021 C 
HETATM    9  C9  UNL     1     -34.969  16.925  -1.203  1.00 20.00     0.009 C 
HETATM   10  C10 UNL     1     -34.978  15.770  -2.231  1.00 20.00     0.009 C 
HETATM   11  C11 UNL     1     -36.226  17.781  -1.161  1.00 20.00     0.014 C 
ENDROOT
TORSDOF 0
ENDMDL
MODEL 4
REMARK VINA RESULT:      -4.7     16.078     16.976
REMARK  0 active torsions:
REMARK  status: ('A' for Active; 'I' for Inactive)
ROOT
HETATM    1  C1  UNL     1     -34.756   5.196   6.055  1.00 20.00    -0.025 C 
HETATM    2  C2  UNL     1     -34.253   6.441   6.058  1.00 20.00    -0.025 C 
HETATM    3  C3  UNL     1     -33.674   4.278   2.491  1.00 20.00    -0.024 C 
HETATM    4  C4  UNL     1     -33.126   5.223   1.723  1.00 20.00    -0.025 C 
HETATM    5  C5  UNL     1     -35.420   6.202   4.090  1.00 20.00     0.018 C 
HETATM    6  C6  UNL     1     -35.001   4.821   4.611  1.00 20.00     0.016 C 
HETATM    7  C7  UNL     1     -34.156   6.892   4.614  1.00 20.00     0.014 C 
HETATM    8  C8  UNL     1     -33.618   4.619   3.944  1.00 20.00     0.021 C 
HETATM    9  C9  UNL     1     -32.584   6.377   2.513  1.00 20.00     0.009 C 
HETATM   10  C10 UNL     1     -33.006   6.069   3.968  1.00 20.00     0.009 C 
HETATM   11  C11 UNL     1     -33.025   7.729   1.970  1.00 20.00     0.014 C 
ENDROOT
TORSDOF 0
ENDMDL
MODEL 5
REMARK VINA RESULT:      -4.7     17.366     18.429
REMARK  0 active torsions:
REMARK  status: ('A' for Active; 'I' for Inactive)
ROOT
HETATM    1  C1  UNL     1     -34.072  16.594  -1.878  1.00 20.00    -0.025 C 
HETATM    2  C2  UNL     1     -33.207  17.066  -2.789  1.00 20.00    -0.025 C 
HETATM    3  C3  UNL     1     -36.007  14.277  -4.245  1.00 20.00    -0.024 C 
HETATM    4  C4  UNL     1     -35.726  14.313  -5.550  1.00 20.00    -0.025 C 
HETATM    5  C5  UNL     1     -35.302  17.200  -3.730  1.00 20.00     0.018 C 
HETATM    6  C6  UNL     1     -35.300  16.132  -2.629  1.00 20.00     0.016 C 
HETATM    7  C7  UNL     1     -33.857  16.912  -4.150  1.00 20.00     0.014 C 
HETATM    8  C8  UNL     1     -34.910  14.851  -3.408  1.00 20.00     0.021 C 
HETATM    9  C9  UNL     1     -34.381  14.908  -5.842  1.00 20.00     0.009 C 
HETATM   10  C10 UNL     1     -33.874  15.388  -4.463  1.00 20.00     0.009 C 
HETATM   11  C11 UNL     1     -34.424  15.966  -6.936  1.00 20.00     0.014 C 
ENDROOT
TORSDOF 0
ENDMDL
MODEL 6
REMARK VINA RESULT:      -4.6     17.850     18.973
REMARK  0 active torsions:
REMARK  status: ('A' for Active; 'I' for Inactive)
ROOT
HETATM    1  C1  UNL     1     -33.177  16.275  -3.044  1.00 20.00    -0.025 C 
HETATM    2  C2  UNL     1     -34.253  16.266  -2.241  1.00 20.00    -0.025 C 
HETATM    3  C3  UNL     1     -35.063  15.726  -6.339  1.00 20.00    -0.024 C 
HETATM    4  C4  UNL     1     -36.375  15.479  -6.294  1.00 20.00    -0.025 C 
HETATM    5  C5  UNL     1     -34.451  14.448  -3.637  1.00 20.00     0.018 C 
HETATM    6  C6  UNL     1     -33.546  15.502  -4.289  1.00 20.00     0.016 C 
HETATM    7  C7  UNL     1     -35.343  15.492  -2.956  1.00 20.00     0.014 C 
HETATM    8  C8  UNL     1     -34.558  16.363  -5.085  1.00 20.00     0.021 C 
HETATM    9  C9  UNL     1     -37.008  15.914  -5.006  1.00 20.00     0.009 C 
HETATM   10  C10 UNL     1     -35.816  16.383  -4.140  1.00 20.00     0.009 C 
HETATM   11  C11 UNL     1     -37.893  14.842  -4.387  1.00 20.00     0.014 C 
ENDROOT
TORSDOF 0
ENDMDL
MODEL 7
REMARK VINA RESULT:      -4.5     23.213     24.244
REMARK  0 active torsions:
REMARK  status: ('A' for Active; 'I' for Inactive)
ROOT
HETATM    1  C1  UNL     1     -41.662   8.925   0.357  1.00 20.00    -0.025 C 
HETATM    2  C2  UNL     1     -41.168   8.476  -0.807  1.00 20.00    -0.025 C 
HETATM    3  C3  UNL     1     -43.390   5.667   1.409  1.00 20.00    -0.024 C 
HETATM    4  C4  UNL     1     -43.417   4.647   0.547  1.00 20.00    -0.025 C 
HETATM    5  C5  UNL     1     -43.377   7.839  -0.733  1.00 20.00     0.018 C 
HETATM    6  C6  UNL     1     -42.859   8.066   0.693  1.00 20.00     0.016 C 
HETATM    7  C7  UNL     1     -42.033   7.309  -1.243  1.00 20.00     0.014 C 
HETATM    8  C8  UNL     1     -42.327   6.664   1.082  1.00 20.00     0.021 C 
HETATM    9  C9  UNL     1     -42.370   4.756  -0.521  1.00 20.00     0.009 C 
HETATM   10  C10 UNL     1     -41.720   6.137  -0.271  1.00 20.00     0.009 C 
HETATM   11  C11 UNL     1     -42.922   4.530  -1.921  1.00 20.00     0.014 C 
ENDROOT
TORSDOF 0
ENDMDL
MODEL 8
REMARK VINA RESULT:      -4.5     16.491     17.586
REMARK  0 active torsions:
REMARK  status: ('A' for Active; 'I' for Inactive)
ROOT
HETATM    1  C1  UNL     1     -33.906  17.744  -1.453  1.00 20.00    -0.025 C 
HETATM    2  C2  UNL     1     -32.783  17.410  -2.108  1.00 20.00    -0.025 C 
HETATM    3  C3  UNL     1     -36.248  15.341  -3.311  1.00 20.00    -0.024 C 
HETATM    4  C4  UNL     1     -35.768  14.650  -4.349  1.00 20.00    -0.025 C 
HETATM    5  C5  UNL     1     -34.408  17.742  -3.703  1.00 20.00     0.018 C 
HETATM    6  C6  UNL     1     -35.067  17.402  -2.359  1.00 20.00     0.016 C 
HETATM    7  C7  UNL     1     -33.196  16.838  -3.450  1.00 20.00     0.014 C 
HETATM    8  C8  UNL     1     -35.167  15.857  -2.419  1.00 20.00     0.021 C 
HETATM    9  C9  UNL     1     -34.271  14.560  -4.349  1.00 20.00     0.009 C 
HETATM   10  C10 UNL     1     -33.840  15.452  -3.162  1.00 20.00     0.009 C 
HETATM   11  C11 UNL     1     -33.654  14.909  -5.696  1.00 20.00     0.014 C 
ENDROOT
TORSDOF 0
ENDMDL
MODEL 9
REMARK VINA RESULT:      -4.5      1.180      3.746
REMARK  0 active torsions:
REMARK  status: ('A' for Active; 'I' for Inactive)
ROOT
HETATM    1  C1  UNL     1     -21.509  17.342   8.441  1.00 20.00    -0.025 C 
HETATM    2  C2  UNL     1     -22.701  17.491   7.841  1.00 20.00    -0.025 C 
HETATM    3  C3  UNL     1     -22.760  17.753  12.044  1.00 20.00    -0.024 C 
HETATM    4  C4  UNL     1     -24.035  18.093  12.246  1.00 20.00    -0.025 C 
HETATM    5  C5  UNL     1     -22.509  19.199   9.370  1.00 20.00     0.018 C 
HETATM    6  C6  UNL     1     -21.597  18.036   9.781  1.00 20.00     0.016 C 
HETATM    7  C7  UNL     1     -23.586  18.278   8.786  1.00 20.00     0.014 C 
HETATM    8  C8  UNL     1     -22.528  17.185  10.682  1.00 20.00     0.021 C 
HETATM    9  C9  UNL     1     -24.910  17.809  11.062  1.00 20.00     0.009 C 
HETATM   10  C10 UNL     1     -23.925  17.330   9.971  1.00 20.00     0.009 C 
HETATM   11  C11 UNL     1     -25.796  18.986  10.681  1.00 20.00     0.014 C 
ENDROOT
TORSDOF 0
ENDMDL
