MODEL 1
REMARK VINA RESULT:      -6.1      0.000      0.000
REMARK  0 active torsions:
REMARK  status: ('A' for Active; 'I' for Inactive)
ROOT
HETATM    1  C1  UNL     1     -32.853   5.857   2.283  1.00 20.00     0.002 C 
HETATM    2  C2  UNL     1     -33.066   6.895   3.106  1.00 20.00     0.028 C 
HETATM    3  C3  UNL     1     -33.280   4.504   2.601  1.00 20.00    -0.003 C 
HETATM    4  C4  UNL     1     -34.179   4.269   3.572  1.00 20.00    -0.012 C 
HETATM    5  C5  UNL     1     -34.948   5.298   5.785  1.00 20.00     0.007 C 
HETATM    6  C6  UNL     1     -34.313   6.319   6.369  1.00 20.00     0.114 C 
HETATM    7  C7  UNL     1     -33.791   6.556   4.347  1.00 20.00     0.045 C 
HETATM    8  C8  UNL     1     -34.795   5.411   4.309  1.00 20.00     0.084 C 
HETATM    9  N9  UNL     1     -33.608   7.115   5.504  1.00 20.00    -0.265 NA
ENDROOT
TORSDOF 0
ENDMDL
MODEL 2
REMARK VINA RESULT:      -6.0      1.425      3.513
REMARK  0 active torsions:
REMARK  status: ('A' for Active; 'I' for Inactive)
ROOT
HETATM    1  C1  UNL     1     -34.984   5.133   5.817  1.00 20.00     0.002 C 
HETATM    2  C2  UNL     1     -34.995   4.700   4.547  1.00 20.00     0.028 C 
HETATM    3  C3  UNL     1     -34.138   6.227   6.264  1.00 20.00    -0.003 C 
HETATM    4  C4  UNL     1     -33.563   7.066   5.386  1.00 20.00    -0.012 C 
HETATM    5  C5  UNL     1     -32.688   7.044   2.982  1.00 20.00     0.007 C 
HETATM    6  C6  UNL     1     -32.591   5.926   2.256  1.00 20.00     0.114 C 
HETATM    7  C7  UNL     1     -34.098   5.441   3.638  1.00 20.00     0.045 C 
HETATM    8  C8  UNL     1     -33.831   6.912   3.925  1.00 20.00     0.084 C 
HETATM    9  N9  UNL     1     -33.457   4.933   2.630  1.00 20.00    -0.265 NA
ENDROOT
TORSDOF 0
ENDMDL
MODEL 3
REMARK VINA RESULT:      -5.1      1.135      3.002
REMARK  0 active torsions:
REMARK  status: ('A' for Active; 'I' for Inactive)
ROOT
HETATM    1  C1  UNL     1     -34.485   6.214   6.057  1.00 20.00     0.002 C 
HETATM    2  C2  UNL     1     -33.490   6.932   5.514  1.00 20.00     0.028 C 
HETATM    3  C3  UNL     1     -35.199   5.183   5.321  1.00 20.00    -0.003 C 
HETATM    4  C4  UNL     1     -34.705   4.675   4.179  1.00 20.00    -0.012 C 
HETATM    5  C5  UNL     1     -33.231   5.402   2.218  1.00 20.00     0.007 C 
HETATM    6  C6  UNL     1     -32.823   6.664   2.048  1.00 20.00     0.114 C 
HETATM    7  C7  UNL     1     -33.164   6.573   4.120  1.00 20.00     0.045 C 
HETATM    8  C8  UNL     1     -33.377   5.132   3.674  1.00 20.00     0.084 C 
HETATM    9  N9  UNL     1     -32.758   7.398   3.203  1.00 20.00    -0.265 NA
ENDROOT
TORSDOF 0
ENDMDL
MODEL 4
REMARK VINA RESULT:      -4.4     12.010     12.738
REMARK  0 active torsions:
REMARK  status: ('A' for Active; 'I' for Inactive)
ROOT
HETATM    1  C1  UNL     1     -33.007  16.243  -3.041  1.00 20.00     0.002 C 
HETATM    2  C2  UNL     1     -32.959  15.368  -4.057  1.00 20.00     0.028 C 
HETATM    3  C3  UNL     1     -34.247  16.600  -2.373  1.00 20.00    -0.003 C 
HETATM    4  C4  UNL     1     -35.355  15.853  -2.515  1.00 20.00    -0.012 C 
HETATM    5  C5  UNL     1     -36.443  14.322  -4.253  1.00 20.00     0.007 C 
HETATM    6  C6  UNL     1     -35.970  14.185  -5.496  1.00 20.00     0.114 C 
HETATM    7  C7  UNL     1     -34.263  14.781  -4.423  1.00 20.00     0.045 C 
HETATM    8  C8  UNL     1     -35.310  14.604  -3.331  1.00 20.00     0.084 C 
HETATM    9  N9  UNL     1     -34.630  14.446  -5.622  1.00 20.00    -0.265 NA
ENDROOT
TORSDOF 0
ENDMDL
MODEL 5
REMARK VINA RESULT:      -4.4     16.161     16.635
REMARK  0 active torsions:
REMARK  status: ('A' for Active; 'I' for Inactive)
ROOT
HETATM    1  C1  UNL     1     -23.931  18.691   8.156  1.00 20.00     0.002 C 
HETATM    2  C2  UNL     1     -24.871  18.844   9.101  1.00 20.00     0.028 C 
HETATM    3  C3  UNL     1     -22.769  17.838   8.337  1.00 20.00    -0.003 C 
HETATM    4  C4  UNL     1     -22.727  16.918   9.316  1.00 20.00    -0.012 C 
HETATM    5  C5  UNL     1     -23.671  16.552  11.666  1.00 20.00     0.007 C 
HETATM    6  C6  UNL     1     -24.343  17.496  12.332  1.00 20.00     0.114 C 
HETATM    7  C7  UNL     1     -24.641  18.056  10.328  1.00 20.00     0.045 C 
HETATM    8  C8  UNL     1     -23.909  16.725  10.207  1.00 20.00     0.084 C 
HETATM    9  N9  UNL     1     -24.960  18.422  11.532  1.00 20.00    -0.265 NA
ENDROOT
TORSDOF 0
ENDMDL
MODEL 6
REMARK VINA RESULT:      -4.3     16.729     17.185
REMARK  0 active torsions:
REMARK  status: ('A' for Active; 'I' for Inactive)
ROOT
HETATM    1  C1  UNL     1     -22.401  17.762  10.140  1.00 20.00     0.002 C 
HETATM    2  C2  UNL     1     -23.524  18.011   9.450  1.00 20.00     0.028 C 
HETATM    3  C3  UNL     1     -22.346  17.811  11.592  1.00 20.00    -0.003 C 
HETATM    4  C4  UNL     1     -23.469  17.795  12.331  1.00 20.00    -0.012 C 
HETATM    5  C5  UNL     1     -25.913  18.530  12.150  1.00 20.00     0.007 C 
HETATM    6  C6  UNL     1     -26.376  19.263  11.132  1.00 20.00     0.114 C 
HETATM    7  C7  UNL     1     -24.703  18.314  10.284  1.00 20.00     0.045 C 
HETATM    8  C8  UNL     1     -24.798  17.673  11.663  1.00 20.00     0.084 C 
HETATM    9  N9  UNL     1     -25.659  19.135   9.972  1.00 20.00    -0.265 NA
ENDROOT
TORSDOF 0
ENDMDL
MODEL 7
REMARK VINA RESULT:      -4.3     15.856     16.838
REMARK  0 active torsions:
REMARK  status: ('A' for Active; 'I' for Inactive)
ROOT
HETATM    1  C1  UNL     1     -25.348  16.621  11.955  1.00 20.00     0.002 C 
HETATM    2  C2  UNL     1     -24.416  16.108  11.137  1.00 20.00     0.028 C 
HETATM    3  C3  UNL     1     -25.737  18.021  11.919  1.00 20.00    -0.003 C 
HETATM    4  C4  UNL     1     -25.426  18.803  10.871  1.00 20.00    -0.012 C 
HETATM    5  C5  UNL     1     -23.605  19.007   9.084  1.00 20.00     0.007 C 
HETATM    6  C6  UNL     1     -22.490  18.269   9.099  1.00 20.00     0.114 C 
HETATM    7  C7  UNL     1     -23.838  17.075  10.182  1.00 20.00     0.045 C 
HETATM    8  C8  UNL     1     -24.713  18.223   9.695  1.00 20.00     0.084 C 
HETATM    9  N9  UNL     1     -22.613  17.072   9.754  1.00 20.00    -0.265 NA
ENDROOT
TORSDOF 0
ENDMDL
MODEL 8
REMARK VINA RESULT:      -4.3      1.170      2.121
REMARK  0 active torsions:
REMARK  status: ('A' for Active; 'I' for Inactive)
ROOT
HETATM    1  C1  UNL     1     -32.996   5.613   2.002  1.00 20.00     0.002 C 
HETATM    2  C2  UNL     1     -33.547   4.644   2.748  1.00 20.00     0.028 C 
HETATM    3  C3  UNL     1     -32.872   6.985   2.467  1.00 20.00    -0.003 C 
HETATM    4  C4  UNL     1     -33.008   7.293   3.768  1.00 20.00    -0.012 C 
HETATM    5  C5  UNL     1     -34.250   6.442   5.837  1.00 20.00     0.007 C 
HETATM    6  C6  UNL     1     -35.170   5.475   5.783  1.00 20.00     0.114 C 
HETATM    7  C7  UNL     1     -33.994   5.078   4.086  1.00 20.00     0.045 C 
HETATM    8  C8  UNL     1     -33.239   6.211   4.770  1.00 20.00     0.084 C 
HETATM    9  N9  UNL     1     -35.025   4.615   4.726  1.00 20.00    -0.265 NA
ENDROOT
TORSDOF 0
ENDMDL
MODEL 9
REMARK VINA RESULT:      -4.2     15.791     16.409
REMARK  0 active torsions:
REMARK  status: ('A' for Active; 'I' for Inactive)
ROOT
HETATM    1  C1  UNL     1     -23.209  17.795   8.642  1.00 20.00     0.002 C 
HETATM    2  C2  UNL     1     -23.003  16.904   9.624  1.00 20.00     0.028 C 
HETATM    3  C3  UNL     1     -24.332  18.719   8.645  1.00 20.00    -0.003 C 
HETATM    4  C4  UNL     1     -25.038  18.952   9.764  1.00 20.00    -0.012 C 
HETATM    5  C5  UNL     1     -25.713  17.736  11.912  1.00 20.00     0.007 C 
HETATM    6  C6  UNL     1     -25.475  16.436  12.114  1.00 20.00     0.114 C 
HETATM    7  C7  UNL     1     -23.993  16.956  10.717  1.00 20.00     0.045 C 
HETATM    8  C8  UNL     1     -24.641  18.295  11.045  1.00 20.00     0.084 C 
HETATM    9  N9  UNL     1     -24.415  15.938  11.403  1.00 20.00    -0.265 NA
ENDROOT
TORSDOF 0
ENDMDL
