MODEL 1
REMARK VINA RESULT:      -5.4      0.000      0.000
REMARK  1 active torsions:
REMARK  status: ('A' for Active; 'I' for Inactive)
REMARK    1  A    between atoms: C6_6  and  C8_8 
ROOT
HETATM    1  C1  UNL     1     -33.526  17.519  -2.027  1.00 20.00     0.008 C 
HETATM    2  C2  UNL     1     -33.095  17.442  -3.295  1.00 20.00     0.028 C 
HETATM    3  C3  UNL     1     -35.110  15.677  -2.220  1.00 20.00    -0.005 C 
HETATM    4  C4  UNL     1     -34.983  15.651  -5.696  1.00 20.00     0.128 C 
HETATM    5  C5  UNL     1     -34.654  16.738  -1.524  1.00 20.00    -0.065 C 
HETATM    6  C6  UNL     1     -35.272  14.874  -4.650  1.00 20.00     0.011 C 
HETATM    7  C7  UNL     1     -33.840  16.493  -4.143  1.00 20.00     0.046 C 
HETATM    8  C9  UNL     1     -34.435  15.253  -3.484  1.00 20.00     0.098 C 
HETATM    9  C10 UNL     1     -35.250  17.170  -0.219  1.00 20.00     0.048 C 
HETATM   10  N11 UNL     1     -34.086  16.647  -5.409  1.00 20.00    -0.264 NA
ENDROOT
BRANCH   6  11
HETATM   11  C8  UNL     1     -36.203  13.762  -4.698  1.00 20.00     0.268 C 
HETATM   12  O12 UNL     1     -35.876  12.599  -4.454  1.00 20.00    -0.302 OA
ENDBRANCH   6  11
TORSDOF 1
ENDMDL
MODEL 2
REMARK VINA RESULT:      -5.4      1.647      2.013
REMARK  1 active torsions:
REMARK  status: ('A' for Active; 'I' for Inactive)
REMARK    1  A    between atoms: C6_6  and  C8_8 
ROOT
HETATM    1  C1  UNL     1     -32.768  15.763  -3.307  1.00 20.00     0.008 C 
HETATM    2  C2  UNL     1     -32.928  14.958  -4.369  1.00 20.00     0.028 C 
HETATM    3  C3  UNL     1     -35.136  15.855  -2.741  1.00 20.00    -0.005 C 
HETATM    4  C4  UNL     1     -36.138  14.546  -5.804  1.00 20.00     0.128 C 
HETATM    5  C5  UNL     1     -33.891  16.348  -2.579  1.00 20.00    -0.065 C 
HETATM    6  C6  UNL     1     -36.543  14.688  -4.539  1.00 20.00     0.011 C 
HETATM    7  C7  UNL     1     -34.332  14.693  -4.735  1.00 20.00     0.046 C 
HETATM    8  C9  UNL     1     -35.375  14.674  -3.624  1.00 20.00     0.098 C 
HETATM    9  C10 UNL     1     -33.582  17.489  -1.659  1.00 20.00     0.048 C 
HETATM   10  N11 UNL     1     -34.775  14.528  -5.945  1.00 20.00    -0.264 NA
ENDROOT
BRANCH   6  11
HETATM   11  C8  UNL     1     -37.935  14.749  -4.135  1.00 20.00     0.268 C 
HETATM   12  O12 UNL     1     -38.764  13.891  -4.443  1.00 20.00    -0.302 OA
ENDBRANCH   6  11
TORSDOF 1
ENDMDL
MODEL 3
REMARK VINA RESULT:      -5.1      1.415      1.556
REMARK  1 active torsions:
REMARK  status: ('A' for Active; 'I' for Inactive)
REMARK    1  A    between atoms: C6_6  and  C8_8 
ROOT
HETATM    1  C1  UNL     1     -34.327  18.040  -1.683  1.00 20.00     0.008 C 
HETATM    2  C2  UNL     1     -33.282  17.256  -1.991  1.00 20.00     0.028 C 
HETATM    3  C3  UNL     1     -36.004  16.570  -2.664  1.00 20.00    -0.005 C 
HETATM    4  C4  UNL     1     -33.650  14.697  -4.410  1.00 20.00     0.128 C 
HETATM    5  C5  UNL     1     -35.684  17.778  -2.159  1.00 20.00    -0.065 C 
HETATM    6  C6  UNL     1     -34.887  14.629  -3.913  1.00 20.00     0.011 C 
HETATM    7  C7  UNL     1     -33.613  16.095  -2.838  1.00 20.00     0.046 C 
HETATM    8  C9  UNL     1     -34.996  15.468  -2.694  1.00 20.00     0.098 C 
HETATM    9  C10 UNL     1     -36.670  18.900  -2.045  1.00 20.00     0.048 C 
HETATM   10  N11 UNL     1     -32.840  15.584  -3.749  1.00 20.00    -0.264 NA
ENDROOT
BRANCH   6  11
HETATM   11  C8  UNL     1     -35.931  13.775  -4.448  1.00 20.00     0.268 C 
HETATM   12  O12 UNL     1     -35.850  12.545  -4.470  1.00 20.00    -0.302 OA
ENDBRANCH   6  11
TORSDOF 1
ENDMDL
MODEL 4
REMARK VINA RESULT:      -4.8      4.039      5.821
REMARK  1 active torsions:
REMARK  status: ('A' for Active; 'I' for Inactive)
REMARK    1  A    between atoms: C6_6  and  C8_8 
ROOT
HETATM    1  C1  UNL     1     -33.378  17.750  -2.604  1.00 20.00     0.008 C 
HETATM    2  C2  UNL     1     -32.242  18.417  -2.348  1.00 20.00     0.028 C 
HETATM    3  C3  UNL     1     -34.052  17.557  -0.270  1.00 20.00    -0.005 C 
HETATM    4  C4  UNL     1     -30.910  18.439   0.932  1.00 20.00     0.128 C 
HETATM    5  C5  UNL     1     -34.214  17.173  -1.553  1.00 20.00    -0.065 C 
HETATM    6  C6  UNL     1     -32.199  18.412   1.281  1.00 20.00     0.011 C 
HETATM    7  C7  UNL     1     -31.909  18.540  -0.916  1.00 20.00     0.046 C 
HETATM    8  C9  UNL     1     -33.056  18.611   0.086  1.00 20.00     0.098 C 
HETATM    9  C10 UNL     1     -35.240  16.168  -1.978  1.00 20.00     0.048 C 
HETATM   10  N11 UNL     1     -30.709  18.536  -0.420  1.00 20.00    -0.264 NA
ENDROOT
BRANCH   6  11
HETATM   11  C8  UNL     1     -32.667  18.301   2.649  1.00 20.00     0.268 C 
HETATM   12  O12 UNL     1     -32.502  17.291   3.338  1.00 20.00    -0.302 OA
ENDBRANCH   6  11
TORSDOF 1
ENDMDL
MODEL 5
REMARK VINA RESULT:      -4.7      3.477      5.224
REMARK  1 active torsions:
REMARK  status: ('A' for Active; 'I' for Inactive)
REMARK    1  A    between atoms: C6_6  and  C8_8 
ROOT
HETATM    1  C1  UNL     1     -33.079  16.961  -2.659  1.00 20.00     0.008 C 
HETATM    2  C2  UNL     1     -32.533  17.854  -1.819  1.00 20.00     0.028 C 
HETATM    3  C3  UNL     1     -35.138  16.686  -1.384  1.00 20.00    -0.005 C 
HETATM    4  C4  UNL     1     -33.837  18.225   1.452  1.00 20.00     0.128 C 
HETATM    5  C5  UNL     1     -34.321  16.249  -2.364  1.00 20.00    -0.065 C 
HETATM    6  C6  UNL     1     -34.994  17.941   0.848  1.00 20.00     0.011 C 
HETATM    7  C7  UNL     1     -33.295  18.075  -0.575  1.00 20.00     0.046 C 
HETATM    8  C9  UNL     1     -34.813  17.931  -0.625  1.00 20.00     0.098 C 
HETATM    9  C10 UNL     1     -34.627  15.044  -3.200  1.00 20.00     0.048 C 
HETATM   10  N11 UNL     1     -32.778  18.330   0.588  1.00 20.00    -0.264 NA
ENDROOT
BRANCH   6  11
HETATM   11  C8  UNL     1     -36.253  17.766   1.547  1.00 20.00     0.268 C 
HETATM   12  O12 UNL     1     -36.423  18.097   2.722  1.00 20.00    -0.302 OA
ENDBRANCH   6  11
TORSDOF 1
ENDMDL
MODEL 6
REMARK VINA RESULT:      -4.5      2.093      3.166
REMARK  1 active torsions:
REMARK  status: ('A' for Active; 'I' for Inactive)
REMARK    1  A    between atoms: C6_6  and  C8_8 
ROOT
HETATM    1  C1  UNL     1     -33.523  18.833  -0.283  1.00 20.00     0.008 C 
HETATM    2  C2  UNL     1     -34.723  18.387  -0.685  1.00 20.00     0.028 C 
HETATM    3  C3  UNL     1     -32.248  17.512  -1.885  1.00 20.00    -0.005 C 
HETATM    4  C4  UNL     1     -34.945  15.457  -2.660  1.00 20.00     0.128 C 
HETATM    5  C5  UNL     1     -32.264  18.277  -0.775  1.00 20.00    -0.065 C 
HETATM    6  C6  UNL     1     -33.784  15.896  -3.151  1.00 20.00     0.011 C 
HETATM    7  C7  UNL     1     -34.674  17.298  -1.678  1.00 20.00     0.046 C 
HETATM    8  C9  UNL     1     -33.504  17.266  -2.655  1.00 20.00     0.098 C 
HETATM    9  C10 UNL     1     -31.027  18.609   0.002  1.00 20.00     0.048 C 
HETATM   10  N11 UNL     1     -35.522  16.317  -1.761  1.00 20.00    -0.264 NA
ENDROOT
BRANCH   6  11
HETATM   11  C8  UNL     1     -32.978  15.161  -4.107  1.00 20.00     0.268 C 
HETATM   12  O12 UNL     1     -33.257  14.023  -4.491  1.00 20.00    -0.302 OA
ENDBRANCH   6  11
TORSDOF 1
ENDMDL
MODEL 7
REMARK VINA RESULT:      -4.4      2.866      4.816
REMARK  1 active torsions:
REMARK  status: ('A' for Active; 'I' for Inactive)
REMARK    1  A    between atoms: C6_6  and  C8_8 
ROOT
HETATM    1  C1  UNL     1     -35.182  15.129  -4.338  1.00 20.00     0.008 C 
HETATM    2  C2  UNL     1     -35.397  15.037  -3.017  1.00 20.00     0.028 C 
HETATM    3  C3  UNL     1     -33.485  16.870  -4.165  1.00 20.00    -0.005 C 
HETATM    4  C4  UNL     1     -34.284  17.618  -0.864  1.00 20.00     0.128 C 
HETATM    5  C5  UNL     1     -34.337  16.161  -4.935  1.00 20.00    -0.065 C 
HETATM    6  C6  UNL     1     -33.289  17.705  -1.749  1.00 20.00     0.011 C 
HETATM    7  C7  UNL     1     -34.698  16.052  -2.207  1.00 20.00     0.046 C 
HETATM    8  C9  UNL     1     -33.355  16.573  -2.707  1.00 20.00     0.098 C 
HETATM    9  C10 UNL     1     -34.463  16.370  -6.413  1.00 20.00     0.048 C 
HETATM   10  N11 UNL     1     -35.157  16.592  -1.118  1.00 20.00    -0.264 NA
ENDROOT
BRANCH   6  11
HETATM   11  C8  UNL     1     -32.248  18.714  -1.703  1.00 20.00     0.268 C 
HETATM   12  O12 UNL     1     -31.193  18.567  -1.081  1.00 20.00    -0.302 OA
ENDBRANCH   6  11
TORSDOF 1
ENDMDL
MODEL 8
REMARK VINA RESULT:      -4.4      1.673      1.833
REMARK  1 active torsions:
REMARK  status: ('A' for Active; 'I' for Inactive)
REMARK    1  A    between atoms: C6_6  and  C8_8 
ROOT
HETATM    1  C1  UNL     1     -35.863  18.365  -1.872  1.00 20.00     0.008 C 
HETATM    2  C2  UNL     1     -36.260  18.369  -3.154  1.00 20.00     0.028 C 
HETATM    3  C3  UNL     1     -35.070  16.061  -1.892  1.00 20.00    -0.005 C 
HETATM    4  C4  UNL     1     -36.687  15.306  -4.878  1.00 20.00     0.128 C 
HETATM    5  C5  UNL     1     -35.411  17.157  -1.185  1.00 20.00    -0.065 C 
HETATM    6  C6  UNL     1     -35.668  14.918  -4.109  1.00 20.00     0.011 C 
HETATM    7  C7  UNL     1     -36.187  17.058  -3.825  1.00 20.00     0.046 C 
HETATM    8  C9  UNL     1     -35.100  16.083  -3.386  1.00 20.00     0.098 C 
HETATM    9  C10 UNL     1     -35.340  17.215   0.311  1.00 20.00     0.048 C 
HETATM   10  N11 UNL     1     -37.013  16.630  -4.732  1.00 20.00    -0.264 NA
ENDROOT
BRANCH   6  11
HETATM   11  C8  UNL     1     -35.147  13.565  -4.074  1.00 20.00     0.268 C 
HETATM   12  O12 UNL     1     -35.768  12.592  -4.507  1.00 20.00    -0.302 OA
ENDBRANCH   6  11
TORSDOF 1
ENDMDL
MODEL 9
REMARK VINA RESULT:      -4.2      2.488      3.392
REMARK  1 active torsions:
REMARK  status: ('A' for Active; 'I' for Inactive)
REMARK    1  A    between atoms: C6_6  and  C8_8 
ROOT
HETATM    1  C1  UNL     1     -34.452  15.613  -2.697  1.00 20.00     0.008 C 
HETATM    2  C2  UNL     1     -35.010  14.780  -3.589  1.00 20.00     0.028 C 
HETATM    3  C3  UNL     1     -33.937  17.359  -4.318  1.00 20.00    -0.005 C 
HETATM    4  C4  UNL     1     -34.453  15.270  -7.051  1.00 20.00     0.128 C 
HETATM    5  C5  UNL     1     -33.766  16.845  -3.083  1.00 20.00    -0.065 C 
HETATM    6  C6  UNL     1     -34.442  16.558  -6.701  1.00 20.00     0.011 C 
HETATM    7  C7  UNL     1     -34.892  15.213  -4.994  1.00 20.00     0.046 C 
HETATM    8  C9  UNL     1     -34.869  16.709  -5.287  1.00 20.00     0.098 C 
HETATM    9  C10 UNL     1     -32.895  17.488  -2.047  1.00 20.00     0.048 C 
HETATM   10  N11 UNL     1     -34.747  14.422  -6.015  1.00 20.00    -0.264 NA
ENDROOT
BRANCH   6  11
HETATM   11  C8  UNL     1     -34.144  17.645  -7.615  1.00 20.00     0.268 C 
HETATM   12  O12 UNL     1     -34.684  18.751  -7.545  1.00 20.00    -0.302 OA
ENDBRANCH   6  11
TORSDOF 1
ENDMDL
