MODEL 1
REMARK VINA RESULT:      -3.6      0.000      0.000
REMARK  0 active torsions:
REMARK  status: ('A' for Active; 'I' for Inactive)
ROOT
HETATM    1  C1  UNL     1     -33.906   5.178   3.409  1.00 20.00     0.031 C 
HETATM    2  C2  UNL     1     -35.012   4.751   4.361  1.00 20.00     0.075 C 
HETATM    3  C3  UNL     1     -33.461   6.789   5.184  1.00 20.00     0.094 C 
HETATM    4  C4  UNL     1     -33.662   6.655   3.682  1.00 20.00     0.092 C 
HETATM    5  S5  UNL     1     -34.670   5.642   5.907  1.00 20.00    -0.168 SA
HETATM    6 CL6  UNL     1     -32.243   7.249   2.792  1.00 20.00    -0.124 Cl
ENDROOT
TORSDOF 0
ENDMDL
MODEL 2
REMARK VINA RESULT:      -3.3      2.615      3.187
REMARK  0 active torsions:
REMARK  status: ('A' for Active; 'I' for Inactive)
ROOT
HETATM    1  C1  UNL     1     -33.393   6.690   4.352  1.00 20.00     0.031 C 
HETATM    2  C2  UNL     1     -32.986   6.662   2.888  1.00 20.00     0.075 C 
HETATM    3  C3  UNL     1     -34.209   4.454   3.819  1.00 20.00     0.094 C 
HETATM    4  C4  UNL     1     -34.601   5.772   4.471  1.00 20.00     0.092 C 
HETATM    5  S5  UNL     1     -33.237   4.941   2.364  1.00 20.00    -0.168 SA
HETATM    6 CL6  UNL     1     -35.064   5.532   6.170  1.00 20.00    -0.124 Cl
ENDROOT
TORSDOF 0
ENDMDL
MODEL 3
REMARK VINA RESULT:      -3.1      8.988      9.256
REMARK  0 active torsions:
REMARK  status: ('A' for Active; 'I' for Inactive)
ROOT
HETATM    1  C1  UNL     1     -42.518   7.015   0.924  1.00 20.00     0.031 C 
HETATM    2  C2  UNL     1     -42.321   5.532   0.655  1.00 20.00     0.075 C 
HETATM    3  C3  UNL     1     -41.184   7.217  -1.107  1.00 20.00     0.094 C 
HETATM    4  C4  UNL     1     -41.308   7.716   0.324  1.00 20.00     0.092 C 
HETATM    5  S5  UNL     1     -41.591   5.449  -1.006  1.00 20.00    -0.168 SA
HETATM    6 CL6  UNL     1     -41.499   9.483   0.370  1.00 20.00    -0.124 Cl
ENDROOT
TORSDOF 0
ENDMDL
MODEL 4
REMARK VINA RESULT:      -3.0      0.890      1.828
REMARK  0 active torsions:
REMARK  status: ('A' for Active; 'I' for Inactive)
ROOT
HETATM    1  C1  UNL     1     -33.559   7.255   4.783  1.00 20.00     0.031 C 
HETATM    2  C2  UNL     1     -34.114   6.353   5.874  1.00 20.00     0.075 C 
HETATM    3  C3  UNL     1     -34.201   5.373   3.370  1.00 20.00     0.094 C 
HETATM    4  C4  UNL     1     -33.059   6.327   3.685  1.00 20.00     0.092 C 
HETATM    5  S5  UNL     1     -34.933   4.995   4.989  1.00 20.00    -0.168 SA
HETATM    6 CL6  UNL     1     -32.574   7.242   2.241  1.00 20.00    -0.124 Cl
ENDROOT
TORSDOF 0
ENDMDL
MODEL 5
REMARK VINA RESULT:      -2.9      2.614      2.798
REMARK  0 active torsions:
REMARK  status: ('A' for Active; 'I' for Inactive)
ROOT
HETATM    1  C1  UNL     1     -34.364   4.749   3.636  1.00 20.00     0.031 C 
HETATM    2  C2  UNL     1     -33.325   4.984   2.551  1.00 20.00     0.075 C 
HETATM    3  C3  UNL     1     -33.591   6.938   4.381  1.00 20.00     0.094 C 
HETATM    4  C4  UNL     1     -33.883   5.523   4.855  1.00 20.00     0.092 C 
HETATM    5  S5  UNL     1     -32.827   6.720   2.747  1.00 20.00    -0.168 SA
HETATM    6 CL6  UNL     1     -35.107   5.521   6.144  1.00 20.00    -0.124 Cl
ENDROOT
TORSDOF 0
ENDMDL
MODEL 6
REMARK VINA RESULT:      -2.9      9.252      9.584
REMARK  0 active torsions:
REMARK  status: ('A' for Active; 'I' for Inactive)
ROOT
HETATM    1  C1  UNL     1     -41.206   7.044   0.531  1.00 20.00     0.031 C 
HETATM    2  C2  UNL     1     -41.517   5.760  -0.221  1.00 20.00     0.075 C 
HETATM    3  C3  UNL     1     -42.791   7.970  -1.075  1.00 20.00     0.094 C 
HETATM    4  C4  UNL     1     -41.412   8.176  -0.466  1.00 20.00     0.092 C 
HETATM    5  S5  UNL     1     -42.926   6.171  -1.290  1.00 20.00    -0.168 SA
HETATM    6 CL6  UNL     1     -41.294   9.762   0.328  1.00 20.00    -0.124 Cl
ENDROOT
TORSDOF 0
ENDMDL
MODEL 7
REMARK VINA RESULT:      -2.9     15.960     16.375
REMARK  0 active torsions:
REMARK  status: ('A' for Active; 'I' for Inactive)
ROOT
HETATM    1  C1  UNL     1     -25.295  18.458  11.130  1.00 20.00     0.031 C 
HETATM    2  C2  UNL     1     -25.384  17.485  12.295  1.00 20.00     0.075 C 
HETATM    3  C3  UNL     1     -23.865  16.707  10.216  1.00 20.00     0.094 C 
HETATM    4  C4  UNL     1     -23.946  18.204  10.473  1.00 20.00     0.092 C 
HETATM    5  S5  UNL     1     -24.619  15.954  11.687  1.00 20.00    -0.168 SA
HETATM    6 CL6  UNL     1     -23.784  19.122   8.959  1.00 20.00    -0.124 Cl
ENDROOT
TORSDOF 0
ENDMDL
MODEL 8
REMARK VINA RESULT:      -2.8     16.277     16.929
REMARK  0 active torsions:
REMARK  status: ('A' for Active; 'I' for Inactive)
ROOT
HETATM    1  C1  UNL     1     -22.206  17.758  10.885  1.00 20.00     0.031 C 
HETATM    2  C2  UNL     1     -23.081  17.674  12.126  1.00 20.00     0.075 C 
HETATM    3  C3  UNL     1     -24.374  17.798   9.770  1.00 20.00     0.094 C 
HETATM    4  C4  UNL     1     -23.010  17.125   9.759  1.00 20.00     0.092 C 
HETATM    5  S5  UNL     1     -24.767  17.995  11.532  1.00 20.00    -0.168 SA
HETATM    6 CL6  UNL     1     -22.203  17.341   8.190  1.00 20.00    -0.124 Cl
ENDROOT
TORSDOF 0
ENDMDL
MODEL 9
REMARK VINA RESULT:      -2.8      9.254      9.657
REMARK  0 active torsions:
REMARK  status: ('A' for Active; 'I' for Inactive)
ROOT
HETATM    1  C1  UNL     1     -41.174   7.861  -0.856  1.00 20.00     0.031 C 
HETATM    2  C2  UNL     1     -41.867   8.913  -0.005  1.00 20.00     0.075 C 
HETATM    3  C3  UNL     1     -42.944   6.449   0.049  1.00 20.00     0.094 C 
HETATM    4  C4  UNL     1     -41.442   6.526  -0.175  1.00 20.00     0.092 C 
HETATM    5  S5  UNL     1     -43.417   8.134   0.534  1.00 20.00    -0.168 SA
HETATM    6 CL6  UNL     1     -40.874   5.169  -1.173  1.00 20.00    -0.124 Cl
ENDROOT
TORSDOF 0
ENDMDL
