MODEL 1
REMARK VINA RESULT:      -5.7      0.000      0.000
REMARK  0 active torsions:
REMARK  status: ('A' for Active; 'I' for Inactive)
ROOT
HETATM    1  C1  UNL     1     -34.593   5.974   6.027  1.00 20.00     0.002 C 
HETATM    2  C2  UNL     1     -33.601   6.798   5.652  1.00 20.00     0.028 C 
HETATM    3  C3  UNL     1     -35.224   5.041   5.109  1.00 20.00    -0.003 C 
HETATM    4  C4  UNL     1     -34.653   4.724   3.935  1.00 20.00    -0.012 C 
HETATM    5  C5  UNL     1     -33.111   5.778   2.186  1.00 20.00     0.032 C 
HETATM    6  C6  UNL     1     -32.746   7.064   2.228  1.00 20.00     0.123 C 
HETATM    7  C7  UNL     1     -33.189   6.660   4.241  1.00 20.00     0.047 C 
HETATM    8  C8  UNL     1     -33.320   5.294   3.578  1.00 20.00     0.086 C 
HETATM    9  N9  UNL     1     -32.770   7.623   3.478  1.00 20.00    -0.241 NA
HETATM   10 CL10 UNL     1     -32.346   7.995   0.856  1.00 20.00    -0.063 Cl
ENDROOT
TORSDOF 0
ENDMDL
MODEL 2
REMARK VINA RESULT:      -4.9      1.991      2.627
REMARK  0 active torsions:
REMARK  status: ('A' for Active; 'I' for Inactive)
ROOT
HETATM    1  C1  UNL     1     -34.685   6.043   6.446  1.00 20.00     0.002 C 
HETATM    2  C2  UNL     1     -35.121   5.101   5.593  1.00 20.00     0.028 C 
HETATM    3  C3  UNL     1     -33.640   6.991   6.098  1.00 20.00    -0.003 C 
HETATM    4  C4  UNL     1     -33.276   7.188   4.819  1.00 20.00    -0.012 C 
HETATM    5  C5  UNL     1     -33.171   5.892   2.616  1.00 20.00     0.032 C 
HETATM    6  C6  UNL     1     -33.411   4.578   2.539  1.00 20.00     0.123 C 
HETATM    7  C7  UNL     1     -34.471   5.125   4.268  1.00 20.00     0.047 C 
HETATM    8  C8  UNL     1     -33.985   6.463   3.724  1.00 20.00     0.086 C 
HETATM    9  N9  UNL     1     -34.218   4.087   3.532  1.00 20.00    -0.241 NA
HETATM   10 CL10 UNL     1     -32.732   3.543   1.366  1.00 20.00    -0.063 Cl
ENDROOT
TORSDOF 0
ENDMDL
MODEL 3
REMARK VINA RESULT:      -4.5     11.677     12.294
REMARK  0 active torsions:
REMARK  status: ('A' for Active; 'I' for Inactive)
ROOT
HETATM    1  C1  UNL     1     -36.281  14.225  -5.305  1.00 20.00     0.002 C 
HETATM    2  C2  UNL     1     -36.306  14.378  -3.971  1.00 20.00     0.028 C 
HETATM    3  C3  UNL     1     -35.191  14.719  -6.128  1.00 20.00    -0.003 C 
HETATM    4  C4  UNL     1     -34.012  15.070  -5.587  1.00 20.00    -0.012 C 
HETATM    5  C5  UNL     1     -33.092  15.997  -3.387  1.00 20.00     0.032 C 
HETATM    6  C6  UNL     1     -33.884  16.422  -2.396  1.00 20.00     0.123 C 
HETATM    7  C7  UNL     1     -35.126  15.065  -3.409  1.00 20.00     0.047 C 
HETATM    8  C8  UNL     1     -33.788  14.905  -4.120  1.00 20.00     0.086 C 
HETATM    9  N9  UNL     1     -35.131  15.854  -2.379  1.00 20.00    -0.241 NA
HETATM   10 CL10 UNL     1     -33.451  17.625  -1.267  1.00 20.00    -0.063 Cl
ENDROOT
TORSDOF 0
ENDMDL
MODEL 4
REMARK VINA RESULT:      -4.5     11.605     12.288
REMARK  0 active torsions:
REMARK  status: ('A' for Active; 'I' for Inactive)
ROOT
HETATM    1  C1  UNL     1     -33.806  18.364   0.277  1.00 20.00     0.002 C 
HETATM    2  C2  UNL     1     -34.833  17.738  -0.320  1.00 20.00     0.028 C 
HETATM    3  C3  UNL     1     -32.453  18.329  -0.252  1.00 20.00    -0.003 C 
HETATM    4  C4  UNL     1     -32.209  17.943  -1.516  1.00 20.00    -0.012 C 
HETATM    5  C5  UNL     1     -33.204  16.395  -3.293  1.00 20.00     0.032 C 
HETATM    6  C6  UNL     1     -34.211  15.553  -3.034  1.00 20.00     0.123 C 
HETATM    7  C7  UNL     1     -34.480  17.033  -1.569  1.00 20.00     0.047 C 
HETATM    8  C8  UNL     1     -33.344  17.591  -2.419  1.00 20.00     0.086 C 
HETATM    9  N9  UNL     1     -35.017  15.931  -1.992  1.00 20.00    -0.241 NA
HETATM   10 CL10 UNL     1     -34.470  14.082  -3.856  1.00 20.00    -0.063 Cl
ENDROOT
TORSDOF 0
ENDMDL
MODEL 5
REMARK VINA RESULT:      -4.4      9.813     10.370
REMARK  0 active torsions:
REMARK  status: ('A' for Active; 'I' for Inactive)
ROOT
HETATM    1  C1  UNL     1     -42.512   8.768  -0.011  1.00 20.00     0.002 C 
HETATM    2  C2  UNL     1     -43.106   8.233  -1.089  1.00 20.00     0.028 C 
HETATM    3  C3  UNL     1     -41.535   8.045   0.785  1.00 20.00    -0.003 C 
HETATM    4  C4  UNL     1     -40.940   6.935   0.317  1.00 20.00    -0.012 C 
HETATM    5  C5  UNL     1     -41.439   4.996  -1.275  1.00 20.00     0.032 C 
HETATM    6  C6  UNL     1     -42.646   4.800  -1.818  1.00 20.00     0.123 C 
HETATM    7  C7  UNL     1     -42.667   6.861  -1.414  1.00 20.00     0.047 C 
HETATM    8  C8  UNL     1     -41.240   6.455  -1.064  1.00 20.00     0.086 C 
HETATM    9  N9  UNL     1     -43.412   5.931  -1.928  1.00 20.00    -0.241 NA
HETATM   10 CL10 UNL     1     -43.257   3.277  -2.281  1.00 20.00    -0.063 Cl
ENDROOT
TORSDOF 0
ENDMDL
MODEL 6
REMARK VINA RESULT:      -4.4     16.494     17.080
REMARK  0 active torsions:
REMARK  status: ('A' for Active; 'I' for Inactive)
ROOT
HETATM    1  C1  UNL     1     -21.321  17.482   9.004  1.00 20.00     0.002 C 
HETATM    2  C2  UNL     1     -21.688  17.776  10.262  1.00 20.00     0.028 C 
HETATM    3  C3  UNL     1     -22.234  17.583   7.878  1.00 20.00    -0.003 C 
HETATM    4  C4  UNL     1     -23.385  18.269   7.974  1.00 20.00    -0.012 C 
HETATM    5  C5  UNL     1     -25.116  18.905   9.748  1.00 20.00     0.032 C 
HETATM    6  C6  UNL     1     -25.093  18.408  10.989  1.00 20.00     0.123 C 
HETATM    7  C7  UNL     1     -23.084  18.235  10.402  1.00 20.00     0.047 C 
HETATM    8  C8  UNL     1     -23.720  18.988   9.239  1.00 20.00     0.086 C 
HETATM    9  N9  UNL     1     -23.856  18.005  11.420  1.00 20.00    -0.241 NA
HETATM   10 CL10 UNL     1     -26.474  18.203  11.969  1.00 20.00    -0.063 Cl
ENDROOT
TORSDOF 0
ENDMDL
MODEL 7
REMARK VINA RESULT:      -4.4     15.473     16.126
REMARK  0 active torsions:
REMARK  status: ('A' for Active; 'I' for Inactive)
ROOT
HETATM    1  C1  UNL     1     -25.127  16.758  12.323  1.00 20.00     0.002 C 
HETATM    2  C2  UNL     1     -24.589  15.964  11.383  1.00 20.00     0.028 C 
HETATM    3  C3  UNL     1     -25.175  18.205  12.193  1.00 20.00    -0.003 C 
HETATM    4  C4  UNL     1     -24.977  18.804  11.007  1.00 20.00    -0.012 C 
HETATM    5  C5  UNL     1     -23.698  18.406   8.827  1.00 20.00     0.032 C 
HETATM    6  C6  UNL     1     -22.824  17.405   8.676  1.00 20.00     0.123 C 
HETATM    7  C7  UNL     1     -24.075  16.678  10.198  1.00 20.00     0.047 C 
HETATM    8  C8  UNL     1     -24.755  17.978   9.783  1.00 20.00     0.086 C 
HETATM    9  N9  UNL     1     -23.043  16.328   9.494  1.00 20.00    -0.241 NA
HETATM   10 CL10 UNL     1     -21.486  17.448   7.620  1.00 20.00    -0.063 Cl
ENDROOT
TORSDOF 0
ENDMDL
MODEL 8
REMARK VINA RESULT:      -4.4     11.726     12.415
REMARK  0 active torsions:
REMARK  status: ('A' for Active; 'I' for Inactive)
ROOT
HETATM    1  C1  UNL     1     -33.142  16.427  -3.364  1.00 20.00     0.002 C 
HETATM    2  C2  UNL     1     -32.854  17.483  -2.586  1.00 20.00     0.028 C 
HETATM    3  C3  UNL     1     -34.221  15.502  -3.060  1.00 20.00    -0.003 C 
HETATM    4  C4  UNL     1     -35.182  15.819  -2.177  1.00 20.00    -0.012 C 
HETATM    5  C5  UNL     1     -35.482  17.240  -0.070  1.00 20.00     0.032 C 
HETATM    6  C6  UNL     1     -34.458  17.836   0.549  1.00 20.00     0.123 C 
HETATM    7  C7  UNL     1     -33.739  17.641  -1.415  1.00 20.00     0.047 C 
HETATM    8  C8  UNL     1     -35.181  17.162  -1.526  1.00 20.00     0.086 C 
HETATM    9  N9  UNL     1     -33.383  18.107  -0.257  1.00 20.00    -0.241 NA
HETATM   10 CL10 UNL     1     -34.414  18.185   2.218  1.00 20.00    -0.063 Cl
ENDROOT
TORSDOF 0
ENDMDL
MODEL 9
REMARK VINA RESULT:      -4.4     11.916     12.780
REMARK  0 active torsions:
REMARK  status: ('A' for Active; 'I' for Inactive)
ROOT
HETATM    1  C1  UNL     1     -34.080  16.306  -2.980  1.00 20.00     0.002 C 
HETATM    2  C2  UNL     1     -32.987  17.085  -3.015  1.00 20.00     0.028 C 
HETATM    3  C3  UNL     1     -34.922  16.192  -1.801  1.00 20.00    -0.003 C 
HETATM    4  C4  UNL     1     -34.842  17.083  -0.799  1.00 20.00    -0.012 C 
HETATM    5  C5  UNL     1     -33.112  18.625   0.287  1.00 20.00     0.032 C 
HETATM    6  C6  UNL     1     -31.815  18.595  -0.037  1.00 20.00     0.123 C 
HETATM    7  C7  UNL     1     -32.725  17.832  -1.769  1.00 20.00     0.047 C 
HETATM    8  C8  UNL     1     -33.913  18.246  -0.910  1.00 20.00     0.086 C 
HETATM    9  N9  UNL     1     -31.552  18.127  -1.298  1.00 20.00    -0.241 NA
HETATM   10 CL10 UNL     1     -30.549  19.021   1.024  1.00 20.00    -0.063 Cl
ENDROOT
TORSDOF 0
ENDMDL
