MODEL 1
REMARK VINA RESULT:      -4.7      0.000      0.000
REMARK  0 active torsions:
REMARK  status: ('A' for Active; 'I' for Inactive)
ROOT
HETATM    1  C1  UNL     1     -22.366  18.073   9.004  1.00 20.00     0.032 C 
HETATM    2  C2  UNL     1     -22.605  17.441  10.158  1.00 20.00     0.028 C 
HETATM    3  C3  UNL     1     -25.688  19.263   8.162  1.00 20.00     0.026 C 
HETATM    4  C4  UNL     1     -25.066  19.140   6.985  1.00 20.00     0.115 C 
HETATM    5  C5  UNL     1     -23.564  18.614   8.355  1.00 20.00     0.062 C 
HETATM    6  C6  UNL     1     -24.027  17.252  10.584  1.00 20.00     0.026 C 
HETATM    7  C7  UNL     1     -24.706  19.027   9.251  1.00 20.00     0.184 C 
HETATM    8  C8  UNL     1     -24.277  16.151  11.582  1.00 20.00     0.070 C 
HETATM    9  N9  UNL     1     -23.755  18.755   7.081  1.00 20.00    -0.263 NA
HETATM   10  N10 UNL     1     -25.040  17.935  10.153  1.00 20.00    -0.279 NA
ENDROOT
TORSDOF 0
ENDMDL
MODEL 2
REMARK VINA RESULT:      -4.6     16.637     18.412
REMARK  0 active torsions:
REMARK  status: ('A' for Active; 'I' for Inactive)
ROOT
HETATM    1  C1  UNL     1     -35.804  13.712  -4.338  1.00 20.00     0.032 C 
HETATM    2  C2  UNL     1     -34.791  14.406  -3.809  1.00 20.00     0.028 C 
HETATM    3  C3  UNL     1     -38.432  16.214  -4.345  1.00 20.00     0.026 C 
HETATM    4  C4  UNL     1     -39.078  15.046  -4.274  1.00 20.00     0.115 C 
HETATM    5  C5  UNL     1     -37.069  14.450  -4.403  1.00 20.00     0.062 C 
HETATM    6  C6  UNL     1     -35.074  15.765  -3.250  1.00 20.00     0.026 C 
HETATM    7  C7  UNL     1     -36.985  15.949  -4.555  1.00 20.00     0.184 C 
HETATM    8  C8  UNL     1     -34.072  16.293  -2.256  1.00 20.00     0.070 C 
HETATM    9  N9  UNL     1     -38.261  13.947  -4.322  1.00 20.00    -0.263 NA
HETATM   10  N10 UNL     1     -36.105  16.496  -3.533  1.00 20.00    -0.279 NA
ENDROOT
TORSDOF 0
ENDMDL
MODEL 3
REMARK VINA RESULT:      -4.5      1.945      2.939
REMARK  0 active torsions:
REMARK  status: ('A' for Active; 'I' for Inactive)
ROOT
HETATM    1  C1  UNL     1     -24.305  15.831  11.372  1.00 20.00     0.032 C 
HETATM    2  C2  UNL     1     -25.294  16.408  12.062  1.00 20.00     0.028 C 
HETATM    3  C3  UNL     1     -23.099  18.634   9.408  1.00 20.00     0.026 C 
HETATM    4  C4  UNL     1     -22.793  17.556   8.680  1.00 20.00     0.115 C 
HETATM    5  C5  UNL     1     -23.651  16.716  10.402  1.00 20.00     0.062 C 
HETATM    6  C6  UNL     1     -25.694  17.804  11.699  1.00 20.00     0.026 C 
HETATM    7  C7  UNL     1     -23.623  18.190  10.726  1.00 20.00     0.184 C 
HETATM    8  C8  UNL     1     -27.075  18.229  12.129  1.00 20.00     0.070 C 
HETATM    9  N9  UNL     1     -23.110  16.365   9.278  1.00 20.00    -0.263 NA
HETATM   10  N10 UNL     1     -24.968  18.649  11.039  1.00 20.00    -0.279 NA
ENDROOT
TORSDOF 0
ENDMDL
MODEL 4
REMARK VINA RESULT:      -4.4     15.069     16.874
REMARK  0 active torsions:
REMARK  status: ('A' for Active; 'I' for Inactive)
ROOT
HETATM    1  C1  UNL     1     -33.272  15.470  -3.745  1.00 20.00     0.032 C 
HETATM    2  C2  UNL     1     -33.329  16.423  -2.808  1.00 20.00     0.028 C 
HETATM    3  C3  UNL     1     -36.788  14.665  -4.134  1.00 20.00     0.026 C 
HETATM    4  C4  UNL     1     -36.146  13.545  -4.481  1.00 20.00     0.115 C 
HETATM    5  C5  UNL     1     -34.569  14.871  -4.073  1.00 20.00     0.062 C 
HETATM    6  C6  UNL     1     -34.641  16.679  -2.133  1.00 20.00     0.026 C 
HETATM    7  C7  UNL     1     -35.790  15.744  -3.920  1.00 20.00     0.184 C 
HETATM    8  C8  UNL     1     -34.572  17.371  -0.796  1.00 20.00     0.070 C 
HETATM    9  N9  UNL     1     -34.780  13.653  -4.465  1.00 20.00    -0.263 NA
HETATM   10  N10 UNL     1     -35.803  16.339  -2.592  1.00 20.00    -0.279 NA
ENDROOT
TORSDOF 0
ENDMDL
MODEL 5
REMARK VINA RESULT:      -4.3      1.509      3.782
REMARK  0 active torsions:
REMARK  status: ('A' for Active; 'I' for Inactive)
ROOT
HETATM    1  C1  UNL     1     -24.670  18.795   9.166  1.00 20.00     0.032 C 
HETATM    2  C2  UNL     1     -23.685  18.664   8.271  1.00 20.00     0.028 C 
HETATM    3  C3  UNL     1     -23.198  17.185  12.065  1.00 20.00     0.026 C 
HETATM    4  C4  UNL     1     -24.516  17.037  12.231  1.00 20.00     0.115 C 
HETATM    5  C5  UNL     1     -24.400  18.156  10.457  1.00 20.00     0.062 C 
HETATM    6  C6  UNL     1     -22.510  17.808   8.628  1.00 20.00     0.026 C 
HETATM    7  C7  UNL     1     -22.957  18.064  10.891  1.00 20.00     0.184 C 
HETATM    8  C8  UNL     1     -21.692  17.293   7.471  1.00 20.00     0.070 C 
HETATM    9  N9  UNL     1     -25.275  17.639  11.262  1.00 20.00    -0.263 NA
HETATM   10  N10 UNL     1     -22.163  17.466   9.828  1.00 20.00    -0.279 NA
ENDROOT
TORSDOF 0
ENDMDL
MODEL 6
REMARK VINA RESULT:      -4.2     16.146     17.867
REMARK  0 active torsions:
REMARK  status: ('A' for Active; 'I' for Inactive)
ROOT
HETATM    1  C1  UNL     1     -36.129  13.638  -4.496  1.00 20.00     0.032 C 
HETATM    2  C2  UNL     1     -37.224  14.389  -4.348  1.00 20.00     0.028 C 
HETATM    3  C3  UNL     1     -33.576  15.865  -3.197  1.00 20.00     0.026 C 
HETATM    4  C4  UNL     1     -32.929  15.080  -4.064  1.00 20.00     0.115 C 
HETATM    5  C5  UNL     1     -34.882  14.311  -4.119  1.00 20.00     0.062 C 
HETATM    6  C6  UNL     1     -37.056  15.822  -3.946  1.00 20.00     0.026 C 
HETATM    7  C7  UNL     1     -34.967  15.366  -3.043  1.00 20.00     0.184 C 
HETATM    8  C8  UNL     1     -38.211  16.737  -4.261  1.00 20.00     0.070 C 
HETATM    9  N9  UNL     1     -33.709  14.107  -4.632  1.00 20.00    -0.263 NA
HETATM   10  N10 UNL     1     -36.006  16.327  -3.381  1.00 20.00    -0.279 NA
ENDROOT
TORSDOF 0
ENDMDL
MODEL 7
REMARK VINA RESULT:      -4.1      1.203      3.826
REMARK  0 active torsions:
REMARK  status: ('A' for Active; 'I' for Inactive)
ROOT
HETATM    1  C1  UNL     1     -25.531  18.957   9.954  1.00 20.00     0.032 C 
HETATM    2  C2  UNL     1     -25.989  19.263   8.736  1.00 20.00     0.028 C 
HETATM    3  C3  UNL     1     -22.071  18.149   9.215  1.00 20.00     0.026 C 
HETATM    4  C4  UNL     1     -22.353  17.447  10.317  1.00 20.00     0.115 C 
HETATM    5  C5  UNL     1     -24.137  18.501   9.977  1.00 20.00     0.062 C 
HETATM    6  C6  UNL     1     -25.104  19.000   7.557  1.00 20.00     0.026 C 
HETATM    7  C7  UNL     1     -23.218  19.043   8.909  1.00 20.00     0.184 C 
HETATM    8  C8  UNL     1     -25.797  18.887   6.223  1.00 20.00     0.070 C 
HETATM    9  N9  UNL     1     -23.614  17.658  10.811  1.00 20.00    -0.263 NA
HETATM   10  N10 UNL     1     -23.819  18.845   7.599  1.00 20.00    -0.279 NA
ENDROOT
TORSDOF 0
ENDMDL
MODEL 8
REMARK VINA RESULT:      -4.1     15.969     16.764
REMARK  0 active torsions:
REMARK  status: ('A' for Active; 'I' for Inactive)
ROOT
HETATM    1  C1  UNL     1     -33.791   4.796   2.632  1.00 20.00     0.032 C 
HETATM    2  C2  UNL     1     -33.038   5.803   2.177  1.00 20.00     0.028 C 
HETATM    3  C3  UNL     1     -34.685   6.028   5.925  1.00 20.00     0.026 C 
HETATM    4  C4  UNL     1     -34.733   4.697   6.039  1.00 20.00     0.115 C 
HETATM    5  C5  UNL     1     -34.254   4.967   4.013  1.00 20.00     0.062 C 
HETATM    6  C6  UNL     1     -32.661   6.895   3.129  1.00 20.00     0.026 C 
HETATM    7  C7  UNL     1     -34.462   6.380   4.499  1.00 20.00     0.184 C 
HETATM    8  C8  UNL     1     -31.456   7.717   2.748  1.00 20.00     0.070 C 
HETATM    9  N9  UNL     1     -34.485   4.024   4.872  1.00 20.00    -0.263 NA
HETATM   10  N10 UNL     1     -33.266   7.168   4.241  1.00 20.00    -0.279 NA
ENDROOT
TORSDOF 0
ENDMDL
MODEL 9
REMARK VINA RESULT:      -4.1     16.477     18.356
REMARK  0 active torsions:
REMARK  status: ('A' for Active; 'I' for Inactive)
ROOT
HETATM    1  C1  UNL     1     -35.961  13.904  -4.513  1.00 20.00     0.032 C 
HETATM    2  C2  UNL     1     -35.312  14.388  -3.448  1.00 20.00     0.028 C 
HETATM    3  C3  UNL     1     -34.196  15.560  -7.216  1.00 20.00     0.026 C 
HETATM    4  C4  UNL     1     -35.417  15.324  -7.705  1.00 20.00     0.115 C 
HETATM    5  C5  UNL     1     -35.516  14.461  -5.794  1.00 20.00     0.062 C 
HETATM    6  C6  UNL     1     -34.325  15.493  -3.659  1.00 20.00     0.026 C 
HETATM    7  C7  UNL     1     -34.075  14.901  -5.889  1.00 20.00     0.184 C 
HETATM    8  C8  UNL     1     -33.995  16.325  -2.446  1.00 20.00     0.070 C 
HETATM    9  N9  UNL     1     -36.241  14.636  -6.853  1.00 20.00    -0.263 NA
HETATM   10  N10 UNL     1     -33.762  15.796  -4.785  1.00 20.00    -0.279 NA
ENDROOT
TORSDOF 0
ENDMDL
