MODEL 1
REMARK VINA RESULT:      -4.9      0.000      0.000
REMARK  0 active torsions:
REMARK  status: ('A' for Active; 'I' for Inactive)
ROOT
HETATM    1  C1  UNL     1     -24.631  16.180  11.673  1.00 20.00     0.032 A 
HETATM    2  C2  UNL     1     -23.070  16.615   9.618  1.00 20.00     0.040 A 
HETATM    3  C3  UNL     1     -23.570  18.755   8.670  1.00 20.00     0.142 A 
HETATM    4  C4  UNL     1     -25.617  16.980  12.211  1.00 20.00     0.093 A 
HETATM    5  C5  UNL     1     -24.076  16.872  10.563  1.00 20.00     0.013 A 
HETATM    6  C6  UNL     1     -22.819  17.588   8.652  1.00 20.00     0.052 A 
HETATM    7  C7  UNL     1     -24.751  18.085  10.464  1.00 20.00     0.139 A 
HETATM    8  C8  UNL     1     -26.594  19.224  11.724  1.00 20.00     0.157 C 
HETATM    9  N9  UNL     1     -24.550  19.057   9.555  1.00 20.00    -0.241 NA
HETATM   10  N10 UNL     1     -25.681  18.133  11.470  1.00 20.00    -0.345 N 
HETATM   11 CL11 UNL     1     -21.603  17.345   7.466  1.00 20.00    -0.083 Cl
ENDROOT
TORSDOF 0
ENDMDL
MODEL 2
REMARK VINA RESULT:      -4.4      2.390      3.439
REMARK  0 active torsions:
REMARK  status: ('A' for Active; 'I' for Inactive)
ROOT
HETATM    1  C1  UNL     1     -21.697  17.856   8.802  1.00 20.00     0.032 A 
HETATM    2  C2  UNL     1     -23.997  18.544   7.762  1.00 20.00     0.040 A 
HETATM    3  C3  UNL     1     -25.613  18.825   9.506  1.00 20.00     0.142 A 
HETATM    4  C4  UNL     1     -21.355  17.658  10.123  1.00 20.00     0.093 A 
HETATM    5  C5  UNL     1     -23.070  18.219   8.765  1.00 20.00     0.013 A 
HETATM    6  C6  UNL     1     -25.298  18.853   8.153  1.00 20.00     0.052 A 
HETATM    7  C7  UNL     1     -23.521  18.229  10.081  1.00 20.00     0.139 A 
HETATM    8  C8  UNL     1     -22.512  17.781  12.330  1.00 20.00     0.157 C 
HETATM    9  N9  UNL     1     -24.762  18.520  10.514  1.00 20.00    -0.241 NA
HETATM   10  N10 UNL     1     -22.469  17.887  10.890  1.00 20.00    -0.345 N 
HETATM   11 CL11 UNL     1     -26.487  19.263   6.985  1.00 20.00    -0.083 Cl
ENDROOT
TORSDOF 0
ENDMDL
MODEL 3
REMARK VINA RESULT:      -4.4      2.112      2.781
REMARK  0 active torsions:
REMARK  status: ('A' for Active; 'I' for Inactive)
ROOT
HETATM    1  C1  UNL     1     -25.216  18.443  11.516  1.00 20.00     0.032 A 
HETATM    2  C2  UNL     1     -25.256  18.876   8.936  1.00 20.00     0.040 A 
HETATM    3  C3  UNL     1     -23.056  18.579   8.040  1.00 20.00     0.142 A 
HETATM    4  C4  UNL     1     -24.160  18.096  12.332  1.00 20.00     0.093 A 
HETATM    5  C5  UNL     1     -24.714  18.560  10.193  1.00 20.00     0.013 A 
HETATM    6  C6  UNL     1     -24.396  18.883   7.839  1.00 20.00     0.052 A 
HETATM    7  C7  UNL     1     -23.353  18.276  10.250  1.00 20.00     0.139 A 
HETATM    8  C8  UNL     1     -21.721  17.651  12.045  1.00 20.00     0.157 C 
HETATM    9  N9  UNL     1     -22.480  18.268   9.225  1.00 20.00    -0.241 NA
HETATM   10  N10 UNL     1     -23.035  17.998  11.553  1.00 20.00    -0.345 N 
HETATM   11 CL11 UNL     1     -24.985  19.257   6.271  1.00 20.00    -0.083 Cl
ENDROOT
TORSDOF 0
ENDMDL
MODEL 4
REMARK VINA RESULT:      -4.3      2.633      3.783
REMARK  0 active torsions:
REMARK  status: ('A' for Active; 'I' for Inactive)
ROOT
HETATM    1  C1  UNL     1     -26.073  19.024   8.884  1.00 20.00     0.032 A 
HETATM    2  C2  UNL     1     -24.155  18.365  10.537  1.00 20.00     0.040 A 
HETATM    3  C3  UNL     1     -22.088  18.202   9.341  1.00 20.00     0.142 A 
HETATM    4  C4  UNL     1     -26.019  19.263   7.527  1.00 20.00     0.093 A 
HETATM    5  C5  UNL     1     -24.759  18.702   9.315  1.00 20.00     0.013 A 
HETATM    6  C6  UNL     1     -22.785  18.111  10.539  1.00 20.00     0.052 A 
HETATM    7  C7  UNL     1     -23.941  18.756   8.191  1.00 20.00     0.139 A 
HETATM    8  C8  UNL     1     -24.260  19.263   5.758  1.00 20.00     0.157 C 
HETATM    9  N9  UNL     1     -22.616  18.522   8.136  1.00 20.00    -0.241 NA
HETATM   10  N10 UNL     1     -24.721  19.098   7.117  1.00 20.00    -0.345 N 
HETATM   11 CL11 UNL     1     -21.976  17.696  11.995  1.00 20.00    -0.083 Cl
ENDROOT
TORSDOF 0
ENDMDL
MODEL 5
REMARK VINA RESULT:      -4.3     15.657     16.265
REMARK  0 active torsions:
REMARK  status: ('A' for Active; 'I' for Inactive)
ROOT
HETATM    1  C1  UNL     1     -35.215  17.186  -0.716  1.00 20.00     0.032 A 
HETATM    2  C2  UNL     1     -35.522  15.467  -2.665  1.00 20.00     0.040 A 
HETATM    3  C3  UNL     1     -33.529  15.394  -3.990  1.00 20.00     0.142 A 
HETATM    4  C4  UNL     1     -34.129  17.977  -0.406  1.00 20.00     0.093 A 
HETATM    5  C5  UNL     1     -34.878  16.428  -1.869  1.00 20.00     0.013 A 
HETATM    6  C6  UNL     1     -34.821  14.944  -3.750  1.00 20.00     0.052 A 
HETATM    7  C7  UNL     1     -33.582  16.788  -2.224  1.00 20.00     0.139 A 
HETATM    8  C8  UNL     1     -31.847  18.364  -1.338  1.00 20.00     0.157 C 
HETATM    9  N9  UNL     1     -32.860  16.316  -3.258  1.00 20.00    -0.241 NA
HETATM   10  N10 UNL     1     -33.144  17.727  -1.327  1.00 20.00    -0.345 N 
HETATM   11 CL11 UNL     1     -35.542  13.764  -4.767  1.00 20.00    -0.083 Cl
ENDROOT
TORSDOF 0
ENDMDL
MODEL 6
REMARK VINA RESULT:      -4.3     17.270     17.797
REMARK  0 active torsions:
REMARK  status: ('A' for Active; 'I' for Inactive)
ROOT
HETATM    1  C1  UNL     1     -34.963  13.915  -4.083  1.00 20.00     0.032 A 
HETATM    2  C2  UNL     1     -33.843  15.862  -2.741  1.00 20.00     0.040 A 
HETATM    3  C3  UNL     1     -35.478  17.538  -2.245  1.00 20.00     0.142 A 
HETATM    4  C4  UNL     1     -36.271  13.771  -4.494  1.00 20.00     0.093 A 
HETATM    5  C5  UNL     1     -34.866  15.150  -3.387  1.00 20.00     0.013 A 
HETATM    6  C6  UNL     1     -34.168  17.085  -2.158  1.00 20.00     0.052 A 
HETATM    7  C7  UNL     1     -36.134  15.721  -3.399  1.00 20.00     0.139 A 
HETATM    8  C8  UNL     1     -38.381  15.091  -4.312  1.00 20.00     0.157 C 
HETATM    9  N9  UNL     1     -36.503  16.896  -2.854  1.00 20.00    -0.241 NA
HETATM   10  N10 UNL     1     -36.973  14.872  -4.074  1.00 20.00    -0.345 N 
HETATM   11 CL11 UNL     1     -32.972  18.012  -1.348  1.00 20.00    -0.083 Cl
ENDROOT
TORSDOF 0
ENDMDL
MODEL 7
REMARK VINA RESULT:      -4.2     16.120     16.815
REMARK  0 active torsions:
REMARK  status: ('A' for Active; 'I' for Inactive)
ROOT
HETATM    1  C1  UNL     1     -32.901  15.235  -4.044  1.00 20.00     0.032 A 
HETATM    2  C2  UNL     1     -32.978  17.050  -2.160  1.00 20.00     0.040 A 
HETATM    3  C3  UNL     1     -35.218  17.263  -1.344  1.00 20.00     0.142 A 
HETATM    4  C4  UNL     1     -33.921  14.466  -4.564  1.00 20.00     0.093 A 
HETATM    5  C5  UNL     1     -33.462  16.068  -3.039  1.00 20.00     0.013 A 
HETATM    6  C6  UNL     1     -33.887  17.656  -1.295  1.00 20.00     0.052 A 
HETATM    7  C7  UNL     1     -34.821  15.772  -2.982  1.00 20.00     0.139 A 
HETATM    8  C8  UNL     1     -36.372  14.207  -4.176  1.00 20.00     0.157 C 
HETATM    9  N9  UNL     1     -35.740  16.324  -2.168  1.00 20.00    -0.241 NA
HETATM   10  N10 UNL     1     -35.080  14.800  -3.912  1.00 20.00    -0.345 N 
HETATM   11 CL11 UNL     1     -33.369  18.862  -0.190  1.00 20.00    -0.083 Cl
ENDROOT
TORSDOF 0
ENDMDL
MODEL 8
REMARK VINA RESULT:      -4.2     14.765     15.390
REMARK  0 active torsions:
REMARK  status: ('A' for Active; 'I' for Inactive)
ROOT
HETATM    1  C1  UNL     1     -32.046  18.342  -1.341  1.00 20.00     0.032 A 
HETATM    2  C2  UNL     1     -32.990  16.491  -2.932  1.00 20.00     0.040 A 
HETATM    3  C3  UNL     1     -35.191  15.872  -2.223  1.00 20.00     0.142 A 
HETATM    4  C4  UNL     1     -32.630  18.938  -0.244  1.00 20.00     0.093 A 
HETATM    5  C5  UNL     1     -32.972  17.398  -1.860  1.00 20.00     0.013 A 
HETATM    6  C6  UNL     1     -34.133  15.714  -3.108  1.00 20.00     0.052 A 
HETATM    7  C7  UNL     1     -34.102  17.454  -1.050  1.00 20.00     0.139 A 
HETATM    8  C8  UNL     1     -34.803  18.760   0.970  1.00 20.00     0.157 C 
HETATM    9  N9  UNL     1     -35.230  16.729  -1.175  1.00 20.00    -0.241 NA
HETATM   10  N10 UNL     1     -33.877  18.392  -0.077  1.00 20.00    -0.345 N 
HETATM   11 CL11 UNL     1     -34.230  14.585  -4.397  1.00 20.00    -0.083 Cl
ENDROOT
TORSDOF 0
ENDMDL
MODEL 9
REMARK VINA RESULT:      -4.2      3.354      4.898
REMARK  0 active torsions:
REMARK  status: ('A' for Active; 'I' for Inactive)
ROOT
HETATM    1  C1  UNL     1     -27.165  19.075   6.823  1.00 20.00     0.032 A 
HETATM    2  C2  UNL     1     -25.479  18.651   8.780  1.00 20.00     0.040 A 
HETATM    3  C3  UNL     1     -23.250  18.565   7.912  1.00 20.00     0.142 A 
HETATM    4  C4  UNL     1     -26.922  19.236   5.476  1.00 20.00     0.093 A 
HETATM    5  C5  UNL     1     -25.912  18.871   7.462  1.00 20.00     0.013 A 
HETATM    6  C6  UNL     1     -24.112  18.495   8.999  1.00 20.00     0.052 A 
HETATM    7  C7  UNL     1     -24.940  18.918   6.469  1.00 20.00     0.139 A 
HETATM    8  C8  UNL     1     -24.921  19.257   3.986  1.00 20.00     0.157 C 
HETATM    9  N9  UNL     1     -23.610  18.775   6.624  1.00 20.00    -0.241 NA
HETATM   10  N10 UNL     1     -25.570  19.139   5.272  1.00 20.00    -0.345 N 
HETATM   11 CL11 UNL     1     -23.507  18.225  10.582  1.00 20.00    -0.083 Cl
ENDROOT
TORSDOF 0
ENDMDL
