MODEL 1
REMARK VINA RESULT:      -4.4      0.000      0.000
REMARK  0 active torsions:
REMARK  status: ('A' for Active; 'I' for Inactive)
ROOT
HETATM    1  C1  UNL     1     -35.866  14.533  -5.741  1.00 20.00     0.108 C 
HETATM    2  C2  UNL     1     -35.962  13.845  -4.366  1.00 20.00     0.241 C 
HETATM    3  C3  UNL     1     -34.687  14.625  -3.959  1.00 20.00     0.321 C 
HETATM    4  C4  UNL     1     -35.065  15.677  -5.057  1.00 20.00     0.249 C 
HETATM    5  O5  UNL     1     -35.777  12.458  -4.424  1.00 20.00    -0.229 OA
HETATM    6  F6  UNL     1     -33.499  14.008  -4.168  1.00 20.00    -0.198 F 
HETATM    7  F7  UNL     1     -34.665  15.081  -2.686  1.00 20.00    -0.198 F 
HETATM    8  F8  UNL     1     -34.004  16.116  -5.781  1.00 20.00    -0.219 F 
HETATM    9 CL9  UNL     1     -36.019  17.088  -4.508  1.00 20.00    -0.076 Cl
ENDROOT
TORSDOF 0
ENDMDL
MODEL 2
REMARK VINA RESULT:      -4.3      1.273      1.277
REMARK  0 active torsions:
REMARK  status: ('A' for Active; 'I' for Inactive)
ROOT
HETATM    1  C1  UNL     1     -35.816  14.722  -5.915  1.00 20.00     0.108 C 
HETATM    2  C2  UNL     1     -36.535  14.653  -4.555  1.00 20.00     0.241 C 
HETATM    3  C3  UNL     1     -35.147  14.428  -3.906  1.00 20.00     0.321 C 
HETATM    4  C4  UNL     1     -34.525  15.137  -5.156  1.00 20.00     0.249 C 
HETATM    5  O5  UNL     1     -37.396  13.555  -4.434  1.00 20.00    -0.229 OA
HETATM    6  F6  UNL     1     -34.748  13.143  -3.742  1.00 20.00    -0.198 F 
HETATM    7  F7  UNL     1     -34.952  15.044  -2.718  1.00 20.00    -0.198 F 
HETATM    8  F8  UNL     1     -33.397  14.541  -5.618  1.00 20.00    -0.219 F 
HETATM    9 CL9  UNL     1     -34.233  16.897  -5.005  1.00 20.00    -0.076 Cl
ENDROOT
TORSDOF 0
ENDMDL
MODEL 3
REMARK VINA RESULT:      -4.3     18.597     19.359
REMARK  0 active torsions:
REMARK  status: ('A' for Active; 'I' for Inactive)
ROOT
HETATM    1  C1  UNL     1     -23.050  17.010  12.066  1.00 20.00     0.108 C 
HETATM    2  C2  UNL     1     -22.835  17.962  10.874  1.00 20.00     0.241 C 
HETATM    3  C3  UNL     1     -23.818  17.073  10.071  1.00 20.00     0.321 C 
HETATM    4  C4  UNL     1     -24.421  16.621  11.444  1.00 20.00     0.249 C 
HETATM    5  O5  UNL     1     -21.527  17.943  10.374  1.00 20.00    -0.229 OA
HETATM    6  F6  UNL     1     -23.278  16.065   9.343  1.00 20.00    -0.198 F 
HETATM    7  F7  UNL     1     -24.660  17.735   9.244  1.00 20.00    -0.198 F 
HETATM    8  F8  UNL     1     -24.699  15.294  11.509  1.00 20.00    -0.219 F 
HETATM    9 CL9  UNL     1     -25.840  17.542  12.029  1.00 20.00    -0.076 Cl
ENDROOT
TORSDOF 0
ENDMDL
MODEL 4
REMARK VINA RESULT:      -4.2     10.125     10.889
REMARK  0 active torsions:
REMARK  status: ('A' for Active; 'I' for Inactive)
ROOT
HETATM    1  C1  UNL     1     -41.204   7.683  -1.543  1.00 20.00     0.108 C 
HETATM    2  C2  UNL     1     -41.683   6.351  -0.937  1.00 20.00     0.241 C 
HETATM    3  C3  UNL     1     -41.585   7.024   0.455  1.00 20.00     0.321 C 
HETATM    4  C4  UNL     1     -41.750   8.399  -0.276  1.00 20.00     0.249 C 
HETATM    5  O5  UNL     1     -40.775   5.299  -1.116  1.00 20.00    -0.229 OA
HETATM    6  F6  UNL     1     -40.412   6.888   1.121  1.00 20.00    -0.198 F 
HETATM    7  F7  UNL     1     -42.563   6.698   1.330  1.00 20.00    -0.198 F 
HETATM    8  F8  UNL     1     -40.935   9.374   0.201  1.00 20.00    -0.219 F 
HETATM    9 CL9  UNL     1     -43.417   9.040  -0.392  1.00 20.00    -0.076 Cl
ENDROOT
TORSDOF 0
ENDMDL
MODEL 5
REMARK VINA RESULT:      -4.2      1.700      1.893
REMARK  0 active torsions:
REMARK  status: ('A' for Active; 'I' for Inactive)
ROOT
HETATM    1  C1  UNL     1     -33.944  14.954  -5.811  1.00 20.00     0.108 C 
HETATM    2  C2  UNL     1     -35.369  14.799  -5.248  1.00 20.00     0.241 C 
HETATM    3  C3  UNL     1     -34.723  14.376  -3.905  1.00 20.00     0.321 C 
HETATM    4  C4  UNL     1     -33.445  15.162  -4.353  1.00 20.00     0.249 C 
HETATM    5  O5  UNL     1     -36.103  13.777  -5.864  1.00 20.00    -0.229 OA
HETATM    6  F6  UNL     1     -34.520  13.049  -3.714  1.00 20.00    -0.198 F 
HETATM    7  F7  UNL     1     -35.340  14.833  -2.792  1.00 20.00    -0.198 F 
HETATM    8  F8  UNL     1     -32.282  14.521  -4.071  1.00 20.00    -0.219 F 
HETATM    9 CL9  UNL     1     -33.323  16.859  -3.797  1.00 20.00    -0.076 Cl
ENDROOT
TORSDOF 0
ENDMDL
MODEL 6
REMARK VINA RESULT:      -4.2      1.777      1.887
REMARK  0 active torsions:
REMARK  status: ('A' for Active; 'I' for Inactive)
ROOT
HETATM    1  C1  UNL     1     -35.915  15.062  -3.716  1.00 20.00     0.108 C 
HETATM    2  C2  UNL     1     -35.119  13.751  -3.861  1.00 20.00     0.241 C 
HETATM    3  C3  UNL     1     -34.068  14.555  -4.666  1.00 20.00     0.321 C 
HETATM    4  C4  UNL     1     -34.584  15.836  -3.927  1.00 20.00     0.249 C 
HETATM    5  O5  UNL     1     -35.782  12.778  -4.619  1.00 20.00    -0.229 OA
HETATM    6  F6  UNL     1     -34.224  14.591  -6.013  1.00 20.00    -0.198 F 
HETATM    7  F7  UNL     1     -32.778  14.219  -4.439  1.00 20.00    -0.198 F 
HETATM    8  F8  UNL     1     -34.699  16.923  -4.732  1.00 20.00    -0.219 F 
HETATM    9 CL9  UNL     1     -33.701  16.303  -2.442  1.00 20.00    -0.076 Cl
ENDROOT
TORSDOF 0
ENDMDL
MODEL 7
REMARK VINA RESULT:      -4.2      2.111      2.378
REMARK  0 active torsions:
REMARK  status: ('A' for Active; 'I' for Inactive)
ROOT
HETATM    1  C1  UNL     1     -34.130  16.403  -4.814  1.00 20.00     0.108 C 
HETATM    2  C2  UNL     1     -34.633  15.047  -5.341  1.00 20.00     0.241 C 
HETATM    3  C3  UNL     1     -33.855  14.380  -4.180  1.00 20.00     0.321 C 
HETATM    4  C4  UNL     1     -33.966  15.743  -3.416  1.00 20.00     0.249 C 
HETATM    5  O5  UNL     1     -34.135  14.722  -6.610  1.00 20.00    -0.229 OA
HETATM    6  F6  UNL     1     -32.583  13.991  -4.438  1.00 20.00    -0.198 F 
HETATM    7  F7  UNL     1     -34.468  13.324  -3.598  1.00 20.00    -0.198 F 
HETATM    8  F8  UNL     1     -32.828  16.101  -2.767  1.00 20.00    -0.219 F 
HETATM    9 CL9  UNL     1     -35.352  15.915  -2.297  1.00 20.00    -0.076 Cl
ENDROOT
TORSDOF 0
ENDMDL
MODEL 8
REMARK VINA RESULT:      -4.2     18.812     19.329
REMARK  0 active torsions:
REMARK  status: ('A' for Active; 'I' for Inactive)
ROOT
HETATM    1  C1  UNL     1     -23.862  16.659   9.892  1.00 20.00     0.108 C 
HETATM    2  C2  UNL     1     -24.656  16.628  11.211  1.00 20.00     0.241 C 
HETATM    3  C3  UNL     1     -23.886  17.906  11.629  1.00 20.00     0.321 C 
HETATM    4  C4  UNL     1     -23.664  18.186  10.104  1.00 20.00     0.249 C 
HETATM    5  O5  UNL     1     -24.368  15.513  12.009  1.00 20.00    -0.229 OA
HETATM    6  F6  UNL     1     -22.740  17.728  12.332  1.00 20.00    -0.198 F 
HETATM    7  F7  UNL     1     -24.609  18.829  12.301  1.00 20.00    -0.198 F 
HETATM    8  F8  UNL     1     -22.416  18.628   9.804  1.00 20.00    -0.219 F 
HETATM    9 CL9  UNL     1     -24.864  19.253   9.312  1.00 20.00    -0.076 Cl
ENDROOT
TORSDOF 0
ENDMDL
MODEL 9
REMARK VINA RESULT:      -4.2     10.740     11.391
REMARK  0 active torsions:
REMARK  status: ('A' for Active; 'I' for Inactive)
ROOT
HETATM    1  C1  UNL     1     -41.105   6.645   0.611  1.00 20.00     0.108 C 
HETATM    2  C2  UNL     1     -40.943   6.527  -0.916  1.00 20.00     0.241 C 
HETATM    3  C3  UNL     1     -42.356   7.147  -1.049  1.00 20.00     0.321 C 
HETATM    4  C4  UNL     1     -42.132   7.785   0.364  1.00 20.00     0.249 C 
HETATM    5  O5  UNL     1     -40.867   5.203  -1.367  1.00 20.00    -0.229 OA
HETATM    6  F6  UNL     1     -43.401   6.285  -1.109  1.00 20.00    -0.198 F 
HETATM    7  F7  UNL     1     -42.517   8.016  -2.072  1.00 20.00    -0.198 F 
HETATM    8  F8  UNL     1     -43.224   7.729   1.169  1.00 20.00    -0.219 F 
HETATM    9 CL9  UNL     1     -41.478   9.451   0.387  1.00 20.00    -0.076 Cl
ENDROOT
TORSDOF 0
ENDMDL
