MODEL 1
REMARK VINA RESULT:      -4.9      0.000      0.000
REMARK  0 active torsions:
REMARK  status: ('A' for Active; 'I' for Inactive)
ROOT
HETATM    1  C1  UNL     1     -35.797  15.924  -4.564  1.00 20.00    -0.025 C 
HETATM    2  C2  UNL     1     -34.678  16.450  -5.097  1.00 20.00    -0.025 C 
HETATM    3  C3  UNL     1     -35.338  16.899  -1.129  1.00 20.00    -0.024 C 
HETATM    4  C4  UNL     1     -34.280  17.673  -0.790  1.00 20.00    -0.025 C 
HETATM    5  C5  UNL     1     -33.992  14.680  -3.866  1.00 20.00     0.018 C 
HETATM    6  C6  UNL     1     -35.397  15.122  -3.347  1.00 20.00     0.016 C 
HETATM    7  C7  UNL     1     -33.521  16.114  -4.155  1.00 20.00     0.014 C 
HETATM    8  C8  UNL     1     -34.864  15.950  -2.166  1.00 20.00     0.021 C 
HETATM    9  C9  UNL     1     -33.075  17.426  -1.715  1.00 20.00     0.009 C 
HETATM   10  C10 UNL     1     -33.886  16.913  -2.888  1.00 20.00     0.009 C 
HETATM   11  C11 UNL     1     -32.289  18.683  -2.044  1.00 20.00     0.014 C 
ENDROOT
TORSDOF 0
ENDMDL
MODEL 2
REMARK VINA RESULT:      -4.8      1.222      3.785
REMARK  0 active torsions:
REMARK  status: ('A' for Active; 'I' for Inactive)
ROOT
HETATM    1  C1  UNL     1     -34.555  18.478  -2.708  1.00 20.00    -0.025 C 
HETATM    2  C2  UNL     1     -35.842  18.093  -2.804  1.00 20.00    -0.025 C 
HETATM    3  C3  UNL     1     -32.946  15.472  -3.864  1.00 20.00    -0.024 C 
HETATM    4  C4  UNL     1     -33.701  14.439  -4.309  1.00 20.00    -0.025 C 
HETATM    5  C5  UNL     1     -34.992  16.938  -1.055  1.00 20.00     0.018 C 
HETATM    6  C6  UNL     1     -33.805  17.400  -1.960  1.00 20.00     0.016 C 
HETATM    7  C7  UNL     1     -35.941  16.678  -2.236  1.00 20.00     0.014 C 
HETATM    8  C8  UNL     1     -33.663  16.064  -2.708  1.00 20.00     0.021 C 
HETATM    9  C9  UNL     1     -35.068  14.390  -3.606  1.00 20.00     0.009 C 
HETATM   10  C10 UNL     1     -35.105  15.861  -3.241  1.00 20.00     0.009 C 
HETATM   11  C11 UNL     1     -36.211  13.978  -4.518  1.00 20.00     0.014 C 
ENDROOT
TORSDOF 0
ENDMDL
MODEL 3
REMARK VINA RESULT:      -4.8      1.307      2.921
REMARK  0 active torsions:
REMARK  status: ('A' for Active; 'I' for Inactive)
ROOT
HETATM    1  C1  UNL     1     -33.299  15.876  -3.332  1.00 20.00    -0.025 C 
HETATM    2  C2  UNL     1     -34.459  15.649  -2.687  1.00 20.00    -0.025 C 
HETATM    3  C3  UNL     1     -31.787  18.203  -1.040  1.00 20.00    -0.024 C 
HETATM    4  C4  UNL     1     -32.412  18.495   0.125  1.00 20.00    -0.025 C 
HETATM    5  C5  UNL     1     -34.615  17.756  -3.494  1.00 20.00     0.018 C 
HETATM    6  C6  UNL     1     -33.102  17.372  -3.418  1.00 20.00     0.016 C 
HETATM    7  C7  UNL     1     -34.989  17.000  -2.210  1.00 20.00     0.014 C 
HETATM    8  C8  UNL     1     -32.840  18.074  -2.076  1.00 20.00     0.021 C 
HETATM    9  C9  UNL     1     -33.941  18.390  -0.008  1.00 20.00     0.009 C 
HETATM   10  C10 UNL     1     -33.926  17.425  -1.177  1.00 20.00     0.009 C 
HETATM   11  C11 UNL     1     -34.625  17.818   1.221  1.00 20.00     0.014 C 
ENDROOT
TORSDOF 0
ENDMDL
MODEL 4
REMARK VINA RESULT:      -4.7      1.201      1.496
REMARK  0 active torsions:
REMARK  status: ('A' for Active; 'I' for Inactive)
ROOT
HETATM    1  C1  UNL     1     -35.328  14.890  -5.729  1.00 20.00    -0.025 C 
HETATM    2  C2  UNL     1     -33.988  14.960  -5.615  1.00 20.00    -0.025 C 
HETATM    3  C3  UNL     1     -36.276  16.793  -2.825  1.00 20.00    -0.024 C 
HETATM    4  C4  UNL     1     -35.319  17.385  -2.073  1.00 20.00    -0.025 C 
HETATM    5  C5  UNL     1     -34.669  13.576  -3.960  1.00 20.00     0.018 C 
HETATM    6  C6  UNL     1     -35.884  14.456  -4.394  1.00 20.00     0.016 C 
HETATM    7  C7  UNL     1     -33.640  14.702  -4.149  1.00 20.00     0.014 C 
HETATM    8  C8  UNL     1     -35.735  15.482  -3.259  1.00 20.00     0.021 C 
HETATM    9  C9  UNL     1     -33.997  16.599  -2.112  1.00 20.00     0.009 C 
HETATM   10  C10 UNL     1     -34.260  15.925  -3.444  1.00 20.00     0.009 C 
HETATM   11  C11 UNL     1     -32.760  17.481  -2.130  1.00 20.00     0.014 C 
ENDROOT
TORSDOF 0
ENDMDL
MODEL 5
REMARK VINA RESULT:      -4.6     11.694     13.563
REMARK  0 active torsions:
REMARK  status: ('A' for Active; 'I' for Inactive)
ROOT
HETATM    1  C1  UNL     1     -41.499   8.643   0.489  1.00 20.00    -0.025 C 
HETATM    2  C2  UNL     1     -41.194   8.343  -0.788  1.00 20.00    -0.025 C 
HETATM    3  C3  UNL     1     -43.318   5.669   1.385  1.00 20.00    -0.024 C 
HETATM    4  C4  UNL     1     -43.412   4.651   0.498  1.00 20.00    -0.025 C 
HETATM    5  C5  UNL     1     -43.417   8.759  -0.775  1.00 20.00     0.018 C 
HETATM    6  C6  UNL     1     -42.978   8.401   0.681  1.00 20.00     0.016 C 
HETATM    7  C7  UNL     1     -42.452   7.762  -1.433  1.00 20.00     0.014 C 
HETATM    8  C8  UNL     1     -43.414   6.929   0.609  1.00 20.00     0.021 C 
HETATM    9  C9  UNL     1     -43.381   5.157  -0.955  1.00 20.00     0.009 C 
HETATM   10  C10 UNL     1     -42.646   6.448  -0.651  1.00 20.00     0.009 C 
HETATM   11  C11 UNL     1     -42.616   4.251  -1.903  1.00 20.00     0.014 C 
ENDROOT
TORSDOF 0
ENDMDL
MODEL 6
REMARK VINA RESULT:      -4.5      1.273      2.871
REMARK  0 active torsions:
REMARK  status: ('A' for Active; 'I' for Inactive)
ROOT
HETATM    1  C1  UNL     1     -36.201  13.853  -5.091  1.00 20.00    -0.025 C 
HETATM    2  C2  UNL     1     -37.117  14.288  -4.206  1.00 20.00    -0.025 C 
HETATM    3  C3  UNL     1     -33.285  15.526  -3.805  1.00 20.00    -0.024 C 
HETATM    4  C4  UNL     1     -33.377  16.245  -2.662  1.00 20.00    -0.025 C 
HETATM    5  C5  UNL     1     -36.613  16.080  -5.490  1.00 20.00     0.018 C 
HETATM    6  C6  UNL     1     -35.439  15.055  -5.598  1.00 20.00     0.016 C 
HETATM    7  C7  UNL     1     -36.885  15.786  -4.007  1.00 20.00     0.014 C 
HETATM    8  C8  UNL     1     -34.543  15.747  -4.557  1.00 20.00     0.021 C 
HETATM    9  C9  UNL     1     -34.783  16.842  -2.477  1.00 20.00     0.009 C 
HETATM   10  C10 UNL     1     -35.497  15.818  -3.336  1.00 20.00     0.009 C 
HETATM   11  C11 UNL     1     -35.263  16.843  -1.036  1.00 20.00     0.014 C 
ENDROOT
TORSDOF 0
ENDMDL
MODEL 7
REMARK VINA RESULT:      -4.4      1.731      4.252
REMARK  0 active torsions:
REMARK  status: ('A' for Active; 'I' for Inactive)
ROOT
HETATM    1  C1  UNL     1     -33.297  15.806  -3.390  1.00 20.00    -0.025 C 
HETATM    2  C2  UNL     1     -34.464  15.851  -2.720  1.00 20.00    -0.025 C 
HETATM    3  C3  UNL     1     -34.508  16.348  -6.737  1.00 20.00    -0.024 C 
HETATM    4  C4  UNL     1     -35.822  16.603  -6.938  1.00 20.00    -0.025 C 
HETATM    5  C5  UNL     1     -34.496  13.901  -3.866  1.00 20.00     0.018 C 
HETATM    6  C6  UNL     1     -33.467  14.856  -4.553  1.00 20.00     0.016 C 
HETATM    7  C7  UNL     1     -35.479  15.028  -3.513  1.00 20.00     0.014 C 
HETATM    8  C8  UNL     1     -34.425  15.337  -5.654  1.00 20.00     0.021 C 
HETATM    9  C9  UNL     1     -36.703  15.928  -5.873  1.00 20.00     0.009 C 
HETATM   10  C10 UNL     1     -35.624  15.847  -4.812  1.00 20.00     0.009 C 
HETATM   11  C11 UNL     1     -37.894  16.767  -5.442  1.00 20.00     0.014 C 
ENDROOT
TORSDOF 0
ENDMDL
MODEL 8
REMARK VINA RESULT:      -4.3      1.366      3.923
REMARK  0 active torsions:
REMARK  status: ('A' for Active; 'I' for Inactive)
ROOT
HETATM    1  C1  UNL     1     -33.218  16.445  -2.887  1.00 20.00    -0.025 C 
HETATM    2  C2  UNL     1     -33.504  17.410  -3.781  1.00 20.00    -0.025 C 
HETATM    3  C3  UNL     1     -35.395  13.846  -4.099  1.00 20.00    -0.024 C 
HETATM    4  C4  UNL     1     -36.108  14.046  -5.232  1.00 20.00    -0.025 C 
HETATM    5  C5  UNL     1     -35.333  17.243  -2.461  1.00 20.00     0.018 C 
HETATM    6  C6  UNL     1     -34.525  15.910  -2.350  1.00 20.00     0.016 C 
HETATM    7  C7  UNL     1     -35.022  17.439  -3.953  1.00 20.00     0.014 C 
HETATM    8  C8  UNL     1     -35.381  15.134  -3.364  1.00 20.00     0.021 C 
HETATM    9  C9  UNL     1     -36.455  15.532  -5.431  1.00 20.00     0.009 C 
HETATM   10  C10 UNL     1     -35.307  16.069  -4.600  1.00 20.00     0.009 C 
HETATM   11  C11 UNL     1     -36.399  15.985  -6.880  1.00 20.00     0.014 C 
ENDROOT
TORSDOF 0
ENDMDL
MODEL 9
REMARK VINA RESULT:      -4.3      1.146      3.444
REMARK  0 active torsions:
REMARK  status: ('A' for Active; 'I' for Inactive)
ROOT
HETATM    1  C1  UNL     1     -34.021  17.789  -1.037  1.00 20.00    -0.025 C 
HETATM    2  C2  UNL     1     -32.758  17.697  -1.493  1.00 20.00    -0.025 C 
HETATM    3  C3  UNL     1     -35.548  15.165  -2.971  1.00 20.00    -0.024 C 
HETATM    4  C4  UNL     1     -34.779  14.396  -3.778  1.00 20.00    -0.025 C 
HETATM    5  C5  UNL     1     -33.957  18.578  -3.196  1.00 20.00     0.018 C 
HETATM    6  C6  UNL     1     -34.943  17.842  -2.233  1.00 20.00     0.016 C 
HETATM    7  C7  UNL     1     -32.830  17.549  -3.012  1.00 20.00     0.014 C 
HETATM    8  C8  UNL     1     -35.017  16.548  -3.058  1.00 20.00     0.021 C 
HETATM    9  C9  UNL     1     -33.560  15.170  -4.309  1.00 20.00     0.009 C 
HETATM   10  C10 UNL     1     -33.515  16.178  -3.178  1.00 20.00     0.009 C 
HETATM   11  C11 UNL     1     -32.297  14.332  -4.404  1.00 20.00     0.014 C 
ENDROOT
TORSDOF 0
ENDMDL
