MODEL 1
REMARK VINA RESULT:      -5.0      0.000      0.000
REMARK  0 active torsions:
REMARK  status: ('A' for Active; 'I' for Inactive)
ROOT
HETATM    1  C1  UNL     1     -34.904   4.852   5.191  1.00 20.00     0.002 C 
HETATM    2  C2  UNL     1     -34.393   4.622   3.971  1.00 20.00     0.028 C 
HETATM    3  C3  UNL     1     -34.667   6.087   5.918  1.00 20.00    -0.003 C 
HETATM    4  C4  UNL     1     -33.681   6.928   5.560  1.00 20.00    -0.012 C 
HETATM    5  C5  UNL     1     -32.414   7.636   3.454  1.00 20.00     0.027 C 
HETATM    6  C6  UNL     1     -32.768   7.242   2.226  1.00 20.00     0.100 C 
HETATM    7  C7  UNL     1     -33.552   5.714   3.441  1.00 20.00     0.047 C 
HETATM    8  C8  UNL     1     -32.774   6.573   4.429  1.00 20.00     0.085 C 
HETATM    9  N9  UNL     1     -33.455   6.055   2.193  1.00 20.00    -0.245 NA
HETATM   10 BR10 UNL     1     -32.475   8.176   0.662  1.00 20.00    -0.029 Br
ENDROOT
TORSDOF 0
ENDMDL
MODEL 2
REMARK VINA RESULT:      -4.9     15.620     16.140
REMARK  0 active torsions:
REMARK  status: ('A' for Active; 'I' for Inactive)
ROOT
HETATM    1  C1  UNL     1     -22.408  17.456   9.942  1.00 20.00     0.002 C 
HETATM    2  C2  UNL     1     -22.285  18.062   8.751  1.00 20.00     0.028 C 
HETATM    3  C3  UNL     1     -23.678  17.348  10.638  1.00 20.00    -0.003 C 
HETATM    4  C4  UNL     1     -24.728  18.113  10.292  1.00 20.00    -0.012 C 
HETATM    5  C5  UNL     1     -25.682  19.262   8.216  1.00 20.00     0.027 C 
HETATM    6  C6  UNL     1     -25.186  19.072   6.988  1.00 20.00     0.100 C 
HETATM    7  C7  UNL     1     -23.539  18.632   8.220  1.00 20.00     0.047 C 
HETATM    8  C8  UNL     1     -24.584  19.130   9.210  1.00 20.00     0.085 C 
HETATM    9  N9  UNL     1     -23.866  18.701   6.966  1.00 20.00    -0.245 NA
HETATM   10 BR10 UNL     1     -26.130  19.199   5.407  1.00 20.00    -0.029 Br
ENDROOT
TORSDOF 0
ENDMDL
MODEL 3
REMARK VINA RESULT:      -4.6     11.879     12.521
REMARK  0 active torsions:
REMARK  status: ('A' for Active; 'I' for Inactive)
ROOT
HETATM    1  C1  UNL     1     -35.228  16.151  -1.911  1.00 20.00     0.002 C 
HETATM    2  C2  UNL     1     -35.186  17.058  -0.923  1.00 20.00     0.028 C 
HETATM    3  C3  UNL     1     -34.080  15.854  -2.750  1.00 20.00    -0.003 C 
HETATM    4  C4  UNL     1     -33.021  16.679  -2.798  1.00 20.00    -0.012 C 
HETATM    5  C5  UNL     1     -31.798  18.345  -1.289  1.00 20.00     0.027 C 
HETATM    6  C6  UNL     1     -32.086  18.496   0.009  1.00 20.00     0.100 C 
HETATM    7  C7  UNL     1     -33.888  17.746  -0.775  1.00 20.00     0.047 C 
HETATM    8  C8  UNL     1     -33.033  17.953  -2.019  1.00 20.00     0.085 C 
HETATM    9  N9  UNL     1     -33.370  18.149   0.344  1.00 20.00    -0.245 NA
HETATM   10 BR10 UNL     1     -30.911  19.042   1.322  1.00 20.00    -0.029 Br
ENDROOT
TORSDOF 0
ENDMDL
MODEL 4
REMARK VINA RESULT:      -4.4     11.687     12.274
REMARK  0 active torsions:
REMARK  status: ('A' for Active; 'I' for Inactive)
ROOT
HETATM    1  C1  UNL     1     -32.156  18.615  -0.115  1.00 20.00     0.002 C 
HETATM    2  C2  UNL     1     -32.024  18.252  -1.401  1.00 20.00     0.028 C 
HETATM    3  C3  UNL     1     -33.290  18.212   0.698  1.00 20.00    -0.003 C 
HETATM    4  C4  UNL     1     -34.412  17.730   0.138  1.00 20.00    -0.012 C 
HETATM    5  C5  UNL     1     -35.128  16.425  -1.942  1.00 20.00     0.027 C 
HETATM    6  C6  UNL     1     -34.253  15.877  -2.793  1.00 20.00     0.100 C 
HETATM    7  C7  UNL     1     -33.135  17.434  -1.926  1.00 20.00     0.047 C 
HETATM    8  C8  UNL     1     -34.528  17.649  -1.348  1.00 20.00     0.085 C 
HETATM    9  N9  UNL     1     -33.027  16.492  -2.811  1.00 20.00    -0.245 NA
HETATM   10 BR10 UNL     1     -34.546  14.383  -3.835  1.00 20.00    -0.029 Br
ENDROOT
TORSDOF 0
ENDMDL
MODEL 5
REMARK VINA RESULT:      -4.4     11.630     12.060
REMARK  0 active torsions:
REMARK  status: ('A' for Active; 'I' for Inactive)
ROOT
HETATM    1  C1  UNL     1     -35.010  14.298  -4.139  1.00 20.00     0.002 C 
HETATM    2  C2  UNL     1     -35.763  15.116  -3.387  1.00 20.00     0.028 C 
HETATM    3  C3  UNL     1     -33.562  14.398  -4.193  1.00 20.00    -0.003 C 
HETATM    4  C4  UNL     1     -32.923  15.495  -3.755  1.00 20.00    -0.012 C 
HETATM    5  C5  UNL     1     -33.231  17.347  -2.017  1.00 20.00     0.027 C 
HETATM    6  C6  UNL     1     -34.206  17.329  -1.101  1.00 20.00     0.100 C 
HETATM    7  C7  UNL     1     -35.003  16.139  -2.642  1.00 20.00     0.047 C 
HETATM    8  C8  UNL     1     -33.706  16.661  -3.247  1.00 20.00     0.085 C 
HETATM    9  N9  UNL     1     -35.311  16.606  -1.472  1.00 20.00    -0.245 NA
HETATM   10 BR10 UNL     1     -34.137  18.110   0.569  1.00 20.00    -0.029 Br
ENDROOT
TORSDOF 0
ENDMDL
MODEL 6
REMARK VINA RESULT:      -4.3     11.476     12.549
REMARK  0 active torsions:
REMARK  status: ('A' for Active; 'I' for Inactive)
ROOT
HETATM    1  C1  UNL     1     -34.851  13.946  -3.819  1.00 20.00     0.002 C 
HETATM    2  C2  UNL     1     -35.955  13.540  -4.466  1.00 20.00     0.028 C 
HETATM    3  C3  UNL     1     -34.773  15.224  -3.132  1.00 20.00    -0.003 C 
HETATM    4  C4  UNL     1     -35.670  16.197  -3.367  1.00 20.00    -0.012 C 
HETATM    5  C5  UNL     1     -38.121  16.441  -4.059  1.00 20.00     0.027 C 
HETATM    6  C6  UNL     1     -38.955  15.399  -4.159  1.00 20.00     0.100 C 
HETATM    7  C7  UNL     1     -37.071  14.506  -4.444  1.00 20.00     0.047 C 
HETATM    8  C8  UNL     1     -36.741  15.992  -4.386  1.00 20.00     0.085 C 
HETATM    9  N9  UNL     1     -38.332  14.203  -4.411  1.00 20.00    -0.245 NA
HETATM   10 BR10 UNL     1     -40.783  15.450  -3.919  1.00 20.00    -0.029 Br
ENDROOT
TORSDOF 0
ENDMDL
MODEL 7
REMARK VINA RESULT:      -4.3     11.689     12.229
REMARK  0 active torsions:
REMARK  status: ('A' for Active; 'I' for Inactive)
ROOT
HETATM    1  C1  UNL     1     -34.384  17.668  -0.851  1.00 20.00     0.002 C 
HETATM    2  C2  UNL     1     -35.192  16.643  -1.167  1.00 20.00     0.028 C 
HETATM    3  C3  UNL     1     -33.307  18.111  -1.719  1.00 20.00    -0.003 C 
HETATM    4  C4  UNL     1     -32.857  17.338  -2.721  1.00 20.00    -0.012 C 
HETATM    5  C5  UNL     1     -33.730  15.537  -4.315  1.00 20.00     0.027 C 
HETATM    6  C6  UNL     1     -35.024  15.209  -4.402  1.00 20.00     0.100 C 
HETATM    7  C7  UNL     1     -34.879  15.989  -2.453  1.00 20.00     0.047 C 
HETATM    8  C8  UNL     1     -33.431  15.975  -2.925  1.00 20.00     0.085 C 
HETATM    9  N9  UNL     1     -35.746  15.463  -3.263  1.00 20.00    -0.245 NA
HETATM   10 BR10 UNL     1     -35.874  14.541  -5.897  1.00 20.00    -0.029 Br
ENDROOT
TORSDOF 0
ENDMDL
MODEL 8
REMARK VINA RESULT:      -4.3     11.599     12.319
REMARK  0 active torsions:
REMARK  status: ('A' for Active; 'I' for Inactive)
ROOT
HETATM    1  C1  UNL     1     -34.906  14.616  -5.805  1.00 20.00     0.002 C 
HETATM    2  C2  UNL     1     -33.726  14.849  -5.209  1.00 20.00     0.028 C 
HETATM    3  C3  UNL     1     -36.175  14.967  -5.192  1.00 20.00    -0.003 C 
HETATM    4  C4  UNL     1     -36.261  15.249  -3.881  1.00 20.00    -0.012 C 
HETATM    5  C5  UNL     1     -34.810  16.225  -2.014  1.00 20.00     0.027 C 
HETATM    6  C6  UNL     1     -33.612  16.777  -2.238  1.00 20.00     0.100 C 
HETATM    7  C7  UNL     1     -33.825  15.467  -3.872  1.00 20.00     0.047 C 
HETATM    8  C8  UNL     1     -35.047  15.153  -3.018  1.00 20.00     0.085 C 
HETATM    9  N9  UNL     1     -32.982  16.314  -3.366  1.00 20.00    -0.245 NA
HETATM   10 BR10 UNL     1     -32.824  18.103  -1.226  1.00 20.00    -0.029 Br
ENDROOT
TORSDOF 0
ENDMDL
MODEL 9
REMARK VINA RESULT:      -4.3     12.014     12.479
REMARK  0 active torsions:
REMARK  status: ('A' for Active; 'I' for Inactive)
ROOT
HETATM    1  C1  UNL     1     -34.795  16.316  -1.981  1.00 20.00     0.002 C 
HETATM    2  C2  UNL     1     -35.756  15.753  -2.729  1.00 20.00     0.028 C 
HETATM    3  C3  UNL     1     -33.444  16.527  -2.471  1.00 20.00    -0.003 C 
HETATM    4  C4  UNL     1     -32.995  15.894  -3.568  1.00 20.00    -0.012 C 
HETATM    5  C5  UNL     1     -33.907  14.944  -5.762  1.00 20.00     0.027 C 
HETATM    6  C6  UNL     1     -35.168  15.134  -6.167  1.00 20.00     0.100 C 
HETATM    7  C7  UNL     1     -35.322  15.343  -4.079  1.00 20.00     0.047 C 
HETATM    8  C8  UNL     1     -33.873  14.915  -4.275  1.00 20.00     0.085 C 
HETATM    9  N9  UNL     1     -36.057  15.365  -5.148  1.00 20.00    -0.245 NA
HETATM   10 BR10 UNL     1     -35.747  15.178  -7.918  1.00 20.00    -0.029 Br
ENDROOT
TORSDOF 0
ENDMDL
