MODEL 1
REMARK VINA RESULT:      -5.7      0.000      0.000
REMARK  0 active torsions:
REMARK  status: ('A' for Active; 'I' for Inactive)
ROOT
HETATM    1  C1  UNL     1     -32.646   7.153   2.382  1.00 20.00     0.104 C 
HETATM    2  C2  UNL     1     -34.592   4.687   4.373  1.00 20.00     0.107 A 
HETATM    3  C3  UNL     1     -33.479   7.158   4.682  1.00 20.00     0.145 A 
HETATM    4  C4  UNL     1     -33.346   6.527   3.455  1.00 20.00     0.100 A 
HETATM    5  C5  UNL     1     -33.916   5.268   3.307  1.00 20.00     0.142 A 
HETATM    6  C6  UNL     1     -34.670   5.400   5.558  1.00 20.00     0.212 A 
HETATM    7  N7  UNL     1     -32.076   7.663   1.508  1.00 20.00    -0.191 NA
HETATM    8  N8  UNL     1     -34.129   6.625   5.741  1.00 20.00    -0.231 NA
HETATM    9  F9  UNL     1     -33.822   4.605   2.145  1.00 20.00    -0.204 F 
HETATM   10  F10 UNL     1     -35.320   4.852   6.596  1.00 20.00    -0.184 F 
ENDROOT
TORSDOF 0
ENDMDL
MODEL 2
REMARK VINA RESULT:      -5.3      1.732      2.130
REMARK  0 active torsions:
REMARK  status: ('A' for Active; 'I' for Inactive)
ROOT
HETATM    1  C1  UNL     1     -32.752   6.990   2.522  1.00 20.00     0.104 C 
HETATM    2  C2  UNL     1     -33.996   6.378   5.974  1.00 20.00     0.107 A 
HETATM    3  C3  UNL     1     -34.286   5.337   3.469  1.00 20.00     0.145 A 
HETATM    4  C4  UNL     1     -33.447   6.427   3.633  1.00 20.00     0.100 A 
HETATM    5  C5  UNL     1     -33.304   6.951   4.913  1.00 20.00     0.142 A 
HETATM    6  C6  UNL     1     -34.810   5.290   5.705  1.00 20.00     0.212 A 
HETATM    7  N7  UNL     1     -32.186   7.449   1.617  1.00 20.00    -0.191 NA
HETATM    8  N8  UNL     1     -34.974   4.752   4.475  1.00 20.00    -0.231 NA
HETATM    9  F9  UNL     1     -32.507   8.006   5.138  1.00 20.00    -0.204 F 
HETATM   10  F10 UNL     1     -35.482   4.726   6.719  1.00 20.00    -0.184 F 
ENDROOT
TORSDOF 0
ENDMDL
MODEL 3
REMARK VINA RESULT:      -4.8     16.466     17.183
REMARK  0 active torsions:
REMARK  status: ('A' for Active; 'I' for Inactive)
ROOT
HETATM    1  C1  UNL     1     -22.941  17.849  11.126  1.00 20.00     0.104 C 
HETATM    2  C2  UNL     1     -25.235  19.104   8.480  1.00 20.00     0.107 A 
HETATM    3  C3  UNL     1     -22.719  18.072   8.701  1.00 20.00     0.145 A 
HETATM    4  C4  UNL     1     -23.469  18.224   9.856  1.00 20.00     0.100 A 
HETATM    5  C5  UNL     1     -24.750  18.749   9.734  1.00 20.00     0.142 A 
HETATM    6  C6  UNL     1     -24.406  18.913   7.387  1.00 20.00     0.212 A 
HETATM    7  N7  UNL     1     -22.511  17.544  12.161  1.00 20.00    -0.191 NA
HETATM    8  N8  UNL     1     -23.156  18.405   7.465  1.00 20.00    -0.231 NA
HETATM    9  F9  UNL     1     -25.527  18.921  10.814  1.00 20.00    -0.204 F 
HETATM   10  F10 UNL     1     -24.860  19.250   6.171  1.00 20.00    -0.184 F 
ENDROOT
TORSDOF 0
ENDMDL
MODEL 4
REMARK VINA RESULT:      -4.7     12.145     12.386
REMARK  0 active torsions:
REMARK  status: ('A' for Active; 'I' for Inactive)
ROOT
HETATM    1  C1  UNL     1     -36.211  14.298  -4.072  1.00 20.00     0.104 C 
HETATM    2  C2  UNL     1     -32.931  15.931  -3.432  1.00 20.00     0.107 A 
HETATM    3  C3  UNL     1     -35.450  15.899  -2.386  1.00 20.00     0.145 A 
HETATM    4  C4  UNL     1     -35.190  15.108  -3.494  1.00 20.00     0.100 A 
HETATM    5  C5  UNL     1     -33.903  15.130  -4.020  1.00 20.00     0.142 A 
HETATM    6  C6  UNL     1     -33.292  16.685  -2.327  1.00 20.00     0.212 A 
HETATM    7  N7  UNL     1     -37.043  13.638  -4.543  1.00 20.00    -0.191 NA
HETATM    8  N8  UNL     1     -34.532  16.689  -1.787  1.00 20.00    -0.231 NA
HETATM    9  F9  UNL     1     -33.587  14.388  -5.092  1.00 20.00    -0.204 F 
HETATM   10  F10 UNL     1     -32.364  17.461  -1.749  1.00 20.00    -0.184 F 
ENDROOT
TORSDOF 0
ENDMDL
MODEL 5
REMARK VINA RESULT:      -4.7     16.633     16.714
REMARK  0 active torsions:
REMARK  status: ('A' for Active; 'I' for Inactive)
ROOT
HETATM    1  C1  UNL     1     -22.739  17.033   9.238  1.00 20.00     0.104 C 
HETATM    2  C2  UNL     1     -24.970  17.760  12.125  1.00 20.00     0.107 A 
HETATM    3  C3  UNL     1     -24.635  18.549   9.535  1.00 20.00     0.145 A 
HETATM    4  C4  UNL     1     -23.773  17.592  10.046  1.00 20.00     0.100 A 
HETATM    5  C5  UNL     1     -23.951  17.195  11.366  1.00 20.00     0.142 A 
HETATM    6  C6  UNL     1     -25.778  18.710  11.521  1.00 20.00     0.212 A 
HETATM    7  N7  UNL     1     -21.896  16.577   8.582  1.00 20.00    -0.191 NA
HETATM    8  N8  UNL     1     -25.636  19.120  10.241  1.00 20.00    -0.231 NA
HETATM    9  F9  UNL     1     -23.150  16.273  11.919  1.00 20.00    -0.204 F 
HETATM   10  F10 UNL     1     -26.765  19.262  12.241  1.00 20.00    -0.184 F 
ENDROOT
TORSDOF 0
ENDMDL
MODEL 6
REMARK VINA RESULT:      -4.6     16.576     16.748
REMARK  0 active torsions:
REMARK  status: ('A' for Active; 'I' for Inactive)
ROOT
HETATM    1  C1  UNL     1     -22.405  17.364   8.291  1.00 20.00     0.104 C 
HETATM    2  C2  UNL     1     -25.310  18.891  10.042  1.00 20.00     0.107 A 
HETATM    3  C3  UNL     1     -23.078  17.441  10.641  1.00 20.00     0.145 A 
HETATM    4  C4  UNL     1     -23.310  17.771   9.315  1.00 20.00     0.100 A 
HETATM    5  C5  UNL     1     -24.449  18.510   9.019  1.00 20.00     0.142 A 
HETATM    6  C6  UNL     1     -24.989  18.511  11.335  1.00 20.00     0.212 A 
HETATM    7  N7  UNL     1     -21.668  17.033   7.456  1.00 20.00    -0.191 NA
HETATM    8  N8  UNL     1     -23.891  17.793  11.662  1.00 20.00    -0.231 NA
HETATM    9  F9  UNL     1     -24.730  18.860   7.755  1.00 20.00    -0.204 F 
HETATM   10  F10 UNL     1     -25.810  18.872  12.332  1.00 20.00    -0.184 F 
ENDROOT
TORSDOF 0
ENDMDL
MODEL 7
REMARK VINA RESULT:      -4.5     11.809     12.862
REMARK  0 active torsions:
REMARK  status: ('A' for Active; 'I' for Inactive)
ROOT
HETATM    1  C1  UNL     1     -37.042  14.550  -4.166  1.00 20.00     0.104 C 
HETATM    2  C2  UNL     1     -33.503  15.478  -3.495  1.00 20.00     0.107 A 
HETATM    3  C3  UNL     1     -35.906  16.701  -3.910  1.00 20.00     0.145 A 
HETATM    4  C4  UNL     1     -35.862  15.316  -3.933  1.00 20.00     0.100 A 
HETATM    5  C5  UNL     1     -34.633  14.701  -3.720  1.00 20.00     0.142 A 
HETATM    6  C6  UNL     1     -33.652  16.856  -3.492  1.00 20.00     0.212 A 
HETATM    7  N7  UNL     1     -38.002  13.926  -4.356  1.00 20.00    -0.191 NA
HETATM    8  N8  UNL     1     -34.829  17.489  -3.694  1.00 20.00    -0.231 NA
HETATM    9  F9  UNL     1     -34.524  13.365  -3.730  1.00 20.00    -0.204 F 
HETATM   10  F10 UNL     1     -32.570  17.618  -3.275  1.00 20.00    -0.184 F 
ENDROOT
TORSDOF 0
ENDMDL
MODEL 8
REMARK VINA RESULT:      -4.3     12.286     12.749
REMARK  0 active torsions:
REMARK  status: ('A' for Active; 'I' for Inactive)
ROOT
HETATM    1  C1  UNL     1     -36.629  14.473  -4.081  1.00 20.00     0.104 C 
HETATM    2  C2  UNL     1     -34.637  17.108  -2.370  1.00 20.00     0.107 A 
HETATM    3  C3  UNL     1     -34.224  14.849  -3.843  1.00 20.00     0.145 A 
HETATM    4  C4  UNL     1     -35.529  15.235  -3.587  1.00 20.00     0.100 A 
HETATM    5  C5  UNL     1     -35.731  16.388  -2.836  1.00 20.00     0.142 A 
HETATM    6  C6  UNL     1     -33.371  16.638  -2.680  1.00 20.00     0.212 A 
HETATM    7  N7  UNL     1     -37.524  13.852  -4.484  1.00 20.00    -0.191 NA
HETATM    8  N8  UNL     1     -33.136  15.523  -3.408  1.00 20.00    -0.231 NA
HETATM    9  F9  UNL     1     -36.971  16.814  -2.553  1.00 20.00    -0.204 F 
HETATM   10  F10 UNL     1     -32.307  17.323  -2.238  1.00 20.00    -0.184 F 
ENDROOT
TORSDOF 0
ENDMDL
MODEL 9
REMARK VINA RESULT:      -4.3     12.027     12.686
REMARK  0 active torsions:
REMARK  status: ('A' for Active; 'I' for Inactive)
ROOT
HETATM    1  C1  UNL     1     -37.723  14.438  -4.234  1.00 20.00     0.104 C 
HETATM    2  C2  UNL     1     -34.565  16.120  -3.217  1.00 20.00     0.107 A 
HETATM    3  C3  UNL     1     -35.364  13.869  -4.535  1.00 20.00     0.145 A 
HETATM    4  C4  UNL     1     -36.338  14.725  -4.049  1.00 20.00     0.100 A 
HETATM    5  C5  UNL     1     -35.923  15.870  -3.379  1.00 20.00     0.142 A 
HETATM    6  C6  UNL     1     -33.669  15.201  -3.740  1.00 20.00     0.212 A 
HETATM    7  N7  UNL     1     -38.851  14.205  -4.384  1.00 20.00    -0.191 NA
HETATM    8  N8  UNL     1     -34.035  14.078  -4.397  1.00 20.00    -0.231 NA
HETATM    9  F9  UNL     1     -36.818  16.738  -2.884  1.00 20.00    -0.204 F 
HETATM   10  F10 UNL     1     -32.356  15.430  -3.592  1.00 20.00    -0.184 F 
ENDROOT
TORSDOF 0
ENDMDL
