MODEL 1
REMARK VINA RESULT:      -4.8      0.000      0.000
REMARK  0 active torsions:
REMARK  status: ('A' for Active; 'I' for Inactive)
ROOT
HETATM    1  C1  UNL     1     -33.442   5.415   2.579  1.00 20.00    -0.026 C 
HETATM    2  C2  UNL     1     -34.369   5.005   3.455  1.00 20.00    -0.025 C 
HETATM    3  C3  UNL     1     -33.061   7.489   3.965  1.00 20.00     0.012 C 
HETATM    4  C4  UNL     1     -32.552   6.607   2.812  1.00 20.00     0.004 C 
HETATM    5  C5  UNL     1     -34.609   5.659   4.795  1.00 20.00     0.007 C 
HETATM    6  C6  UNL     1     -33.474   6.644   5.181  1.00 20.00    -0.011 C 
HETATM    7  C7  UNL     1     -32.412   7.440   1.538  1.00 20.00     0.014 C 
HETATM    8  C8  UNL     1     -34.795   4.577   5.865  1.00 20.00     0.014 C 
HETATM    9  C9  UNL     1     -33.882   7.562   6.337  1.00 20.00     0.010 C 
ENDROOT
TORSDOF 0
ENDMDL
MODEL 2
REMARK VINA RESULT:      -4.5      0.980      3.382
REMARK  0 active torsions:
REMARK  status: ('A' for Active; 'I' for Inactive)
ROOT
HETATM    1  C1  UNL     1     -34.724   4.756   4.815  1.00 20.00    -0.026 C 
HETATM    2  C2  UNL     1     -34.077   4.145   3.813  1.00 20.00    -0.025 C 
HETATM    3  C3  UNL     1     -33.414   6.865   4.362  1.00 20.00     0.012 C 
HETATM    4  C4  UNL     1     -34.606   6.230   5.099  1.00 20.00     0.004 C 
HETATM    5  C5  UNL     1     -33.186   4.859   2.825  1.00 20.00     0.007 C 
HETATM    6  C6  UNL     1     -33.346   6.401   2.897  1.00 20.00    -0.011 C 
HETATM    7  C7  UNL     1     -34.489   6.488   6.601  1.00 20.00     0.014 C 
HETATM    8  C8  UNL     1     -33.468   4.336   1.412  1.00 20.00     0.014 C 
HETATM    9  C9  UNL     1     -32.208   7.129   2.175  1.00 20.00     0.010 C 
ENDROOT
TORSDOF 0
ENDMDL
MODEL 3
REMARK VINA RESULT:      -4.4     11.574     12.446
REMARK  0 active torsions:
REMARK  status: ('A' for Active; 'I' for Inactive)
ROOT
HETATM    1  C1  UNL     1     -33.469  17.013  -2.132  1.00 20.00    -0.026 C 
HETATM    2  C2  UNL     1     -32.965  16.465  -3.246  1.00 20.00    -0.025 C 
HETATM    3  C3  UNL     1     -35.706  15.960  -2.637  1.00 20.00     0.012 C 
HETATM    4  C4  UNL     1     -34.838  16.688  -1.596  1.00 20.00     0.004 C 
HETATM    5  C5  UNL     1     -33.686  15.431  -4.077  1.00 20.00     0.007 C 
HETATM    6  C6  UNL     1     -34.921  14.843  -3.343  1.00 20.00    -0.011 C 
HETATM    7  C7  UNL     1     -35.549  17.953  -1.115  1.00 20.00     0.014 C 
HETATM    8  C8  UNL     1     -32.703  14.328  -4.484  1.00 20.00     0.014 C 
HETATM    9  C9  UNL     1     -35.845  14.083  -4.298  1.00 20.00     0.010 C 
ENDROOT
TORSDOF 0
ENDMDL
MODEL 4
REMARK VINA RESULT:      -4.4     11.644     12.498
REMARK  0 active torsions:
REMARK  status: ('A' for Active; 'I' for Inactive)
ROOT
HETATM    1  C1  UNL     1     -34.961  15.540  -2.559  1.00 20.00    -0.026 C 
HETATM    2  C2  UNL     1     -35.287  16.468  -1.649  1.00 20.00    -0.025 C 
HETATM    3  C3  UNL     1     -33.004  16.955  -3.290  1.00 20.00     0.012 C 
HETATM    4  C4  UNL     1     -33.690  15.580  -3.364  1.00 20.00     0.004 C 
HETATM    5  C5  UNL     1     -34.407  17.641  -1.290  1.00 20.00     0.007 C 
HETATM    6  C6  UNL     1     -32.967  17.489  -1.848  1.00 20.00    -0.011 C 
HETATM    7  C7  UNL     1     -33.956  15.205  -4.822  1.00 20.00     0.014 C 
HETATM    8  C8  UNL     1     -34.398  17.826   0.231  1.00 20.00     0.014 C 
HETATM    9  C9  UNL     1     -32.193  18.810  -1.804  1.00 20.00     0.010 C 
ENDROOT
TORSDOF 0
ENDMDL
MODEL 5
REMARK VINA RESULT:      -4.4     11.647     12.503
REMARK  0 active torsions:
REMARK  status: ('A' for Active; 'I' for Inactive)
ROOT
HETATM    1  C1  UNL     1     -34.506  17.431  -1.496  1.00 20.00    -0.026 C 
HETATM    2  C2  UNL     1     -35.275  16.368  -1.771  1.00 20.00    -0.025 C 
HETATM    3  C3  UNL     1     -32.681  16.480  -2.956  1.00 20.00     0.012 C 
HETATM    4  C4  UNL     1     -33.197  17.707  -2.186  1.00 20.00     0.004 C 
HETATM    5  C5  UNL     1     -34.946  15.343  -2.831  1.00 20.00     0.007 C 
HETATM    6  C6  UNL     1     -33.803  15.812  -3.769  1.00 20.00    -0.011 C 
HETATM    7  C7  UNL     1     -32.142  18.179  -1.185  1.00 20.00     0.014 C 
HETATM    8  C8  UNL     1     -36.213  15.003  -3.623  1.00 20.00     0.014 C 
HETATM    9  C9  UNL     1     -33.229  14.657  -4.594  1.00 20.00     0.010 C 
ENDROOT
TORSDOF 0
ENDMDL
MODEL 6
REMARK VINA RESULT:      -4.3     16.014     16.300
REMARK  0 active torsions:
REMARK  status: ('A' for Active; 'I' for Inactive)
ROOT
HETATM    1  C1  UNL     1     -23.113  18.055   8.450  1.00 20.00    -0.026 C 
HETATM    2  C2  UNL     1     -23.056  17.196   9.477  1.00 20.00    -0.025 C 
HETATM    3  C3  UNL     1     -25.294  18.960   9.338  1.00 20.00     0.012 C 
HETATM    4  C4  UNL     1     -24.135  19.155   8.346  1.00 20.00     0.004 C 
HETATM    5  C5  UNL     1     -23.978  17.250  10.673  1.00 20.00     0.007 C 
HETATM    6  C6  UNL     1     -24.782  18.576  10.736  1.00 20.00    -0.011 C 
HETATM    7  C7  UNL     1     -24.678  19.262   6.921  1.00 20.00     0.014 C 
HETATM    8  C8  UNL     1     -23.166  17.029  11.953  1.00 20.00     0.014 C 
HETATM    9  C9  UNL     1     -25.957  18.487  11.714  1.00 20.00     0.010 C 
ENDROOT
TORSDOF 0
ENDMDL
MODEL 7
REMARK VINA RESULT:      -4.2     15.761     16.954
REMARK  0 active torsions:
REMARK  status: ('A' for Active; 'I' for Inactive)
ROOT
HETATM    1  C1  UNL     1     -22.648  18.050   9.916  1.00 20.00    -0.026 C 
HETATM    2  C2  UNL     1     -23.367  18.794   9.064  1.00 20.00    -0.025 C 
HETATM    3  C3  UNL     1     -24.391  18.424  11.701  1.00 20.00     0.012 C 
HETATM    4  C4  UNL     1     -23.148  17.627  11.271  1.00 20.00     0.004 C 
HETATM    5  C5  UNL     1     -24.776  19.263   9.338  1.00 20.00     0.007 C 
HETATM    6  C6  UNL     1     -25.411  18.540  10.555  1.00 20.00    -0.011 C 
HETATM    7  C7  UNL     1     -22.049  17.762  12.325  1.00 20.00     0.014 C 
HETATM    8  C8  UNL     1     -25.628  19.082   8.077  1.00 20.00     0.014 C 
HETATM    9  C9  UNL     1     -26.671  19.254  11.052  1.00 20.00     0.010 C 
ENDROOT
TORSDOF 0
ENDMDL
MODEL 8
REMARK VINA RESULT:      -4.1     11.463     12.514
REMARK  0 active torsions:
REMARK  status: ('A' for Active; 'I' for Inactive)
ROOT
HETATM    1  C1  UNL     1     -33.182  16.441  -3.475  1.00 20.00    -0.026 C 
HETATM    2  C2  UNL     1     -32.673  17.245  -2.532  1.00 20.00    -0.025 C 
HETATM    3  C3  UNL     1     -35.132  15.914  -1.963  1.00 20.00     0.012 C 
HETATM    4  C4  UNL     1     -34.550  15.819  -3.383  1.00 20.00     0.004 C 
HETATM    5  C5  UNL     1     -33.420  17.659  -1.286  1.00 20.00     0.007 C 
HETATM    6  C6  UNL     1     -34.931  17.315  -1.363  1.00 20.00    -0.011 C 
HETATM    7  C7  UNL     1     -34.518  14.360  -3.840  1.00 20.00     0.014 C 
HETATM    8  C8  UNL     1     -33.201  19.155  -1.033  1.00 20.00     0.014 C 
HETATM    9  C9  UNL     1     -35.607  17.396   0.008  1.00 20.00     0.010 C 
ENDROOT
TORSDOF 0
ENDMDL
MODEL 9
REMARK VINA RESULT:      -4.0     11.567     12.925
REMARK  0 active torsions:
REMARK  status: ('A' for Active; 'I' for Inactive)
ROOT
HETATM    1  C1  UNL     1     -33.627  17.154  -3.542  1.00 20.00    -0.026 C 
HETATM    2  C2  UNL     1     -33.953  16.900  -4.816  1.00 20.00    -0.025 C 
HETATM    3  C3  UNL     1     -35.208  15.339  -2.783  1.00 20.00     0.012 C 
HETATM    4  C4  UNL     1     -34.072  16.297  -2.386  1.00 20.00     0.004 C 
HETATM    5  C5  UNL     1     -34.769  15.706  -5.255  1.00 20.00     0.007 C 
HETATM    6  C6  UNL     1     -34.920  14.651  -4.128  1.00 20.00    -0.011 C 
HETATM    7  C7  UNL     1     -34.505  17.161  -1.202  1.00 20.00     0.014 C 
HETATM    8  C8  UNL     1     -34.141  15.094  -6.511  1.00 20.00     0.014 C 
HETATM    9  C9  UNL     1     -36.025  13.636  -4.438  1.00 20.00     0.010 C 
ENDROOT
TORSDOF 0
ENDMDL
