MODEL 1
REMARK VINA RESULT:      -4.3      0.000      0.000
REMARK  0 active torsions:
REMARK  status: ('A' for Active; 'I' for Inactive)
ROOT
HETATM    1  C1  UNL     1     -34.613   5.119   6.313  1.00 20.00     0.011 A 
HETATM    2  C2  UNL     1     -34.194   6.552   5.970  1.00 20.00     0.011 A 
HETATM    3  C3  UNL     1     -35.590   5.618   3.843  1.00 20.00     0.027 A 
HETATM    4  C4  UNL     1     -34.145   5.134   3.646  1.00 20.00     0.067 A 
HETATM    5  C5  UNL     1     -34.624   5.615   4.938  1.00 20.00    -0.026 A 
HETATM    6 BR6  UNL     1     -32.979   6.234   2.615  1.00 20.00    -0.090 Br
ENDROOT
TORSDOF 0
ENDMDL
MODEL 2
REMARK VINA RESULT:      -4.1      2.389      3.305
REMARK  0 active torsions:
REMARK  status: ('A' for Active; 'I' for Inactive)
ROOT
HETATM    1  C1  UNL     1     -32.653   7.382   1.945  1.00 20.00     0.011 A 
HETATM    2  C2  UNL     1     -32.098   7.233   3.364  1.00 20.00     0.011 A 
HETATM    3  C3  UNL     1     -33.080   4.808   2.652  1.00 20.00     0.027 A 
HETATM    4  C4  UNL     1     -34.277   5.608   3.190  1.00 20.00     0.067 A 
HETATM    5  C5  UNL     1     -33.029   6.260   2.803  1.00 20.00    -0.026 A 
HETATM    6 BR6  UNL     1     -34.698   5.427   5.040  1.00 20.00    -0.090 Br
ENDROOT
TORSDOF 0
ENDMDL
MODEL 3
REMARK VINA RESULT:      -3.7      1.117      2.045
REMARK  0 active torsions:
REMARK  status: ('A' for Active; 'I' for Inactive)
ROOT
HETATM    1  C1  UNL     1     -35.617   5.101   4.490  1.00 20.00     0.011 A 
HETATM    2  C2  UNL     1     -34.287   4.407   4.179  1.00 20.00     0.011 A 
HETATM    3  C3  UNL     1     -33.678   6.732   5.432  1.00 20.00     0.027 A 
HETATM    4  C4  UNL     1     -33.856   7.086   3.948  1.00 20.00     0.067 A 
HETATM    5  C5  UNL     1     -34.349   5.828   4.502  1.00 20.00    -0.026 A 
HETATM    6 BR6  UNL     1     -32.301   7.073   2.846  1.00 20.00    -0.090 Br
ENDROOT
TORSDOF 0
ENDMDL
MODEL 4
REMARK VINA RESULT:      -3.3      8.604      9.367
REMARK  0 active torsions:
REMARK  status: ('A' for Active; 'I' for Inactive)
ROOT
HETATM    1  C1  UNL     1     -41.078   5.297  -1.106  1.00 20.00     0.011 A 
HETATM    2  C2  UNL     1     -41.571   5.654   0.299  1.00 20.00     0.011 A 
HETATM    3  C3  UNL     1     -42.898   7.270  -1.426  1.00 20.00     0.027 A 
HETATM    4  C4  UNL     1     -41.556   7.962  -1.146  1.00 20.00     0.067 A 
HETATM    5  C5  UNL     1     -41.773   6.553  -0.832  1.00 20.00    -0.026 A 
HETATM    6 BR6  UNL     1     -41.500   9.235   0.272  1.00 20.00    -0.090 Br
ENDROOT
TORSDOF 0
ENDMDL
MODEL 5
REMARK VINA RESULT:      -3.3      8.764      9.327
REMARK  0 active torsions:
REMARK  status: ('A' for Active; 'I' for Inactive)
ROOT
HETATM    1  C1  UNL     1     -41.441   8.173  -0.809  1.00 20.00     0.011 A 
HETATM    2  C2  UNL     1     -41.319   7.730   0.652  1.00 20.00     0.011 A 
HETATM    3  C3  UNL     1     -41.048   5.500  -0.866  1.00 20.00     0.027 A 
HETATM    4  C4  UNL     1     -42.560   5.710  -0.690  1.00 20.00     0.067 A 
HETATM    5  C5  UNL     1     -41.600   6.775  -0.415  1.00 20.00    -0.026 A 
HETATM    6 BR6  UNL     1     -43.410   4.823   0.767  1.00 20.00    -0.090 Br
ENDROOT
TORSDOF 0
ENDMDL
MODEL 6
REMARK VINA RESULT:      -3.3      8.296      9.106
REMARK  0 active torsions:
REMARK  status: ('A' for Active; 'I' for Inactive)
ROOT
HETATM    1  C1  UNL     1     -41.563   9.194   0.388  1.00 20.00     0.011 A 
HETATM    2  C2  UNL     1     -42.271   8.680  -0.869  1.00 20.00     0.011 A 
HETATM    3  C3  UNL     1     -42.562   6.766   1.028  1.00 20.00     0.027 A 
HETATM    4  C4  UNL     1     -41.193   6.512   0.378  1.00 20.00     0.067 A 
HETATM    5  C5  UNL     1     -41.896   7.782   0.217  1.00 20.00    -0.026 A 
HETATM    6 BR6  UNL     1     -41.125   5.293  -1.086  1.00 20.00    -0.090 Br
ENDROOT
TORSDOF 0
ENDMDL
MODEL 7
REMARK VINA RESULT:      -3.3     16.505     17.481
REMARK  0 active torsions:
REMARK  status: ('A' for Active; 'I' for Inactive)
ROOT
HETATM    1  C1  UNL     1     -22.582  17.761  12.313  1.00 20.00     0.011 A 
HETATM    2  C2  UNL     1     -24.067  18.138  12.332  1.00 20.00     0.011 A 
HETATM    3  C3  UNL     1     -23.660  16.680  10.082  1.00 20.00     0.027 A 
HETATM    4  C4  UNL     1     -23.284  18.126   9.723  1.00 20.00     0.067 A 
HETATM    5  C5  UNL     1     -23.409  17.687  11.110  1.00 20.00    -0.026 A 
HETATM    6 BR6  UNL     1     -24.643  19.229   8.969  1.00 20.00    -0.090 Br
ENDROOT
TORSDOF 0
ENDMDL
MODEL 8
REMARK VINA RESULT:      -3.3     15.986     17.094
REMARK  0 active torsions:
REMARK  status: ('A' for Active; 'I' for Inactive)
ROOT
HETATM    1  C1  UNL     1     -25.237  17.002  12.258  1.00 20.00     0.011 A 
HETATM    2  C2  UNL     1     -24.548  15.766  11.672  1.00 20.00     0.011 A 
HETATM    3  C3  UNL     1     -22.613  17.623  12.066  1.00 20.00     0.027 A 
HETATM    4  C4  UNL     1     -23.235  17.942  10.697  1.00 20.00     0.067 A 
HETATM    5  C5  UNL     1     -23.905  17.075  11.660  1.00 20.00    -0.026 A 
HETATM    6 BR6  UNL     1     -22.419  17.170   9.157  1.00 20.00    -0.090 Br
ENDROOT
TORSDOF 0
ENDMDL
MODEL 9
REMARK VINA RESULT:      -3.2     12.584     13.097
REMARK  0 active torsions:
REMARK  status: ('A' for Active; 'I' for Inactive)
ROOT
HETATM    1  C1  UNL     1     -33.414  16.587  -2.820  1.00 20.00     0.011 A 
HETATM    2  C2  UNL     1     -34.626  15.701  -2.520  1.00 20.00     0.011 A 
HETATM    3  C3  UNL     1     -33.146  14.395  -4.378  1.00 20.00     0.027 A 
HETATM    4  C4  UNL     1     -34.037  15.374  -5.158  1.00 20.00     0.067 A 
HETATM    5  C5  UNL     1     -33.821  15.511  -3.721  1.00 20.00    -0.026 A 
HETATM    6 BR6  UNL     1     -35.714  14.726  -5.791  1.00 20.00    -0.090 Br
ENDROOT
TORSDOF 0
ENDMDL
