MODEL 1
REMARK VINA RESULT:      -5.8      0.000      0.000
REMARK  2 active torsions:
REMARK  status: ('A' for Active; 'I' for Inactive)
REMARK    1  A    between atoms: C6_6  and  C7_7 
REMARK    2  A    between atoms: C7_7  and  N8_8 
ROOT
HETATM    1  C1  UNL     1     -32.565   7.823   1.523  1.00 20.00     0.332 C 
HETATM    2  N8  UNL     1     -32.328   7.262   2.527  1.00 20.00    -0.247 NA
HETATM    3  O9  UNL     1     -32.802   8.386   0.517  1.00 20.00    -0.260 OA
ENDROOT
BRANCH   2   4
HETATM    4  C7  UNL     1     -33.045   6.002   2.702  1.00 20.00     0.161 C 
BRANCH   4   5
HETATM    5  C6  UNL     1     -34.143   6.201   3.737  1.00 20.00     0.028 C 
HETATM    6  C3  UNL     1     -33.677   6.943   4.952  1.00 20.00    -0.024 C 
HETATM    7  C2  UNL     1     -34.112   6.372   6.079  1.00 20.00    -0.030 C 
HETATM    8  C4  UNL     1     -34.931   5.155   5.805  1.00 20.00     0.027 C 
HETATM    9  C5  UNL     1     -34.631   4.873   4.332  1.00 20.00     0.014 C 
ENDBRANCH   4   5
ENDBRANCH   2   4
TORSDOF 2
ENDMDL
MODEL 2
REMARK VINA RESULT:      -4.8     11.077     11.706
REMARK  2 active torsions:
REMARK  status: ('A' for Active; 'I' for Inactive)
REMARK    1  A    between atoms: C6_6  and  C7_7 
REMARK    2  A    between atoms: C7_7  and  N8_8 
ROOT
HETATM    1  C1  UNL     1     -36.441  13.794  -4.703  1.00 20.00     0.332 C 
HETATM    2  N8  UNL     1     -35.304  13.938  -4.960  1.00 20.00    -0.247 NA
HETATM    3  O9  UNL     1     -37.580  13.648  -4.447  1.00 20.00    -0.260 OA
ENDROOT
BRANCH   2   4
HETATM    4  C7  UNL     1     -34.447  14.183  -3.802  1.00 20.00     0.161 C 
BRANCH   4   5
HETATM    5  C6  UNL     1     -34.456  15.673  -3.493  1.00 20.00     0.028 C 
HETATM    6  C3  UNL     1     -33.082  16.257  -3.372  1.00 20.00    -0.024 C 
HETATM    7  C2  UNL     1     -32.977  17.064  -2.313  1.00 20.00    -0.030 C 
HETATM    8  C4  UNL     1     -34.256  17.147  -1.549  1.00 20.00     0.027 C 
HETATM    9  C5  UNL     1     -35.063  15.979  -2.115  1.00 20.00     0.014 C 
ENDBRANCH   4   5
ENDBRANCH   2   4
TORSDOF 2
ENDMDL
MODEL 3
REMARK VINA RESULT:      -4.8     11.285     11.779
REMARK  2 active torsions:
REMARK  status: ('A' for Active; 'I' for Inactive)
REMARK    1  A    between atoms: C6_6  and  C7_7 
REMARK    2  A    between atoms: C7_7  and  N8_8 
ROOT
HETATM    1  C1  UNL     1     -36.321  13.708  -4.534  1.00 20.00     0.332 C 
HETATM    2  N8  UNL     1     -35.153  13.823  -4.575  1.00 20.00    -0.247 NA
HETATM    3  O9  UNL     1     -37.491  13.592  -4.491  1.00 20.00    -0.260 OA
ENDROOT
BRANCH   2   4
HETATM    4  C7  UNL     1     -34.678  15.204  -4.541  1.00 20.00     0.161 C 
BRANCH   4   5
HETATM    5  C6  UNL     1     -34.052  15.474  -3.180  1.00 20.00     0.028 C 
HETATM    6  C3  UNL     1     -35.036  15.978  -2.170  1.00 20.00    -0.024 C 
HETATM    7  C2  UNL     1     -34.549  17.009  -1.474  1.00 20.00    -0.030 C 
HETATM    8  C4  UNL     1     -33.167  17.369  -1.908  1.00 20.00     0.027 C 
HETATM    9  C5  UNL     1     -33.021  16.612  -3.228  1.00 20.00     0.014 C 
ENDBRANCH   4   5
ENDBRANCH   2   4
TORSDOF 2
ENDMDL
MODEL 4
REMARK VINA RESULT:      -4.3     11.569     12.166
REMARK  2 active torsions:
REMARK  status: ('A' for Active; 'I' for Inactive)
REMARK    1  A    between atoms: C6_6  and  C7_7 
REMARK    2  A    between atoms: C7_7  and  N8_8 
ROOT
HETATM    1  C1  UNL     1     -35.686  14.507  -6.420  1.00 20.00     0.332 C 
HETATM    2  N8  UNL     1     -35.068  14.260  -5.452  1.00 20.00    -0.247 NA
HETATM    3  O9  UNL     1     -36.307  14.754  -7.389  1.00 20.00    -0.260 OA
ENDROOT
BRANCH   2   4
HETATM    4  C7  UNL     1     -33.976  15.190  -5.177  1.00 20.00     0.161 C 
BRANCH   4   5
HETATM    5  C6  UNL     1     -33.770  15.273  -3.672  1.00 20.00     0.028 C 
HETATM    6  C3  UNL     1     -35.055  15.323  -2.905  1.00 20.00    -0.024 C 
HETATM    7  C2  UNL     1     -35.023  16.250  -1.943  1.00 20.00    -0.030 C 
HETATM    8  C4  UNL     1     -33.720  16.976  -1.915  1.00 20.00     0.027 C 
HETATM    9  C5  UNL     1     -33.085  16.581  -3.248  1.00 20.00     0.014 C 
ENDBRANCH   4   5
ENDBRANCH   2   4
TORSDOF 2
ENDMDL
MODEL 5
REMARK VINA RESULT:      -4.3     11.420     11.943
REMARK  2 active torsions:
REMARK  status: ('A' for Active; 'I' for Inactive)
REMARK    1  A    between atoms: C6_6  and  C7_7 
REMARK    2  A    between atoms: C7_7  and  N8_8 
ROOT
HETATM    1  C1  UNL     1     -38.176  14.503  -4.492  1.00 20.00     0.332 C 
HETATM    2  N8  UNL     1     -37.237  13.892  -4.136  1.00 20.00    -0.247 NA
HETATM    3  O9  UNL     1     -39.116  15.114  -4.847  1.00 20.00    -0.260 OA
ENDROOT
BRANCH   2   4
HETATM    4  C7  UNL     1     -35.995  14.234  -4.825  1.00 20.00     0.161 C 
BRANCH   4   5
HETATM    5  C6  UNL     1     -34.893  14.409  -3.790  1.00 20.00     0.028 C 
HETATM    6  C3  UNL     1     -35.220  15.434  -2.750  1.00 20.00    -0.024 C 
HETATM    7  C2  UNL     1     -34.186  16.245  -2.509  1.00 20.00    -0.030 C 
HETATM    8  C4  UNL     1     -33.004  15.902  -3.352  1.00 20.00     0.027 C 
HETATM    9  C5  UNL     1     -33.600  14.967  -4.404  1.00 20.00     0.014 C 
ENDBRANCH   4   5
ENDBRANCH   2   4
TORSDOF 2
ENDMDL
MODEL 6
REMARK VINA RESULT:      -4.2     15.552     16.146
REMARK  2 active torsions:
REMARK  status: ('A' for Active; 'I' for Inactive)
REMARK    1  A    between atoms: C6_6  and  C7_7 
REMARK    2  A    between atoms: C7_7  and  N8_8 
ROOT
HETATM    1  C1  UNL     1     -21.930  17.557   7.909  1.00 20.00     0.332 C 
HETATM    2  N8  UNL     1     -22.254  18.354   8.707  1.00 20.00    -0.247 NA
HETATM    3  O9  UNL     1     -21.603  16.757   7.109  1.00 20.00    -0.260 OA
ENDROOT
BRANCH   2   4
HETATM    4  C7  UNL     1     -23.678  18.341   9.033  1.00 20.00     0.161 C 
BRANCH   4   5
HETATM    5  C6  UNL     1     -23.842  17.975  10.501  1.00 20.00     0.028 C 
HETATM    6  C3  UNL     1     -23.898  16.497  10.735  1.00 20.00    -0.024 C 
HETATM    7  C2  UNL     1     -24.874  16.166  11.586  1.00 20.00    -0.030 C 
HETATM    8  C4  UNL     1     -25.633  17.362  12.053  1.00 20.00     0.027 C 
HETATM    9  C5  UNL     1     -25.186  18.448  11.073  1.00 20.00     0.014 C 
ENDBRANCH   4   5
ENDBRANCH   2   4
TORSDOF 2
ENDMDL
MODEL 7
REMARK VINA RESULT:      -4.2     11.571     12.335
REMARK  2 active torsions:
REMARK  status: ('A' for Active; 'I' for Inactive)
REMARK    1  A    between atoms: C6_6  and  C7_7 
REMARK    2  A    between atoms: C7_7  and  N8_8 
ROOT
HETATM    1  C1  UNL     1     -31.674  18.495  -0.561  1.00 20.00     0.332 C 
HETATM    2  N8  UNL     1     -32.838  18.649  -0.550  1.00 20.00    -0.247 NA
HETATM    3  O9  UNL     1     -30.507  18.341  -0.571  1.00 20.00    -0.260 OA
ENDROOT
BRANCH   2   4
HETATM    4  C7  UNL     1     -33.503  18.339  -1.813  1.00 20.00     0.161 C 
BRANCH   4   5
HETATM    5  C6  UNL     1     -33.579  16.828  -1.970  1.00 20.00     0.028 C 
HETATM    6  C3  UNL     1     -33.017  16.343  -3.271  1.00 20.00    -0.024 C 
HETATM    7  C2  UNL     1     -33.806  15.430  -3.843  1.00 20.00    -0.030 C 
HETATM    8  C4  UNL     1     -35.025  15.160  -3.026  1.00 20.00     0.027 C 
HETATM    9  C5  UNL     1     -35.027  16.319  -2.030  1.00 20.00     0.014 C 
ENDBRANCH   4   5
ENDBRANCH   2   4
TORSDOF 2
ENDMDL
MODEL 8
REMARK VINA RESULT:      -4.0     15.571     16.335
REMARK  2 active torsions:
REMARK  status: ('A' for Active; 'I' for Inactive)
REMARK    1  A    between atoms: C6_6  and  C7_7 
REMARK    2  A    between atoms: C7_7  and  N8_8 
ROOT
HETATM    1  C1  UNL     1     -25.329  18.964   7.144  1.00 20.00     0.332 C 
HETATM    2  N8  UNL     1     -25.337  19.119   8.309  1.00 20.00    -0.247 NA
HETATM    3  O9  UNL     1     -25.322  18.810   5.978  1.00 20.00    -0.260 OA
ENDROOT
BRANCH   2   4
HETATM    4  C7  UNL     1     -24.018  19.074   8.935  1.00 20.00     0.161 C 
BRANCH   4   5
HETATM    5  C6  UNL     1     -24.023  17.996  10.009  1.00 20.00     0.028 C 
HETATM    6  C3  UNL     1     -24.951  18.301  11.144  1.00 20.00    -0.024 C 
HETATM    7  C2  UNL     1     -24.382  18.059  12.329  1.00 20.00    -0.030 C 
HETATM    8  C4  UNL     1     -22.983  17.562  12.182  1.00 20.00     0.027 C 
HETATM    9  C5  UNL     1     -22.666  17.875  10.719  1.00 20.00     0.014 C 
ENDBRANCH   4   5
ENDBRANCH   2   4
TORSDOF 2
ENDMDL
MODEL 9
REMARK VINA RESULT:      -3.9      9.063      9.615
REMARK  2 active torsions:
REMARK  status: ('A' for Active; 'I' for Inactive)
REMARK    1  A    between atoms: C6_6  and  C7_7 
REMARK    2  A    between atoms: C7_7  and  N8_8 
ROOT
HETATM    1  C1  UNL     1     -41.685   9.266   0.255  1.00 20.00     0.332 C 
HETATM    2  N8  UNL     1     -42.028   8.152   0.115  1.00 20.00    -0.247 NA
HETATM    3  O9  UNL     1     -41.343  10.384   0.395  1.00 20.00    -0.260 OA
ENDROOT
BRANCH   2   4
HETATM    4  C7  UNL     1     -41.128   7.163   0.704  1.00 20.00     0.161 C 
BRANCH   4   5
HETATM    5  C6  UNL     1     -41.604   5.771   0.311  1.00 20.00     0.028 C 
HETATM    6  C3  UNL     1     -41.087   5.328  -1.023  1.00 20.00    -0.024 C 
HETATM    7  C2  UNL     1     -42.046   4.765  -1.764  1.00 20.00    -0.030 C 
HETATM    8  C4  UNL     1     -43.358   4.747  -1.055  1.00 20.00     0.027 C 
HETATM    9  C5  UNL     1     -43.125   5.711   0.108  1.00 20.00     0.014 C 
ENDBRANCH   4   5
ENDBRANCH   2   4
TORSDOF 2
ENDMDL
