MODEL 1
REMARK VINA RESULT:      -5.2      0.000      0.000
REMARK  1 active torsions:
REMARK  status: ('A' for Active; 'I' for Inactive)
REMARK    1  A    between atoms: C4_4  and  C11_11 
ROOT
HETATM    1  C1  UNL     1     -25.606  19.263   7.997  1.00 20.00     0.003 A 
HETATM    2  C2  UNL     1     -25.875  19.139   9.369  1.00 20.00     0.008 A 
HETATM    3  C3  UNL     1     -24.365  18.888   7.476  1.00 20.00     0.029 A 
HETATM    4  C4  UNL     1     -24.904  18.646  10.242  1.00 20.00    -0.045 A 
HETATM    5  C5  UNL     1     -23.683  18.271   9.709  1.00 20.00    -0.024 A 
HETATM    6  C6  UNL     1     -23.416  18.373   8.341  1.00 20.00     0.035 A 
HETATM    7  C7  UNL     1     -22.463  17.772  10.414  1.00 20.00     0.061 C 
HETATM    8  C10 UNL     1     -21.573  17.348   9.226  1.00 20.00     0.124 C 
HETATM    9  N12 UNL     1     -22.110  17.997   8.035  1.00 20.00    -0.389 N 
HETATM   10  H25 UNL     1     -21.831  17.749   7.096  1.00 20.00     0.159 HD
ENDROOT
BRANCH   4  11
HETATM   11  C11 UNL     1     -25.182  18.541  11.700  1.00 20.00     0.019 A 
HETATM   12  C8  UNL     1     -25.685  17.233  12.258  1.00 20.00     0.010 A 
HETATM   13  C9  UNL     1     -26.609  18.409  12.168  1.00 20.00     0.010 A 
ENDBRANCH   4  11
TORSDOF 1
ENDMDL
MODEL 2
REMARK VINA RESULT:      -4.8     16.015     16.872
REMARK  1 active torsions:
REMARK  status: ('A' for Active; 'I' for Inactive)
REMARK    1  A    between atoms: C4_4  and  C11_11 
ROOT
HETATM    1  C1  UNL     1     -33.830   4.140   2.579  1.00 20.00     0.003 A 
HETATM    2  C2  UNL     1     -33.185   5.256   2.023  1.00 20.00     0.008 A 
HETATM    3  C3  UNL     1     -34.293   4.167   3.898  1.00 20.00     0.029 A 
HETATM    4  C4  UNL     1     -32.986   6.412   2.779  1.00 20.00    -0.045 A 
HETATM    5  C5  UNL     1     -33.458   6.426   4.080  1.00 20.00    -0.024 A 
HETATM    6  C6  UNL     1     -34.118   5.326   4.633  1.00 20.00     0.035 A 
HETATM    7  C7  UNL     1     -33.330   7.496   5.115  1.00 20.00     0.061 C 
HETATM    8  C10 UNL     1     -34.250   6.957   6.231  1.00 20.00     0.124 C 
HETATM    9  N12 UNL     1     -34.453   5.537   5.970  1.00 20.00    -0.389 N 
HETATM   10  H25 UNL     1     -35.155   4.982   6.439  1.00 20.00     0.159 HD
ENDROOT
BRANCH   4  11
HETATM   11  C11 UNL     1     -32.278   7.583   2.195  1.00 20.00     0.019 A 
HETATM   12  C8  UNL     1     -33.071   8.612   1.428  1.00 20.00     0.010 A 
HETATM   13  C9  UNL     1     -32.144   7.690   0.697  1.00 20.00     0.010 A 
ENDBRANCH   4  11
TORSDOF 1
ENDMDL
MODEL 3
REMARK VINA RESULT:      -4.6     12.321     14.359
REMARK  1 active torsions:
REMARK  status: ('A' for Active; 'I' for Inactive)
REMARK    1  A    between atoms: C4_4  and  C11_11 
ROOT
HETATM    1  C1  UNL     1     -35.276  18.219   1.209  1.00 20.00     0.003 A 
HETATM    2  C2  UNL     1     -33.979  18.709   0.992  1.00 20.00     0.008 A 
HETATM    3  C3  UNL     1     -35.871  17.345   0.294  1.00 20.00     0.029 A 
HETATM    4  C4  UNL     1     -33.260  18.339  -0.145  1.00 20.00    -0.045 A 
HETATM    5  C5  UNL     1     -33.859  17.466  -1.036  1.00 20.00    -0.024 A 
HETATM    6  C6  UNL     1     -35.142  16.959  -0.817  1.00 20.00     0.035 A 
HETATM    7  C7  UNL     1     -33.345  16.958  -2.345  1.00 20.00     0.061 C 
HETATM    8  C10 UNL     1     -34.397  15.883  -2.692  1.00 20.00     0.124 C 
HETATM    9  N12 UNL     1     -35.569  16.148  -1.867  1.00 20.00    -0.389 N 
HETATM   10  H25 UNL     1     -36.332  15.493  -1.761  1.00 20.00     0.159 HD
ENDROOT
BRANCH   4  11
HETATM   11  C11 UNL     1     -31.896  18.882  -0.386  1.00 20.00     0.019 A 
HETATM   12  C8  UNL     1     -30.698  18.046  -0.010  1.00 20.00     0.010 A 
HETATM   13  C9  UNL     1     -31.038  19.263   0.794  1.00 20.00     0.010 A 
ENDBRANCH   4  11
TORSDOF 1
ENDMDL
MODEL 4
REMARK VINA RESULT:      -4.6     11.945     14.185
REMARK  1 active torsions:
REMARK  status: ('A' for Active; 'I' for Inactive)
REMARK    1  A    between atoms: C4_4  and  C11_11 
ROOT
HETATM    1  C1  UNL     1     -31.089  18.532  -0.065  1.00 20.00     0.003 A 
HETATM    2  C2  UNL     1     -31.781  18.069  -1.194  1.00 20.00     0.008 A 
HETATM    3  C3  UNL     1     -31.764  18.786   1.132  1.00 20.00     0.029 A 
HETATM    4  C4  UNL     1     -33.161  17.860  -1.146  1.00 20.00    -0.045 A 
HETATM    5  C5  UNL     1     -33.813  18.107   0.049  1.00 20.00    -0.024 A 
HETATM    6  C6  UNL     1     -33.126  18.549   1.183  1.00 20.00     0.035 A 
HETATM    7  C7  UNL     1     -35.273  18.024   0.359  1.00 20.00     0.061 C 
HETATM    8  C10 UNL     1     -35.274  18.210   1.891  1.00 20.00     0.124 C 
HETATM    9  N12 UNL     1     -33.986  18.789   2.253  1.00 20.00    -0.389 N 
HETATM   10  H25 UNL     1     -33.652  18.846   3.205  1.00 20.00     0.159 HD
ENDROOT
BRANCH   4  11
HETATM   11  C11 UNL     1     -33.897  17.396  -2.352  1.00 20.00     0.019 A 
HETATM   12  C8  UNL     1     -34.366  15.964  -2.419  1.00 20.00     0.010 A 
HETATM   13  C9  UNL     1     -33.233  16.416  -3.287  1.00 20.00     0.010 A 
ENDBRANCH   4  11
TORSDOF 1
ENDMDL
MODEL 5
REMARK VINA RESULT:      -4.5     12.831     14.927
REMARK  1 active torsions:
REMARK  status: ('A' for Active; 'I' for Inactive)
REMARK    1  A    between atoms: C4_4  and  C11_11 
ROOT
HETATM    1  C1  UNL     1     -35.697  17.204  -0.262  1.00 20.00     0.003 A 
HETATM    2  C2  UNL     1     -35.167  16.637  -1.432  1.00 20.00     0.008 A 
HETATM    3  C3  UNL     1     -34.923  18.052   0.535  1.00 20.00     0.029 A 
HETATM    4  C4  UNL     1     -33.853  16.904  -1.819  1.00 20.00    -0.045 A 
HETATM    5  C5  UNL     1     -33.102  17.753  -1.024  1.00 20.00    -0.024 A 
HETATM    6  C6  UNL     1     -33.630  18.336   0.131  1.00 20.00     0.035 A 
HETATM    7  C7  UNL     1     -31.671  18.158  -1.172  1.00 20.00     0.061 C 
HETATM    8  C10 UNL     1     -31.553  19.263  -0.100  1.00 20.00     0.124 C 
HETATM    9  N12 UNL     1     -32.684  19.105   0.806  1.00 20.00    -0.389 N 
HETATM   10  H25 UNL     1     -32.950  19.803   1.487  1.00 20.00     0.159 HD
ENDROOT
BRANCH   4  11
HETATM   11  C11 UNL     1     -33.286  16.281  -3.045  1.00 20.00     0.019 A 
HETATM   12  C8  UNL     1     -34.013  16.447  -4.356  1.00 20.00     0.010 A 
HETATM   13  C9  UNL     1     -34.001  15.113  -3.675  1.00 20.00     0.010 A 
ENDBRANCH   4  11
TORSDOF 1
ENDMDL
MODEL 6
REMARK VINA RESULT:      -4.5     13.700     15.002
REMARK  1 active torsions:
REMARK  status: ('A' for Active; 'I' for Inactive)
REMARK    1  A    between atoms: C4_4  and  C11_11 
ROOT
HETATM    1  C1  UNL     1     -32.472  18.917  -0.741  1.00 20.00     0.003 A 
HETATM    2  C2  UNL     1     -33.595  18.535   0.009  1.00 20.00     0.008 A 
HETATM    3  C3  UNL     1     -32.198  18.317  -1.973  1.00 20.00     0.029 A 
HETATM    4  C4  UNL     1     -34.457  17.542  -0.459  1.00 20.00    -0.045 A 
HETATM    5  C5  UNL     1     -34.178  16.965  -1.685  1.00 20.00    -0.024 A 
HETATM    6  C6  UNL     1     -33.072  17.354  -2.445  1.00 20.00     0.035 A 
HETATM    7  C7  UNL     1     -34.892  15.855  -2.386  1.00 20.00     0.061 C 
HETATM    8  C10 UNL     1     -34.199  15.867  -3.766  1.00 20.00     0.124 C 
HETATM    9  N12 UNL     1     -32.950  16.602  -3.612  1.00 20.00    -0.389 N 
HETATM   10  H25 UNL     1     -32.392  16.916  -4.394  1.00 20.00     0.159 HD
ENDROOT
BRANCH   4  11
HETATM   11  C11 UNL     1     -35.632  17.120   0.350  1.00 20.00     0.019 A 
HETATM   12  C8  UNL     1     -36.896  17.943   0.293  1.00 20.00     0.010 A 
HETATM   13  C9  UNL     1     -36.052  17.959   1.531  1.00 20.00     0.010 A 
ENDBRANCH   4  11
TORSDOF 1
ENDMDL
MODEL 7
REMARK VINA RESULT:      -4.4     16.675     18.559
REMARK  1 active torsions:
REMARK  status: ('A' for Active; 'I' for Inactive)
REMARK    1  A    between atoms: C4_4  and  C11_11 
ROOT
HETATM    1  C1  UNL     1     -34.126  15.864  -2.634  1.00 20.00     0.003 A 
HETATM    2  C2  UNL     1     -35.501  16.043  -2.850  1.00 20.00     0.008 A 
HETATM    3  C3  UNL     1     -33.281  15.489  -3.682  1.00 20.00     0.029 A 
HETATM    4  C4  UNL     1     -36.054  15.842  -4.116  1.00 20.00    -0.045 A 
HETATM    5  C5  UNL     1     -35.203  15.480  -5.145  1.00 20.00    -0.024 A 
HETATM    6  C6  UNL     1     -33.830  15.320  -4.941  1.00 20.00     0.035 A 
HETATM    7  C7  UNL     1     -35.532  15.151  -6.566  1.00 20.00     0.061 C 
HETATM    8  C10 UNL     1     -34.125  15.055  -7.193  1.00 20.00     0.124 C 
HETATM    9  N12 UNL     1     -33.177  14.897  -6.097  1.00 20.00    -0.389 N 
HETATM   10  H25 UNL     1     -32.177  14.991  -6.211  1.00 20.00     0.159 HD
ENDROOT
BRANCH   4  11
HETATM   11  C11 UNL     1     -37.516  16.006  -4.336  1.00 20.00     0.019 A 
HETATM   12  C8  UNL     1     -38.032  17.311  -4.890  1.00 20.00     0.010 A 
HETATM   13  C9  UNL     1     -38.290  16.957  -3.458  1.00 20.00     0.010 A 
ENDBRANCH   4  11
TORSDOF 1
ENDMDL
MODEL 8
REMARK VINA RESULT:      -4.3     15.552     17.419
REMARK  1 active torsions:
REMARK  status: ('A' for Active; 'I' for Inactive)
REMARK    1  A    between atoms: C4_4  and  C11_11 
ROOT
HETATM    1  C1  UNL     1     -32.772  15.307  -4.052  1.00 20.00     0.003 A 
HETATM    2  C2  UNL     1     -33.280  15.962  -2.920  1.00 20.00     0.008 A 
HETATM    3  C3  UNL     1     -33.629  14.665  -4.950  1.00 20.00     0.029 A 
HETATM    4  C4  UNL     1     -34.652  15.978  -2.663  1.00 20.00    -0.045 A 
HETATM    5  C5  UNL     1     -35.488  15.346  -3.566  1.00 20.00    -0.024 A 
HETATM    6  C6  UNL     1     -34.991  14.709  -4.706  1.00 20.00     0.035 A 
HETATM    7  C7  UNL     1     -36.970  15.163  -3.506  1.00 20.00     0.061 C 
HETATM    8  C10 UNL     1     -37.265  14.580  -4.904  1.00 20.00     0.124 C 
HETATM    9  N12 UNL     1     -36.001  14.090  -5.440  1.00 20.00    -0.389 N 
HETATM   10  H25 UNL     1     -35.874  13.826  -6.407  1.00 20.00     0.159 HD
ENDROOT
BRANCH   4  11
HETATM   11  C11 UNL     1     -35.184  16.650  -1.447  1.00 20.00     0.019 A 
HETATM   12  C8  UNL     1     -35.519  18.120  -1.508  1.00 20.00     0.010 A 
HETATM   13  C9  UNL     1     -34.326  17.660  -0.729  1.00 20.00     0.010 A 
ENDBRANCH   4  11
TORSDOF 1
ENDMDL
MODEL 9
REMARK VINA RESULT:      -4.2      1.879      3.765
REMARK  1 active torsions:
REMARK  status: ('A' for Active; 'I' for Inactive)
REMARK    1  A    between atoms: C4_4  and  C11_11 
ROOT
HETATM    1  C1  UNL     1     -25.425  19.154   7.049  1.00 20.00     0.003 A 
HETATM    2  C2  UNL     1     -24.131  18.937   7.546  1.00 20.00     0.008 A 
HETATM    3  C3  UNL     1     -26.515  19.262   7.918  1.00 20.00     0.029 A 
HETATM    4  C4  UNL     1     -23.908  18.817   8.919  1.00 20.00    -0.045 A 
HETATM    5  C5  UNL     1     -24.995  18.936   9.766  1.00 20.00    -0.024 A 
HETATM    6  C6  UNL     1     -26.283  19.172   9.279  1.00 20.00     0.035 A 
HETATM    7  C7  UNL     1     -25.049  18.794  11.253  1.00 20.00     0.061 C 
HETATM    8  C10 UNL     1     -26.490  19.257  11.555  1.00 20.00     0.124 C 
HETATM    9  N12 UNL     1     -27.231  19.197  10.301  1.00 20.00    -0.389 N 
HETATM   10  H25 UNL     1     -28.142  19.616  10.174  1.00 20.00     0.159 HD
ENDROOT
BRANCH   4  11
HETATM   11  C11 UNL     1     -22.539  18.560   9.441  1.00 20.00     0.019 A 
HETATM   12  C8  UNL     1     -21.590  17.715   8.628  1.00 20.00     0.010 A 
HETATM   13  C9  UNL     1     -22.173  17.170   9.895  1.00 20.00     0.010 A 
ENDBRANCH   4  11
TORSDOF 1
ENDMDL
