MODEL 1
REMARK VINA RESULT:      -5.3      0.000      0.000
REMARK  0 active torsions:
REMARK  status: ('A' for Active; 'I' for Inactive)
ROOT
HETATM    1  C1  UNL     1     -22.547  17.579  10.146  1.00 20.00     0.008 C 
HETATM    2  C2  UNL     1     -22.389  18.245   8.993  1.00 20.00     0.028 C 
HETATM    3  C3  UNL     1     -24.920  18.087  10.371  1.00 20.00    -0.005 C 
HETATM    4  C4  UNL     1     -25.809  19.263   8.283  1.00 20.00     0.015 C 
HETATM    5  C5  UNL     1     -23.854  17.361  10.765  1.00 20.00    -0.065 C 
HETATM    6  C6  UNL     1     -25.232  19.150   7.079  1.00 20.00     0.028 C 
HETATM    7  C7  UNL     1     -23.639  18.758   8.403  1.00 20.00     0.046 C 
HETATM    8  C8  UNL     1     -24.768  19.154   9.339  1.00 20.00     0.085 C 
HETATM    9  C9  UNL     1     -23.930  16.322  11.841  1.00 20.00     0.048 C 
HETATM   10  C10 UNL     1     -25.908  19.260   5.760  1.00 20.00     0.070 C 
HETATM   11  N11 UNL     1     -23.890  18.855   7.133  1.00 20.00    -0.258 NA
ENDROOT
TORSDOF 0
ENDMDL
MODEL 2
REMARK VINA RESULT:      -5.1     10.892     14.271
REMARK  0 active torsions:
REMARK  status: ('A' for Active; 'I' for Inactive)
ROOT
HETATM    1  C1  UNL     1     -35.241  16.233  -1.889  1.00 20.00     0.008 C 
HETATM    2  C2  UNL     1     -35.173  17.105  -0.871  1.00 20.00     0.028 C 
HETATM    3  C3  UNL     1     -33.042  16.772  -2.790  1.00 20.00    -0.005 C 
HETATM    4  C4  UNL     1     -31.777  18.362  -1.238  1.00 20.00     0.015 C 
HETATM    5  C5  UNL     1     -34.107  15.946  -2.767  1.00 20.00    -0.065 C 
HETATM    6  C6  UNL     1     -32.038  18.464   0.073  1.00 20.00     0.028 C 
HETATM    7  C7  UNL     1     -33.864  17.767  -0.716  1.00 20.00     0.046 C 
HETATM    8  C8  UNL     1     -33.029  18.013  -1.961  1.00 20.00     0.085 C 
HETATM    9  C9  UNL     1     -34.207  14.721  -3.623  1.00 20.00     0.048 C 
HETATM   10  C10 UNL     1     -31.077  18.853   1.138  1.00 20.00     0.070 C 
HETATM   11  N11 UNL     1     -33.325  18.117   0.411  1.00 20.00    -0.258 NA
ENDROOT
TORSDOF 0
ENDMDL
MODEL 3
REMARK VINA RESULT:      -4.9     14.068     16.676
REMARK  0 active torsions:
REMARK  status: ('A' for Active; 'I' for Inactive)
ROOT
HETATM    1  C1  UNL     1     -34.608  16.681  -1.722  1.00 20.00     0.008 C 
HETATM    2  C2  UNL     1     -35.575  15.988  -2.343  1.00 20.00     0.028 C 
HETATM    3  C3  UNL     1     -32.878  16.161  -3.357  1.00 20.00    -0.005 C 
HETATM    4  C4  UNL     1     -33.858  14.929  -5.372  1.00 20.00     0.015 C 
HETATM    5  C5  UNL     1     -33.288  16.904  -2.309  1.00 20.00    -0.065 C 
HETATM    6  C6  UNL     1     -35.147  15.018  -5.726  1.00 20.00     0.028 C 
HETATM    7  C7  UNL     1     -35.195  15.452  -3.664  1.00 20.00     0.046 C 
HETATM    8  C8  UNL     1     -33.744  15.071  -3.895  1.00 20.00     0.085 C 
HETATM    9  C9  UNL     1     -32.440  17.968  -1.684  1.00 20.00     0.048 C 
HETATM   10  C10 UNL     1     -35.700  14.871  -7.098  1.00 20.00     0.070 C 
HETATM   11  N11 UNL     1     -35.989  15.323  -4.682  1.00 20.00    -0.258 NA
ENDROOT
TORSDOF 0
ENDMDL
MODEL 4
REMARK VINA RESULT:      -4.8     12.340     14.378
REMARK  0 active torsions:
REMARK  status: ('A' for Active; 'I' for Inactive)
ROOT
HETATM    1  C1  UNL     1     -32.633  18.448  -0.318  1.00 20.00     0.008 C 
HETATM    2  C2  UNL     1     -32.352  18.070  -1.574  1.00 20.00     0.028 C 
HETATM    3  C3  UNL     1     -34.840  17.417  -0.263  1.00 20.00    -0.005 C 
HETATM    4  C4  UNL     1     -35.253  16.020  -2.364  1.00 20.00     0.015 C 
HETATM    5  C5  UNL     1     -33.817  17.989   0.405  1.00 20.00    -0.065 C 
HETATM    6  C6  UNL     1     -34.262  15.507  -3.107  1.00 20.00     0.028 C 
HETATM    7  C7  UNL     1     -33.345  17.163  -2.178  1.00 20.00     0.046 C 
HETATM    8  C8  UNL     1     -34.796  17.296  -1.750  1.00 20.00     0.085 C 
HETATM    9  C9  UNL     1     -33.830  18.197   1.888  1.00 20.00     0.048 C 
HETATM   10  C10 UNL     1     -34.324  14.274  -3.934  1.00 20.00     0.070 C 
HETATM   11  N11 UNL     1     -33.083  16.209  -3.018  1.00 20.00    -0.258 NA
ENDROOT
TORSDOF 0
ENDMDL
MODEL 5
REMARK VINA RESULT:      -4.8     15.679     18.428
REMARK  0 active torsions:
REMARK  status: ('A' for Active; 'I' for Inactive)
ROOT
HETATM    1  C1  UNL     1     -34.582  14.244  -3.899  1.00 20.00     0.008 C 
HETATM    2  C2  UNL     1     -35.661  13.583  -4.345  1.00 20.00     0.028 C 
HETATM    3  C3  UNL     1     -35.595  16.455  -4.057  1.00 20.00    -0.005 C 
HETATM    4  C4  UNL     1     -38.077  16.288  -4.647  1.00 20.00     0.015 C 
HETATM    5  C5  UNL     1     -34.593  15.675  -3.600  1.00 20.00    -0.065 C 
HETATM    6  C6  UNL     1     -38.816  15.199  -4.395  1.00 20.00     0.028 C 
HETATM    7  C7  UNL     1     -36.862  14.420  -4.527  1.00 20.00     0.046 C 
HETATM    8  C8  UNL     1     -36.672  15.877  -4.913  1.00 20.00     0.085 C 
HETATM    9  C9  UNL     1     -33.451  16.208  -2.792  1.00 20.00     0.048 C 
HETATM   10  C10 UNL     1     -40.279  15.163  -4.137  1.00 20.00     0.070 C 
HETATM   11  N11 UNL     1     -38.086  14.035  -4.334  1.00 20.00    -0.258 NA
ENDROOT
TORSDOF 0
ENDMDL
MODEL 6
REMARK VINA RESULT:      -4.7     22.121     23.890
REMARK  0 active torsions:
REMARK  status: ('A' for Active; 'I' for Inactive)
ROOT
HETATM    1  C1  UNL     1     -42.885   7.569   1.082  1.00 20.00     0.008 C 
HETATM    2  C2  UNL     1     -43.417   6.348   0.924  1.00 20.00     0.028 C 
HETATM    3  C3  UNL     1     -40.965   7.162  -0.362  1.00 20.00    -0.005 C 
HETATM    4  C4  UNL     1     -41.166   4.904  -1.544  1.00 20.00     0.015 C 
HETATM    5  C5  UNL     1     -41.735   8.041   0.313  1.00 20.00    -0.065 C 
HETATM    6  C6  UNL     1     -42.339   4.293  -1.756  1.00 20.00     0.028 C 
HETATM    7  C7  UNL     1     -42.739   5.507  -0.080  1.00 20.00     0.046 C 
HETATM    8  C8  UNL     1     -41.246   5.698  -0.289  1.00 20.00     0.085 C 
HETATM    9  C9  UNL     1     -41.465   9.513   0.331  1.00 20.00     0.048 C 
HETATM   10  C10 UNL     1     -42.662   3.359  -2.866  1.00 20.00     0.070 C 
HETATM   11  N11 UNL     1     -43.316   4.640  -0.853  1.00 20.00    -0.258 NA
ENDROOT
TORSDOF 0
ENDMDL
MODEL 7
REMARK VINA RESULT:      -4.7     12.005     14.959
REMARK  0 active torsions:
REMARK  status: ('A' for Active; 'I' for Inactive)
ROOT
HETATM    1  C1  UNL     1     -34.964  15.426  -3.070  1.00 20.00     0.008 C 
HETATM    2  C2  UNL     1     -35.485  16.143  -2.063  1.00 20.00     0.028 C 
HETATM    3  C3  UNL     1     -32.865  16.661  -3.161  1.00 20.00    -0.005 C 
HETATM    4  C4  UNL     1     -32.694  18.323  -1.225  1.00 20.00     0.015 C 
HETATM    5  C5  UNL     1     -33.582  15.578  -3.523  1.00 20.00    -0.065 C 
HETATM    6  C6  UNL     1     -33.369  18.178  -0.076  1.00 20.00     0.028 C 
HETATM    7  C7  UNL     1     -34.555  17.113  -1.455  1.00 20.00     0.046 C 
HETATM    8  C8  UNL     1     -33.490  17.739  -2.338  1.00 20.00     0.085 C 
HETATM    9  C9  UNL     1     -33.033  14.495  -4.399  1.00 20.00     0.048 C 
HETATM   10  C10 UNL     1     -32.954  18.675   1.262  1.00 20.00     0.070 C 
HETATM   11  N11 UNL     1     -34.528  17.450  -0.202  1.00 20.00    -0.258 NA
ENDROOT
TORSDOF 0
ENDMDL
MODEL 8
REMARK VINA RESULT:      -4.6     14.172     16.012
REMARK  0 active torsions:
REMARK  status: ('A' for Active; 'I' for Inactive)
ROOT
HETATM    1  C1  UNL     1     -34.240  17.525  -1.125  1.00 20.00     0.008 C 
HETATM    2  C2  UNL     1     -35.089  16.511  -1.355  1.00 20.00     0.028 C 
HETATM    3  C3  UNL     1     -32.837  17.085  -3.068  1.00 20.00    -0.005 C 
HETATM    4  C4  UNL     1     -33.854  15.260  -4.542  1.00 20.00     0.015 C 
HETATM    5  C5  UNL     1     -33.196  17.918  -2.070  1.00 20.00    -0.065 C 
HETATM    6  C6  UNL     1     -35.162  14.970  -4.547  1.00 20.00     0.028 C 
HETATM    7  C7  UNL     1     -34.875  15.810  -2.635  1.00 20.00     0.046 C 
HETATM    8  C8  UNL     1     -33.462  15.735  -3.188  1.00 20.00     0.085 C 
HETATM    9  C9  UNL     1     -32.561  19.258  -1.859  1.00 20.00     0.048 C 
HETATM   10  C10 UNL     1     -35.939  14.411  -5.684  1.00 20.00     0.070 C 
HETATM   11  N11 UNL     1     -35.805  15.287  -3.374  1.00 20.00    -0.258 NA
ENDROOT
TORSDOF 0
ENDMDL
MODEL 9
REMARK VINA RESULT:      -4.6     15.292     16.169
REMARK  0 active torsions:
REMARK  status: ('A' for Active; 'I' for Inactive)
ROOT
HETATM    1  C1  UNL     1     -34.067   4.535   3.895  1.00 20.00     0.008 C 
HETATM    2  C2  UNL     1     -33.523   4.680   2.677  1.00 20.00     0.028 C 
HETATM    3  C3  UNL     1     -33.481   6.771   4.667  1.00 20.00    -0.005 C 
HETATM    4  C4  UNL     1     -32.498   8.170   2.766  1.00 20.00     0.015 C 
HETATM    5  C5  UNL     1     -34.190   5.638   4.847  1.00 20.00    -0.065 C 
HETATM    6  C6  UNL     1     -32.745   7.922   1.473  1.00 20.00     0.028 C 
HETATM    7  C7  UNL     1     -33.041   6.041   2.377  1.00 20.00     0.046 C 
HETATM    8  C8  UNL     1     -32.526   6.891   3.525  1.00 20.00     0.085 C 
HETATM    9  C9  UNL     1     -35.114   5.432   6.007  1.00 20.00     0.048 C 
HETATM   10  C10 UNL     1     -32.750   8.915   0.367  1.00 20.00     0.070 C 
HETATM   11  N11 UNL     1     -33.066   6.611   1.211  1.00 20.00    -0.258 NA
ENDROOT
TORSDOF 0
ENDMDL
