MODEL 1
REMARK VINA RESULT:      -5.2      0.000      0.000
REMARK  0 active torsions:
REMARK  status: ('A' for Active; 'I' for Inactive)
ROOT
HETATM    1  C1  UNL     1     -34.613   5.945   6.018  1.00 20.00     0.002 C 
HETATM    2  C2  UNL     1     -33.628   6.792   5.680  1.00 20.00     0.030 C 
HETATM    3  C3  UNL     1     -35.212   5.021   5.067  1.00 20.00    -0.001 C 
HETATM    4  C4  UNL     1     -34.616   4.745   3.894  1.00 20.00     0.006 C 
HETATM    5  C5  UNL     1     -33.190   6.683   4.281  1.00 20.00     0.066 C 
HETATM    6  C6  UNL     1     -32.735   7.019   2.272  1.00 20.00     0.219 C 
HETATM    7  C7  UNL     1     -33.294   5.358   3.570  1.00 20.00     0.186 C 
HETATM    8  N8  UNL     1     -32.750   7.614   3.509  1.00 20.00    -0.221 NA
HETATM    9  N9  UNL     1     -33.108   5.777   2.169  1.00 20.00    -0.245 NA
HETATM   10 CL10 UNL     1     -32.302   7.937   0.910  1.00 20.00    -0.041 Cl
ENDROOT
TORSDOF 0
ENDMDL
MODEL 2
REMARK VINA RESULT:      -4.5      1.751      2.598
REMARK  0 active torsions:
REMARK  status: ('A' for Active; 'I' for Inactive)
ROOT
HETATM    1  C1  UNL     1     -34.667   6.056   6.455  1.00 20.00     0.002 C 
HETATM    2  C2  UNL     1     -35.108   5.086   5.639  1.00 20.00     0.030 C 
HETATM    3  C3  UNL     1     -33.634   7.001   6.062  1.00 20.00    -0.001 C 
HETATM    4  C4  UNL     1     -33.284   7.154   4.773  1.00 20.00     0.006 C 
HETATM    5  C5  UNL     1     -34.479   5.081   4.310  1.00 20.00     0.066 C 
HETATM    6  C6  UNL     1     -33.423   4.607   2.574  1.00 20.00     0.219 C 
HETATM    7  C7  UNL     1     -33.992   6.377   3.713  1.00 20.00     0.186 C 
HETATM    8  N8  UNL     1     -34.221   4.073   3.554  1.00 20.00    -0.221 NA
HETATM    9  N9  UNL     1     -33.150   5.879   2.612  1.00 20.00    -0.245 NA
HETATM   10 CL10 UNL     1     -32.758   3.587   1.390  1.00 20.00    -0.041 Cl
ENDROOT
TORSDOF 0
ENDMDL
MODEL 3
REMARK VINA RESULT:      -4.3     16.391     16.800
REMARK  0 active torsions:
REMARK  status: ('A' for Active; 'I' for Inactive)
ROOT
HETATM    1  C1  UNL     1     -25.226  18.163  11.525  1.00 20.00     0.002 C 
HETATM    2  C2  UNL     1     -25.051  18.662  10.292  1.00 20.00     0.030 C 
HETATM    3  C3  UNL     1     -24.215  17.362  12.197  1.00 20.00    -0.001 C 
HETATM    4  C4  UNL     1     -22.945  17.334  11.759  1.00 20.00     0.006 C 
HETATM    5  C5  UNL     1     -23.743  18.355   9.696  1.00 20.00     0.066 C 
HETATM    6  C6  UNL     1     -22.176  17.673   8.498  1.00 20.00     0.219 C 
HETATM    7  C7  UNL     1     -22.543  18.170  10.590  1.00 20.00     0.186 C 
HETATM    8  N8  UNL     1     -23.458  18.161   8.456  1.00 20.00    -0.221 NA
HETATM    9  N9  UNL     1     -21.590  17.548   9.654  1.00 20.00    -0.245 NA
HETATM   10 CL10 UNL     1     -21.422  17.181   7.058  1.00 20.00    -0.041 Cl
ENDROOT
TORSDOF 0
ENDMDL
MODEL 4
REMARK VINA RESULT:      -4.2     12.086     12.789
REMARK  0 active torsions:
REMARK  status: ('A' for Active; 'I' for Inactive)
ROOT
HETATM    1  C1  UNL     1     -34.120  16.220  -2.892  1.00 20.00     0.002 C 
HETATM    2  C2  UNL     1     -32.991  16.941  -2.977  1.00 20.00     0.030 C 
HETATM    3  C3  UNL     1     -34.973  16.238  -1.714  1.00 20.00    -0.001 C 
HETATM    4  C4  UNL     1     -34.850  17.196  -0.780  1.00 20.00     0.006 C 
HETATM    5  C5  UNL     1     -32.710  17.767  -1.795  1.00 20.00     0.066 C 
HETATM    6  C6  UNL     1     -31.889  18.642  -0.087  1.00 20.00     0.219 C 
HETATM    7  C7  UNL     1     -33.854  18.292  -0.966  1.00 20.00     0.186 C 
HETATM    8  N8  UNL     1     -31.567  18.091  -1.302  1.00 20.00    -0.221 NA
HETATM    9  N9  UNL     1     -33.143  18.726   0.250  1.00 20.00    -0.245 NA
HETATM   10 CL10 UNL     1     -30.648  19.130   0.964  1.00 20.00    -0.041 Cl
ENDROOT
TORSDOF 0
ENDMDL
MODEL 5
REMARK VINA RESULT:      -4.2     11.673     12.302
REMARK  0 active torsions:
REMARK  status: ('A' for Active; 'I' for Inactive)
ROOT
HETATM    1  C1  UNL     1     -36.191  14.149  -5.418  1.00 20.00     0.002 C 
HETATM    2  C2  UNL     1     -36.236  14.273  -4.082  1.00 20.00     0.030 C 
HETATM    3  C3  UNL     1     -35.105  14.693  -6.219  1.00 20.00    -0.001 C 
HETATM    4  C4  UNL     1     -33.946  15.074  -5.654  1.00 20.00     0.006 C 
HETATM    5  C5  UNL     1     -35.084  14.976  -3.501  1.00 20.00     0.066 C 
HETATM    6  C6  UNL     1     -33.811  16.311  -2.524  1.00 20.00     0.219 C 
HETATM    7  C7  UNL     1     -33.743  14.899  -4.185  1.00 20.00     0.186 C 
HETATM    8  N8  UNL     1     -35.053  15.732  -2.460  1.00 20.00    -0.221 NA
HETATM    9  N9  UNL     1     -33.018  15.986  -3.504  1.00 20.00    -0.245 NA
HETATM   10 CL10 UNL     1     -33.374  17.480  -1.373  1.00 20.00    -0.041 Cl
ENDROOT
TORSDOF 0
ENDMDL
MODEL 6
REMARK VINA RESULT:      -4.2     16.266     16.561
REMARK  0 active torsions:
REMARK  status: ('A' for Active; 'I' for Inactive)
ROOT
HETATM    1  C1  UNL     1     -26.540  17.795  12.315  1.00 20.00     0.002 C 
HETATM    2  C2  UNL     1     -25.451  17.031  12.133  1.00 20.00     0.030 C 
HETATM    3  C3  UNL     1     -26.784  19.006  11.548  1.00 20.00    -0.001 C 
HETATM    4  C4  UNL     1     -26.105  19.263  10.417  1.00 20.00     0.006 C 
HETATM    5  C5  UNL     1     -24.548  17.508  11.076  1.00 20.00     0.066 C 
HETATM    6  C6  UNL     1     -22.932  18.228   9.969  1.00 20.00     0.219 C 
HETATM    7  C7  UNL     1     -25.111  18.273   9.906  1.00 20.00     0.186 C 
HETATM    8  N8  UNL     1     -23.267  17.408  11.018  1.00 20.00    -0.221 NA
HETATM    9  N9  UNL     1     -23.882  18.841   9.324  1.00 20.00    -0.245 NA
HETATM   10 CL10 UNL     1     -21.294  18.475   9.592  1.00 20.00    -0.041 Cl
ENDROOT
TORSDOF 0
ENDMDL
MODEL 7
REMARK VINA RESULT:      -4.1      9.735     10.361
REMARK  0 active torsions:
REMARK  status: ('A' for Active; 'I' for Inactive)
ROOT
HETATM    1  C1  UNL     1     -42.488   8.783   0.069  1.00 20.00     0.002 C 
HETATM    2  C2  UNL     1     -43.116   8.293  -1.011  1.00 20.00     0.030 C 
HETATM    3  C3  UNL     1     -41.508   8.016   0.821  1.00 20.00    -0.001 C 
HETATM    4  C4  UNL     1     -40.952   6.905   0.310  1.00 20.00     0.006 C 
HETATM    5  C5  UNL     1     -42.706   6.931  -1.381  1.00 20.00     0.066 C 
HETATM    6  C6  UNL     1     -42.621   4.890  -1.811  1.00 20.00     0.219 C 
HETATM    7  C7  UNL     1     -41.306   6.465  -1.072  1.00 20.00     0.186 C 
HETATM    8  N8  UNL     1     -43.417   6.003  -1.919  1.00 20.00    -0.221 NA
HETATM    9  N9  UNL     1     -41.445   5.011  -1.267  1.00 20.00    -0.245 NA
HETATM   10 CL10 UNL     1     -43.219   3.384  -2.318  1.00 20.00    -0.041 Cl
ENDROOT
TORSDOF 0
ENDMDL
MODEL 8
REMARK VINA RESULT:      -4.1     12.158     12.509
REMARK  0 active torsions:
REMARK  status: ('A' for Active; 'I' for Inactive)
ROOT
HETATM    1  C1  UNL     1     -33.486  16.126  -2.668  1.00 20.00     0.002 C 
HETATM    2  C2  UNL     1     -33.038  15.596  -3.816  1.00 20.00     0.030 C 
HETATM    3  C3  UNL     1     -34.903  16.227  -2.352  1.00 20.00    -0.001 C 
HETATM    4  C4  UNL     1     -35.821  15.527  -3.041  1.00 20.00     0.006 C 
HETATM    5  C5  UNL     1     -34.096  15.103  -4.709  1.00 20.00     0.066 C 
HETATM    6  C6  UNL     1     -35.410  14.764  -6.295  1.00 20.00     0.219 C 
HETATM    7  C7  UNL     1     -35.387  14.593  -4.120  1.00 20.00     0.186 C 
HETATM    8  N8  UNL     1     -34.109  15.083  -5.995  1.00 20.00    -0.221 NA
HETATM    9  N9  UNL     1     -36.245  14.555  -5.318  1.00 20.00    -0.245 NA
HETATM   10 CL10 UNL     1     -35.907  14.723  -7.918  1.00 20.00    -0.041 Cl
ENDROOT
TORSDOF 0
ENDMDL
MODEL 9
REMARK VINA RESULT:      -4.1     11.767     12.426
REMARK  0 active torsions:
REMARK  status: ('A' for Active; 'I' for Inactive)
ROOT
HETATM    1  C1  UNL     1     -33.084  16.498  -3.255  1.00 20.00     0.002 C 
HETATM    2  C2  UNL     1     -32.814  17.550  -2.467  1.00 20.00     0.030 C 
HETATM    3  C3  UNL     1     -34.168  15.569  -2.978  1.00 20.00    -0.001 C 
HETATM    4  C4  UNL     1     -35.143  15.877  -2.106  1.00 20.00     0.006 C 
HETATM    5  C5  UNL     1     -33.725  17.697  -1.323  1.00 20.00     0.066 C 
HETATM    6  C6  UNL     1     -34.583  17.837   0.575  1.00 20.00     0.219 C 
HETATM    7  C7  UNL     1     -35.147  17.211  -1.437  1.00 20.00     0.186 C 
HETATM    8  N8  UNL     1     -33.464  18.161  -0.151  1.00 20.00    -0.221 NA
HETATM    9  N9  UNL     1     -35.560  17.218  -0.022  1.00 20.00    -0.245 NA
HETATM   10 CL10 UNL     1     -34.630  18.184   2.237  1.00 20.00    -0.041 Cl
ENDROOT
TORSDOF 0
ENDMDL
