MODEL 1
REMARK VINA RESULT:      -4.9      0.000      0.000
REMARK  2 active torsions:
REMARK  status: ('A' for Active; 'I' for Inactive)
REMARK    1  A    between atoms: C5_5  and  C6_6 
REMARK    2  A    between atoms: C7_7  and  O8_8 
ROOT
HETATM    1  C3  UNL     1     -34.183   6.679   5.959  1.00 20.00     0.010 C 
HETATM    2  C4  UNL     1     -34.924   5.337   6.096  1.00 20.00     0.032 C 
HETATM    3  C6  UNL     1     -33.554   6.128   4.651  1.00 20.00     0.018 C 
HETATM    4  C7  UNL     1     -34.785   5.175   4.565  1.00 20.00     0.122 C 
ENDROOT
BRANCH   3   5
HETATM    5  C5  UNL     1     -33.280   7.077   3.508  1.00 20.00    -0.008 A 
HETATM    6  C1  UNL     1     -31.900   7.550   3.143  1.00 20.00     0.005 A 
HETATM    7  C2  UNL     1     -32.654   6.643   2.212  1.00 20.00     0.005 A 
ENDBRANCH   3   5
BRANCH   4   8
HETATM    8  O8  UNL     1     -34.529   3.845   4.080  1.00 20.00    -0.395 OA
HETATM    9  H20 UNL     1     -34.152   3.955   3.197  1.00 20.00     0.210 HD
ENDBRANCH   4   8
TORSDOF 2
ENDMDL
MODEL 2
REMARK VINA RESULT:      -4.7      1.619      2.054
REMARK  2 active torsions:
REMARK  status: ('A' for Active; 'I' for Inactive)
REMARK    1  A    between atoms: C5_5  and  C6_6 
REMARK    2  A    between atoms: C7_7  and  O8_8 
ROOT
HETATM    1  C3  UNL     1     -34.719   4.787   4.127  1.00 20.00     0.010 C 
HETATM    2  C4  UNL     1     -35.015   5.159   5.591  1.00 20.00     0.032 C 
HETATM    3  C6  UNL     1     -34.060   6.182   3.968  1.00 20.00     0.018 C 
HETATM    4  C7  UNL     1     -33.833   6.153   5.511  1.00 20.00     0.122 C 
ENDROOT
BRANCH   3   5
HETATM    5  C5  UNL     1     -32.867   6.335   3.054  1.00 20.00    -0.008 A 
HETATM    6  C1  UNL     1     -32.784   7.381   1.977  1.00 20.00     0.005 A 
HETATM    7  C2  UNL     1     -31.878   7.461   3.174  1.00 20.00     0.005 A 
ENDBRANCH   3   5
BRANCH   4   8
HETATM    8  O8  UNL     1     -33.996   7.403   6.203  1.00 20.00    -0.395 OA
HETATM    9  H20 UNL     1     -34.075   7.178   7.140  1.00 20.00     0.210 HD
ENDBRANCH   4   8
TORSDOF 2
ENDMDL
MODEL 3
REMARK VINA RESULT:      -4.3      1.913      3.811
REMARK  2 active torsions:
REMARK  status: ('A' for Active; 'I' for Inactive)
REMARK    1  A    between atoms: C5_5  and  C6_6 
REMARK    2  A    between atoms: C7_7  and  O8_8 
ROOT
HETATM    1  C3  UNL     1     -33.766   5.047   2.501  1.00 20.00     0.010 C 
HETATM    2  C4  UNL     1     -32.672   5.902   1.836  1.00 20.00     0.032 C 
HETATM    3  C6  UNL     1     -33.422   5.755   3.838  1.00 20.00     0.018 C 
HETATM    4  C7  UNL     1     -32.872   6.930   2.974  1.00 20.00     0.122 C 
ENDROOT
BRANCH   3   5
HETATM    5  C5  UNL     1     -34.525   6.030   4.834  1.00 20.00    -0.008 A 
HETATM    6  C1  UNL     1     -34.775   5.171   6.043  1.00 20.00     0.005 A 
HETATM    7  C2  UNL     1     -34.271   6.577   6.211  1.00 20.00     0.005 A 
ENDBRANCH   3   5
BRANCH   4   8
HETATM    8  O8  UNL     1     -31.689   7.585   3.465  1.00 20.00    -0.395 OA
HETATM    9  H20 UNL     1     -31.982   8.443   3.799  1.00 20.00     0.210 HD
ENDBRANCH   4   8
TORSDOF 2
ENDMDL
MODEL 4
REMARK VINA RESULT:      -4.1     11.918     12.709
REMARK  2 active torsions:
REMARK  status: ('A' for Active; 'I' for Inactive)
REMARK    1  A    between atoms: C5_5  and  C6_6 
REMARK    2  A    between atoms: C7_7  and  O8_8 
ROOT
HETATM    1  C3  UNL     1     -34.691  15.196  -5.662  1.00 20.00     0.010 C 
HETATM    2  C4  UNL     1     -35.839  14.340  -6.226  1.00 20.00     0.032 C 
HETATM    3  C6  UNL     1     -35.461  15.235  -4.316  1.00 20.00     0.018 C 
HETATM    4  C7  UNL     1     -36.150  13.912  -4.774  1.00 20.00     0.122 C 
ENDROOT
BRANCH   3   5
HETATM    5  C5  UNL     1     -34.684  15.247  -3.021  1.00 20.00    -0.008 A 
HETATM    6  C1  UNL     1     -33.741  16.354  -2.637  1.00 20.00     0.005 A 
HETATM    7  C2  UNL     1     -35.019  16.155  -1.870  1.00 20.00     0.005 A 
ENDBRANCH   3   5
BRANCH   4   8
HETATM    8  O8  UNL     1     -37.539  13.764  -4.430  1.00 20.00    -0.395 OA
HETATM    9  H20 UNL     1     -38.025  14.326  -5.047  1.00 20.00     0.210 HD
ENDBRANCH   4   8
TORSDOF 2
ENDMDL
MODEL 5
REMARK VINA RESULT:      -4.0     11.991     12.258
REMARK  2 active torsions:
REMARK  status: ('A' for Active; 'I' for Inactive)
REMARK    1  A    between atoms: C5_5  and  C6_6 
REMARK    2  A    between atoms: C7_7  and  O8_8 
ROOT
HETATM    1  C3  UNL     1     -36.864  15.751  -4.016  1.00 20.00     0.010 C 
HETATM    2  C4  UNL     1     -37.589  14.413  -4.251  1.00 20.00     0.032 C 
HETATM    3  C6  UNL     1     -35.558  14.939  -3.815  1.00 20.00     0.018 C 
HETATM    4  C7  UNL     1     -36.224  13.821  -4.673  1.00 20.00     0.122 C 
ENDROOT
BRANCH   3   5
HETATM    5  C5  UNL     1     -34.244  15.529  -4.272  1.00 20.00    -0.008 A 
HETATM    6  C1  UNL     1     -33.175  15.994  -3.321  1.00 20.00     0.005 A 
HETATM    7  C2  UNL     1     -32.938  14.790  -4.189  1.00 20.00     0.005 A 
ENDBRANCH   3   5
BRANCH   4   8
HETATM    8  O8  UNL     1     -35.960  12.465  -4.272  1.00 20.00    -0.395 OA
HETATM    9  H20 UNL     1     -35.186  12.186  -4.779  1.00 20.00     0.210 HD
ENDBRANCH   4   8
TORSDOF 2
ENDMDL
MODEL 6
REMARK VINA RESULT:      -4.0     11.981     12.601
REMARK  2 active torsions:
REMARK  status: ('A' for Active; 'I' for Inactive)
REMARK    1  A    between atoms: C5_5  and  C6_6 
REMARK    2  A    between atoms: C7_7  and  O8_8 
ROOT
HETATM    1  C3  UNL     1     -35.312  15.201  -3.080  1.00 20.00     0.010 C 
HETATM    2  C4  UNL     1     -34.713  14.211  -4.095  1.00 20.00     0.032 C 
HETATM    3  C6  UNL     1     -33.877  15.748  -2.857  1.00 20.00     0.018 C 
HETATM    4  C7  UNL     1     -33.545  15.206  -4.281  1.00 20.00     0.122 C 
ENDROOT
BRANCH   3   5
HETATM    5  C5  UNL     1     -33.684  17.218  -2.568  1.00 20.00    -0.008 A 
HETATM    6  C1  UNL     1     -33.815  17.810  -1.192  1.00 20.00     0.005 A 
HETATM    7  C2  UNL     1     -32.473  17.766  -1.867  1.00 20.00     0.005 A 
ENDBRANCH   3   5
BRANCH   4   8
HETATM    8  O8  UNL     1     -32.236  14.637  -4.458  1.00 20.00    -0.395 OA
HETATM    9  H20 UNL     1     -31.906  14.989  -5.295  1.00 20.00     0.210 HD
ENDBRANCH   4   8
TORSDOF 2
ENDMDL
MODEL 7
REMARK VINA RESULT:      -4.0     15.681     16.559
REMARK  2 active torsions:
REMARK  status: ('A' for Active; 'I' for Inactive)
REMARK    1  A    between atoms: C5_5  and  C6_6 
REMARK    2  A    between atoms: C7_7  and  O8_8 
ROOT
HETATM    1  C3  UNL     1     -24.657  15.941  11.438  1.00 20.00     0.010 C 
HETATM    2  C4  UNL     1     -25.606  16.761  12.331  1.00 20.00     0.032 C 
HETATM    3  C6  UNL     1     -24.231  17.275  10.770  1.00 20.00     0.018 C 
HETATM    4  C7  UNL     1     -24.683  17.977  12.087  1.00 20.00     0.122 C 
ENDROOT
BRANCH   3   5
HETATM    5  C5  UNL     1     -22.805  17.443  10.301  1.00 20.00    -0.008 A 
HETATM    6  C1  UNL     1     -22.342  17.067   8.920  1.00 20.00     0.005 A 
HETATM    7  C2  UNL     1     -22.378  18.512   9.334  1.00 20.00     0.005 A 
ENDBRANCH   3   5
BRANCH   4   8
HETATM    8  O8  UNL     1     -25.328  19.255  11.940  1.00 20.00    -0.395 OA
HETATM    9  H20 UNL     1     -24.691  19.909  12.255  1.00 20.00     0.210 HD
ENDBRANCH   4   8
TORSDOF 2
ENDMDL
MODEL 8
REMARK VINA RESULT:      -3.9     15.660     16.305
REMARK  2 active torsions:
REMARK  status: ('A' for Active; 'I' for Inactive)
REMARK    1  A    between atoms: C5_5  and  C6_6 
REMARK    2  A    between atoms: C7_7  and  O8_8 
ROOT
HETATM    1  C3  UNL     1     -25.443  18.516  11.341  1.00 20.00     0.010 C 
HETATM    2  C4  UNL     1     -25.712  17.369  12.332  1.00 20.00     0.032 C 
HETATM    3  C6  UNL     1     -24.110  17.810  10.979  1.00 20.00     0.018 C 
HETATM    4  C7  UNL     1     -24.779  16.489  11.469  1.00 20.00     0.122 C 
ENDROOT
BRANCH   3   5
HETATM    5  C5  UNL     1     -23.594  17.889   9.561  1.00 20.00    -0.008 A 
HETATM    6  C1  UNL     1     -22.284  18.531   9.196  1.00 20.00     0.005 A 
HETATM    7  C2  UNL     1     -22.459  17.045   9.051  1.00 20.00     0.005 A 
ENDBRANCH   3   5
BRANCH   4   8
HETATM    8  O8  UNL     1     -23.929  15.567  12.175  1.00 20.00    -0.395 OA
HETATM    9  H20 UNL     1     -23.678  16.015  12.994  1.00 20.00     0.210 HD
ENDBRANCH   4   8
TORSDOF 2
ENDMDL
MODEL 9
REMARK VINA RESULT:      -3.9     16.027     16.616
REMARK  2 active torsions:
REMARK  status: ('A' for Active; 'I' for Inactive)
REMARK    1  A    between atoms: C5_5  and  C6_6 
REMARK    2  A    between atoms: C7_7  and  O8_8 
ROOT
HETATM    1  C3  UNL     1     -24.385  19.093   9.003  1.00 20.00     0.010 C 
HETATM    2  C4  UNL     1     -23.346  18.324   8.167  1.00 20.00     0.032 C 
HETATM    3  C6  UNL     1     -24.424  17.875   9.964  1.00 20.00     0.018 C 
HETATM    4  C7  UNL     1     -22.992  17.534   9.449  1.00 20.00     0.122 C 
ENDROOT
BRANCH   3   5
HETATM    5  C5  UNL     1     -24.635  18.108  11.442  1.00 20.00    -0.008 A 
HETATM    6  C1  UNL     1     -25.966  18.482  12.035  1.00 20.00     0.005 A 
HETATM    7  C2  UNL     1     -25.362  17.138  12.331  1.00 20.00     0.005 A 
ENDBRANCH   3   5
BRANCH   4   8
HETATM    8  O8  UNL     1     -22.690  16.138   9.282  1.00 20.00    -0.395 OA
HETATM    9  H20 UNL     1     -21.963  16.100   8.646  1.00 20.00     0.210 HD
ENDBRANCH   4   8
TORSDOF 2
ENDMDL
