MODEL 1
REMARK VINA RESULT:      -3.8      0.000      0.000
REMARK  0 active torsions:
REMARK  status: ('A' for Active; 'I' for Inactive)
ROOT
HETATM    1  C1  UNL     1     -26.143  18.995  11.946  1.00 20.00     0.013 C 
HETATM    2  C2  UNL     1     -25.115  18.466  11.626  1.00 20.00    -0.106 C 
HETATM    3  C3  UNL     1     -23.973  16.649  10.296  1.00 20.00     0.041 A 
HETATM    4  C4  UNL     1     -23.482  17.973   9.779  1.00 20.00     0.079 A 
HETATM    5  C5  UNL     1     -23.879  17.827  11.241  1.00 20.00     0.033 A 
HETATM    6  C6  UNL     1     -22.844  17.768  12.332  1.00 20.00     0.030 C 
HETATM    7 BR7  UNL     1     -21.651  18.120   9.257  1.00 20.00    -0.089 Br
ENDROOT
TORSDOF 0
ENDMDL
MODEL 2
REMARK VINA RESULT:      -3.7     18.326     18.923
REMARK  0 active torsions:
REMARK  status: ('A' for Active; 'I' for Inactive)
ROOT
HETATM    1  C1  UNL     1     -34.864  16.325  -1.717  1.00 20.00     0.013 C 
HETATM    2  C2  UNL     1     -34.740  15.678  -2.720  1.00 20.00    -0.106 C 
HETATM    3  C3  UNL     1     -35.575  13.771  -4.148  1.00 20.00     0.041 A 
HETATM    4  C4  UNL     1     -35.709  15.036  -4.949  1.00 20.00     0.079 A 
HETATM    5  C5  UNL     1     -34.591  14.899  -3.926  1.00 20.00     0.033 A 
HETATM    6  C6  UNL     1     -33.164  14.677  -4.350  1.00 20.00     0.030 C 
HETATM    7 BR7  UNL     1     -35.356  14.964  -6.824  1.00 20.00    -0.089 Br
ENDROOT
TORSDOF 0
ENDMDL
MODEL 3
REMARK VINA RESULT:      -3.6      1.778      2.726
REMARK  0 active torsions:
REMARK  status: ('A' for Active; 'I' for Inactive)
ROOT
HETATM    1  C1  UNL     1     -24.490  19.234   7.645  1.00 20.00     0.013 C 
HETATM    2  C2  UNL     1     -24.422  18.718   8.725  1.00 20.00    -0.106 C 
HETATM    3  C3  UNL     1     -23.924  16.642  10.072  1.00 20.00     0.041 A 
HETATM    4  C4  UNL     1     -22.947  17.705  10.492  1.00 20.00     0.079 A 
HETATM    5  C5  UNL     1     -24.342  18.095  10.025  1.00 20.00     0.033 A 
HETATM    6  C6  UNL     1     -25.394  18.553  10.999  1.00 20.00     0.030 C 
HETATM    7 BR7  UNL     1     -22.450  17.805  12.332  1.00 20.00    -0.089 Br
ENDROOT
TORSDOF 0
ENDMDL
MODEL 4
REMARK VINA RESULT:      -3.5     16.001     16.968
REMARK  0 active torsions:
REMARK  status: ('A' for Active; 'I' for Inactive)
ROOT
HETATM    1  C1  UNL     1     -32.797   8.427   0.822  1.00 20.00     0.013 C 
HETATM    2  C2  UNL     1     -32.871   7.603   1.691  1.00 20.00    -0.106 C 
HETATM    3  C3  UNL     1     -32.405   6.983   4.093  1.00 20.00     0.041 A 
HETATM    4  C4  UNL     1     -33.894   6.941   3.890  1.00 20.00     0.079 A 
HETATM    5  C5  UNL     1     -32.959   6.610   2.736  1.00 20.00     0.033 A 
HETATM    6  C6  UNL     1     -32.766   5.194   2.265  1.00 20.00     0.030 C 
HETATM    7 BR7  UNL     1     -34.892   5.580   4.782  1.00 20.00    -0.089 Br
ENDROOT
TORSDOF 0
ENDMDL
MODEL 5
REMARK VINA RESULT:      -3.5     23.406     24.104
REMARK  0 active torsions:
REMARK  status: ('A' for Active; 'I' for Inactive)
ROOT
HETATM    1  C1  UNL     1     -41.170   9.559   0.331  1.00 20.00     0.013 C 
HETATM    2  C2  UNL     1     -41.618   8.489   0.023  1.00 20.00    -0.106 C 
HETATM    3  C3  UNL     1     -41.174   6.062  -0.510  1.00 20.00     0.041 A 
HETATM    4  C4  UNL     1     -42.056   6.110   0.707  1.00 20.00     0.079 A 
HETATM    5  C5  UNL     1     -42.156   7.202  -0.348  1.00 20.00     0.033 A 
HETATM    6  C6  UNL     1     -43.318   7.266  -1.302  1.00 20.00     0.030 C 
HETATM    7 BR7  UNL     1     -43.416   4.783   0.894  1.00 20.00    -0.089 Br
ENDROOT
TORSDOF 0
ENDMDL
MODEL 6
REMARK VINA RESULT:      -3.4     17.389     17.914
REMARK  0 active torsions:
REMARK  status: ('A' for Active; 'I' for Inactive)
ROOT
HETATM    1  C1  UNL     1     -35.340  16.914  -0.659  1.00 20.00     0.013 C 
HETATM    2  C2  UNL     1     -34.915  16.507  -1.704  1.00 20.00    -0.106 C 
HETATM    3  C3  UNL     1     -34.936  14.691  -3.458  1.00 20.00     0.041 A 
HETATM    4  C4  UNL     1     -35.398  15.964  -4.111  1.00 20.00     0.079 A 
HETATM    5  C5  UNL     1     -34.402  16.017  -2.962  1.00 20.00     0.033 A 
HETATM    6  C6  UNL     1     -32.947  16.319  -3.199  1.00 20.00     0.030 C 
HETATM    7 BR7  UNL     1     -34.859  16.307  -5.910  1.00 20.00    -0.089 Br
ENDROOT
TORSDOF 0
ENDMDL
MODEL 7
REMARK VINA RESULT:      -3.4     17.574     18.253
REMARK  0 active torsions:
REMARK  status: ('A' for Active; 'I' for Inactive)
ROOT
HETATM    1  C1  UNL     1     -32.941  17.369  -1.968  1.00 20.00     0.013 C 
HETATM    2  C2  UNL     1     -33.393  16.728  -2.875  1.00 20.00    -0.106 C 
HETATM    3  C3  UNL     1     -33.239  14.660  -4.315  1.00 20.00     0.041 A 
HETATM    4  C4  UNL     1     -34.558  14.619  -3.595  1.00 20.00     0.079 A 
HETATM    5  C5  UNL     1     -33.937  15.957  -3.968  1.00 20.00     0.033 A 
HETATM    6  C6  UNL     1     -34.481  16.784  -5.102  1.00 20.00     0.030 C 
HETATM    7 BR7  UNL     1     -36.078  13.935  -4.525  1.00 20.00    -0.089 Br
ENDROOT
TORSDOF 0
ENDMDL
MODEL 8
REMARK VINA RESULT:      -3.4     16.323     16.958
REMARK  0 active torsions:
REMARK  status: ('A' for Active; 'I' for Inactive)
ROOT
HETATM    1  C1  UNL     1     -31.914  18.205  -1.200  1.00 20.00     0.013 C 
HETATM    2  C2  UNL     1     -32.787  17.612  -1.772  1.00 20.00    -0.106 C 
HETATM    3  C3  UNL     1     -34.136  17.312  -3.884  1.00 20.00     0.041 A 
HETATM    4  C4  UNL     1     -33.399  16.028  -3.626  1.00 20.00     0.079 A 
HETATM    5  C5  UNL     1     -33.838  16.900  -2.459  1.00 20.00     0.033 A 
HETATM    6  C6  UNL     1     -35.001  16.513  -1.585  1.00 20.00     0.030 C 
HETATM    7 BR7  UNL     1     -34.279  14.381  -4.022  1.00 20.00    -0.089 Br
ENDROOT
TORSDOF 0
ENDMDL
MODEL 9
REMARK VINA RESULT:      -3.4      1.796      2.385
REMARK  0 active torsions:
REMARK  status: ('A' for Active; 'I' for Inactive)
ROOT
HETATM    1  C1  UNL     1     -24.881  15.741  11.757  1.00 20.00     0.013 C 
HETATM    2  C2  UNL     1     -24.319  16.513  11.029  1.00 20.00    -0.106 C 
HETATM    3  C3  UNL     1     -22.277  17.927  10.583  1.00 20.00     0.041 A 
HETATM    4  C4  UNL     1     -22.389  16.921   9.472  1.00 20.00     0.079 A 
HETATM    5  C5  UNL     1     -23.644  17.442  10.155  1.00 20.00     0.033 A 
HETATM    6  C6  UNL     1     -24.555  18.428   9.474  1.00 20.00     0.030 C 
HETATM    7 BR7  UNL     1     -21.920  17.467   7.704  1.00 20.00    -0.089 Br
ENDROOT
TORSDOF 0
ENDMDL
