MODEL 1
REMARK VINA RESULT:      -4.1      0.000      0.000
REMARK  0 active torsions:
REMARK  status: ('A' for Active; 'I' for Inactive)
ROOT
HETATM    1  C1  UNL     1     -34.170   5.497   3.961  1.00 20.00    -0.087 C 
HETATM    2  C2  UNL     1     -34.847   4.707   4.794  1.00 20.00     0.014 C 
HETATM    3  C3  UNL     1     -33.556   5.279   2.595  1.00 20.00     0.049 C 
HETATM    4  C4  UNL     1     -33.744   6.948   4.025  1.00 20.00     0.049 C 
HETATM    5  C5  UNL     1     -32.711   6.530   2.947  1.00 20.00     0.065 C 
HETATM    6 BR6  UNL     1     -32.459   7.798   1.503  1.00 20.00    -0.091 Br
ENDROOT
TORSDOF 0
ENDMDL
MODEL 2
REMARK VINA RESULT:      -4.1      2.449      3.228
REMARK  0 active torsions:
REMARK  status: ('A' for Active; 'I' for Inactive)
ROOT
HETATM    1  C1  UNL     1     -33.015   6.693   2.992  1.00 20.00    -0.087 C 
HETATM    2  C2  UNL     1     -32.344   7.259   1.989  1.00 20.00     0.014 C 
HETATM    3  C3  UNL     1     -33.752   5.379   3.134  1.00 20.00     0.049 C 
HETATM    4  C4  UNL     1     -33.310   7.121   4.413  1.00 20.00     0.049 C 
HETATM    5  C5  UNL     1     -34.457   6.082   4.322  1.00 20.00     0.065 C 
HETATM    6 BR6  UNL     1     -34.715   4.989   5.902  1.00 20.00    -0.091 Br
ENDROOT
TORSDOF 0
ENDMDL
MODEL 3
REMARK VINA RESULT:      -3.8      1.059      1.801
REMARK  0 active torsions:
REMARK  status: ('A' for Active; 'I' for Inactive)
ROOT
HETATM    1  C1  UNL     1     -34.416   5.635   5.256  1.00 20.00    -0.087 C 
HETATM    2  C2  UNL     1     -35.054   5.068   6.280  1.00 20.00     0.014 C 
HETATM    3  C3  UNL     1     -33.564   6.879   5.128  1.00 20.00     0.049 C 
HETATM    4  C4  UNL     1     -34.267   5.267   3.796  1.00 20.00     0.049 C 
HETATM    5  C5  UNL     1     -33.897   6.762   3.618  1.00 20.00     0.065 C 
HETATM    6 BR6  UNL     1     -32.421   7.114   2.411  1.00 20.00    -0.091 Br
ENDROOT
TORSDOF 0
ENDMDL
MODEL 4
REMARK VINA RESULT:      -3.4     11.300     11.885
REMARK  0 active torsions:
REMARK  status: ('A' for Active; 'I' for Inactive)
ROOT
HETATM    1  C1  UNL     1     -34.383  15.236  -3.243  1.00 20.00    -0.087 C 
HETATM    2  C2  UNL     1     -34.869  14.184  -3.901  1.00 20.00     0.014 C 
HETATM    3  C3  UNL     1     -34.898  16.060  -2.083  1.00 20.00     0.049 C 
HETATM    4  C4  UNL     1     -33.106  16.039  -3.371  1.00 20.00     0.049 C 
HETATM    5  C5  UNL     1     -33.899  17.127  -2.600  1.00 20.00     0.065 C 
HETATM    6 BR6  UNL     1     -32.901  18.067  -1.229  1.00 20.00    -0.091 Br
ENDROOT
TORSDOF 0
ENDMDL
MODEL 5
REMARK VINA RESULT:      -3.3     11.148     11.899
REMARK  0 active torsions:
REMARK  status: ('A' for Active; 'I' for Inactive)
ROOT
HETATM    1  C1  UNL     1     -33.745  16.268  -2.889  1.00 20.00    -0.087 C 
HETATM    2  C2  UNL     1     -32.926  17.141  -2.302  1.00 20.00     0.014 C 
HETATM    3  C3  UNL     1     -35.110  15.723  -2.527  1.00 20.00     0.049 C 
HETATM    4  C4  UNL     1     -33.659  15.467  -4.170  1.00 20.00     0.049 C 
HETATM    5  C5  UNL     1     -34.736  14.575  -3.500  1.00 20.00     0.065 C 
HETATM    6 BR6  UNL     1     -36.163  13.976  -4.667  1.00 20.00    -0.091 Br
ENDROOT
TORSDOF 0
ENDMDL
MODEL 6
REMARK VINA RESULT:      -3.3      9.233      9.523
REMARK  0 active torsions:
REMARK  status: ('A' for Active; 'I' for Inactive)
ROOT
HETATM    1  C1  UNL     1     -41.570   8.395   0.013  1.00 20.00    -0.087 C 
HETATM    2  C2  UNL     1     -41.245   9.614   0.445  1.00 20.00     0.014 C 
HETATM    3  C3  UNL     1     -42.085   7.153   0.707  1.00 20.00     0.049 C 
HETATM    4  C4  UNL     1     -41.571   7.747  -1.354  1.00 20.00     0.049 C 
HETATM    5  C5  UNL     1     -41.558   6.420  -0.553  1.00 20.00     0.065 C 
HETATM    6 BR6  UNL     1     -42.709   5.021  -1.244  1.00 20.00    -0.091 Br
ENDROOT
TORSDOF 0
ENDMDL
MODEL 7
REMARK VINA RESULT:      -3.3     11.501     11.951
REMARK  0 active torsions:
REMARK  status: ('A' for Active; 'I' for Inactive)
ROOT
HETATM    1  C1  UNL     1     -33.619  16.485  -2.572  1.00 20.00    -0.087 C 
HETATM    2  C2  UNL     1     -32.855  17.366  -1.928  1.00 20.00     0.014 C 
HETATM    3  C3  UNL     1     -33.403  15.628  -3.801  1.00 20.00     0.049 C 
HETATM    4  C4  UNL     1     -35.020  15.962  -2.338  1.00 20.00     0.049 C 
HETATM    5  C5  UNL     1     -34.951  15.558  -3.834  1.00 20.00     0.065 C 
HETATM    6 BR6  UNL     1     -35.696  13.819  -4.260  1.00 20.00    -0.091 Br
ENDROOT
TORSDOF 0
ENDMDL
MODEL 8
REMARK VINA RESULT:      -3.2     11.446     11.925
REMARK  0 active torsions:
REMARK  status: ('A' for Active; 'I' for Inactive)
ROOT
HETATM    1  C1  UNL     1     -33.769  15.481  -3.407  1.00 20.00    -0.087 C 
HETATM    2  C2  UNL     1     -33.205  14.790  -4.397  1.00 20.00     0.014 C 
HETATM    3  C3  UNL     1     -35.120  15.407  -2.730  1.00 20.00     0.049 C 
HETATM    4  C4  UNL     1     -33.288  16.622  -2.536  1.00 20.00     0.049 C 
HETATM    5  C5  UNL     1     -34.800  16.856  -2.280  1.00 20.00     0.065 C 
HETATM    6 BR6  UNL     1     -35.276  17.283  -0.450  1.00 20.00    -0.091 Br
ENDROOT
TORSDOF 0
ENDMDL
MODEL 9
REMARK VINA RESULT:      -3.2     16.399     17.318
REMARK  0 active torsions:
REMARK  status: ('A' for Active; 'I' for Inactive)
ROOT
HETATM    1  C1  UNL     1     -22.454  17.691  10.276  1.00 20.00    -0.087 C 
HETATM    2  C2  UNL     1     -21.418  18.094   9.540  1.00 20.00     0.014 C 
HETATM    3  C3  UNL     1     -22.748  17.727  11.760  1.00 20.00     0.049 C 
HETATM    4  C4  UNL     1     -23.777  17.041   9.933  1.00 20.00     0.049 C 
HETATM    5  C5  UNL     1     -23.776  16.617  11.425  1.00 20.00     0.065 C 
HETATM    6 BR6  UNL     1     -25.484  16.764  12.331  1.00 20.00    -0.091 Br
ENDROOT
TORSDOF 0
ENDMDL
