MODEL 1
REMARK VINA RESULT:      -4.0      0.000      0.000
REMARK  0 active torsions:
REMARK  status: ('A' for Active; 'I' for Inactive)
ROOT
HETATM    1  C1  UNL     1     -22.890  17.095   9.025  1.00 20.00     0.014 C 
HETATM    2  C2  UNL     1     -23.502  17.101  10.057  1.00 20.00    -0.090 C 
HETATM    3  C3  UNL     1     -26.546  18.388  11.930  1.00 20.00     0.013 A 
HETATM    4  C4  UNL     1     -25.880  19.227  10.837  1.00 20.00     0.013 A 
HETATM    5  C5  UNL     1     -23.879  18.189  12.331  1.00 20.00     0.052 A 
HETATM    6  C6  UNL     1     -24.232  17.110  11.288  1.00 20.00     0.107 A 
HETATM    7  C7  UNL     1     -25.135  18.219  11.588  1.00 20.00    -0.005 A 
HETATM    8 CL8  UNL     1     -24.636  15.508  11.905  1.00 20.00    -0.104 Cl
ENDROOT
TORSDOF 0
ENDMDL
MODEL 2
REMARK VINA RESULT:      -4.0     16.224     16.589
REMARK  0 active torsions:
REMARK  status: ('A' for Active; 'I' for Inactive)
ROOT
HETATM    1  C1  UNL     1     -33.141   4.032   2.100  1.00 20.00     0.014 C 
HETATM    2  C2  UNL     1     -33.268   5.041   2.737  1.00 20.00    -0.090 C 
HETATM    3  C3  UNL     1     -34.048   6.573   6.125  1.00 20.00     0.013 A 
HETATM    4  C4  UNL     1     -34.681   5.248   5.694  1.00 20.00     0.013 A 
HETATM    5  C5  UNL     1     -34.818   6.894   3.553  1.00 20.00     0.052 A 
HETATM    6  C6  UNL     1     -33.420   6.244   3.499  1.00 20.00     0.107 A 
HETATM    7  C7  UNL     1     -34.230   6.234   4.715  1.00 20.00    -0.005 A 
HETATM    8 CL8  UNL     1     -32.037   7.334   3.419  1.00 20.00    -0.104 Cl
ENDROOT
TORSDOF 0
ENDMDL
MODEL 3
REMARK VINA RESULT:      -3.9     18.339     18.951
REMARK  0 active torsions:
REMARK  status: ('A' for Active; 'I' for Inactive)
ROOT
HETATM    1  C1  UNL     1     -34.016  15.214  -7.099  1.00 20.00     0.014 C 
HETATM    2  C2  UNL     1     -34.593  15.027  -6.064  1.00 20.00    -0.090 C 
HETATM    3  C3  UNL     1     -34.860  15.912  -2.379  1.00 20.00     0.013 A 
HETATM    4  C4  UNL     1     -33.511  15.939  -3.101  1.00 20.00     0.013 A 
HETATM    5  C5  UNL     1     -34.764  13.682  -3.905  1.00 20.00     0.052 A 
HETATM    6  C6  UNL     1     -35.280  14.805  -4.828  1.00 20.00     0.107 A 
HETATM    7  C7  UNL     1     -34.608  15.092  -3.562  1.00 20.00    -0.005 A 
HETATM    8 CL8  UNL     1     -37.028  15.021  -4.919  1.00 20.00    -0.104 Cl
ENDROOT
TORSDOF 0
ENDMDL
MODEL 4
REMARK VINA RESULT:      -3.8     18.336     19.027
REMARK  0 active torsions:
REMARK  status: ('A' for Active; 'I' for Inactive)
ROOT
HETATM    1  C1  UNL     1     -34.849  16.262  -1.919  1.00 20.00     0.014 C 
HETATM    2  C2  UNL     1     -34.700  15.541  -2.867  1.00 20.00    -0.090 C 
HETATM    3  C3  UNL     1     -35.519  14.899  -6.520  1.00 20.00     0.013 A 
HETATM    4  C4  UNL     1     -36.516  15.608  -5.601  1.00 20.00     0.013 A 
HETATM    5  C5  UNL     1     -35.524  13.525  -4.191  1.00 20.00     0.052 A 
HETATM    6  C6  UNL     1     -34.523  14.682  -3.998  1.00 20.00     0.107 A 
HETATM    7  C7  UNL     1     -35.512  14.688  -5.074  1.00 20.00    -0.005 A 
HETATM    8 CL8  UNL     1     -32.839  14.355  -4.406  1.00 20.00    -0.104 Cl
ENDROOT
TORSDOF 0
ENDMDL
MODEL 5
REMARK VINA RESULT:      -3.8     17.885     18.551
REMARK  0 active torsions:
REMARK  status: ('A' for Active; 'I' for Inactive)
ROOT
HETATM    1  C1  UNL     1     -34.483  15.516  -7.257  1.00 20.00     0.014 C 
HETATM    2  C2  UNL     1     -34.376  15.143  -6.121  1.00 20.00    -0.090 C 
HETATM    3  C3  UNL     1     -33.969  16.148  -2.480  1.00 20.00     0.013 A 
HETATM    4  C4  UNL     1     -33.377  17.001  -3.605  1.00 20.00     0.013 A 
HETATM    5  C5  UNL     1     -32.828  14.427  -4.226  1.00 20.00     0.052 A 
HETATM    6  C6  UNL     1     -34.247  14.700  -4.767  1.00 20.00     0.107 A 
HETATM    7  C7  UNL     1     -33.617  15.570  -3.775  1.00 20.00    -0.005 A 
HETATM    8 CL8  UNL     1     -35.525  13.608  -4.234  1.00 20.00    -0.104 Cl
ENDROOT
TORSDOF 0
ENDMDL
MODEL 6
REMARK VINA RESULT:      -3.8      1.831      2.321
REMARK  0 active torsions:
REMARK  status: ('A' for Active; 'I' for Inactive)
ROOT
HETATM    1  C1  UNL     1     -21.553  17.819  12.329  1.00 20.00     0.014 C 
HETATM    2  C2  UNL     1     -22.508  17.741  11.606  1.00 20.00    -0.090 C 
HETATM    3  C3  UNL     1     -26.051  18.915  10.895  1.00 20.00     0.013 A 
HETATM    4  C4  UNL     1     -25.525  18.818  12.329  1.00 20.00     0.013 A 
HETATM    5  C5  UNL     1     -24.708  16.573  11.061  1.00 20.00     0.052 A 
HETATM    6  C6  UNL     1     -23.648  17.648  10.745  1.00 20.00     0.107 A 
HETATM    7  C7  UNL     1     -24.972  17.996  11.255  1.00 20.00    -0.005 A 
HETATM    8 CL8  UNL     1     -23.298  17.945   9.042  1.00 20.00    -0.104 Cl
ENDROOT
TORSDOF 0
ENDMDL
MODEL 7
REMARK VINA RESULT:      -3.7     15.117     15.882
REMARK  0 active torsions:
REMARK  status: ('A' for Active; 'I' for Inactive)
ROOT
HETATM    1  C1  UNL     1     -31.387  18.486  -0.546  1.00 20.00     0.014 C 
HETATM    2  C2  UNL     1     -32.494  18.131  -0.842  1.00 20.00    -0.090 C 
HETATM    3  C3  UNL     1     -34.614  15.603  -2.726  1.00 20.00     0.013 A 
HETATM    4  C4  UNL     1     -33.223  15.996  -3.228  1.00 20.00     0.013 A 
HETATM    5  C5  UNL     1     -34.443  18.290  -2.478  1.00 20.00     0.052 A 
HETATM    6  C6  UNL     1     -33.814  17.706  -1.197  1.00 20.00     0.107 A 
HETATM    7  C7  UNL     1     -34.018  16.896  -2.396  1.00 20.00    -0.005 A 
HETATM    8 CL8  UNL     1     -34.892  17.459   0.177  1.00 20.00    -0.104 Cl
ENDROOT
TORSDOF 0
ENDMDL
MODEL 8
REMARK VINA RESULT:      -3.7     17.416     18.042
REMARK  0 active torsions:
REMARK  status: ('A' for Active; 'I' for Inactive)
ROOT
HETATM    1  C1  UNL     1     -36.214  13.528  -4.501  1.00 20.00     0.014 C 
HETATM    2  C2  UNL     1     -35.319  14.306  -4.316  1.00 20.00    -0.090 C 
HETATM    3  C3  UNL     1     -33.716  16.782  -1.921  1.00 20.00     0.013 A 
HETATM    4  C4  UNL     1     -35.230  16.557  -1.926  1.00 20.00     0.013 A 
HETATM    5  C5  UNL     1     -34.469  16.701  -4.518  1.00 20.00     0.052 A 
HETATM    6  C6  UNL     1     -34.252  15.234  -4.093  1.00 20.00     0.107 A 
HETATM    7  C7  UNL     1     -34.416  16.306  -3.113  1.00 20.00    -0.005 A 
HETATM    8 CL8  UNL     1     -32.641  14.563  -4.343  1.00 20.00    -0.104 Cl
ENDROOT
TORSDOF 0
ENDMDL
MODEL 9
REMARK VINA RESULT:      -3.7     18.036     18.754
REMARK  0 active torsions:
REMARK  status: ('A' for Active; 'I' for Inactive)
ROOT
HETATM    1  C1  UNL     1     -35.052  16.360  -1.499  1.00 20.00     0.014 C 
HETATM    2  C2  UNL     1     -34.782  16.124  -2.644  1.00 20.00    -0.090 C 
HETATM    3  C3  UNL     1     -35.797  14.329  -5.835  1.00 20.00     0.013 A 
HETATM    4  C4  UNL     1     -36.145  13.753  -4.461  1.00 20.00     0.013 A 
HETATM    5  C5  UNL     1     -33.584  14.607  -4.306  1.00 20.00     0.052 A 
HETATM    6  C6  UNL     1     -34.460  15.840  -4.010  1.00 20.00     0.107 A 
HETATM    7  C7  UNL     1     -35.002  14.643  -4.649  1.00 20.00    -0.005 A 
HETATM    8 CL8  UNL     1     -34.183  17.271  -5.003  1.00 20.00    -0.104 Cl
ENDROOT
TORSDOF 0
ENDMDL
