MODEL 1
REMARK VINA RESULT:      -4.8      0.000      0.000
REMARK  0 active torsions:
REMARK  status: ('A' for Active; 'I' for Inactive)
ROOT
HETATM    1  C1  UNL     1     -32.501  18.350  -1.407  1.00 20.00     0.001 C 
HETATM    2  C2  UNL     1     -34.562  14.540  -3.795  1.00 20.00     0.001 C 
HETATM    3  C3  UNL     1     -32.603  17.589  -2.734  1.00 20.00     0.005 C 
HETATM    4  C4  UNL     1     -33.418  15.523  -3.979  1.00 20.00     0.005 C 
HETATM    5  C5  UNL     1     -33.833  18.895  -0.887  1.00 20.00     0.005 C 
HETATM    6  C6  UNL     1     -35.640  15.331  -3.056  1.00 20.00     0.005 C 
HETATM    7  C7  UNL     1     -36.131  17.746  -0.438  1.00 20.00     0.010 A 
HETATM    8  C8  UNL     1     -33.428  16.300  -2.665  1.00 20.00    -0.010 C 
HETATM    9  C9  UNL     1     -34.648  17.844  -0.196  1.00 20.00    -0.010 A 
HETATM   10  C10 UNL     1     -34.927  16.536  -2.419  1.00 20.00    -0.006 C 
HETATM   11  C11 UNL     1     -35.213  16.669  -0.955  1.00 20.00    -0.006 A 
ENDROOT
TORSDOF 0
ENDMDL
MODEL 2
REMARK VINA RESULT:      -4.7      0.950      2.769
REMARK  0 active torsions:
REMARK  status: ('A' for Active; 'I' for Inactive)
ROOT
HETATM    1  C1  UNL     1     -35.026  18.181   0.473  1.00 20.00     0.001 C 
HETATM    2  C2  UNL     1     -34.384  15.844  -3.839  1.00 20.00     0.001 C 
HETATM    3  C3  UNL     1     -35.384  16.951  -0.370  1.00 20.00     0.005 C 
HETATM    4  C4  UNL     1     -35.314  15.795  -2.638  1.00 20.00     0.005 C 
HETATM    5  C5  UNL     1     -33.528  18.352   0.737  1.00 20.00     0.005 C 
HETATM    6  C6  UNL     1     -33.028  16.253  -3.266  1.00 20.00     0.005 C 
HETATM    7  C7  UNL     1     -31.475  18.436  -0.869  1.00 20.00     0.010 A 
HETATM    8  C8  UNL     1     -34.848  16.987  -1.804  1.00 20.00    -0.010 C 
HETATM    9  C9  UNL     1     -32.812  18.968  -0.426  1.00 20.00    -0.010 A 
HETATM   10  C10 UNL     1     -33.316  16.890  -1.896  1.00 20.00    -0.006 C 
HETATM   11  C11 UNL     1     -32.686  18.240  -1.742  1.00 20.00    -0.006 A 
ENDROOT
TORSDOF 0
ENDMDL
MODEL 3
REMARK VINA RESULT:      -4.6     11.605     12.633
REMARK  0 active torsions:
REMARK  status: ('A' for Active; 'I' for Inactive)
ROOT
HETATM    1  C1  UNL     1     -34.966   4.321   4.601  1.00 20.00     0.001 C 
HETATM    2  C2  UNL     1     -32.380   7.329   1.646  1.00 20.00     0.001 C 
HETATM    3  C3  UNL     1     -34.017   4.413   3.399  1.00 20.00     0.005 C 
HETATM    4  C4  UNL     1     -32.850   5.884   1.680  1.00 20.00     0.005 C 
HETATM    5  C5  UNL     1     -34.407   4.920   5.894  1.00 20.00     0.005 C 
HETATM    6  C6  UNL     1     -32.114   7.687   3.107  1.00 20.00     0.005 C 
HETATM    7  C7  UNL     1     -33.403   7.265   6.437  1.00 20.00     0.010 A 
HETATM    8  C8  UNL     1     -33.713   5.842   2.940  1.00 20.00    -0.010 C 
HETATM    9  C9  UNL     1     -34.538   6.412   5.934  1.00 20.00    -0.010 A 
HETATM   10  C10 UNL     1     -32.884   6.654   3.948  1.00 20.00    -0.006 C 
HETATM   11  C11 UNL     1     -33.769   7.290   4.977  1.00 20.00    -0.006 A 
ENDROOT
TORSDOF 0
ENDMDL
MODEL 4
REMARK VINA RESULT:      -4.6      1.724      4.253
REMARK  0 active torsions:
REMARK  status: ('A' for Active; 'I' for Inactive)
ROOT
HETATM    1  C1  UNL     1     -34.564  14.944  -6.378  1.00 20.00     0.001 C 
HETATM    2  C2  UNL     1     -33.866  16.910  -1.892  1.00 20.00     0.001 C 
HETATM    3  C3  UNL     1     -33.591  15.117  -5.204  1.00 20.00     0.005 C 
HETATM    4  C4  UNL     1     -33.045  16.285  -3.009  1.00 20.00     0.005 C 
HETATM    5  C5  UNL     1     -35.889  14.275  -6.007  1.00 20.00     0.005 C 
HETATM    6  C6  UNL     1     -35.203  16.171  -1.931  1.00 20.00     0.005 C 
HETATM    7  C7  UNL     1     -37.665  14.823  -4.177  1.00 20.00     0.010 A 
HETATM    8  C8  UNL     1     -34.085  16.061  -4.105  1.00 20.00    -0.010 C 
HETATM    9  C9  UNL     1     -36.854  15.234  -5.377  1.00 20.00    -0.010 A 
HETATM   10  C10 UNL     1     -35.295  15.524  -3.323  1.00 20.00    -0.006 C 
HETATM   11  C11 UNL     1     -36.575  15.851  -4.029  1.00 20.00    -0.006 A 
ENDROOT
TORSDOF 0
ENDMDL
MODEL 5
REMARK VINA RESULT:      -4.3      1.431      2.843
REMARK  0 active torsions:
REMARK  status: ('A' for Active; 'I' for Inactive)
ROOT
HETATM    1  C1  UNL     1     -32.810  15.206  -3.801  1.00 20.00     0.001 C 
HETATM    2  C2  UNL     1     -37.659  14.400  -4.356  1.00 20.00     0.001 C 
HETATM    3  C3  UNL     1     -33.922  14.764  -4.760  1.00 20.00     0.005 C 
HETATM    4  C4  UNL     1     -36.357  14.090  -5.076  1.00 20.00     0.005 C 
HETATM    5  C5  UNL     1     -32.990  16.614  -3.229  1.00 20.00     0.005 C 
HETATM    6  C6  UNL     1     -37.432  15.768  -3.713  1.00 20.00     0.005 C 
HETATM    7  C7  UNL     1     -34.981  17.744  -1.979  1.00 20.00     0.010 A 
HETATM    8  C8  UNL     1     -35.303  14.630  -4.112  1.00 20.00    -0.010 C 
HETATM    9  C9  UNL     1     -33.958  16.644  -2.085  1.00 20.00    -0.010 A 
HETATM   10  C10 UNL     1     -35.908  15.969  -3.659  1.00 20.00    -0.006 C 
HETATM   11  C11 UNL     1     -35.422  16.339  -2.291  1.00 20.00    -0.006 A 
ENDROOT
TORSDOF 0
ENDMDL
MODEL 6
REMARK VINA RESULT:      -4.3      1.898      4.959
REMARK  0 active torsions:
REMARK  status: ('A' for Active; 'I' for Inactive)
ROOT
HETATM    1  C1  UNL     1     -36.268  13.864  -4.717  1.00 20.00     0.001 C 
HETATM    2  C2  UNL     1     -33.336  17.037  -2.309  1.00 20.00     0.001 C 
HETATM    3  C3  UNL     1     -36.107  14.754  -3.479  1.00 20.00     0.005 C 
HETATM    4  C4  UNL     1     -34.578  16.200  -2.046  1.00 20.00     0.005 C 
HETATM    5  C5  UNL     1     -36.181  14.613  -6.049  1.00 20.00     0.005 C 
HETATM    6  C6  UNL     1     -33.444  17.446  -3.777  1.00 20.00     0.005 C 
HETATM    7  C7  UNL     1     -34.378  16.225  -7.027  1.00 20.00     0.010 A 
HETATM    8  C8  UNL     1     -34.729  15.409  -3.344  1.00 20.00    -0.010 C 
HETATM    9  C9  UNL     1     -34.765  14.885  -6.457  1.00 20.00    -0.010 A 
HETATM   10  C10 UNL     1     -34.435  16.463  -4.424  1.00 20.00    -0.006 C 
HETATM   11  C11 UNL     1     -33.888  15.821  -5.661  1.00 20.00    -0.006 A 
ENDROOT
TORSDOF 0
ENDMDL
MODEL 7
REMARK VINA RESULT:      -4.2      1.188      4.406
REMARK  0 active torsions:
REMARK  status: ('A' for Active; 'I' for Inactive)
ROOT
HETATM    1  C1  UNL     1     -36.959  15.414  -3.872  1.00 20.00     0.001 C 
HETATM    2  C2  UNL     1     -33.727  17.872  -1.046  1.00 20.00     0.001 C 
HETATM    3  C3  UNL     1     -36.641  16.736  -3.161  1.00 20.00     0.005 C 
HETATM    4  C4  UNL     1     -35.167  18.000  -1.515  1.00 20.00     0.005 C 
HETATM    5  C5  UNL     1     -35.910  14.982  -4.899  1.00 20.00     0.005 C 
HETATM    6  C6  UNL     1     -32.995  17.209  -2.212  1.00 20.00     0.005 C 
HETATM    7  C7  UNL     1     -33.328  14.657  -4.722  1.00 20.00     0.010 A 
HETATM    8  C8  UNL     1     -35.387  16.699  -2.284  1.00 20.00    -0.010 C 
HETATM    9  C9  UNL     1     -34.723  14.327  -4.260  1.00 20.00    -0.010 A 
HETATM   10  C10 UNL     1     -34.079  16.546  -3.078  1.00 20.00    -0.006 C 
HETATM   11  C11 UNL     1     -33.792  15.103  -3.361  1.00 20.00    -0.006 A 
ENDROOT
TORSDOF 0
ENDMDL
MODEL 8
REMARK VINA RESULT:      -4.2      2.432      4.646
REMARK  0 active torsions:
REMARK  status: ('A' for Active; 'I' for Inactive)
ROOT
HETATM    1  C1  UNL     1     -32.511  18.304  -1.787  1.00 20.00     0.001 C 
HETATM    2  C2  UNL     1     -31.380  19.069   2.967  1.00 20.00     0.001 C 
HETATM    3  C3  UNL     1     -31.412  18.250  -0.719  1.00 20.00     0.005 C 
HETATM    4  C4  UNL     1     -30.669  18.841   1.644  1.00 20.00     0.005 C 
HETATM    5  C5  UNL     1     -33.736  17.440  -1.478  1.00 20.00     0.005 C 
HETATM    6  C6  UNL     1     -32.663  18.245   2.867  1.00 20.00     0.005 C 
HETATM    7  C7  UNL     1     -35.299  17.316   0.606  1.00 20.00     0.010 A 
HETATM    8  C8  UNL     1     -31.822  18.819   0.642  1.00 20.00    -0.010 C 
HETATM    9  C9  UNL     1     -34.671  18.104  -0.514  1.00 20.00    -0.010 A 
HETATM   10  C10 UNL     1     -32.889  17.984   1.368  1.00 20.00    -0.006 C 
HETATM   11  C11 UNL     1     -34.265  18.366   0.915  1.00 20.00    -0.006 A 
ENDROOT
TORSDOF 0
ENDMDL
MODEL 9
REMARK VINA RESULT:      -4.2      1.546      4.201
REMARK  0 active torsions:
REMARK  status: ('A' for Active; 'I' for Inactive)
ROOT
HETATM    1  C1  UNL     1     -35.808  17.390   0.708  1.00 20.00     0.001 C 
HETATM    2  C2  UNL     1     -31.042  18.615   0.209  1.00 20.00     0.001 C 
HETATM    3  C3  UNL     1     -34.682  18.324   1.169  1.00 20.00     0.005 C 
HETATM    4  C4  UNL     1     -32.196  18.870   1.165  1.00 20.00     0.005 C 
HETATM    5  C5  UNL     1     -36.100  17.446  -0.794  1.00 20.00     0.005 C 
HETATM    6  C6  UNL     1     -31.694  18.505  -1.168  1.00 20.00     0.005 C 
HETATM    7  C7  UNL     1     -34.559  17.169  -2.880  1.00 20.00     0.010 A 
HETATM    8  C8  UNL     1     -33.302  17.982   0.601  1.00 20.00    -0.010 C 
HETATM    9  C9  UNL     1     -35.129  16.632  -1.593  1.00 20.00    -0.010 A 
HETATM   10  C10 UNL     1     -33.182  18.209  -0.916  1.00 20.00    -0.006 C 
HETATM   11  C11 UNL     1     -33.671  17.013  -1.674  1.00 20.00    -0.006 A 
ENDROOT
TORSDOF 0
ENDMDL
