MODEL 1
REMARK VINA RESULT:      -4.9      0.000      0.000
REMARK  2 active torsions:
REMARK  status: ('A' for Active; 'I' for Inactive)
REMARK    1  A    between atoms: C4_4  and  C12_12 
REMARK    2  A    between atoms: C5_5  and  C11_11 
ROOT
HETATM    1  C1  UNL     1     -35.175  16.028  -1.970  1.00 20.00     0.004 A 
HETATM    2  C2  UNL     1     -35.062  17.017  -1.072  1.00 20.00    -0.017 A 
HETATM    3  C3  UNL     1     -33.379  17.227  -2.683  1.00 20.00    -0.010 A 
HETATM    4  C4  UNL     1     -34.137  16.156  -2.965  1.00 20.00    -0.054 A 
HETATM    5  C5  UNL     1     -33.893  17.898  -1.433  1.00 20.00     0.034 A 
ENDROOT
BRANCH   4   6
HETATM    6  C12 UNL     1     -34.000  15.209  -4.099  1.00 20.00    -0.024 C 
HETATM    7  C8  UNL     1     -34.386  15.910  -5.417  1.00 20.00     0.019 C 
HETATM    8  C9  UNL     1     -34.922  13.989  -3.893  1.00 20.00     0.019 C 
HETATM    9  C10 UNL     1     -32.544  14.710  -4.208  1.00 20.00     0.019 C 
ENDBRANCH   4   6
BRANCH   5  10
HETATM   10  C11 UNL     1     -32.844  17.945  -0.331  1.00 20.00    -0.012 C 
HETATM   11  C6  UNL     1     -31.508  18.449  -0.877  1.00 20.00     0.010 C 
HETATM   12  C7  UNL     1     -33.314  18.826   0.826  1.00 20.00     0.010 C 
ENDBRANCH   5  10
TORSDOF 2
ENDMDL
MODEL 2
REMARK VINA RESULT:      -4.9      1.041      4.658
REMARK  2 active torsions:
REMARK  status: ('A' for Active; 'I' for Inactive)
REMARK    1  A    between atoms: C4_4  and  C12_12 
REMARK    2  A    between atoms: C5_5  and  C11_11 
ROOT
HETATM    1  C1  UNL     1     -35.032  15.987  -2.139  1.00 20.00     0.004 A 
HETATM    2  C2  UNL     1     -35.065  15.012  -3.058  1.00 20.00    -0.017 A 
HETATM    3  C3  UNL     1     -33.152  16.322  -3.375  1.00 20.00    -0.010 A 
HETATM    4  C4  UNL     1     -33.851  16.796  -2.333  1.00 20.00    -0.054 A 
HETATM    5  C5  UNL     1     -33.857  15.121  -3.955  1.00 20.00     0.034 A 
ENDROOT
BRANCH   4   6
HETATM    6  C12 UNL     1     -33.531  17.957  -1.466  1.00 20.00    -0.024 C 
HETATM    7  C8  UNL     1     -33.994  19.262  -2.145  1.00 20.00     0.019 C 
HETATM    8  C9  UNL     1     -32.010  18.037  -1.217  1.00 20.00     0.019 C 
HETATM    9  C10 UNL     1     -34.244  17.823  -0.105  1.00 20.00     0.019 C 
ENDBRANCH   4   6
BRANCH   5  10
HETATM   10  C11 UNL     1     -34.239  15.325  -5.414  1.00 20.00    -0.012 C 
HETATM   11  C6  UNL     1     -35.516  14.555  -5.752  1.00 20.00     0.010 C 
HETATM   12  C7  UNL     1     -34.415  16.812  -5.725  1.00 20.00     0.010 C 
ENDBRANCH   5  10
TORSDOF 2
ENDMDL
MODEL 3
REMARK VINA RESULT:      -4.9      1.041      4.669
REMARK  2 active torsions:
REMARK  status: ('A' for Active; 'I' for Inactive)
REMARK    1  A    between atoms: C4_4  and  C12_12 
REMARK    2  A    between atoms: C5_5  and  C11_11 
ROOT
HETATM    1  C1  UNL     1     -35.045  15.975  -2.159  1.00 20.00     0.004 A 
HETATM    2  C2  UNL     1     -35.067  14.997  -3.075  1.00 20.00    -0.017 A 
HETATM    3  C3  UNL     1     -33.161  16.316  -3.387  1.00 20.00    -0.010 A 
HETATM    4  C4  UNL     1     -33.869  16.791  -2.350  1.00 20.00    -0.054 A 
HETATM    5  C5  UNL     1     -33.856  15.109  -3.965  1.00 20.00     0.034 A 
ENDROOT
BRANCH   4   6
HETATM    6  C12 UNL     1     -33.560  17.957  -1.486  1.00 20.00    -0.024 C 
HETATM    7  C8  UNL     1     -32.038  18.046  -1.251  1.00 20.00     0.019 C 
HETATM    8  C9  UNL     1     -34.267  17.816  -0.122  1.00 20.00     0.019 C 
HETATM    9  C10 UNL     1     -34.038  19.262  -2.154  1.00 20.00     0.019 C 
ENDBRANCH   4   6
BRANCH   5  10
HETATM   10  C11 UNL     1     -34.232  15.306  -5.427  1.00 20.00    -0.012 C 
HETATM   11  C6  UNL     1     -35.510  14.539  -5.765  1.00 20.00     0.010 C 
HETATM   12  C7  UNL     1     -34.400  16.790  -5.749  1.00 20.00     0.010 C 
ENDBRANCH   5  10
TORSDOF 2
ENDMDL
MODEL 4
REMARK VINA RESULT:      -4.8      1.036      4.665
REMARK  2 active torsions:
REMARK  status: ('A' for Active; 'I' for Inactive)
REMARK    1  A    between atoms: C4_4  and  C12_12 
REMARK    2  A    between atoms: C5_5  and  C11_11 
ROOT
HETATM    1  C1  UNL     1     -35.014  15.954  -2.169  1.00 20.00     0.004 A 
HETATM    2  C2  UNL     1     -35.023  14.986  -3.096  1.00 20.00    -0.017 A 
HETATM    3  C3  UNL     1     -33.145  16.347  -3.403  1.00 20.00    -0.010 A 
HETATM    4  C4  UNL     1     -33.856  16.795  -2.356  1.00 20.00    -0.054 A 
HETATM    5  C5  UNL     1     -33.820  15.133  -3.992  1.00 20.00     0.034 A 
ENDROOT
BRANCH   4   6
HETATM    6  C12 UNL     1     -33.564  17.956  -1.480  1.00 20.00    -0.024 C 
HETATM    7  C8  UNL     1     -34.284  17.785  -0.127  1.00 20.00     0.019 C 
HETATM    8  C9  UNL     1     -34.050  19.263  -2.142  1.00 20.00     0.019 C 
HETATM    9  C10 UNL     1     -32.047  18.070  -1.226  1.00 20.00     0.019 C 
ENDBRANCH   4   6
BRANCH   5  10
HETATM   10  C11 UNL     1     -34.209  15.340  -5.450  1.00 20.00    -0.012 C 
HETATM   11  C6  UNL     1     -35.483  14.564  -5.785  1.00 20.00     0.010 C 
HETATM   12  C7  UNL     1     -34.394  16.826  -5.755  1.00 20.00     0.010 C 
ENDBRANCH   5  10
TORSDOF 2
ENDMDL
MODEL 5
REMARK VINA RESULT:      -4.8      1.164      2.663
REMARK  2 active torsions:
REMARK  status: ('A' for Active; 'I' for Inactive)
REMARK    1  A    between atoms: C4_4  and  C12_12 
REMARK    2  A    between atoms: C5_5  and  C11_11 
ROOT
HETATM    1  C1  UNL     1     -33.152  16.829  -2.709  1.00 20.00     0.004 A 
HETATM    2  C2  UNL     1     -33.478  17.479  -1.583  1.00 20.00    -0.017 A 
HETATM    3  C3  UNL     1     -35.157  15.937  -2.112  1.00 20.00    -0.010 A 
HETATM    4  C4  UNL     1     -34.186  15.876  -3.037  1.00 20.00    -0.054 A 
HETATM    5  C5  UNL     1     -34.806  16.975  -1.075  1.00 20.00     0.034 A 
ENDROOT
BRANCH   4   6
HETATM    6  C12 UNL     1     -34.111  14.999  -4.230  1.00 20.00    -0.024 C 
HETATM    7  C8  UNL     1     -35.118  13.839  -4.093  1.00 20.00     0.019 C 
HETATM    8  C9  UNL     1     -32.691  14.411  -4.376  1.00 20.00     0.019 C 
HETATM    9  C10 UNL     1     -34.443  15.798  -5.507  1.00 20.00     0.019 C 
ENDBRANCH   4   6
BRANCH   5  10
HETATM   10  C11 UNL     1     -35.848  18.081  -0.991  1.00 20.00    -0.012 C 
HETATM   11  C6  UNL     1     -36.897  17.921  -2.093  1.00 20.00     0.010 C 
HETATM   12  C7  UNL     1     -36.517  18.092   0.383  1.00 20.00     0.010 C 
ENDBRANCH   5  10
TORSDOF 2
ENDMDL
MODEL 6
REMARK VINA RESULT:      -4.8      1.173      2.676
REMARK  2 active torsions:
REMARK  status: ('A' for Active; 'I' for Inactive)
REMARK    1  A    between atoms: C4_4  and  C12_12 
REMARK    2  A    between atoms: C5_5  and  C11_11 
ROOT
HETATM    1  C1  UNL     1     -33.144  16.817  -2.733  1.00 20.00     0.004 A 
HETATM    2  C2  UNL     1     -33.458  17.471  -1.606  1.00 20.00    -0.017 A 
HETATM    3  C3  UNL     1     -35.150  15.938  -2.119  1.00 20.00    -0.010 A 
HETATM    4  C4  UNL     1     -34.186  15.870  -3.051  1.00 20.00    -0.054 A 
HETATM    5  C5  UNL     1     -34.785  16.976  -1.087  1.00 20.00     0.034 A 
ENDROOT
BRANCH   4   6
HETATM    6  C12 UNL     1     -34.125  14.990  -4.244  1.00 20.00    -0.024 C 
HETATM    7  C8  UNL     1     -32.712  14.386  -4.377  1.00 20.00     0.019 C 
HETATM    8  C9  UNL     1     -34.447  15.793  -5.521  1.00 20.00     0.019 C 
HETATM    9  C10 UNL     1     -35.148  13.842  -4.117  1.00 20.00     0.019 C 
ENDBRANCH   4   6
BRANCH   5  10
HETATM   10  C11 UNL     1     -35.820  18.088  -0.997  1.00 20.00    -0.012 C 
HETATM   11  C6  UNL     1     -36.866  17.944  -2.103  1.00 20.00     0.010 C 
HETATM   12  C7  UNL     1     -36.493  18.092   0.375  1.00 20.00     0.010 C 
ENDBRANCH   5  10
TORSDOF 2
ENDMDL
MODEL 7
REMARK VINA RESULT:      -4.5      1.328      2.806
REMARK  2 active torsions:
REMARK  status: ('A' for Active; 'I' for Inactive)
REMARK    1  A    between atoms: C4_4  and  C12_12 
REMARK    2  A    between atoms: C5_5  and  C11_11 
ROOT
HETATM    1  C1  UNL     1     -33.620  16.040  -4.191  1.00 20.00     0.004 A 
HETATM    2  C2  UNL     1     -33.124  16.472  -3.024  1.00 20.00    -0.017 A 
HETATM    3  C3  UNL     1     -35.308  15.697  -2.707  1.00 20.00    -0.010 A 
HETATM    4  C4  UNL     1     -34.968  15.561  -3.998  1.00 20.00    -0.054 A 
HETATM    5  C5  UNL     1     -34.156  16.298  -1.940  1.00 20.00     0.034 A 
ENDROOT
BRANCH   4   6
HETATM    6  C12 UNL     1     -35.786  15.014  -5.108  1.00 20.00    -0.024 C 
HETATM    7  C8  UNL     1     -36.314  13.615  -4.730  1.00 20.00     0.019 C 
HETATM    8  C9  UNL     1     -34.937  14.895  -6.392  1.00 20.00     0.019 C 
HETATM    9  C10 UNL     1     -36.986  15.938  -5.398  1.00 20.00     0.019 C 
ENDBRANCH   4   6
BRANCH   5  10
HETATM   10  C11 UNL     1     -34.529  17.619  -1.281  1.00 20.00    -0.012 C 
HETATM   11  C6  UNL     1     -35.640  17.415  -0.250  1.00 20.00     0.010 C 
HETATM   12  C7  UNL     1     -33.307  18.262  -0.627  1.00 20.00     0.010 C 
ENDBRANCH   5  10
TORSDOF 2
ENDMDL
MODEL 8
REMARK VINA RESULT:      -4.4      1.693      2.704
REMARK  2 active torsions:
REMARK  status: ('A' for Active; 'I' for Inactive)
REMARK    1  A    between atoms: C4_4  and  C12_12 
REMARK    2  A    between atoms: C5_5  and  C11_11 
ROOT
HETATM    1  C1  UNL     1     -34.983  17.377   0.142  1.00 20.00     0.004 A 
HETATM    2  C2  UNL     1     -34.636  18.084   1.227  1.00 20.00    -0.017 A 
HETATM    3  C3  UNL     1     -33.233  18.650  -0.558  1.00 20.00    -0.010 A 
HETATM    4  C4  UNL     1     -34.118  17.725  -0.961  1.00 20.00    -0.054 A 
HETATM    5  C5  UNL     1     -33.471  18.982   0.894  1.00 20.00     0.034 A 
ENDROOT
BRANCH   4   6
HETATM    6  C12 UNL     1     -34.255  17.111  -2.304  1.00 20.00    -0.024 C 
HETATM    7  C8  UNL     1     -34.921  18.111  -3.272  1.00 20.00     0.019 C 
HETATM    8  C9  UNL     1     -35.123  15.838  -2.226  1.00 20.00     0.019 C 
HETATM    9  C10 UNL     1     -32.869  16.725  -2.862  1.00 20.00     0.019 C 
ENDBRANCH   4   6
BRANCH   5  10
HETATM   10  C11 UNL     1     -32.253  18.690   1.760  1.00 20.00    -0.012 C 
HETATM   11  C6  UNL     1     -32.584  17.646   2.826  1.00 20.00     0.010 C 
HETATM   12  C7  UNL     1     -31.079  18.220   0.901  1.00 20.00     0.010 C 
ENDBRANCH   5  10
TORSDOF 2
ENDMDL
MODEL 9
REMARK VINA RESULT:      -4.4      1.394      2.620
REMARK  2 active torsions:
REMARK  status: ('A' for Active; 'I' for Inactive)
REMARK    1  A    between atoms: C4_4  and  C12_12 
REMARK    2  A    between atoms: C5_5  and  C11_11 
ROOT
HETATM    1  C1  UNL     1     -34.121  16.440  -4.587  1.00 20.00     0.004 A 
HETATM    2  C2  UNL     1     -33.361  16.971  -3.619  1.00 20.00    -0.017 A 
HETATM    3  C3  UNL     1     -34.964  15.557  -2.668  1.00 20.00    -0.010 A 
HETATM    4  C4  UNL     1     -35.111  15.567  -4.002  1.00 20.00    -0.054 A 
HETATM    5  C5  UNL     1     -33.820  16.459  -2.277  1.00 20.00     0.034 A 
ENDROOT
BRANCH   4   6
HETATM    6  C12 UNL     1     -36.102  14.827  -4.821  1.00 20.00    -0.024 C 
HETATM    7  C8  UNL     1     -35.807  15.038  -6.319  1.00 20.00     0.019 C 
HETATM    8  C9  UNL     1     -37.530  15.329  -4.518  1.00 20.00     0.019 C 
HETATM    9  C10 UNL     1     -36.038  13.318  -4.508  1.00 20.00     0.019 C 
ENDBRANCH   4   6
BRANCH   5  10
HETATM   10  C11 UNL     1     -34.264  17.584  -1.352  1.00 20.00    -0.012 C 
HETATM   11  C6  UNL     1     -35.348  17.098  -0.391  1.00 20.00     0.010 C 
HETATM   12  C7  UNL     1     -33.074  18.147  -0.574  1.00 20.00     0.010 C 
ENDBRANCH   5  10
TORSDOF 2
ENDMDL
