MODEL 1
REMARK VINA RESULT:      -5.1      0.000      0.000
REMARK  1 active torsions:
REMARK  status: ('A' for Active; 'I' for Inactive)
REMARK    1  A    between atoms: C5_5  and  C6_6 
ROOT
HETATM    1  C1  UNL     1     -35.708   5.619   3.870  1.00 20.00     0.024 A 
HETATM    2  C2  UNL     1     -34.504   5.073   6.133  1.00 20.00     0.275 C 
HETATM    3  C3  UNL     1     -33.656   6.896   4.864  1.00 20.00     0.285 C 
HETATM    4  C4  UNL     1     -34.769   4.777   4.694  1.00 20.00     0.030 A 
HETATM    5  C5  UNL     1     -34.220   5.899   3.892  1.00 20.00     0.051 A 
HETATM    6  N7  UNL     1     -34.181   6.513   6.192  1.00 20.00     0.084 N 
HETATM    7  H18 UNL     1     -35.051   7.024   6.342  1.00 20.00     0.315 HD
ENDROOT
BRANCH   5   8
HETATM    8  C6  UNL     1     -33.420   5.625   2.657  1.00 20.00     0.363 C 
HETATM    9  F8  UNL     1     -32.959   4.346   2.677  1.00 20.00    -0.214 F 
HETATM   10  F9  UNL     1     -32.324   6.428   2.627  1.00 20.00    -0.214 F 
ENDBRANCH   5   8
TORSDOF 1
ENDMDL
MODEL 2
REMARK VINA RESULT:      -4.6      0.459      1.118
REMARK  1 active torsions:
REMARK  status: ('A' for Active; 'I' for Inactive)
REMARK    1  A    between atoms: C5_5  and  C6_6 
ROOT
HETATM    1  C1  UNL     1     -35.507   5.661   3.732  1.00 20.00     0.024 A 
HETATM    2  C2  UNL     1     -34.659   5.111   6.150  1.00 20.00     0.275 C 
HETATM    3  C3  UNL     1     -33.604   6.913   5.013  1.00 20.00     0.285 C 
HETATM    4  C4  UNL     1     -34.713   4.811   4.689  1.00 20.00     0.030 A 
HETATM    5  C5  UNL     1     -34.034   5.919   3.972  1.00 20.00     0.051 A 
HETATM    6  N7  UNL     1     -34.325   6.546   6.250  1.00 20.00     0.084 N 
HETATM    7  H18 UNL     1     -35.200   7.071   6.269  1.00 20.00     0.315 HD
ENDROOT
BRANCH   5   8
HETATM    8  C6  UNL     1     -33.065   5.625   2.870  1.00 20.00     0.363 C 
HETATM    9  F8  UNL     1     -33.081   6.632   1.958  1.00 20.00    -0.214 F 
HETATM   10  F9  UNL     1     -33.443   4.500   2.207  1.00 20.00    -0.214 F 
ENDBRANCH   5   8
TORSDOF 1
ENDMDL
MODEL 3
REMARK VINA RESULT:      -4.3     16.019     16.917
REMARK  1 active torsions:
REMARK  status: ('A' for Active; 'I' for Inactive)
REMARK    1  A    between atoms: C5_5  and  C6_6 
ROOT
HETATM    1  C1  UNL     1     -25.143  18.368  12.122  1.00 20.00     0.024 A 
HETATM    2  C2  UNL     1     -24.604  15.820  11.838  1.00 20.00     0.275 C 
HETATM    3  C3  UNL     1     -22.896  17.363  11.244  1.00 20.00     0.285 C 
HETATM    4  C4  UNL     1     -25.274  17.069  11.371  1.00 20.00     0.030 A 
HETATM    5  C5  UNL     1     -24.215  18.030  10.975  1.00 20.00     0.051 A 
HETATM    6  N7  UNL     1     -23.198  16.192  12.094  1.00 20.00     0.084 N 
HETATM    7  H18 UNL     1     -23.124  16.486  13.069  1.00 20.00     0.315 HD
ENDROOT
BRANCH   5   8
HETATM    8  C6  UNL     1     -24.337  18.806   9.700  1.00 20.00     0.363 C 
HETATM    9  F8  UNL     1     -24.797  17.999   8.708  1.00 20.00    -0.214 F 
HETATM   10  F9  UNL     1     -23.112  19.242   9.304  1.00 20.00    -0.214 F 
ENDBRANCH   5   8
TORSDOF 1
ENDMDL
MODEL 4
REMARK VINA RESULT:      -4.2     16.084     17.093
REMARK  1 active torsions:
REMARK  status: ('A' for Active; 'I' for Inactive)
REMARK    1  A    between atoms: C5_5  and  C6_6 
ROOT
HETATM    1  C1  UNL     1     -22.304  17.393   9.548  1.00 20.00     0.024 A 
HETATM    2  C2  UNL     1     -22.548  17.274  12.154  1.00 20.00     0.275 C 
HETATM    3  C3  UNL     1     -24.419  16.591  10.856  1.00 20.00     0.285 C 
HETATM    4  C4  UNL     1     -22.519  18.056  10.883  1.00 20.00     0.030 A 
HETATM    5  C5  UNL     1     -23.698  17.654  10.076  1.00 20.00     0.051 A 
HETATM    6  N7  UNL     1     -23.483  16.157  11.914  1.00 20.00     0.084 N 
HETATM    7  H18 UNL     1     -22.945  15.370  11.551  1.00 20.00     0.315 HD
ENDROOT
BRANCH   5   8
HETATM    8  C6  UNL     1     -24.540  18.691   9.400  1.00 20.00     0.363 C 
HETATM    9  F8  UNL     1     -25.595  19.020  10.190  1.00 20.00    -0.214 F 
HETATM   10  F9  UNL     1     -25.062  18.187   8.251  1.00 20.00    -0.214 F 
ENDBRANCH   5   8
TORSDOF 1
ENDMDL
MODEL 5
REMARK VINA RESULT:      -4.1      2.487      3.370
REMARK  1 active torsions:
REMARK  status: ('A' for Active; 'I' for Inactive)
REMARK    1  A    between atoms: C5_5  and  C6_6 
ROOT
HETATM    1  C1  UNL     1     -35.622   6.110   3.709  1.00 20.00     0.024 A 
HETATM    2  C2  UNL     1     -33.164   5.986   2.808  1.00 20.00     0.275 C 
HETATM    3  C3  UNL     1     -33.985   4.091   3.986  1.00 20.00     0.285 C 
HETATM    4  C4  UNL     1     -34.164   6.477   3.802  1.00 20.00     0.030 A 
HETATM    5  C5  UNL     1     -34.664   5.303   4.559  1.00 20.00     0.051 A 
HETATM    6  N7  UNL     1     -33.381   4.529   2.709  1.00 20.00     0.084 N 
HETATM    7  H18 UNL     1     -34.062   4.363   1.968  1.00 20.00     0.315 HD
ENDROOT
BRANCH   5   8
HETATM    8  C6  UNL     1     -34.799   5.366   6.049  1.00 20.00     0.363 C 
HETATM    9  F8  UNL     1     -34.439   6.598   6.496  1.00 20.00    -0.214 F 
HETATM   10  F9  UNL     1     -33.945   4.482   6.629  1.00 20.00    -0.214 F 
ENDBRANCH   5   8
TORSDOF 1
ENDMDL
MODEL 6
REMARK VINA RESULT:      -4.1     16.502     17.280
REMARK  1 active torsions:
REMARK  status: ('A' for Active; 'I' for Inactive)
REMARK    1  A    between atoms: C5_5  and  C6_6 
ROOT
HETATM    1  C1  UNL     1     -24.789  16.280  11.429  1.00 20.00     0.024 A 
HETATM    2  C2  UNL     1     -26.010  18.492  12.122  1.00 20.00     0.275 C 
HETATM    3  C3  UNL     1     -24.827  18.505  10.059  1.00 20.00     0.285 C 
HETATM    4  C4  UNL     1     -24.871  17.537  12.254  1.00 20.00     0.030 A 
HETATM    5  C5  UNL     1     -24.112  17.557  10.980  1.00 20.00     0.051 A 
HETATM    6  N7  UNL     1     -26.149  18.750  10.675  1.00 20.00     0.084 N 
HETATM    7  H18 UNL     1     -26.802  18.063  10.295  1.00 20.00     0.315 HD
ENDROOT
BRANCH   5   8
HETATM    8  C6  UNL     1     -22.616  17.619  10.991  1.00 20.00     0.363 C 
HETATM    9  F8  UNL     1     -22.181  18.116  12.179  1.00 20.00    -0.214 F 
HETATM   10  F9  UNL     1     -22.180  18.478  10.032  1.00 20.00    -0.214 F 
ENDBRANCH   5   8
TORSDOF 1
ENDMDL
MODEL 7
REMARK VINA RESULT:      -4.1     16.280     17.162
REMARK  1 active torsions:
REMARK  status: ('A' for Active; 'I' for Inactive)
REMARK    1  A    between atoms: C5_5  and  C6_6 
ROOT
HETATM    1  C1  UNL     1     -24.624  18.535   8.725  1.00 20.00     0.024 A 
HETATM    2  C2  UNL     1     -22.159  17.906   9.355  1.00 20.00     0.275 C 
HETATM    3  C3  UNL     1     -23.891  16.564  10.278  1.00 20.00     0.285 C 
HETATM    4  C4  UNL     1     -23.362  18.776   9.512  1.00 20.00     0.030 A 
HETATM    5  C5  UNL     1     -24.442  17.952  10.110  1.00 20.00     0.051 A 
HETATM    6  N7  UNL     1     -22.650  16.519   9.475  1.00 20.00     0.084 N 
HETATM    7  H18 UNL     1     -22.895  16.191   8.541  1.00 20.00     0.315 HD
ENDROOT
BRANCH   5   8
HETATM    8  C6  UNL     1     -25.272  18.494  11.232  1.00 20.00     0.363 C 
HETATM    9  F8  UNL     1     -24.490  18.722  12.320  1.00 20.00    -0.214 F 
HETATM   10  F9  UNL     1     -26.198  17.574  11.610  1.00 20.00    -0.214 F 
ENDBRANCH   5   8
TORSDOF 1
ENDMDL
MODEL 8
REMARK VINA RESULT:      -4.1     12.173     12.993
REMARK  1 active torsions:
REMARK  status: ('A' for Active; 'I' for Inactive)
REMARK    1  A    between atoms: C5_5  and  C6_6 
ROOT
HETATM    1  C1  UNL     1     -35.395  13.719  -4.156  1.00 20.00     0.024 A 
HETATM    2  C2  UNL     1     -34.413  15.086  -6.164  1.00 20.00     0.275 C 
HETATM    3  C3  UNL     1     -33.095  14.959  -4.190  1.00 20.00     0.285 C 
HETATM    4  C4  UNL     1     -35.350  14.960  -5.009  1.00 20.00     0.030 A 
HETATM    5  C5  UNL     1     -34.536  14.905  -3.769  1.00 20.00     0.051 A 
HETATM    6  N7  UNL     1     -33.085  14.702  -5.646  1.00 20.00     0.084 N 
HETATM    7  H18 UNL     1     -32.974  13.697  -5.784  1.00 20.00     0.315 HD
ENDROOT
BRANCH   5   8
HETATM    8  C6  UNL     1     -34.926  15.714  -2.572  1.00 20.00     0.363 C 
HETATM    9  F8  UNL     1     -35.648  16.799  -2.960  1.00 20.00    -0.214 F 
HETATM   10  F9  UNL     1     -33.815  16.193  -1.954  1.00 20.00    -0.214 F 
ENDBRANCH   5   8
TORSDOF 1
ENDMDL
MODEL 9
REMARK VINA RESULT:      -4.1      8.935      9.645
REMARK  1 active torsions:
REMARK  status: ('A' for Active; 'I' for Inactive)
REMARK    1  A    between atoms: C5_5  and  C6_6 
ROOT
HETATM    1  C1  UNL     1     -42.580   5.407   1.158  1.00 20.00     0.024 A 
HETATM    2  C2  UNL     1     -43.148   4.990  -1.365  1.00 20.00     0.275 C 
HETATM    3  C3  UNL     1     -40.927   5.665  -0.850  1.00 20.00     0.285 C 
HETATM    4  C4  UNL     1     -43.212   5.838  -0.138  1.00 20.00     0.030 A 
HETATM    5  C5  UNL     1     -41.833   6.285   0.177  1.00 20.00     0.051 A 
HETATM    6  N7  UNL     1     -41.727   4.618  -1.520  1.00 20.00     0.084 N 
HETATM    7  H18 UNL     1     -41.577   3.742  -1.018  1.00 20.00     0.315 HD
ENDROOT
BRANCH   5   8
HETATM    8  C6  UNL     1     -41.566   7.711   0.547  1.00 20.00     0.363 C 
HETATM    9  F8  UNL     1     -42.739   8.391   0.648  1.00 20.00    -0.214 F 
HETATM   10  F9  UNL     1     -40.852   8.319  -0.436  1.00 20.00    -0.214 F 
ENDBRANCH   5   8
TORSDOF 1
ENDMDL
