MODEL 1
REMARK VINA RESULT:      -5.5      0.000      0.000
REMARK  1 active torsions:
REMARK  status: ('A' for Active; 'I' for Inactive)
REMARK    1  A    between atoms: C1_1  and  C5_5 
ROOT
HETATM    1  C2  UNL     1     -36.030  16.760  -3.451  1.00 20.00     0.006 C 
HETATM    2  C3  UNL     1     -34.901  17.440  -4.236  1.00 20.00     0.006 C 
HETATM    3  C4  UNL     1     -33.951  16.309  -2.406  1.00 20.00     0.011 C 
HETATM    4  C5  UNL     1     -34.862  14.481  -3.599  1.00 20.00     0.084 C 
HETATM    5  C6  UNL     1     -35.303  15.642  -2.679  1.00 20.00    -0.001 C 
HETATM    6  C7  UNL     1     -33.679  16.571  -3.895  1.00 20.00    -0.006 C 
HETATM    7  C8  UNL     1     -33.793  15.140  -4.525  1.00 20.00    -0.032 C 
HETATM    8  C9  UNL     1     -32.447  14.396  -4.393  1.00 20.00     0.016 C 
HETATM    9  C10 UNL     1     -34.151  15.169  -6.019  1.00 20.00     0.016 C 
ENDROOT
BRANCH   4  10
HETATM   10  C1  UNL     1     -36.016  13.802  -4.274  1.00 20.00     0.224 C 
HETATM   11  O11 UNL     1     -35.941  12.643  -4.670  1.00 20.00    -0.279 OA
HETATM   12 CL12 UNL     1     -37.401  14.844  -4.405  1.00 20.00    -0.043 Cl
ENDBRANCH   4  10
TORSDOF 1
ENDMDL
MODEL 2
REMARK VINA RESULT:      -5.0      2.155      3.613
REMARK  1 active torsions:
REMARK  status: ('A' for Active; 'I' for Inactive)
REMARK    1  A    between atoms: C1_1  and  C5_5 
ROOT
HETATM    1  C2  UNL     1     -33.683  14.562  -4.808  1.00 20.00     0.006 C 
HETATM    2  C3  UNL     1     -34.484  15.170  -5.965  1.00 20.00     0.006 C 
HETATM    3  C4  UNL     1     -35.918  13.777  -4.726  1.00 20.00     0.011 C 
HETATM    4  C5  UNL     1     -35.390  15.398  -3.085  1.00 20.00     0.084 C 
HETATM    5  C6  UNL     1     -34.771  14.169  -3.789  1.00 20.00    -0.001 C 
HETATM    6  C7  UNL     1     -35.927  15.142  -5.431  1.00 20.00    -0.006 C 
HETATM    7  C8  UNL     1     -36.123  16.145  -4.242  1.00 20.00    -0.032 C 
HETATM    8  C9  UNL     1     -37.625  16.287  -3.913  1.00 20.00     0.016 C 
HETATM    9  C10 UNL     1     -35.591  17.553  -4.550  1.00 20.00     0.016 C 
ENDROOT
BRANCH   4  10
HETATM   10  C1  UNL     1     -34.385  16.186  -2.299  1.00 20.00     0.224 C 
HETATM   11  O11 UNL     1     -33.212  16.266  -2.650  1.00 20.00    -0.279 OA
HETATM   12 CL12 UNL     1     -35.090  16.929  -0.895  1.00 20.00    -0.043 Cl
ENDBRANCH   4  10
TORSDOF 1
ENDMDL
MODEL 3
REMARK VINA RESULT:      -4.9      1.610      2.811
REMARK  1 active torsions:
REMARK  status: ('A' for Active; 'I' for Inactive)
REMARK    1  A    between atoms: C1_1  and  C5_5 
ROOT
HETATM    1  C2  UNL     1     -34.815  14.062  -3.793  1.00 20.00     0.006 C 
HETATM    2  C3  UNL     1     -35.110  15.207  -2.816  1.00 20.00     0.006 C 
HETATM    3  C4  UNL     1     -33.005  15.592  -3.793  1.00 20.00     0.011 C 
HETATM    4  C5  UNL     1     -34.383  15.708  -5.712  1.00 20.00     0.084 C 
HETATM    5  C6  UNL     1     -33.768  14.668  -4.747  1.00 20.00    -0.001 C 
HETATM    6  C7  UNL     1     -34.269  16.363  -3.385  1.00 20.00    -0.006 C 
HETATM    7  C8  UNL     1     -34.830  16.862  -4.762  1.00 20.00    -0.032 C 
HETATM    8  C9  UNL     1     -34.137  18.180  -5.167  1.00 20.00     0.016 C 
HETATM    9  C10 UNL     1     -36.342  17.135  -4.732  1.00 20.00     0.016 C 
ENDROOT
BRANCH   4  10
HETATM   10  C1  UNL     1     -35.434  15.122  -6.607  1.00 20.00     0.224 C 
HETATM   11  O11 UNL     1     -35.918  14.014  -6.393  1.00 20.00    -0.279 OA
HETATM   12 CL12 UNL     1     -35.844  16.185  -7.918  1.00 20.00    -0.043 Cl
ENDBRANCH   4  10
TORSDOF 1
ENDMDL
MODEL 4
REMARK VINA RESULT:      -4.9      1.386      1.392
REMARK  1 active torsions:
REMARK  status: ('A' for Active; 'I' for Inactive)
REMARK    1  A    between atoms: C1_1  and  C5_5 
ROOT
HETATM    1  C2  UNL     1     -35.602  17.739  -2.887  1.00 20.00     0.006 C 
HETATM    2  C3  UNL     1     -34.409  18.203  -3.731  1.00 20.00     0.006 C 
HETATM    3  C4  UNL     1     -33.611  16.755  -2.058  1.00 20.00     0.011 C 
HETATM    4  C5  UNL     1     -35.006  15.272  -3.262  1.00 20.00     0.084 C 
HETATM    5  C6  UNL     1     -35.096  16.432  -2.244  1.00 20.00    -0.001 C 
HETATM    6  C7  UNL     1     -33.398  17.057  -3.549  1.00 20.00    -0.006 C 
HETATM    7  C8  UNL     1     -33.886  15.739  -4.243  1.00 20.00    -0.032 C 
HETATM    8  C9  UNL     1     -32.742  14.703  -4.273  1.00 20.00     0.016 C 
HETATM    9  C10 UNL     1     -34.339  15.958  -5.695  1.00 20.00     0.016 C 
ENDROOT
BRANCH   4  10
HETATM   10  C1  UNL     1     -36.334  14.923  -3.866  1.00 20.00     0.224 C 
HETATM   11  O11 UNL     1     -37.284  15.700  -3.828  1.00 20.00    -0.279 OA
HETATM   12 CL12 UNL     1     -36.328  13.344  -4.590  1.00 20.00    -0.043 Cl
ENDBRANCH   4  10
TORSDOF 1
ENDMDL
MODEL 5
REMARK VINA RESULT:      -4.8      2.081      3.346
REMARK  1 active torsions:
REMARK  status: ('A' for Active; 'I' for Inactive)
REMARK    1  A    between atoms: C1_1  and  C5_5 
ROOT
HETATM    1  C2  UNL     1     -36.082  14.582  -5.202  1.00 20.00     0.006 C 
HETATM    2  C3  UNL     1     -35.365  13.811  -4.087  1.00 20.00     0.006 C 
HETATM    3  C4  UNL     1     -33.740  14.885  -5.405  1.00 20.00     0.011 C 
HETATM    4  C5  UNL     1     -34.899  16.765  -4.558  1.00 20.00     0.084 C 
HETATM    5  C6  UNL     1     -35.050  15.649  -5.617  1.00 20.00    -0.001 C 
HETATM    6  C7  UNL     1     -34.047  14.589  -3.929  1.00 20.00    -0.006 C 
HETATM    7  C8  UNL     1     -34.287  16.019  -3.332  1.00 20.00    -0.032 C 
HETATM    8  C9  UNL     1     -32.939  16.660  -2.939  1.00 20.00     0.016 C 
HETATM    9  C10 UNL     1     -35.167  16.003  -2.072  1.00 20.00     0.016 C 
ENDROOT
BRANCH   4  10
HETATM   10  C1  UNL     1     -36.172  17.522  -4.324  1.00 20.00     0.224 C 
HETATM   11  O11 UNL     1     -37.266  17.053  -4.626  1.00 20.00    -0.279 OA
HETATM   12 CL12 UNL     1     -35.886  19.076  -3.602  1.00 20.00    -0.043 Cl
ENDBRANCH   4  10
TORSDOF 1
ENDMDL
MODEL 6
REMARK VINA RESULT:      -4.8      1.907      2.623
REMARK  1 active torsions:
REMARK  status: ('A' for Active; 'I' for Inactive)
REMARK    1  A    between atoms: C1_1  and  C5_5 
ROOT
HETATM    1  C2  UNL     1     -34.970  15.841  -2.376  1.00 20.00     0.006 C 
HETATM    2  C3  UNL     1     -33.562  16.094  -2.927  1.00 20.00     0.006 C 
HETATM    3  C4  UNL     1     -34.378  14.102  -3.873  1.00 20.00     0.011 C 
HETATM    4  C5  UNL     1     -35.944  15.648  -4.741  1.00 20.00     0.084 C 
HETATM    5  C6  UNL     1     -35.602  14.908  -3.427  1.00 20.00    -0.001 C 
HETATM    6  C7  UNL     1     -33.587  15.355  -4.276  1.00 20.00    -0.006 C 
HETATM    7  C8  UNL     1     -34.545  16.055  -5.301  1.00 20.00    -0.032 C 
HETATM    8  C9  UNL     1     -34.343  15.454  -6.708  1.00 20.00     0.016 C 
HETATM    9  C10 UNL     1     -34.302  17.568  -5.413  1.00 20.00     0.016 C 
ENDROOT
BRANCH   4  10
HETATM   10  C1  UNL     1     -36.942  16.750  -4.546  1.00 20.00     0.224 C 
HETATM   11  O11 UNL     1     -37.126  17.266  -3.448  1.00 20.00    -0.279 OA
HETATM   12 CL12 UNL     1     -37.756  17.165  -6.024  1.00 20.00    -0.043 Cl
ENDBRANCH   4  10
TORSDOF 1
ENDMDL
MODEL 7
REMARK VINA RESULT:      -4.8      1.910      3.116
REMARK  1 active torsions:
REMARK  status: ('A' for Active; 'I' for Inactive)
REMARK    1  A    between atoms: C1_1  and  C5_5 
ROOT
HETATM    1  C2  UNL     1     -33.671  16.108  -2.931  1.00 20.00     0.006 C 
HETATM    2  C3  UNL     1     -35.013  15.856  -2.235  1.00 20.00     0.006 C 
HETATM    3  C4  UNL     1     -35.239  17.749  -3.612  1.00 20.00     0.011 C 
HETATM    4  C5  UNL     1     -34.782  16.098  -5.244  1.00 20.00     0.084 C 
HETATM    5  C6  UNL     1     -34.062  16.943  -4.167  1.00 20.00    -0.001 C 
HETATM    6  C7  UNL     1     -36.024  16.493  -3.205  1.00 20.00    -0.006 C 
HETATM    7  C8  UNL     1     -36.118  15.692  -4.549  1.00 20.00    -0.032 C 
HETATM    8  C9  UNL     1     -37.320  16.193  -5.379  1.00 20.00     0.016 C 
HETATM    9  C10 UNL     1     -36.311  14.183  -4.336  1.00 20.00     0.016 C 
ENDROOT
BRANCH   4  10
HETATM   10  C1  UNL     1     -33.930  14.986  -5.777  1.00 20.00     0.224 C 
HETATM   11  O11 UNL     1     -33.451  14.130  -5.039  1.00 20.00    -0.279 OA
HETATM   12 CL12 UNL     1     -33.732  15.082  -7.500  1.00 20.00    -0.043 Cl
ENDBRANCH   4  10
TORSDOF 1
ENDMDL
MODEL 8
REMARK VINA RESULT:      -4.7      2.198      2.874
REMARK  1 active torsions:
REMARK  status: ('A' for Active; 'I' for Inactive)
REMARK    1  A    between atoms: C1_1  and  C5_5 
ROOT
HETATM    1  C2  UNL     1     -34.117  17.892  -3.400  1.00 20.00     0.006 C 
HETATM    2  C3  UNL     1     -33.493  16.850  -2.464  1.00 20.00     0.006 C 
HETATM    3  C4  UNL     1     -35.807  16.447  -2.580  1.00 20.00     0.011 C 
HETATM    4  C5  UNL     1     -35.204  16.065  -4.835  1.00 20.00     0.084 C 
HETATM    5  C6  UNL     1     -35.435  17.228  -3.844  1.00 20.00    -0.001 C 
HETATM    6  C7  UNL     1     -34.481  15.674  -2.559  1.00 20.00    -0.006 C 
HETATM    7  C8  UNL     1     -34.447  15.004  -3.976  1.00 20.00    -0.032 C 
HETATM    8  C9  UNL     1     -35.239  13.679  -3.953  1.00 20.00     0.016 C 
HETATM    9  C10 UNL     1     -33.024  14.674  -4.451  1.00 20.00     0.016 C 
ENDROOT
BRANCH   4  10
HETATM   10  C1  UNL     1     -34.541  16.505  -6.106  1.00 20.00     0.224 C 
HETATM   11  O11 UNL     1     -34.109  17.646  -6.246  1.00 20.00    -0.279 OA
HETATM   12 CL12 UNL     1     -34.476  15.232  -7.286  1.00 20.00    -0.043 Cl
ENDBRANCH   4  10
TORSDOF 1
ENDMDL
MODEL 9
REMARK VINA RESULT:      -4.6      1.440      2.586
REMARK  1 active torsions:
REMARK  status: ('A' for Active; 'I' for Inactive)
REMARK    1  A    between atoms: C1_1  and  C5_5 
ROOT
HETATM    1  C2  UNL     1     -35.919  15.425  -6.763  1.00 20.00     0.006 C 
HETATM    2  C3  UNL     1     -34.463  15.076  -6.435  1.00 20.00     0.006 C 
HETATM    3  C4  UNL     1     -34.980  17.128  -5.408  1.00 20.00     0.011 C 
HETATM    4  C5  UNL     1     -36.493  15.703  -4.278  1.00 20.00     0.084 C 
HETATM    5  C6  UNL     1     -36.311  16.408  -5.642  1.00 20.00    -0.001 C 
HETATM    6  C7  UNL     1     -34.224  15.824  -5.111  1.00 20.00    -0.006 C 
HETATM    7  C8  UNL     1     -35.056  15.201  -3.938  1.00 20.00    -0.032 C 
HETATM    8  C9  UNL     1     -34.593  15.795  -2.590  1.00 20.00     0.016 C 
HETATM    9  C10 UNL     1     -34.903  13.675  -3.837  1.00 20.00     0.016 C 
ENDROOT
BRANCH   4  10
HETATM   10  C1  UNL     1     -37.584  14.674  -4.295  1.00 20.00     0.224 C 
HETATM   11  O11 UNL     1     -37.350  13.490  -4.523  1.00 20.00    -0.279 OA
HETATM   12 CL12 UNL     1     -39.142  15.367  -3.963  1.00 20.00    -0.043 Cl
ENDBRANCH   4  10
TORSDOF 1
ENDMDL
