MODEL 1
REMARK VINA RESULT:      -4.7      0.000      0.000
REMARK  1 active torsions:
REMARK  status: ('A' for Active; 'I' for Inactive)
REMARK    1  A    between atoms: C2_2  and  C12_12 
ROOT
HETATM    1  C1  UNL     1     -35.214  15.899  -2.565  1.00 20.00    -0.023 C 
HETATM    2  C2  UNL     1     -33.957  16.220  -2.928  1.00 20.00    -0.075 C 
HETATM    3  C3  UNL     1     -36.031  14.920  -3.381  1.00 20.00     0.033 C 
HETATM    4  C4  UNL     1     -33.772  13.985  -4.080  1.00 20.00     0.015 C 
HETATM    5  C5  UNL     1     -33.433  15.518  -4.155  1.00 20.00     0.023 C 
HETATM    6  C6  UNL     1     -35.189  14.425  -4.577  1.00 20.00    -0.002 C 
HETATM    7  C7  UNL     1     -34.431  15.559  -5.399  1.00 20.00    -0.036 C 
HETATM    8  C8  UNL     1     -35.195  16.862  -5.669  1.00 20.00     0.016 C 
HETATM    9  C9  UNL     1     -33.818  15.099  -6.736  1.00 20.00     0.016 C 
ENDROOT
BRANCH   2  10
HETATM   10  C12 UNL     1     -33.076  17.184  -2.211  1.00 20.00     0.006 C 
HETATM   11  C10 UNL     1     -32.679  18.337  -3.131  1.00 20.00     0.014 C 
HETATM   12  C11 UNL     1     -33.754  17.714  -0.947  1.00 20.00     0.014 C 
ENDBRANCH   2  10
TORSDOF 1
ENDMDL
MODEL 2
REMARK VINA RESULT:      -4.7      1.202      1.949
REMARK  1 active torsions:
REMARK  status: ('A' for Active; 'I' for Inactive)
REMARK    1  A    between atoms: C2_2  and  C12_12 
ROOT
HETATM    1  C1  UNL     1     -35.469  14.242  -3.803  1.00 20.00    -0.023 C 
HETATM    2  C2  UNL     1     -34.714  15.357  -3.773  1.00 20.00    -0.075 C 
HETATM    3  C3  UNL     1     -36.097  13.766  -5.096  1.00 20.00     0.033 C 
HETATM    4  C4  UNL     1     -34.170  14.996  -6.208  1.00 20.00     0.015 C 
HETATM    5  C5  UNL     1     -34.522  16.052  -5.097  1.00 20.00     0.023 C 
HETATM    6  C6  UNL     1     -35.712  14.732  -6.237  1.00 20.00    -0.002 C 
HETATM    7  C7  UNL     1     -35.876  16.281  -5.908  1.00 20.00    -0.036 C 
HETATM    8  C8  UNL     1     -37.124  16.707  -5.125  1.00 20.00     0.016 C 
HETATM    9  C9  UNL     1     -35.752  17.224  -7.121  1.00 20.00     0.016 C 
ENDROOT
BRANCH   2  10
HETATM   10  C12 UNL     1     -34.068  15.924  -2.555  1.00 20.00     0.006 C 
HETATM   11  C10 UNL     1     -33.045  16.993  -2.936  1.00 20.00     0.014 C 
HETATM   12  C11 UNL     1     -35.111  16.496  -1.595  1.00 20.00     0.014 C 
ENDBRANCH   2  10
TORSDOF 1
ENDMDL
MODEL 3
REMARK VINA RESULT:      -4.7      1.440      4.045
REMARK  1 active torsions:
REMARK  status: ('A' for Active; 'I' for Inactive)
REMARK    1  A    between atoms: C2_2  and  C12_12 
ROOT
HETATM    1  C1  UNL     1     -33.019  16.306  -2.997  1.00 20.00    -0.023 C 
HETATM    2  C2  UNL     1     -34.164  15.656  -3.288  1.00 20.00    -0.075 C 
HETATM    3  C3  UNL     1     -33.029  17.538  -2.117  1.00 20.00     0.033 C 
HETATM    4  C4  UNL     1     -35.147  16.529  -1.136  1.00 20.00     0.015 C 
HETATM    5  C5  UNL     1     -35.412  16.218  -2.655  1.00 20.00     0.023 C 
HETATM    6  C6  UNL     1     -34.477  17.837  -1.673  1.00 20.00    -0.002 C 
HETATM    7  C7  UNL     1     -35.571  17.796  -2.830  1.00 20.00    -0.036 C 
HETATM    8  C8  UNL     1     -35.191  18.414  -4.181  1.00 20.00     0.016 C 
HETATM    9  C9  UNL     1     -36.955  18.353  -2.442  1.00 20.00     0.016 C 
ENDROOT
BRANCH   2  10
HETATM   10  C12 UNL     1     -34.270  14.451  -4.157  1.00 20.00     0.006 C 
HETATM   11  C10 UNL     1     -35.705  13.928  -4.179  1.00 20.00     0.014 C 
HETATM   12  C11 UNL     1     -33.785  14.751  -5.576  1.00 20.00     0.014 C 
ENDBRANCH   2  10
TORSDOF 1
ENDMDL
MODEL 4
REMARK VINA RESULT:      -4.5      1.272      2.604
REMARK  1 active torsions:
REMARK  status: ('A' for Active; 'I' for Inactive)
REMARK    1  A    between atoms: C2_2  and  C12_12 
ROOT
HETATM    1  C1  UNL     1     -33.517  15.040  -4.490  1.00 20.00    -0.023 C 
HETATM    2  C2  UNL     1     -34.228  15.884  -3.716  1.00 20.00    -0.075 C 
HETATM    3  C3  UNL     1     -33.950  14.739  -5.910  1.00 20.00     0.033 C 
HETATM    4  C4  UNL     1     -35.053  17.028  -5.806  1.00 20.00     0.015 C 
HETATM    5  C5  UNL     1     -35.433  16.511  -4.370  1.00 20.00     0.023 C 
HETATM    6  C6  UNL     1     -35.235  15.533  -6.231  1.00 20.00    -0.002 C 
HETATM    7  C7  UNL     1     -36.376  15.468  -5.122  1.00 20.00    -0.036 C 
HETATM    8  C8  UNL     1     -36.632  14.112  -4.453  1.00 20.00     0.016 C 
HETATM    9  C9  UNL     1     -37.744  16.030  -5.558  1.00 20.00     0.016 C 
ENDROOT
BRANCH   2  10
HETATM   10  C12 UNL     1     -33.903  16.233  -2.304  1.00 20.00     0.006 C 
HETATM   11  C10 UNL     1     -32.932  17.411  -2.251  1.00 20.00     0.014 C 
HETATM   12  C11 UNL     1     -35.171  16.545  -1.509  1.00 20.00     0.014 C 
ENDBRANCH   2  10
TORSDOF 1
ENDMDL
MODEL 5
REMARK VINA RESULT:      -4.4      1.314      4.331
REMARK  1 active torsions:
REMARK  status: ('A' for Active; 'I' for Inactive)
REMARK    1  A    between atoms: C2_2  and  C12_12 
ROOT
HETATM    1  C1  UNL     1     -35.488  16.854  -3.704  1.00 20.00    -0.023 C 
HETATM    2  C2  UNL     1     -34.468  16.095  -3.258  1.00 20.00    -0.075 C 
HETATM    3  C3  UNL     1     -35.599  18.312  -3.309  1.00 20.00     0.033 C 
HETATM    4  C4  UNL     1     -33.075  18.184  -3.034  1.00 20.00     0.015 C 
HETATM    5  C5  UNL     1     -33.458  16.802  -2.389  1.00 20.00     0.023 C 
HETATM    6  C6  UNL     1     -34.412  18.686  -2.395  1.00 20.00    -0.002 C 
HETATM    7  C7  UNL     1     -34.108  17.663  -1.214  1.00 20.00    -0.036 C 
HETATM    8  C8  UNL     1     -35.310  17.073  -0.465  1.00 20.00     0.016 C 
HETATM    9  C9  UNL     1     -33.109  18.167  -0.153  1.00 20.00     0.016 C 
ENDROOT
BRANCH   2  10
HETATM   10  C12 UNL     1     -34.274  14.650  -3.566  1.00 20.00     0.006 C 
HETATM   11  C10 UNL     1     -35.526  14.067  -4.221  1.00 20.00     0.014 C 
HETATM   12  C11 UNL     1     -33.052  14.437  -4.459  1.00 20.00     0.014 C 
ENDBRANCH   2  10
TORSDOF 1
ENDMDL
MODEL 6
REMARK VINA RESULT:      -4.4      1.248      2.389
REMARK  1 active torsions:
REMARK  status: ('A' for Active; 'I' for Inactive)
REMARK    1  A    between atoms: C2_2  and  C12_12 
ROOT
HETATM    1  C1  UNL     1     -33.721  17.889  -3.706  1.00 20.00    -0.023 C 
HETATM    2  C2  UNL     1     -33.837  17.169  -2.572  1.00 20.00    -0.075 C 
HETATM    3  C3  UNL     1     -34.400  17.440  -4.982  1.00 20.00     0.033 C 
HETATM    4  C4  UNL     1     -36.037  16.279  -3.422  1.00 20.00     0.015 C 
HETATM    5  C5  UNL     1     -34.701  15.937  -2.667  1.00 20.00     0.023 C 
HETATM    6  C6  UNL     1     -35.171  16.129  -4.716  1.00 20.00    -0.002 C 
HETATM    7  C7  UNL     1     -34.366  15.009  -3.921  1.00 20.00    -0.036 C 
HETATM    8  C8  UNL     1     -32.893  14.801  -4.293  1.00 20.00     0.016 C 
HETATM    9  C9  UNL     1     -35.033  13.619  -3.892  1.00 20.00     0.016 C 
ENDROOT
BRANCH   2  10
HETATM   10  C12 UNL     1     -33.195  17.509  -1.271  1.00 20.00     0.006 C 
HETATM   11  C10 UNL     1     -32.063  18.514  -1.475  1.00 20.00     0.014 C 
HETATM   12  C11 UNL     1     -34.222  18.050  -0.276  1.00 20.00     0.014 C 
ENDBRANCH   2  10
TORSDOF 1
ENDMDL
MODEL 7
REMARK VINA RESULT:      -4.4      1.285      4.239
REMARK  1 active torsions:
REMARK  status: ('A' for Active; 'I' for Inactive)
REMARK    1  A    between atoms: C2_2  and  C12_12 
ROOT
HETATM    1  C1  UNL     1     -33.969  17.385  -4.566  1.00 20.00    -0.023 C 
HETATM    2  C2  UNL     1     -33.910  16.206  -3.915  1.00 20.00    -0.075 C 
HETATM    3  C3  UNL     1     -34.083  18.687  -3.803  1.00 20.00     0.033 C 
HETATM    4  C4  UNL     1     -32.939  17.411  -1.925  1.00 20.00     0.015 C 
HETATM    5  C5  UNL     1     -33.930  16.291  -2.410  1.00 20.00     0.023 C 
HETATM    6  C6  UNL     1     -34.103  18.391  -2.288  1.00 20.00    -0.002 C 
HETATM    7  C7  UNL     1     -35.086  17.224  -1.830  1.00 20.00    -0.036 C 
HETATM    8  C8  UNL     1     -36.466  17.164  -2.497  1.00 20.00     0.016 C 
HETATM    9  C9  UNL     1     -35.306  17.113  -0.309  1.00 20.00     0.016 C 
ENDROOT
BRANCH   2  10
HETATM   10  C12 UNL     1     -33.819  14.869  -4.567  1.00 20.00     0.006 C 
HETATM   11  C10 UNL     1     -34.826  13.900  -3.949  1.00 20.00     0.014 C 
HETATM   12  C11 UNL     1     -34.034  14.977  -6.077  1.00 20.00     0.014 C 
ENDBRANCH   2  10
TORSDOF 1
ENDMDL
MODEL 8
REMARK VINA RESULT:      -4.4      1.268      1.713
REMARK  1 active torsions:
REMARK  status: ('A' for Active; 'I' for Inactive)
REMARK    1  A    between atoms: C2_2  and  C12_12 
ROOT
HETATM    1  C1  UNL     1     -36.491  16.402  -3.729  1.00 20.00    -0.023 C 
HETATM    2  C2  UNL     1     -35.265  15.872  -3.552  1.00 20.00    -0.075 C 
HETATM    3  C3  UNL     1     -37.227  16.233  -5.041  1.00 20.00     0.033 C 
HETATM    4  C4  UNL     1     -35.824  14.126  -5.283  1.00 20.00     0.015 C 
HETATM    5  C5  UNL     1     -34.717  15.090  -4.720  1.00 20.00     0.023 C 
HETATM    6  C6  UNL     1     -36.358  15.404  -6.011  1.00 20.00    -0.002 C 
HETATM    7  C7  UNL     1     -34.833  15.850  -6.118  1.00 20.00    -0.036 C 
HETATM    8  C8  UNL     1     -34.541  17.356  -6.148  1.00 20.00     0.016 C 
HETATM    9  C9  UNL     1     -34.042  15.205  -7.272  1.00 20.00     0.016 C 
ENDROOT
BRANCH   2  10
HETATM   10  C12 UNL     1     -34.446  15.996  -2.314  1.00 20.00     0.006 C 
HETATM   11  C10 UNL     1     -33.121  16.696  -2.612  1.00 20.00     0.014 C 
HETATM   12  C11 UNL     1     -35.212  16.741  -1.220  1.00 20.00     0.014 C 
ENDBRANCH   2  10
TORSDOF 1
ENDMDL
MODEL 9
REMARK VINA RESULT:      -4.3      1.184      3.887
REMARK  1 active torsions:
REMARK  status: ('A' for Active; 'I' for Inactive)
REMARK    1  A    between atoms: C2_2  and  C12_12 
ROOT
HETATM    1  C1  UNL     1     -35.912  14.672  -5.450  1.00 20.00    -0.023 C 
HETATM    2  C2  UNL     1     -35.274  15.799  -5.824  1.00 20.00    -0.075 C 
HETATM    3  C3  UNL     1     -36.027  14.295  -3.989  1.00 20.00     0.033 C 
HETATM    4  C4  UNL     1     -35.817  16.794  -3.572  1.00 20.00     0.015 C 
HETATM    5  C5  UNL     1     -34.732  16.645  -4.700  1.00 20.00     0.023 C 
HETATM    6  C6  UNL     1     -35.336  15.373  -3.127  1.00 20.00    -0.002 C 
HETATM    7  C7  UNL     1     -33.891  15.824  -3.621  1.00 20.00    -0.036 C 
HETATM    8  C8  UNL     1     -32.945  14.727  -4.125  1.00 20.00     0.016 C 
HETATM    9  C9  UNL     1     -33.099  16.691  -2.623  1.00 20.00     0.016 C 
ENDROOT
BRANCH   2  10
HETATM   10  C12 UNL     1     -35.086  16.252  -7.231  1.00 20.00     0.006 C 
HETATM   11  C10 UNL     1     -34.798  17.752  -7.279  1.00 20.00     0.014 C 
HETATM   12  C11 UNL     1     -33.967  15.468  -7.917  1.00 20.00     0.014 C 
ENDBRANCH   2  10
TORSDOF 1
ENDMDL
