MODEL 1
REMARK VINA RESULT:      -4.4      0.000      0.000
REMARK  2 active torsions:
REMARK  status: ('A' for Active; 'I' for Inactive)
REMARK    1  A    between atoms: C1_1  and  C6_6 
REMARK    2  A    between atoms: C2_2  and  C8_8 
ROOT
HETATM    1  C1  UNL     1     -32.421  17.920  -1.493  1.00 20.00    -0.100 C 
HETATM    2  C2  UNL     1     -33.079  17.167  -2.158  1.00 20.00    -0.088 C 
ENDROOT
BRANCH   1   3
HETATM    3  C6  UNL     1     -31.635  18.818  -0.700  1.00 20.00     0.069 A 
HETATM    4  C5  UNL     1     -30.780  18.250   0.405  1.00 20.00     0.023 A 
HETATM    5  C7  UNL     1     -31.986  19.080   0.747  1.00 20.00    -0.002 A 
HETATM    6  C9  UNL     1     -33.160  18.451   1.419  1.00 20.00     0.011 C 
ENDBRANCH   1   3
BRANCH   2   7
HETATM    7  C8  UNL     1     -33.880  16.252  -2.968  1.00 20.00     0.055 A 
HETATM    8  C3  UNL     1     -33.268  15.301  -3.882  1.00 20.00    -0.003 A 
HETATM    9  C4  UNL     1     -33.910  16.336  -4.420  1.00 20.00    -0.003 A 
HETATM   10  C10 UNL     1     -35.149  15.825  -2.278  1.00 20.00     0.038 C 
ENDBRANCH   2   7
TORSDOF 2
ENDMDL
MODEL 2
REMARK VINA RESULT:      -4.4      0.477      1.371
REMARK  2 active torsions:
REMARK  status: ('A' for Active; 'I' for Inactive)
REMARK    1  A    between atoms: C1_1  and  C6_6 
REMARK    2  A    between atoms: C2_2  and  C8_8 
ROOT
HETATM    1  C1  UNL     1     -32.514  17.874  -1.612  1.00 20.00    -0.100 C 
HETATM    2  C2  UNL     1     -33.167  17.099  -2.256  1.00 20.00    -0.088 C 
ENDROOT
BRANCH   1   3
HETATM    3  C6  UNL     1     -31.734  18.799  -0.843  1.00 20.00     0.069 A 
HETATM    4  C5  UNL     1     -30.818  18.260   0.227  1.00 20.00     0.023 A 
HETATM    5  C7  UNL     1     -32.041  19.042   0.617  1.00 20.00    -0.002 A 
HETATM    6  C9  UNL     1     -33.164  18.364   1.329  1.00 20.00     0.011 C 
ENDBRANCH   1   3
BRANCH   2   7
HETATM    7  C8  UNL     1     -33.962  16.156  -3.040  1.00 20.00     0.055 A 
HETATM    8  C3  UNL     1     -35.301  16.480  -3.502  1.00 20.00    -0.003 A 
HETATM    9  C4  UNL     1     -35.195  15.579  -2.528  1.00 20.00    -0.003 A 
HETATM   10  C10 UNL     1     -33.115  15.288  -3.934  1.00 20.00     0.038 C 
ENDBRANCH   2   7
TORSDOF 2
ENDMDL
MODEL 3
REMARK VINA RESULT:      -4.3      2.245      5.674
REMARK  2 active torsions:
REMARK  status: ('A' for Active; 'I' for Inactive)
REMARK    1  A    between atoms: C1_1  and  C6_6 
REMARK    2  A    between atoms: C2_2  and  C8_8 
ROOT
HETATM    1  C1  UNL     1     -34.764  15.278  -2.951  1.00 20.00    -0.100 C 
HETATM    2  C2  UNL     1     -34.747  16.145  -2.120  1.00 20.00    -0.088 C 
ENDROOT
BRANCH   1   3
HETATM    3  C6  UNL     1     -34.784  14.244  -3.942  1.00 20.00     0.069 A 
HETATM    4  C5  UNL     1     -35.043  14.621  -5.379  1.00 20.00     0.023 A 
HETATM    5  C7  UNL     1     -36.076  13.841  -4.614  1.00 20.00    -0.002 A 
HETATM    6  C9  UNL     1     -37.388  14.468  -4.280  1.00 20.00     0.011 C 
ENDBRANCH   1   3
BRANCH   2   7
HETATM    7  C8  UNL     1     -34.728  17.200  -1.109  1.00 20.00     0.055 A 
HETATM    8  C3  UNL     1     -35.456  17.075   0.143  1.00 20.00    -0.003 A 
HETATM    9  C4  UNL     1     -35.926  17.942  -0.751  1.00 20.00    -0.003 A 
HETATM   10  C10 UNL     1     -33.420  17.946  -1.074  1.00 20.00     0.038 C 
ENDBRANCH   2   7
TORSDOF 2
ENDMDL
MODEL 4
REMARK VINA RESULT:      -4.3     10.442     11.595
REMARK  2 active torsions:
REMARK  status: ('A' for Active; 'I' for Inactive)
REMARK    1  A    between atoms: C1_1  and  C6_6 
REMARK    2  A    between atoms: C2_2  and  C8_8 
ROOT
HETATM    1  C1  UNL     1     -33.435   6.245   2.721  1.00 20.00    -0.100 C 
HETATM    2  C2  UNL     1     -33.068   7.072   1.931  1.00 20.00    -0.088 C 
ENDROOT
BRANCH   1   3
HETATM    3  C6  UNL     1     -33.874   5.259   3.664  1.00 20.00     0.069 A 
HETATM    4  C5  UNL     1     -35.272   5.358   4.219  1.00 20.00     0.023 A 
HETATM    5  C7  UNL     1     -34.094   5.621   5.115  1.00 20.00    -0.002 A 
HETATM    6  C9  UNL     1     -33.854   6.993   5.649  1.00 20.00     0.011 C 
ENDBRANCH   1   3
BRANCH   2   7
HETATM    7  C8  UNL     1     -32.622   8.078   0.969  1.00 20.00     0.055 A 
HETATM    8  C3  UNL     1     -32.989   9.478   1.099  1.00 20.00    -0.003 A 
HETATM    9  C4  UNL     1     -33.558   8.789   0.113  1.00 20.00    -0.003 A 
HETATM   10  C10 UNL     1     -31.263   7.771   0.398  1.00 20.00     0.038 C 
ENDBRANCH   2   7
TORSDOF 2
ENDMDL
MODEL 5
REMARK VINA RESULT:      -4.3      1.756      2.837
REMARK  2 active torsions:
REMARK  status: ('A' for Active; 'I' for Inactive)
REMARK    1  A    between atoms: C1_1  and  C6_6 
REMARK    2  A    between atoms: C2_2  and  C8_8 
ROOT
HETATM    1  C1  UNL     1     -34.944  16.227  -1.828  1.00 20.00    -0.100 C 
HETATM    2  C2  UNL     1     -34.749  15.544  -2.796  1.00 20.00    -0.088 C 
ENDROOT
BRANCH   1   3
HETATM    3  C6  UNL     1     -35.178  17.041  -0.672  1.00 20.00     0.069 A 
HETATM    4  C5  UNL     1     -35.357  18.527  -0.856  1.00 20.00     0.023 A 
HETATM    5  C7  UNL     1     -34.122  18.002  -0.177  1.00 20.00    -0.002 A 
HETATM    6  C9  UNL     1     -32.791  18.147  -0.835  1.00 20.00     0.011 C 
ENDBRANCH   1   3
BRANCH   2   7
HETATM    7  C8  UNL     1     -34.510  14.713  -3.974  1.00 20.00     0.055 A 
HETATM    8  C3  UNL     1     -33.167  14.403  -4.436  1.00 20.00    -0.003 A 
HETATM    9  C4  UNL     1     -33.886  15.245  -5.176  1.00 20.00    -0.003 A 
HETATM   10  C10 UNL     1     -35.564  13.652  -4.158  1.00 20.00     0.038 C 
ENDBRANCH   2   7
TORSDOF 2
ENDMDL
MODEL 6
REMARK VINA RESULT:      -4.3      1.367      5.068
REMARK  2 active torsions:
REMARK  status: ('A' for Active; 'I' for Inactive)
REMARK    1  A    between atoms: C1_1  and  C6_6 
REMARK    2  A    between atoms: C2_2  and  C8_8 
ROOT
HETATM    1  C1  UNL     1     -33.347  15.926  -3.189  1.00 20.00    -0.100 C 
HETATM    2  C2  UNL     1     -33.195  16.812  -2.393  1.00 20.00    -0.088 C 
ENDROOT
BRANCH   1   3
HETATM    3  C6  UNL     1     -33.529  14.868  -4.138  1.00 20.00     0.069 A 
HETATM    4  C5  UNL     1     -34.190  15.183  -5.457  1.00 20.00     0.023 A 
HETATM    5  C7  UNL     1     -34.909  14.333  -4.446  1.00 20.00    -0.002 A 
HETATM    6  C9  UNL     1     -36.140  14.848  -3.779  1.00 20.00     0.011 C 
ENDBRANCH   1   3
BRANCH   2   7
HETATM    7  C8  UNL     1     -33.011  17.890  -1.424  1.00 20.00     0.055 A 
HETATM    8  C3  UNL     1     -32.315  19.119  -1.768  1.00 20.00    -0.003 A 
HETATM    9  C4  UNL     1     -31.692  18.277  -0.947  1.00 20.00    -0.003 A 
HETATM   10  C10 UNL     1     -34.154  17.995  -0.449  1.00 20.00     0.038 C 
ENDBRANCH   2   7
TORSDOF 2
ENDMDL
MODEL 7
REMARK VINA RESULT:      -4.2      1.831      5.258
REMARK  2 active torsions:
REMARK  status: ('A' for Active; 'I' for Inactive)
REMARK    1  A    between atoms: C1_1  and  C6_6 
REMARK    2  A    between atoms: C2_2  and  C8_8 
ROOT
HETATM    1  C1  UNL     1     -34.625  15.589  -2.690  1.00 20.00    -0.100 C 
HETATM    2  C2  UNL     1     -34.718  16.407  -1.815  1.00 20.00    -0.088 C 
ENDROOT
BRANCH   1   3
HETATM    3  C6  UNL     1     -34.513  14.614  -3.734  1.00 20.00     0.069 A 
HETATM    4  C5  UNL     1     -33.214  14.510  -4.493  1.00 20.00     0.023 A 
HETATM    5  C7  UNL     1     -34.441  15.038  -5.183  1.00 20.00    -0.002 A 
HETATM    6  C9  UNL     1     -34.501  16.466  -5.610  1.00 20.00     0.011 C 
ENDBRANCH   1   3
BRANCH   2   7
HETATM    7  C8  UNL     1     -34.831  17.401  -0.750  1.00 20.00     0.055 A 
HETATM    8  C3  UNL     1     -35.585  17.140   0.465  1.00 20.00    -0.003 A 
HETATM    9  C4  UNL     1     -36.106  18.008  -0.399  1.00 20.00    -0.003 A 
HETATM   10  C10 UNL     1     -33.601  18.261  -0.627  1.00 20.00     0.038 C 
ENDBRANCH   2   7
TORSDOF 2
ENDMDL
MODEL 8
REMARK VINA RESULT:      -4.1     10.632     11.892
REMARK  2 active torsions:
REMARK  status: ('A' for Active; 'I' for Inactive)
REMARK    1  A    between atoms: C1_1  and  C6_6 
REMARK    2  A    between atoms: C2_2  and  C8_8 
ROOT
HETATM    1  C1  UNL     1     -32.829   7.394   2.726  1.00 20.00    -0.100 C 
HETATM    2  C2  UNL     1     -33.459   6.747   3.518  1.00 20.00    -0.088 C 
ENDROOT
BRANCH   1   3
HETATM    3  C6  UNL     1     -32.077   8.165   1.781  1.00 20.00     0.069 A 
HETATM    4  C5  UNL     1     -32.712   9.394   1.180  1.00 20.00     0.023 A 
HETATM    5  C7  UNL     1     -32.463   8.186   0.319  1.00 20.00    -0.002 A 
HETATM    6  C9  UNL     1     -33.613   7.406  -0.223  1.00 20.00     0.011 C 
ENDBRANCH   1   3
BRANCH   2   7
HETATM    7  C8  UNL     1     -34.226   5.961   4.482  1.00 20.00     0.055 A 
HETATM    8  C3  UNL     1     -34.470   4.541   4.293  1.00 20.00    -0.003 A 
HETATM    9  C4  UNL     1     -35.506   5.362   4.139  1.00 20.00    -0.003 A 
HETATM   10  C10 UNL     1     -34.050   6.447   5.897  1.00 20.00     0.038 C 
ENDBRANCH   2   7
TORSDOF 2
ENDMDL
MODEL 9
REMARK VINA RESULT:      -4.1     10.482     11.594
REMARK  2 active torsions:
REMARK  status: ('A' for Active; 'I' for Inactive)
REMARK    1  A    between atoms: C1_1  and  C6_6 
REMARK    2  A    between atoms: C2_2  and  C8_8 
ROOT
HETATM    1  C1  UNL     1     -33.528   6.309   2.850  1.00 20.00    -0.100 C 
HETATM    2  C2  UNL     1     -33.226   7.174   2.073  1.00 20.00    -0.088 C 
ENDROOT
BRANCH   1   3
HETATM    3  C6  UNL     1     -33.889   5.278   3.777  1.00 20.00     0.069 A 
HETATM    4  C5  UNL     1     -35.284   5.272   4.348  1.00 20.00     0.023 A 
HETATM    5  C7  UNL     1     -34.116   5.595   5.237  1.00 20.00    -0.002 A 
HETATM    6  C9  UNL     1     -33.962   6.969   5.797  1.00 20.00     0.011 C 
ENDBRANCH   1   3
BRANCH   2   7
HETATM    7  C8  UNL     1     -32.858   8.226   1.128  1.00 20.00     0.055 A 
HETATM    8  C3  UNL     1     -33.016   8.056  -0.307  1.00 20.00    -0.003 A 
HETATM    9  C4  UNL     1     -31.774   8.054   0.172  1.00 20.00    -0.003 A 
HETATM   10  C10 UNL     1     -33.071   9.608   1.686  1.00 20.00     0.038 C 
ENDBRANCH   2   7
TORSDOF 2
ENDMDL
