MODEL 1
REMARK VINA RESULT:      -5.2      0.000      0.000
REMARK  0 active torsions:
REMARK  status: ('A' for Active; 'I' for Inactive)
ROOT
HETATM    1  C1  UNL     1     -35.112   4.928   4.996  1.00 20.00     0.021 A 
HETATM    2  C2  UNL     1     -34.447   5.054   3.695  1.00 20.00     0.029 A 
HETATM    3  C3  UNL     1     -32.731   7.493   1.741  1.00 20.00     0.025 A 
HETATM    4  C4  UNL     1     -34.757   5.760   6.000  1.00 20.00     0.107 A 
HETATM    5  C5  UNL     1     -32.170   7.716   4.190  1.00 20.00     0.101 C 
HETATM    6  C6  UNL     1     -32.652   6.404   2.480  1.00 20.00     0.038 A 
HETATM    7  C7  UNL     1     -31.857   7.617   2.873  1.00 20.00     0.028 A 
HETATM    8  C8  UNL     1     -33.535   6.031   3.564  1.00 20.00     0.044 A 
HETATM    9  N9  UNL     1     -33.792   6.734   5.826  1.00 20.00    -0.306 N 
HETATM   10  N10 UNL     1     -33.206   6.897   4.610  1.00 20.00    -0.274 N 
HETATM   11  H16 UNL     1     -33.593   7.377   6.582  1.00 20.00     0.186 HD
ENDROOT
TORSDOF 0
ENDMDL
MODEL 2
REMARK VINA RESULT:      -5.1      0.803      3.418
REMARK  0 active torsions:
REMARK  status: ('A' for Active; 'I' for Inactive)
ROOT
HETATM    1  C1  UNL     1     -32.455   6.651   2.108  1.00 20.00     0.021 A 
HETATM    2  C2  UNL     1     -33.577   5.858   2.623  1.00 20.00     0.029 A 
HETATM    3  C3  UNL     1     -34.813   4.580   5.713  1.00 20.00     0.025 A 
HETATM    4  C4  UNL     1     -31.821   7.509   2.936  1.00 20.00     0.107 A 
HETATM    5  C5  UNL     1     -33.824   6.882   6.001  1.00 20.00     0.101 C 
HETATM    6  C6  UNL     1     -34.948   5.459   4.740  1.00 20.00     0.038 A 
HETATM    7  C7  UNL     1     -34.794   5.946   6.152  1.00 20.00     0.028 A 
HETATM    8  C8  UNL     1     -33.890   6.009   3.921  1.00 20.00     0.044 A 
HETATM    9  N9  UNL     1     -32.196   7.650   4.259  1.00 20.00    -0.306 N 
HETATM   10  N10 UNL     1     -33.199   6.883   4.763  1.00 20.00    -0.274 N 
HETATM   11  H16 UNL     1     -31.661   8.260   4.865  1.00 20.00     0.186 HD
ENDROOT
TORSDOF 0
ENDMDL
MODEL 3
REMARK VINA RESULT:      -5.0      1.357      2.001
REMARK  0 active torsions:
REMARK  status: ('A' for Active; 'I' for Inactive)
ROOT
HETATM    1  C1  UNL     1     -34.666   5.860   6.260  1.00 20.00     0.021 A 
HETATM    2  C2  UNL     1     -33.949   6.905   5.520  1.00 20.00     0.029 A 
HETATM    3  C3  UNL     1     -31.709   7.238   2.767  1.00 20.00     0.025 A 
HETATM    4  C4  UNL     1     -34.949   4.693   5.642  1.00 20.00     0.107 A 
HETATM    5  C5  UNL     1     -33.435   5.450   2.336  1.00 20.00     0.101 C 
HETATM    6  C6  UNL     1     -32.931   7.405   3.233  1.00 20.00     0.038 A 
HETATM    7  C7  UNL     1     -32.722   6.557   2.010  1.00 20.00     0.028 A 
HETATM    8  C8  UNL     1     -33.577   6.619   4.261  1.00 20.00     0.044 A 
HETATM    9  N9  UNL     1     -34.569   4.454   4.334  1.00 20.00    -0.306 N 
HETATM   10  N10 UNL     1     -33.858   5.392   3.655  1.00 20.00    -0.274 N 
HETATM   11  H16 UNL     1     -34.747   3.546   3.923  1.00 20.00     0.186 HD
ENDROOT
TORSDOF 0
ENDMDL
MODEL 4
REMARK VINA RESULT:      -4.5     11.519     12.068
REMARK  0 active torsions:
REMARK  status: ('A' for Active; 'I' for Inactive)
ROOT
HETATM    1  C1  UNL     1     -36.148  13.674  -4.564  1.00 20.00     0.021 A 
HETATM    2  C2  UNL     1     -34.857  14.120  -4.029  1.00 20.00     0.029 A 
HETATM    3  C3  UNL     1     -33.251  17.110  -2.937  1.00 20.00     0.025 A 
HETATM    4  C4  UNL     1     -37.256  14.399  -4.296  1.00 20.00     0.107 A 
HETATM    5  C5  UNL     1     -35.677  17.068  -2.252  1.00 20.00     0.101 C 
HETATM    6  C6  UNL     1     -33.801  15.958  -2.606  1.00 20.00     0.038 A 
HETATM    7  C7  UNL     1     -34.350  17.229  -2.022  1.00 20.00     0.028 A 
HETATM    8  C8  UNL     1     -34.847  15.263  -3.324  1.00 20.00     0.044 A 
HETATM    9  N9  UNL     1     -37.202  15.556  -3.543  1.00 20.00    -0.306 N 
HETATM   10  N10 UNL     1     -36.004  16.010  -3.086  1.00 20.00    -0.274 N 
HETATM   11  H16 UNL     1     -38.042  16.105  -3.412  1.00 20.00     0.186 HD
ENDROOT
TORSDOF 0
ENDMDL
MODEL 5
REMARK VINA RESULT:      -4.5     11.432     11.993
REMARK  0 active torsions:
REMARK  status: ('A' for Active; 'I' for Inactive)
ROOT
HETATM    1  C1  UNL     1     -33.616  17.860  -0.936  1.00 20.00     0.021 A 
HETATM    2  C2  UNL     1     -33.006  17.364  -2.175  1.00 20.00     0.029 A 
HETATM    3  C3  UNL     1     -33.035  14.465  -4.249  1.00 20.00     0.025 A 
HETATM    4  C4  UNL     1     -34.803  17.353  -0.538  1.00 20.00     0.107 A 
HETATM    5  C5  UNL     1     -35.330  14.957  -3.327  1.00 20.00     0.101 C 
HETATM    6  C6  UNL     1     -33.402  15.720  -4.089  1.00 20.00     0.038 A 
HETATM    7  C7  UNL     1     -34.453  14.673  -4.322  1.00 20.00     0.028 A 
HETATM    8  C8  UNL     1     -33.658  16.390  -2.832  1.00 20.00     0.044 A 
HETATM    9  N9  UNL     1     -35.451  16.370  -1.263  1.00 20.00    -0.306 N 
HETATM   10  N10 UNL     1     -34.872  15.863  -2.383  1.00 20.00    -0.274 N 
HETATM   11  H16 UNL     1     -36.310  15.972  -0.904  1.00 20.00     0.186 HD
ENDROOT
TORSDOF 0
ENDMDL
MODEL 6
REMARK VINA RESULT:      -4.5     11.531     12.154
REMARK  0 active torsions:
REMARK  status: ('A' for Active; 'I' for Inactive)
ROOT
HETATM    1  C1  UNL     1     -34.619  14.243  -4.023  1.00 20.00     0.021 A 
HETATM    2  C2  UNL     1     -35.309  15.108  -3.059  1.00 20.00     0.029 A 
HETATM    3  C3  UNL     1     -34.555  17.360  -0.400  1.00 20.00     0.025 A 
HETATM    4  C4  UNL     1     -33.347  14.532  -4.373  1.00 20.00     0.107 A 
HETATM    5  C5  UNL     1     -32.884  17.564  -2.278  1.00 20.00     0.101 C 
HETATM    6  C6  UNL     1     -34.969  17.205  -1.642  1.00 20.00     0.038 A 
HETATM    7  C7  UNL     1     -33.764  18.060  -1.371  1.00 20.00     0.028 A 
HETATM    8  C8  UNL     1     -34.609  16.132  -2.544  1.00 20.00     0.044 A 
HETATM    9  N9  UNL     1     -32.675  15.614  -3.835  1.00 20.00    -0.306 N 
HETATM   10  N10 UNL     1     -33.283  16.391  -2.901  1.00 20.00    -0.274 N 
HETATM   11  H16 UNL     1     -31.703  15.766  -4.076  1.00 20.00     0.186 HD
ENDROOT
TORSDOF 0
ENDMDL
MODEL 7
REMARK VINA RESULT:      -4.4     15.889     16.629
REMARK  0 active torsions:
REMARK  status: ('A' for Active; 'I' for Inactive)
ROOT
HETATM    1  C1  UNL     1     -25.514  19.263   8.172  1.00 20.00     0.021 A 
HETATM    2  C2  UNL     1     -25.406  18.957   9.603  1.00 20.00     0.029 A 
HETATM    3  C3  UNL     1     -23.488  16.920  11.812  1.00 20.00     0.025 A 
HETATM    4  C4  UNL     1     -24.435  19.085   7.378  1.00 20.00     0.107 A 
HETATM    5  C5  UNL     1     -22.060  17.863   9.960  1.00 20.00     0.101 C 
HETATM    6  C6  UNL     1     -23.748  18.130  11.360  1.00 20.00     0.038 A 
HETATM    7  C7  UNL     1     -22.348  17.594  11.258  1.00 20.00     0.028 A 
HETATM    8  C8  UNL     1     -24.232  18.473  10.040  1.00 20.00     0.044 A 
HETATM    9  N9  UNL     1     -23.237  18.609   7.879  1.00 20.00    -0.306 N 
HETATM   10  N10 UNL     1     -23.140  18.271   9.192  1.00 20.00    -0.274 N 
HETATM   11  H16 UNL     1     -22.468  18.433   7.245  1.00 20.00     0.186 HD
ENDROOT
TORSDOF 0
ENDMDL
MODEL 8
REMARK VINA RESULT:      -4.4     11.504     12.073
REMARK  0 active torsions:
REMARK  status: ('A' for Active; 'I' for Inactive)
ROOT
HETATM    1  C1  UNL     1     -34.461  17.735  -0.632  1.00 20.00     0.021 A 
HETATM    2  C2  UNL     1     -35.212  16.653  -1.278  1.00 20.00     0.029 A 
HETATM    3  C3  UNL     1     -35.387  14.956  -4.409  1.00 20.00     0.025 A 
HETATM    4  C4  UNL     1     -33.224  18.036  -1.081  1.00 20.00     0.107 A 
HETATM    5  C5  UNL     1     -33.004  15.512  -3.797  1.00 20.00     0.101 C 
HETATM    6  C6  UNL     1     -35.027  14.916  -3.141  1.00 20.00     0.038 A 
HETATM    7  C7  UNL     1     -33.994  14.678  -4.204  1.00 20.00     0.028 A 
HETATM    8  C8  UNL     1     -34.629  16.039  -2.321  1.00 20.00     0.044 A 
HETATM    9  N9  UNL     1     -32.653  17.359  -2.142  1.00 20.00    -0.306 N 
HETATM   10  N10 UNL     1     -33.358  16.391  -2.785  1.00 20.00    -0.274 N 
HETATM   11  H16 UNL     1     -31.748  17.651  -2.489  1.00 20.00     0.186 HD
ENDROOT
TORSDOF 0
ENDMDL
MODEL 9
REMARK VINA RESULT:      -4.3     11.770     12.645
REMARK  0 active torsions:
REMARK  status: ('A' for Active; 'I' for Inactive)
ROOT
HETATM    1  C1  UNL     1     -33.701  16.967  -2.247  1.00 20.00     0.021 A 
HETATM    2  C2  UNL     1     -34.650  15.849  -2.281  1.00 20.00     0.029 A 
HETATM    3  C3  UNL     1     -36.956  14.306  -4.520  1.00 20.00     0.025 A 
HETATM    4  C4  UNL     1     -33.171  17.417  -3.406  1.00 20.00     0.107 A 
HETATM    5  C5  UNL     1     -34.877  15.070  -5.726  1.00 20.00     0.101 C 
HETATM    6  C6  UNL     1     -35.796  14.238  -3.898  1.00 20.00     0.038 A 
HETATM    7  C7  UNL     1     -35.829  14.162  -5.398  1.00 20.00     0.028 A 
HETATM    8  C8  UNL     1     -34.970  15.353  -3.488  1.00 20.00     0.044 A 
HETATM    9  N9  UNL     1     -33.510  16.857  -4.623  1.00 20.00    -0.306 N 
HETATM   10  N10 UNL     1     -34.428  15.855  -4.675  1.00 20.00    -0.274 N 
HETATM   11  H16 UNL     1     -33.138  17.257  -5.476  1.00 20.00     0.186 HD
ENDROOT
TORSDOF 0
ENDMDL
