MODEL 1
REMARK VINA RESULT:      -4.5      0.000      0.000
REMARK  0 active torsions:
REMARK  status: ('A' for Active; 'I' for Inactive)
ROOT
HETATM    1  C1  UNL     1     -41.164   9.888   0.507  1.00 20.00     0.012 C 
HETATM    2  C2  UNL     1     -41.871   8.946   0.277  1.00 20.00    -0.112 C 
HETATM    3  C3  UNL     1     -41.020   5.478  -0.181  1.00 20.00    -0.026 C 
HETATM    4  C4  UNL     1     -41.032   6.387  -1.170  1.00 20.00    -0.024 C 
HETATM    5  C5  UNL     1     -43.417   4.979  -0.475  1.00 20.00     0.009 C 
HETATM    6  C6  UNL     1     -43.417   6.013  -1.627  1.00 20.00     0.010 C 
HETATM    7  C7  UNL     1     -42.673   6.740   1.142  1.00 20.00     0.026 C 
HETATM    8  C8  UNL     1     -42.740   7.788  -0.005  1.00 20.00     0.072 C 
HETATM    9  C9  UNL     1     -42.332   5.346   0.563  1.00 20.00     0.009 C 
HETATM   10  C10 UNL     1     -42.357   7.105  -1.349  1.00 20.00     0.023 C 
ENDROOT
TORSDOF 0
ENDMDL
MODEL 2
REMARK VINA RESULT:      -4.5     11.342     12.583
REMARK  0 active torsions:
REMARK  status: ('A' for Active; 'I' for Inactive)
ROOT
HETATM    1  C1  UNL     1     -36.182  17.829  -0.509  1.00 20.00     0.012 C 
HETATM    2  C2  UNL     1     -35.540  17.031  -1.136  1.00 20.00    -0.112 C 
HETATM    3  C3  UNL     1     -34.451  17.128  -4.565  1.00 20.00    -0.026 C 
HETATM    4  C4  UNL     1     -35.636  16.639  -4.166  1.00 20.00    -0.024 C 
HETATM    5  C5  UNL     1     -33.327  14.960  -4.219  1.00 20.00     0.009 C 
HETATM    6  C6  UNL     1     -34.702  14.400  -3.780  1.00 20.00     0.010 C 
HETATM    7  C7  UNL     1     -33.403  16.662  -2.383  1.00 20.00     0.026 C 
HETATM    8  C8  UNL     1     -34.752  16.051  -1.906  1.00 20.00     0.072 C 
HETATM    9  C9  UNL     1     -33.252  16.473  -3.912  1.00 20.00     0.009 C 
HETATM   10  C10 UNL     1     -35.544  15.527  -3.138  1.00 20.00     0.023 C 
ENDROOT
TORSDOF 0
ENDMDL
MODEL 3
REMARK VINA RESULT:      -4.4     10.493     12.256
REMARK  0 active torsions:
REMARK  status: ('A' for Active; 'I' for Inactive)
ROOT
HETATM    1  C1  UNL     1     -32.964  17.408  -1.951  1.00 20.00     0.012 C 
HETATM    2  C2  UNL     1     -33.631  16.531  -2.428  1.00 20.00    -0.112 C 
HETATM    3  C3  UNL     1     -35.060  16.250  -5.721  1.00 20.00    -0.026 C 
HETATM    4  C4  UNL     1     -35.666  16.857  -4.687  1.00 20.00    -0.024 C 
HETATM    5  C5  UNL     1     -35.963  14.045  -5.088  1.00 20.00     0.009 C 
HETATM    6  C6  UNL     1     -36.675  14.755  -3.911  1.00 20.00     0.010 C 
HETATM    7  C7  UNL     1     -33.734  14.800  -4.231  1.00 20.00     0.026 C 
HETATM    8  C8  UNL     1     -34.450  15.455  -3.015  1.00 20.00     0.072 C 
HETATM    9  C9  UNL     1     -34.673  14.809  -5.462  1.00 20.00     0.009 C 
HETATM   10  C10 UNL     1     -35.844  15.980  -3.461  1.00 20.00     0.023 C 
ENDROOT
TORSDOF 0
ENDMDL
MODEL 4
REMARK VINA RESULT:      -4.4     11.562     12.842
REMARK  0 active torsions:
REMARK  status: ('A' for Active; 'I' for Inactive)
ROOT
HETATM    1  C1  UNL     1     -36.651  15.980  -6.567  1.00 20.00     0.012 C 
HETATM    2  C2  UNL     1     -36.199  16.338  -5.514  1.00 20.00    -0.112 C 
HETATM    3  C3  UNL     1     -33.189  15.312  -3.825  1.00 20.00    -0.026 C 
HETATM    4  C4  UNL     1     -34.373  14.692  -3.695  1.00 20.00    -0.024 C 
HETATM    5  C5  UNL     1     -33.714  16.911  -2.022  1.00 20.00     0.009 C 
HETATM    6  C6  UNL     1     -35.068  16.178  -1.865  1.00 20.00     0.010 C 
HETATM    7  C7  UNL     1     -34.256  17.458  -4.405  1.00 20.00     0.026 C 
HETATM    8  C8  UNL     1     -35.642  16.779  -4.221  1.00 20.00     0.072 C 
HETATM    9  C9  UNL     1     -33.213  16.786  -3.480  1.00 20.00     0.009 C 
HETATM   10  C10 UNL     1     -35.505  15.590  -3.228  1.00 20.00     0.023 C 
ENDROOT
TORSDOF 0
ENDMDL
MODEL 5
REMARK VINA RESULT:      -4.3      1.235      3.619
REMARK  0 active torsions:
REMARK  status: ('A' for Active; 'I' for Inactive)
ROOT
HETATM    1  C1  UNL     1     -42.495   3.510  -2.669  1.00 20.00     0.012 C 
HETATM    2  C2  UNL     1     -42.885   4.332  -1.885  1.00 20.00    -0.112 C 
HETATM    3  C3  UNL     1     -41.218   7.236  -0.564  1.00 20.00    -0.026 C 
HETATM    4  C4  UNL     1     -41.130   6.009  -0.026  1.00 20.00    -0.024 C 
HETATM    5  C5  UNL     1     -43.257   7.763   0.719  1.00 20.00     0.009 C 
HETATM    6  C6  UNL     1     -43.136   6.355   1.350  1.00 20.00     0.010 C 
HETATM    7  C7  UNL     1     -43.417   6.755  -1.568  1.00 20.00     0.026 C 
HETATM    8  C8  UNL     1     -43.363   5.341  -0.923  1.00 20.00     0.072 C 
HETATM    9  C9  UNL     1     -42.631   7.763  -0.695  1.00 20.00     0.009 C 
HETATM   10  C10 UNL     1     -42.464   5.389   0.345  1.00 20.00     0.023 C 
ENDROOT
TORSDOF 0
ENDMDL
MODEL 6
REMARK VINA RESULT:      -4.2      1.314      3.527
REMARK  0 active torsions:
REMARK  status: ('A' for Active; 'I' for Inactive)
ROOT
HETATM    1  C1  UNL     1     -41.984   3.748  -2.367  1.00 20.00     0.012 C 
HETATM    2  C2  UNL     1     -41.594   4.709  -1.761  1.00 20.00    -0.112 C 
HETATM    3  C3  UNL     1     -43.417   7.039   0.290  1.00 20.00    -0.026 C 
HETATM    4  C4  UNL     1     -43.262   7.167  -1.038  1.00 20.00    -0.024 C 
HETATM    5  C5  UNL     1     -41.299   8.213   0.754  1.00 20.00     0.009 C 
HETATM    6  C6  UNL     1     -41.137   8.375  -0.777  1.00 20.00     0.010 C 
HETATM    7  C7  UNL     1     -41.346   5.721   0.513  1.00 20.00     0.026 C 
HETATM    8  C8  UNL     1     -41.117   5.888  -1.016  1.00 20.00     0.072 C 
HETATM    9  C9  UNL     1     -42.121   6.942   1.066  1.00 20.00     0.009 C 
HETATM   10  C10 UNL     1     -41.817   7.189  -1.502  1.00 20.00     0.023 C 
ENDROOT
TORSDOF 0
ENDMDL
MODEL 7
REMARK VINA RESULT:      -4.2     11.864     13.553
REMARK  0 active torsions:
REMARK  status: ('A' for Active; 'I' for Inactive)
ROOT
HETATM    1  C1  UNL     1     -33.809  14.794  -5.467  1.00 20.00     0.012 C 
HETATM    2  C2  UNL     1     -33.717  15.267  -4.368  1.00 20.00    -0.112 C 
HETATM    3  C3  UNL     1     -35.296  18.186  -2.972  1.00 20.00    -0.026 C 
HETATM    4  C4  UNL     1     -34.133  18.208  -3.643  1.00 20.00    -0.024 C 
HETATM    5  C5  UNL     1     -34.168  17.713  -0.831  1.00 20.00     0.009 C 
HETATM    6  C6  UNL     1     -32.830  17.761  -1.609  1.00 20.00     0.010 C 
HETATM    7  C7  UNL     1     -34.977  15.840  -2.284  1.00 20.00     0.026 C 
HETATM    8  C8  UNL     1     -33.606  15.848  -3.017  1.00 20.00     0.072 C 
HETATM    9  C9  UNL     1     -35.309  17.263  -1.772  1.00 20.00     0.009 C 
HETATM   10  C10 UNL     1     -33.058  17.303  -3.069  1.00 20.00     0.023 C 
ENDROOT
TORSDOF 0
ENDMDL
MODEL 8
REMARK VINA RESULT:      -4.2     21.808     23.963
REMARK  0 active torsions:
REMARK  status: ('A' for Active; 'I' for Inactive)
ROOT
HETATM    1  C1  UNL     1     -25.884  19.015   7.377  1.00 20.00     0.012 C 
HETATM    2  C2  UNL     1     -25.162  19.011   8.335  1.00 20.00    -0.112 C 
HETATM    3  C3  UNL     1     -22.621  16.648   9.298  1.00 20.00    -0.026 C 
HETATM    4  C4  UNL     1     -23.918  16.535   9.628  1.00 20.00    -0.024 C 
HETATM    5  C5  UNL     1     -22.138  18.047  11.271  1.00 20.00     0.009 C 
HETATM    6  C6  UNL     1     -23.629  17.893  11.655  1.00 20.00     0.010 C 
HETATM    7  C7  UNL     1     -22.779  19.100   9.091  1.00 20.00     0.026 C 
HETATM    8  C8  UNL     1     -24.273  19.004   9.512  1.00 20.00     0.072 C 
HETATM    9  C9  UNL     1     -21.975  17.945   9.737  1.00 20.00     0.009 C 
HETATM   10  C10 UNL     1     -24.484  17.728  10.376  1.00 20.00     0.023 C 
ENDROOT
TORSDOF 0
ENDMDL
MODEL 9
REMARK VINA RESULT:      -4.2     12.229     13.810
REMARK  0 active torsions:
REMARK  status: ('A' for Active; 'I' for Inactive)
ROOT
HETATM    1  C1  UNL     1     -31.053  18.156  -0.323  1.00 20.00     0.012 C 
HETATM    2  C2  UNL     1     -32.134  18.252  -0.836  1.00 20.00    -0.112 C 
HETATM    3  C3  UNL     1     -34.062  15.800  -2.633  1.00 20.00    -0.026 C 
HETATM    4  C4  UNL     1     -33.146  16.602  -3.202  1.00 20.00    -0.024 C 
HETATM    5  C5  UNL     1     -35.849  17.477  -2.908  1.00 20.00     0.009 C 
HETATM    6  C6  UNL     1     -34.792  18.387  -3.581  1.00 20.00     0.010 C 
HETATM    7  C7  UNL     1     -34.486  17.402  -0.808  1.00 20.00     0.026 C 
HETATM    8  C8  UNL     1     -33.462  18.369  -1.466  1.00 20.00     0.072 C 
HETATM    9  C9  UNL     1     -35.162  16.532  -1.895  1.00 20.00     0.009 C 
HETATM   10  C10 UNL     1     -33.393  18.084  -2.994  1.00 20.00     0.023 C 
ENDROOT
TORSDOF 0
ENDMDL
