MODEL 1
REMARK VINA RESULT:      -4.2      0.000      0.000
REMARK  0 active torsions:
REMARK  status: ('A' for Active; 'I' for Inactive)
ROOT
HETATM    1  C1  UNL     1     -22.355  17.015   8.750  1.00 20.00     0.014 C 
HETATM    2  C2  UNL     1     -22.978  17.164   9.766  1.00 20.00    -0.091 C 
HETATM    3  C3  UNL     1     -25.798  18.126  12.013  1.00 20.00     0.003 C 
HETATM    4  C4  UNL     1     -25.636  16.639  12.332  1.00 20.00     0.003 C 
HETATM    5  C5  UNL     1     -24.811  18.428  10.885  1.00 20.00     0.039 C 
HETATM    6  C6  UNL     1     -24.562  16.116  11.379  1.00 20.00     0.039 C 
HETATM    7  C7  UNL     1     -23.738  17.346  11.003  1.00 20.00     0.099 C 
HETATM    8 CL8  UNL     1     -22.577  17.750  12.303  1.00 20.00    -0.105 Cl
ENDROOT
TORSDOF 0
ENDMDL
MODEL 2
REMARK VINA RESULT:      -4.1      1.556      3.417
REMARK  0 active torsions:
REMARK  status: ('A' for Active; 'I' for Inactive)
ROOT
HETATM    1  C1  UNL     1     -26.716  18.903  11.944  1.00 20.00     0.014 C 
HETATM    2  C2  UNL     1     -25.676  18.358  11.694  1.00 20.00    -0.091 C 
HETATM    3  C3  UNL     1     -22.357  17.751  10.097  1.00 20.00     0.003 C 
HETATM    4  C4  UNL     1     -21.994  17.760  11.583  1.00 20.00     0.003 C 
HETATM    5  C5  UNL     1     -23.846  18.091  10.023  1.00 20.00     0.039 C 
HETATM    6  C6  UNL     1     -23.280  18.107  12.332  1.00 20.00     0.039 C 
HETATM    7  C7  UNL     1     -24.408  17.695  11.387  1.00 20.00     0.099 C 
HETATM    8 CL8  UNL     1     -24.681  15.929  11.467  1.00 20.00    -0.105 Cl
ENDROOT
TORSDOF 0
ENDMDL
MODEL 3
REMARK VINA RESULT:      -4.0      1.785      2.252
REMARK  0 active torsions:
REMARK  status: ('A' for Active; 'I' for Inactive)
ROOT
HETATM    1  C1  UNL     1     -21.697  17.322   7.764  1.00 20.00     0.014 C 
HETATM    2  C2  UNL     1     -22.408  17.454   8.722  1.00 20.00    -0.091 C 
HETATM    3  C3  UNL     1     -24.397  16.519  11.739  1.00 20.00     0.003 C 
HETATM    4  C4  UNL     1     -23.438  17.567  12.307  1.00 20.00     0.003 C 
HETATM    5  C5  UNL     1     -23.990  16.321  10.279  1.00 20.00     0.039 C 
HETATM    6  C6  UNL     1     -22.498  17.946  11.164  1.00 20.00     0.039 C 
HETATM    7  C7  UNL     1     -23.275  17.613   9.891  1.00 20.00     0.099 C 
HETATM    8 CL8  UNL     1     -24.459  18.902   9.521  1.00 20.00    -0.105 Cl
ENDROOT
TORSDOF 0
ENDMDL
MODEL 4
REMARK VINA RESULT:      -3.9     23.375     23.973
REMARK  0 active torsions:
REMARK  status: ('A' for Active; 'I' for Inactive)
ROOT
HETATM    1  C1  UNL     1     -43.416   4.655   1.461  1.00 20.00     0.014 C 
HETATM    2  C2  UNL     1     -42.806   5.412   0.756  1.00 20.00    -0.091 C 
HETATM    3  C3  UNL     1     -42.171   8.273  -1.554  1.00 20.00     0.003 C 
HETATM    4  C4  UNL     1     -41.222   8.588  -0.397  1.00 20.00     0.003 C 
HETATM    5  C5  UNL     1     -42.952   7.029  -1.135  1.00 20.00     0.039 C 
HETATM    6  C6  UNL     1     -41.481   7.520   0.666  1.00 20.00     0.039 C 
HETATM    7  C7  UNL     1     -42.064   6.336  -0.103  1.00 20.00     0.099 C 
HETATM    8 CL8  UNL     1     -40.766   5.408  -0.911  1.00 20.00    -0.105 Cl
ENDROOT
TORSDOF 0
ENDMDL
MODEL 5
REMARK VINA RESULT:      -3.9     16.512     17.152
REMARK  0 active torsions:
REMARK  status: ('A' for Active; 'I' for Inactive)
ROOT
HETATM    1  C1  UNL     1     -33.124   4.475   1.914  1.00 20.00     0.014 C 
HETATM    2  C2  UNL     1     -33.694   4.916   2.874  1.00 20.00    -0.091 C 
HETATM    3  C3  UNL     1     -34.640   5.385   6.453  1.00 20.00     0.003 C 
HETATM    4  C4  UNL     1     -34.224   6.801   6.051  1.00 20.00     0.003 C 
HETATM    5  C5  UNL     1     -34.364   4.500   5.238  1.00 20.00     0.039 C 
HETATM    6  C6  UNL     1     -33.714   6.700   4.614  1.00 20.00     0.039 C 
HETATM    7  C7  UNL     1     -34.389   5.453   4.044  1.00 20.00     0.099 C 
HETATM    8 CL8  UNL     1     -36.074   5.814   3.562  1.00 20.00    -0.105 Cl
ENDROOT
TORSDOF 0
ENDMDL
MODEL 6
REMARK VINA RESULT:      -3.9     16.982     17.447
REMARK  0 active torsions:
REMARK  status: ('A' for Active; 'I' for Inactive)
ROOT
HETATM    1  C1  UNL     1     -32.259  18.116  -1.466  1.00 20.00     0.014 C 
HETATM    2  C2  UNL     1     -32.938  17.455  -2.203  1.00 20.00    -0.091 C 
HETATM    3  C3  UNL     1     -34.063  14.507  -4.195  1.00 20.00     0.003 C 
HETATM    4  C4  UNL     1     -35.284  14.775  -3.314  1.00 20.00     0.003 C 
HETATM    5  C5  UNL     1     -32.991  15.499  -3.746  1.00 20.00     0.039 C 
HETATM    6  C6  UNL     1     -34.887  15.913  -2.375  1.00 20.00     0.039 C 
HETATM    7  C7  UNL     1     -33.764  16.649  -3.103  1.00 20.00     0.099 C 
HETATM    8 CL8  UNL     1     -34.432  17.738  -4.355  1.00 20.00    -0.105 Cl
ENDROOT
TORSDOF 0
ENDMDL
MODEL 7
REMARK VINA RESULT:      -3.9     23.563     24.064
REMARK  0 active torsions:
REMARK  status: ('A' for Active; 'I' for Inactive)
ROOT
HETATM    1  C1  UNL     1     -41.240   9.511   0.340  1.00 20.00     0.014 C 
HETATM    2  C2  UNL     1     -41.714   8.431   0.117  1.00 20.00    -0.091 C 
HETATM    3  C3  UNL     1     -43.417   5.694  -1.763  1.00 20.00     0.003 C 
HETATM    4  C4  UNL     1     -42.092   5.033  -1.379  1.00 20.00     0.003 C 
HETATM    5  C5  UNL     1     -43.325   7.140  -1.280  1.00 20.00     0.039 C 
HETATM    6  C6  UNL     1     -41.265   6.114  -0.685  1.00 20.00     0.039 C 
HETATM    7  C7  UNL     1     -42.291   7.114  -0.155  1.00 20.00     0.099 C 
HETATM    8 CL8  UNL     1     -43.027   6.516   1.362  1.00 20.00    -0.105 Cl
ENDROOT
TORSDOF 0
ENDMDL
MODEL 8
REMARK VINA RESULT:      -3.9     17.861     18.265
REMARK  0 active torsions:
REMARK  status: ('A' for Active; 'I' for Inactive)
ROOT
HETATM    1  C1  UNL     1     -35.919  13.289  -4.521  1.00 20.00     0.014 C 
HETATM    2  C2  UNL     1     -35.450  14.330  -4.152  1.00 20.00    -0.091 C 
HETATM    3  C3  UNL     1     -34.130  16.922  -1.813  1.00 20.00     0.003 C 
HETATM    4  C4  UNL     1     -32.950  16.731  -2.768  1.00 20.00     0.003 C 
HETATM    5  C5  UNL     1     -35.186  15.901  -2.235  1.00 20.00     0.039 C 
HETATM    6  C6  UNL     1     -33.351  15.601  -3.716  1.00 20.00     0.039 C 
HETATM    7  C7  UNL     1     -34.879  15.600  -3.701  1.00 20.00     0.099 C 
HETATM    8 CL8  UNL     1     -35.521  16.894  -4.756  1.00 20.00    -0.105 Cl
ENDROOT
TORSDOF 0
ENDMDL
MODEL 9
REMARK VINA RESULT:      -3.7     17.852     18.316
REMARK  0 active torsions:
REMARK  status: ('A' for Active; 'I' for Inactive)
ROOT
HETATM    1  C1  UNL     1     -36.222  13.645  -4.547  1.00 20.00     0.014 C 
HETATM    2  C2  UNL     1     -35.328  14.401  -4.281  1.00 20.00    -0.091 C 
HETATM    3  C3  UNL     1     -33.489  17.627  -3.912  1.00 20.00     0.003 C 
HETATM    4  C4  UNL     1     -33.446  17.076  -2.485  1.00 20.00     0.003 C 
HETATM    5  C5  UNL     1     -34.334  16.644  -4.720  1.00 20.00     0.039 C 
HETATM    6  C6  UNL     1     -34.271  15.790  -2.503  1.00 20.00     0.039 C 
HETATM    7  C7  UNL     1     -34.240  15.324  -3.957  1.00 20.00     0.099 C 
HETATM    8 CL8  UNL     1     -32.696  14.496  -4.320  1.00 20.00    -0.105 Cl
ENDROOT
TORSDOF 0
ENDMDL
