MODEL 1
REMARK VINA RESULT:      -3.7      0.000      0.000
REMARK  0 active torsions:
REMARK  status: ('A' for Active; 'I' for Inactive)
ROOT
HETATM    1  C1  UNL     1     -32.906   7.694   4.925  1.00 20.00     0.013 C 
HETATM    2  C2  UNL     1     -33.628   6.735   4.952  1.00 20.00    -0.106 C 
HETATM    3  C3  UNL     1     -35.599   5.530   3.951  1.00 20.00     0.041 A 
HETATM    4  C4  UNL     1     -34.447   4.568   3.862  1.00 20.00     0.079 A 
HETATM    5  C5  UNL     1     -34.495   5.584   4.985  1.00 20.00     0.033 A 
HETATM    6  C6  UNL     1     -34.806   5.077   6.368  1.00 20.00     0.030 C 
HETATM    7 BR7  UNL     1     -33.235   4.757   2.396  1.00 20.00    -0.089 Br
ENDROOT
TORSDOF 0
ENDMDL
MODEL 2
REMARK VINA RESULT:      -3.6      1.289      1.422
REMARK  0 active torsions:
REMARK  status: ('A' for Active; 'I' for Inactive)
ROOT
HETATM    1  C1  UNL     1     -32.556   7.226   2.789  1.00 20.00     0.013 C 
HETATM    2  C2  UNL     1     -33.267   6.743   3.627  1.00 20.00    -0.106 C 
HETATM    3  C3  UNL     1     -35.496   5.716   4.188  1.00 20.00     0.041 A 
HETATM    4  C4  UNL     1     -34.467   4.691   4.578  1.00 20.00     0.079 A 
HETATM    5  C5  UNL     1     -34.121   6.166   4.633  1.00 20.00     0.033 A 
HETATM    6  C6  UNL     1     -33.999   6.799   5.994  1.00 20.00     0.030 C 
HETATM    7 BR7  UNL     1     -33.772   3.555   3.206  1.00 20.00    -0.089 Br
ENDROOT
TORSDOF 0
ENDMDL
MODEL 3
REMARK VINA RESULT:      -3.6     15.982     17.162
REMARK  0 active torsions:
REMARK  status: ('A' for Active; 'I' for Inactive)
ROOT
HETATM    1  C1  UNL     1     -21.766  17.762  12.332  1.00 20.00     0.013 C 
HETATM    2  C2  UNL     1     -22.838  17.491  11.865  1.00 20.00    -0.106 C 
HETATM    3  C3  UNL     1     -25.136  18.289  11.216  1.00 20.00     0.041 A 
HETATM    4  C4  UNL     1     -24.530  17.732   9.958  1.00 20.00     0.079 A 
HETATM    5  C5  UNL     1     -24.126  17.167  11.305  1.00 20.00     0.033 A 
HETATM    6  C6  UNL     1     -24.633  15.795  11.664  1.00 20.00     0.030 C 
HETATM    7 BR7  UNL     1     -23.355  18.858   8.956  1.00 20.00    -0.089 Br
ENDROOT
TORSDOF 0
ENDMDL
MODEL 4
REMARK VINA RESULT:      -3.6     15.784     17.311
REMARK  0 active torsions:
REMARK  status: ('A' for Active; 'I' for Inactive)
ROOT
HETATM    1  C1  UNL     1     -24.868  15.903  11.648  1.00 20.00     0.013 C 
HETATM    2  C2  UNL     1     -23.958  16.614  11.321  1.00 20.00    -0.106 C 
HETATM    3  C3  UNL     1     -22.293  17.255   9.545  1.00 20.00     0.041 A 
HETATM    4  C4  UNL     1     -23.066  18.508   9.848  1.00 20.00     0.079 A 
HETATM    5  C5  UNL     1     -22.864  17.467  10.930  1.00 20.00     0.033 A 
HETATM    6  C6  UNL     1     -21.903  17.797  12.040  1.00 20.00     0.030 C 
HETATM    7 BR7  UNL     1     -24.760  18.743   8.994  1.00 20.00    -0.089 Br
ENDROOT
TORSDOF 0
ENDMDL
MODEL 5
REMARK VINA RESULT:      -3.6     16.422     17.055
REMARK  0 active torsions:
REMARK  status: ('A' for Active; 'I' for Inactive)
ROOT
HETATM    1  C1  UNL     1     -25.139  19.253   8.214  1.00 20.00     0.013 C 
HETATM    2  C2  UNL     1     -24.812  18.701   9.230  1.00 20.00    -0.106 C 
HETATM    3  C3  UNL     1     -23.982  16.596  10.332  1.00 20.00     0.041 A 
HETATM    4  C4  UNL     1     -22.972  17.657  10.671  1.00 20.00     0.079 A 
HETATM    5  C5  UNL     1     -24.421  18.039  10.448  1.00 20.00     0.033 A 
HETATM    6  C6  UNL     1     -25.230  18.429  11.656  1.00 20.00     0.030 C 
HETATM    7 BR7  UNL     1     -21.625  18.056   9.374  1.00 20.00    -0.089 Br
ENDROOT
TORSDOF 0
ENDMDL
MODEL 6
REMARK VINA RESULT:      -3.6     16.429     17.326
REMARK  0 active torsions:
REMARK  status: ('A' for Active; 'I' for Inactive)
ROOT
HETATM    1  C1  UNL     1     -21.312  17.413   8.595  1.00 20.00     0.013 C 
HETATM    2  C2  UNL     1     -22.402  17.567   9.075  1.00 20.00    -0.106 C 
HETATM    3  C3  UNL     1     -24.269  16.602  10.461  1.00 20.00     0.041 A 
HETATM    4  C4  UNL     1     -23.866  17.875  11.152  1.00 20.00     0.079 A 
HETATM    5  C5  UNL     1     -23.710  17.750   9.650  1.00 20.00     0.033 A 
HETATM    6  C6  UNL     1     -24.667  18.527   8.786  1.00 20.00     0.030 C 
HETATM    7 BR7  UNL     1     -22.354  17.819  12.320  1.00 20.00    -0.089 Br
ENDROOT
TORSDOF 0
ENDMDL
MODEL 7
REMARK VINA RESULT:      -3.5     16.608     17.068
REMARK  0 active torsions:
REMARK  status: ('A' for Active; 'I' for Inactive)
ROOT
HETATM    1  C1  UNL     1     -25.182  19.259   9.329  1.00 20.00     0.013 C 
HETATM    2  C2  UNL     1     -24.366  18.470   9.722  1.00 20.00    -0.106 C 
HETATM    3  C3  UNL     1     -22.807  17.769  11.569  1.00 20.00     0.041 A 
HETATM    4  C4  UNL     1     -23.722  16.598  11.344  1.00 20.00     0.079 A 
HETATM    5  C5  UNL     1     -23.387  17.525  10.193  1.00 20.00     0.033 A 
HETATM    6  C6  UNL     1     -22.462  17.002   9.127  1.00 20.00     0.030 C 
HETATM    7 BR7  UNL     1     -25.439  16.630  12.183  1.00 20.00    -0.089 Br
ENDROOT
TORSDOF 0
ENDMDL
MODEL 8
REMARK VINA RESULT:      -3.5     12.416     12.853
REMARK  0 active torsions:
REMARK  status: ('A' for Active; 'I' for Inactive)
ROOT
HETATM    1  C1  UNL     1     -34.965  16.273  -1.777  1.00 20.00     0.013 C 
HETATM    2  C2  UNL     1     -34.792  15.622  -2.771  1.00 20.00    -0.106 C 
HETATM    3  C3  UNL     1     -35.555  13.706  -4.215  1.00 20.00     0.041 A 
HETATM    4  C4  UNL     1     -35.579  14.919  -5.104  1.00 20.00     0.079 A 
HETATM    5  C5  UNL     1     -34.584  14.840  -3.963  1.00 20.00     0.033 A 
HETATM    6  C6  UNL     1     -33.138  14.615  -4.317  1.00 20.00     0.030 C 
HETATM    7 BR7  UNL     1     -37.109  16.062  -5.015  1.00 20.00    -0.089 Br
ENDROOT
TORSDOF 0
ENDMDL
MODEL 9
REMARK VINA RESULT:      -3.5      9.071      9.695
REMARK  0 active torsions:
REMARK  status: ('A' for Active; 'I' for Inactive)
ROOT
HETATM    1  C1  UNL     1     -40.798   5.029  -1.173  1.00 20.00     0.013 C 
HETATM    2  C2  UNL     1     -41.318   6.030  -0.762  1.00 20.00    -0.106 C 
HETATM    3  C3  UNL     1     -43.417   7.403  -0.555  1.00 20.00     0.041 A 
HETATM    4  C4  UNL     1     -42.955   7.154   0.854  1.00 20.00     0.079 A 
HETATM    5  C5  UNL     1     -41.941   7.233  -0.270  1.00 20.00     0.033 A 
HETATM    6  C6  UNL     1     -41.069   8.458  -0.335  1.00 20.00     0.030 C 
HETATM    7 BR7  UNL     1     -43.417   5.486   1.665  1.00 20.00    -0.089 Br
ENDROOT
TORSDOF 0
ENDMDL
