MODEL 1
REMARK VINA RESULT:      -4.5      0.000      0.000
REMARK  0 active torsions:
REMARK  status: ('A' for Active; 'I' for Inactive)
ROOT
HETATM    1  C1  UNL     1     -34.004   6.139   6.268  1.00 20.00    -0.004 C 
HETATM    2  C2  UNL     1     -33.459   7.114   5.357  1.00 20.00    -0.003 C 
HETATM    3  C3  UNL     1     -34.867   5.202   5.851  1.00 20.00    -0.025 C 
HETATM    4  C4  UNL     1     -33.630   6.998   4.032  1.00 20.00    -0.011 C 
HETATM    5  C5  UNL     1     -35.309   5.099   4.415  1.00 20.00     0.047 C 
HETATM    6  C6  UNL     1     -34.416   5.870   3.426  1.00 20.00     0.084 C 
HETATM    7 BR7  UNL     1     -33.099   4.641   2.640  1.00 20.00    -0.087 Br
ENDROOT
TORSDOF 0
ENDMDL
MODEL 2
REMARK VINA RESULT:      -4.0      1.764      2.738
REMARK  0 active torsions:
REMARK  status: ('A' for Active; 'I' for Inactive)
ROOT
HETATM    1  C1  UNL     1     -34.742   5.415   4.127  1.00 20.00    -0.004 C 
HETATM    2  C2  UNL     1     -34.019   4.742   3.077  1.00 20.00    -0.003 C 
HETATM    3  C3  UNL     1     -34.264   6.530   4.698  1.00 20.00    -0.025 C 
HETATM    4  C4  UNL     1     -32.952   5.309   2.495  1.00 20.00    -0.011 C 
HETATM    5  C5  UNL     1     -32.959   7.153   4.276  1.00 20.00     0.047 C 
HETATM    6  C6  UNL     1     -32.438   6.656   2.915  1.00 20.00     0.084 C 
HETATM    7 BR7  UNL     1     -32.979   7.917   1.509  1.00 20.00    -0.087 Br
ENDROOT
TORSDOF 0
ENDMDL
MODEL 3
REMARK VINA RESULT:      -4.0      2.027      3.270
REMARK  0 active torsions:
REMARK  status: ('A' for Active; 'I' for Inactive)
ROOT
HETATM    1  C1  UNL     1     -33.088   4.626   2.723  1.00 20.00    -0.004 C 
HETATM    2  C2  UNL     1     -34.166   4.122   3.536  1.00 20.00    -0.003 C 
HETATM    3  C3  UNL     1     -32.889   5.943   2.569  1.00 20.00    -0.025 C 
HETATM    4  C4  UNL     1     -34.879   4.937   4.327  1.00 20.00    -0.011 C 
HETATM    5  C5  UNL     1     -33.762   6.971   3.239  1.00 20.00     0.047 C 
HETATM    6  C6  UNL     1     -34.616   6.414   4.393  1.00 20.00     0.084 C 
HETATM    7 BR7  UNL     1     -33.697   6.735   6.100  1.00 20.00    -0.087 Br
ENDROOT
TORSDOF 0
ENDMDL
MODEL 4
REMARK VINA RESULT:      -3.6     12.487     12.783
REMARK  0 active torsions:
REMARK  status: ('A' for Active; 'I' for Inactive)
ROOT
HETATM    1  C1  UNL     1     -32.989  16.112  -3.290  1.00 20.00    -0.004 C 
HETATM    2  C2  UNL     1     -33.947  16.528  -2.296  1.00 20.00    -0.003 C 
HETATM    3  C3  UNL     1     -33.239  15.080  -4.108  1.00 20.00    -0.025 C 
HETATM    4  C4  UNL     1     -35.195  16.037  -2.286  1.00 20.00    -0.011 C 
HETATM    5  C5  UNL     1     -34.528  14.303  -4.053  1.00 20.00     0.047 C 
HETATM    6  C6  UNL     1     -35.657  15.016  -3.285  1.00 20.00     0.084 C 
HETATM    7 BR7  UNL     1     -36.810  15.971  -4.558  1.00 20.00    -0.087 Br
ENDROOT
TORSDOF 0
ENDMDL
MODEL 5
REMARK VINA RESULT:      -3.6     12.380     12.797
REMARK  0 active torsions:
REMARK  status: ('A' for Active; 'I' for Inactive)
ROOT
HETATM    1  C1  UNL     1     -33.824  16.518  -2.532  1.00 20.00    -0.004 C 
HETATM    2  C2  UNL     1     -35.107  15.887  -2.354  1.00 20.00    -0.003 C 
HETATM    3  C3  UNL     1     -32.922  16.030  -3.396  1.00 20.00    -0.025 C 
HETATM    4  C4  UNL     1     -35.526  14.918  -3.182  1.00 20.00    -0.011 C 
HETATM    5  C5  UNL     1     -33.192  14.810  -4.236  1.00 20.00     0.047 C 
HETATM    6  C6  UNL     1     -34.680  14.421  -4.318  1.00 20.00     0.084 C 
HETATM    7 BR7  UNL     1     -35.462  15.172  -5.957  1.00 20.00    -0.087 Br
ENDROOT
TORSDOF 0
ENDMDL
MODEL 6
REMARK VINA RESULT:      -3.6     16.611     17.187
REMARK  0 active torsions:
REMARK  status: ('A' for Active; 'I' for Inactive)
ROOT
HETATM    1  C1  UNL     1     -23.160  18.474   8.927  1.00 20.00    -0.004 C 
HETATM    2  C2  UNL     1     -24.502  18.776   9.360  1.00 20.00    -0.003 C 
HETATM    3  C3  UNL     1     -22.230  18.043   9.791  1.00 20.00    -0.025 C 
HETATM    4  C4  UNL     1     -24.926  18.446  10.589  1.00 20.00    -0.011 C 
HETATM    5  C5  UNL     1     -22.526  17.835  11.253  1.00 20.00     0.047 C 
HETATM    6  C6  UNL     1     -24.028  17.771  11.586  1.00 20.00     0.084 C 
HETATM    7 BR7  UNL     1     -24.602  15.893  11.663  1.00 20.00    -0.087 Br
ENDROOT
TORSDOF 0
ENDMDL
MODEL 7
REMARK VINA RESULT:      -3.6     12.784     13.326
REMARK  0 active torsions:
REMARK  status: ('A' for Active; 'I' for Inactive)
ROOT
HETATM    1  C1  UNL     1     -35.220  15.844  -2.279  1.00 20.00    -0.004 C 
HETATM    2  C2  UNL     1     -34.167  15.453  -3.182  1.00 20.00    -0.003 C 
HETATM    3  C3  UNL     1     -35.039  16.822  -1.380  1.00 20.00    -0.025 C 
HETATM    4  C4  UNL     1     -33.045  16.179  -3.297  1.00 20.00    -0.011 C 
HETATM    5  C5  UNL     1     -33.742  17.576  -1.264  1.00 20.00     0.047 C 
HETATM    6  C6  UNL     1     -32.812  17.418  -2.481  1.00 20.00     0.084 C 
HETATM    7 BR7  UNL     1     -33.068  18.938  -3.700  1.00 20.00    -0.087 Br
ENDROOT
TORSDOF 0
ENDMDL
MODEL 8
REMARK VINA RESULT:      -3.5     16.466     16.802
REMARK  0 active torsions:
REMARK  status: ('A' for Active; 'I' for Inactive)
ROOT
HETATM    1  C1  UNL     1     -26.250  19.226  11.213  1.00 20.00    -0.004 C 
HETATM    2  C2  UNL     1     -25.375  19.032  10.083  1.00 20.00    -0.003 C 
HETATM    3  C3  UNL     1     -26.311  18.331  12.208  1.00 20.00    -0.025 C 
HETATM    4  C4  UNL     1     -24.448  18.062  10.081  1.00 20.00    -0.011 C 
HETATM    5  C5  UNL     1     -25.469  17.082  12.218  1.00 20.00     0.047 C 
HETATM    6  C6  UNL     1     -24.285  17.115  11.234  1.00 20.00     0.084 C 
HETATM    7 BR7  UNL     1     -22.661  17.678  12.186  1.00 20.00    -0.087 Br
ENDROOT
TORSDOF 0
ENDMDL
MODEL 9
REMARK VINA RESULT:      -3.5      9.213      9.936
REMARK  0 active torsions:
REMARK  status: ('A' for Active; 'I' for Inactive)
ROOT
HETATM    1  C1  UNL     1     -41.049   8.444  -0.391  1.00 20.00    -0.004 C 
HETATM    2  C2  UNL     1     -41.206   7.232  -1.156  1.00 20.00    -0.003 C 
HETATM    3  C3  UNL     1     -42.063   8.951   0.325  1.00 20.00    -0.025 C 
HETATM    4  C4  UNL     1     -42.295   6.461  -1.022  1.00 20.00    -0.011 C 
HETATM    5  C5  UNL     1     -43.414   8.288   0.386  1.00 20.00     0.047 C 
HETATM    6  C6  UNL     1     -43.417   6.825  -0.093  1.00 20.00     0.084 C 
HETATM    7 BR7  UNL     1     -43.259   5.629   1.458  1.00 20.00    -0.087 Br
ENDROOT
TORSDOF 0
ENDMDL
