MODEL 1
REMARK VINA RESULT:      -6.2      0.000      0.000
REMARK  0 active torsions:
REMARK  status: ('A' for Active; 'I' for Inactive)
ROOT
HETATM    1  C1  UNL     1     -34.795   4.790   4.288  1.00 20.00     0.017 A 
HETATM    2  C2  UNL     1     -34.703   5.316   5.516  1.00 20.00     0.054 A 
HETATM    3  C3  UNL     1     -33.148   7.086   4.640  1.00 20.00     0.060 A 
HETATM    4  C4  UNL     1     -33.231   6.569   3.402  1.00 20.00    -0.044 A 
HETATM    5  C5  UNL     1     -34.073   5.352   3.098  1.00 20.00     0.221 A 
HETATM    6  C6  UNL     1     -33.869   6.521   5.829  1.00 20.00     0.280 A 
HETATM    7  C7  UNL     1     -32.493   7.169   2.242  1.00 20.00     0.046 C 
HETATM    8  F8  UNL     1     -33.289   4.377   2.551  1.00 20.00    -0.240 F 
HETATM    9  F9  UNL     1     -34.659   7.487   6.378  1.00 20.00    -0.197 F 
HETATM   10  F10 UNL     1     -32.962   6.203   6.797  1.00 20.00    -0.197 F 
ENDROOT
TORSDOF 0
ENDMDL
MODEL 2
REMARK VINA RESULT:      -5.8      2.085      3.317
REMARK  0 active torsions:
REMARK  status: ('A' for Active; 'I' for Inactive)
ROOT
HETATM    1  C1  UNL     1     -33.793   4.732   2.793  1.00 20.00     0.017 A 
HETATM    2  C2  UNL     1     -33.027   5.660   2.205  1.00 20.00     0.054 A 
HETATM    3  C3  UNL     1     -33.223   7.110   4.249  1.00 20.00     0.060 A 
HETATM    4  C4  UNL     1     -33.993   6.187   4.851  1.00 20.00    -0.044 A 
HETATM    5  C5  UNL     1     -34.361   4.888   4.173  1.00 20.00     0.221 A 
HETATM    6  C6  UNL     1     -32.658   6.953   2.867  1.00 20.00     0.280 A 
HETATM    7  C7  UNL     1     -34.534   6.387   6.235  1.00 20.00     0.046 C 
HETATM    8  F8  UNL     1     -35.720   4.773   4.112  1.00 20.00    -0.240 F 
HETATM    9  F9  UNL     1     -31.300   7.062   2.920  1.00 20.00    -0.197 F 
HETATM   10  F10 UNL     1     -33.074   7.993   2.089  1.00 20.00    -0.197 F 
ENDROOT
TORSDOF 0
ENDMDL
MODEL 3
REMARK VINA RESULT:      -5.6      1.019      3.912
REMARK  0 active torsions:
REMARK  status: ('A' for Active; 'I' for Inactive)
ROOT
HETATM    1  C1  UNL     1     -32.958   7.277   3.625  1.00 20.00     0.017 A 
HETATM    2  C2  UNL     1     -32.820   6.442   2.588  1.00 20.00     0.054 A 
HETATM    3  C3  UNL     1     -34.228   4.735   3.781  1.00 20.00     0.060 A 
HETATM    4  C4  UNL     1     -34.374   5.564   4.829  1.00 20.00    -0.044 A 
HETATM    5  C5  UNL     1     -33.744   6.937   4.857  1.00 20.00     0.221 A 
HETATM    6  C6  UNL     1     -33.438   5.077   2.551  1.00 20.00     0.280 A 
HETATM    7  C7  UNL     1     -35.175   5.179   6.038  1.00 20.00     0.046 C 
HETATM    8  F8  UNL     1     -32.932   7.045   5.949  1.00 20.00    -0.240 F 
HETATM    9  F9  UNL     1     -34.244   4.976   1.456  1.00 20.00    -0.197 F 
HETATM   10  F10 UNL     1     -32.461   4.143   2.368  1.00 20.00    -0.197 F 
ENDROOT
TORSDOF 0
ENDMDL
MODEL 4
REMARK VINA RESULT:      -5.2      1.691      2.588
REMARK  0 active torsions:
REMARK  status: ('A' for Active; 'I' for Inactive)
ROOT
HETATM    1  C1  UNL     1     -33.085   7.150   4.138  1.00 20.00     0.017 A 
HETATM    2  C2  UNL     1     -33.965   6.707   5.045  1.00 20.00     0.054 A 
HETATM    3  C3  UNL     1     -34.251   4.586   3.725  1.00 20.00     0.060 A 
HETATM    4  C4  UNL     1     -33.369   5.019   2.807  1.00 20.00    -0.044 A 
HETATM    5  C5  UNL     1     -32.689   6.363   2.923  1.00 20.00     0.221 A 
HETATM    6  C6  UNL     1     -34.647   5.376   4.938  1.00 20.00     0.280 A 
HETATM    7  C7  UNL     1     -33.002   4.193   1.610  1.00 20.00     0.046 C 
HETATM    8  F8  UNL     1     -32.950   7.105   1.807  1.00 20.00    -0.240 F 
HETATM    9  F9  UNL     1     -34.386   4.644   6.058  1.00 20.00    -0.197 F 
HETATM   10  F10 UNL     1     -35.999   5.561   4.935  1.00 20.00    -0.197 F 
ENDROOT
TORSDOF 0
ENDMDL
MODEL 5
REMARK VINA RESULT:      -5.0      1.390      3.092
REMARK  0 active torsions:
REMARK  status: ('A' for Active; 'I' for Inactive)
ROOT
HETATM    1  C1  UNL     1     -34.239   6.080   6.286  1.00 20.00     0.017 A 
HETATM    2  C2  UNL     1     -34.954   5.128   5.672  1.00 20.00     0.054 A 
HETATM    3  C3  UNL     1     -33.918   5.771   3.474  1.00 20.00     0.060 A 
HETATM    4  C4  UNL     1     -33.193   6.729   4.077  1.00 20.00    -0.044 A 
HETATM    5  C5  UNL     1     -33.283   6.984   5.563  1.00 20.00     0.221 A 
HETATM    6  C6  UNL     1     -34.875   4.869   4.198  1.00 20.00     0.280 A 
HETATM    7  C7  UNL     1     -32.247   7.607   3.312  1.00 20.00     0.046 C 
HETATM    8  F8  UNL     1     -33.644   8.282   5.784  1.00 20.00    -0.240 F 
HETATM    9  F9  UNL     1     -34.518   3.570   3.987  1.00 20.00    -0.197 F 
HETATM   10  F10 UNL     1     -36.117   4.997   3.650  1.00 20.00    -0.197 F 
ENDROOT
TORSDOF 0
ENDMDL
MODEL 6
REMARK VINA RESULT:      -4.8      9.428     10.118
REMARK  0 active torsions:
REMARK  status: ('A' for Active; 'I' for Inactive)
ROOT
HETATM    1  C1  UNL     1     -41.145   6.633  -1.098  1.00 20.00     0.017 A 
HETATM    2  C2  UNL     1     -41.331   7.956  -1.006  1.00 20.00     0.054 A 
HETATM    3  C3  UNL     1     -42.904   7.595   0.922  1.00 20.00     0.060 A 
HETATM    4  C4  UNL     1     -42.726   6.265   0.840  1.00 20.00    -0.044 A 
HETATM    5  C5  UNL     1     -41.817   5.642  -0.193  1.00 20.00     0.221 A 
HETATM    6  C6  UNL     1     -42.233   8.584   0.014  1.00 20.00     0.280 A 
HETATM    7  C7  UNL     1     -43.417   5.314   1.771  1.00 20.00     0.046 C 
HETATM    8  F8  UNL     1     -42.526   4.755  -0.952  1.00 20.00    -0.240 F 
HETATM    9  F9  UNL     1     -41.518   9.471   0.763  1.00 20.00    -0.197 F 
HETATM   10  F10 UNL     1     -43.182   9.329  -0.621  1.00 20.00    -0.197 F 
ENDROOT
TORSDOF 0
ENDMDL
MODEL 7
REMARK VINA RESULT:      -4.7     15.821     16.866
REMARK  0 active torsions:
REMARK  status: ('A' for Active; 'I' for Inactive)
ROOT
HETATM    1  C1  UNL     1     -24.761  19.263   9.468  1.00 20.00     0.017 A 
HETATM    2  C2  UNL     1     -23.629  19.239   8.753  1.00 20.00     0.054 A 
HETATM    3  C3  UNL     1     -22.974  17.084   9.870  1.00 20.00     0.060 A 
HETATM    4  C4  UNL     1     -24.106  17.096  10.595  1.00 20.00    -0.044 A 
HETATM    5  C5  UNL     1     -25.127  18.202  10.465  1.00 20.00     0.221 A 
HETATM    6  C6  UNL     1     -22.609  18.147   8.875  1.00 20.00     0.280 A 
HETATM    7  C7  UNL     1     -24.430  16.010  11.577  1.00 20.00     0.046 C 
HETATM    8  F8  UNL     1     -25.326  18.786  11.683  1.00 20.00    -0.240 F 
HETATM    9  F9  UNL     1     -22.413  17.573   7.654  1.00 20.00    -0.197 F 
HETATM   10  F10 UNL     1     -21.405  18.690   9.217  1.00 20.00    -0.197 F 
ENDROOT
TORSDOF 0
ENDMDL
MODEL 8
REMARK VINA RESULT:      -4.6      1.804      3.150
REMARK  0 active torsions:
REMARK  status: ('A' for Active; 'I' for Inactive)
ROOT
HETATM    1  C1  UNL     1     -33.100   6.323   2.766  1.00 20.00     0.017 A 
HETATM    2  C2  UNL     1     -33.775   5.169   2.840  1.00 20.00     0.054 A 
HETATM    3  C3  UNL     1     -34.363   5.672   5.232  1.00 20.00     0.060 A 
HETATM    4  C4  UNL     1     -33.689   6.833   5.171  1.00 20.00    -0.044 A 
HETATM    5  C5  UNL     1     -32.979   7.281   3.915  1.00 20.00     0.221 A 
HETATM    6  C6  UNL     1     -34.480   4.714   4.082  1.00 20.00     0.280 A 
HETATM    7  C7  UNL     1     -33.600   7.760   6.347  1.00 20.00     0.046 C 
HETATM    8  F8  UNL     1     -31.657   7.488   4.185  1.00 20.00    -0.240 F 
HETATM    9  F9  UNL     1     -35.798   4.505   3.802  1.00 20.00    -0.197 F 
HETATM   10  F10 UNL     1     -33.994   3.496   4.458  1.00 20.00    -0.197 F 
ENDROOT
TORSDOF 0
ENDMDL
MODEL 9
REMARK VINA RESULT:      -4.6     11.854     12.742
REMARK  0 active torsions:
REMARK  status: ('A' for Active; 'I' for Inactive)
ROOT
HETATM    1  C1  UNL     1     -35.595  14.832  -3.118  1.00 20.00     0.017 A 
HETATM    2  C2  UNL     1     -34.882  14.220  -4.072  1.00 20.00     0.054 A 
HETATM    3  C3  UNL     1     -32.951  15.763  -3.615  1.00 20.00     0.060 A 
HETATM    4  C4  UNL     1     -33.655  16.387  -2.654  1.00 20.00    -0.044 A 
HETATM    5  C5  UNL     1     -35.067  15.979  -2.305  1.00 20.00     0.221 A 
HETATM    6  C6  UNL     1     -33.482  14.619  -4.428  1.00 20.00     0.280 A 
HETATM    7  C7  UNL     1     -33.082  17.527  -1.865  1.00 20.00     0.046 C 
HETATM    8  F8  UNL     1     -35.902  17.049  -2.451  1.00 20.00    -0.240 F 
HETATM    9  F9  UNL     1     -32.656  13.543  -4.284  1.00 20.00    -0.197 F 
HETATM   10  F10 UNL     1     -33.427  14.942  -5.752  1.00 20.00    -0.197 F 
ENDROOT
TORSDOF 0
ENDMDL
