MODEL 1
REMARK VINA RESULT:      -4.7      0.000      0.000
REMARK  1 active torsions:
REMARK  status: ('A' for Active; 'I' for Inactive)
REMARK    1  A    between atoms: C3_3  and  C6_6 
ROOT
HETATM    1  C1  UNL     1     -26.957  18.462  12.157  1.00 20.00     0.013 C 
HETATM    2  C2  UNL     1     -25.872  17.984  11.965  1.00 20.00    -0.107 C 
HETATM    3  C5  UNL     1     -24.467  15.903  11.737  1.00 20.00     0.033 A 
HETATM    4  C6  UNL     1     -24.389  16.646  10.431  1.00 20.00     0.030 A 
HETATM    5  C7  UNL     1     -24.569  17.411  11.734  1.00 20.00     0.027 A 
HETATM    6  C10 UNL     1     -23.428  18.192  12.332  1.00 20.00     0.030 C 
ENDROOT
BRANCH   4   7
HETATM    7  C3  UNL     1     -23.124  16.680   9.712  1.00 20.00    -0.018 C 
HETATM    8  C4  UNL     1     -22.785  17.475   8.678  1.00 20.00    -0.091 C 
HETATM    9  C8  UNL     1     -21.426  17.385   8.040  1.00 20.00     0.042 C 
HETATM   10  C9  UNL     1     -23.704  18.501   8.077  1.00 20.00     0.042 C 
ENDBRANCH   4   7
TORSDOF 1
ENDMDL
MODEL 2
REMARK VINA RESULT:      -4.7     14.572     16.241
REMARK  1 active torsions:
REMARK  status: ('A' for Active; 'I' for Inactive)
REMARK    1  A    between atoms: C3_3  and  C6_6 
ROOT
HETATM    1  C1  UNL     1     -31.041  18.371  -0.076  1.00 20.00     0.013 C 
HETATM    2  C2  UNL     1     -32.019  18.147  -0.735  1.00 20.00    -0.107 C 
HETATM    3  C5  UNL     1     -33.137  18.240  -2.994  1.00 20.00     0.033 A 
HETATM    4  C6  UNL     1     -33.059  16.794  -2.588  1.00 20.00     0.030 A 
HETATM    5  C7  UNL     1     -33.193  17.877  -1.527  1.00 20.00     0.027 A 
HETATM    6  C10 UNL     1     -34.498  18.088  -0.803  1.00 20.00     0.030 C 
ENDROOT
BRANCH   4   7
HETATM    7  C3  UNL     1     -34.174  15.911  -2.900  1.00 20.00    -0.018 C 
HETATM    8  C4  UNL     1     -34.178  14.851  -3.732  1.00 20.00    -0.091 C 
HETATM    9  C8  UNL     1     -35.422  14.035  -3.948  1.00 20.00     0.042 C 
HETATM   10  C9  UNL     1     -32.974  14.391  -4.505  1.00 20.00     0.042 C 
ENDBRANCH   4   7
TORSDOF 1
ENDMDL
MODEL 3
REMARK VINA RESULT:      -4.5     16.468     18.286
REMARK  1 active torsions:
REMARK  status: ('A' for Active; 'I' for Inactive)
REMARK    1  A    between atoms: C3_3  and  C6_6 
ROOT
HETATM    1  C1  UNL     1     -34.068  15.404  -7.531  1.00 20.00     0.013 C 
HETATM    2  C2  UNL     1     -34.306  15.108  -6.392  1.00 20.00    -0.107 C 
HETATM    3  C5  UNL     1     -33.430  14.307  -4.167  1.00 20.00     0.033 A 
HETATM    4  C6  UNL     1     -34.023  15.673  -3.954  1.00 20.00     0.030 A 
HETATM    5  C7  UNL     1     -34.593  14.754  -5.024  1.00 20.00     0.027 A 
HETATM    6  C10 UNL     1     -35.917  14.065  -4.821  1.00 20.00     0.030 C 
ENDROOT
BRANCH   4   7
HETATM    7  C3  UNL     1     -34.760  15.940  -2.727  1.00 20.00    -0.018 C 
HETATM    8  C4  UNL     1     -34.425  16.783  -1.731  1.00 20.00    -0.091 C 
HETATM    9  C8  UNL     1     -35.302  16.945  -0.520  1.00 20.00     0.042 C 
HETATM   10  C9  UNL     1     -33.179  17.622  -1.731  1.00 20.00     0.042 C 
ENDBRANCH   4   7
TORSDOF 1
ENDMDL
MODEL 4
REMARK VINA RESULT:      -4.4     15.141     16.336
REMARK  1 active torsions:
REMARK  status: ('A' for Active; 'I' for Inactive)
REMARK    1  A    between atoms: C3_3  and  C6_6 
ROOT
HETATM    1  C1  UNL     1     -32.906   9.049   0.332  1.00 20.00     0.013 C 
HETATM    2  C2  UNL     1     -32.837   8.153   1.128  1.00 20.00    -0.107 C 
HETATM    3  C5  UNL     1     -31.875   7.292   3.294  1.00 20.00     0.033 A 
HETATM    4  C6  UNL     1     -33.370   7.338   3.451  1.00 20.00     0.030 A 
HETATM    5  C7  UNL     1     -32.755   7.076   2.084  1.00 20.00     0.027 A 
HETATM    6  C10 UNL     1     -32.785   5.698   1.477  1.00 20.00     0.030 C 
ENDROOT
BRANCH   4   7
HETATM    7  C3  UNL     1     -34.036   6.273   4.187  1.00 20.00    -0.018 C 
HETATM    8  C4  UNL     1     -34.249   6.197   5.515  1.00 20.00    -0.091 C 
HETATM    9  C8  UNL     1     -34.958   5.020   6.124  1.00 20.00     0.042 C 
HETATM   10  C9  UNL     1     -33.812   7.252   6.492  1.00 20.00     0.042 C 
ENDBRANCH   4   7
TORSDOF 1
ENDMDL
MODEL 5
REMARK VINA RESULT:      -4.3     14.729     16.191
REMARK  1 active torsions:
REMARK  status: ('A' for Active; 'I' for Inactive)
REMARK    1  A    between atoms: C3_3  and  C6_6 
ROOT
HETATM    1  C1  UNL     1     -32.691  18.506   1.081  1.00 20.00     0.013 C 
HETATM    2  C2  UNL     1     -33.507  18.149   0.276  1.00 20.00    -0.107 C 
HETATM    3  C5  UNL     1     -34.426  18.349  -2.064  1.00 20.00     0.033 A 
HETATM    4  C6  UNL     1     -33.964  16.929  -1.879  1.00 20.00     0.030 A 
HETATM    5  C7  UNL     1     -34.488  17.721  -0.690  1.00 20.00     0.027 A 
HETATM    6  C10 UNL     1     -35.850  17.432  -0.112  1.00 20.00     0.030 C 
ENDROOT
BRANCH   4   7
HETATM    7  C3  UNL     1     -34.748  15.849  -2.463  1.00 20.00    -0.018 C 
HETATM    8  C4  UNL     1     -34.388  15.014  -3.456  1.00 20.00    -0.091 C 
HETATM    9  C8  UNL     1     -35.321  13.942  -3.949  1.00 20.00     0.042 C 
HETATM   10  C9  UNL     1     -33.057  15.067  -4.151  1.00 20.00     0.042 C 
ENDBRANCH   4   7
TORSDOF 1
ENDMDL
MODEL 6
REMARK VINA RESULT:      -4.2     15.501     17.221
REMARK  1 active torsions:
REMARK  status: ('A' for Active; 'I' for Inactive)
REMARK    1  A    between atoms: C3_3  and  C6_6 
ROOT
HETATM    1  C1  UNL     1     -36.208  13.653  -4.362  1.00 20.00     0.013 C 
HETATM    2  C2  UNL     1     -35.251  14.373  -4.285  1.00 20.00    -0.107 C 
HETATM    3  C5  UNL     1     -34.238  16.634  -4.755  1.00 20.00     0.033 A 
HETATM    4  C6  UNL     1     -34.231  16.438  -3.264  1.00 20.00     0.030 A 
HETATM    5  C7  UNL     1     -34.101  15.239  -4.191  1.00 20.00     0.027 A 
HETATM    6  C10 UNL     1     -32.777  14.540  -4.365  1.00 20.00     0.030 C 
ENDROOT
BRANCH   4   7
HETATM    7  C3  UNL     1     -33.092  16.915  -2.493  1.00 20.00    -0.018 C 
HETATM    8  C4  UNL     1     -33.100  17.775  -1.456  1.00 20.00    -0.091 C 
HETATM    9  C8  UNL     1     -31.826  18.170  -0.762  1.00 20.00     0.042 C 
HETATM   10  C9  UNL     1     -34.347  18.405  -0.904  1.00 20.00     0.042 C 
ENDBRANCH   4   7
TORSDOF 1
ENDMDL
MODEL 7
REMARK VINA RESULT:      -4.2     15.704     17.377
REMARK  1 active torsions:
REMARK  status: ('A' for Active; 'I' for Inactive)
REMARK    1  A    between atoms: C3_3  and  C6_6 
ROOT
HETATM    1  C1  UNL     1     -31.879  18.174  -0.827  1.00 20.00     0.013 C 
HETATM    2  C2  UNL     1     -32.573  17.761  -1.715  1.00 20.00    -0.107 C 
HETATM    3  C5  UNL     1     -33.026  15.940  -3.399  1.00 20.00     0.033 A 
HETATM    4  C6  UNL     1     -34.215  16.012  -2.480  1.00 20.00     0.030 A 
HETATM    5  C7  UNL     1     -33.408  17.266  -2.781  1.00 20.00     0.027 A 
HETATM    6  C10 UNL     1     -33.954  18.333  -3.695  1.00 20.00     0.030 C 
ENDROOT
BRANCH   4   7
HETATM    7  C3  UNL     1     -35.549  15.830  -3.035  1.00 20.00    -0.018 C 
HETATM    8  C4  UNL     1     -36.012  14.782  -3.743  1.00 20.00    -0.091 C 
HETATM    9  C8  UNL     1     -37.427  14.747  -4.250  1.00 20.00     0.042 C 
HETATM   10  C9  UNL     1     -35.184  13.576  -4.087  1.00 20.00     0.042 C 
ENDBRANCH   4   7
TORSDOF 1
ENDMDL
MODEL 8
REMARK VINA RESULT:      -4.2     15.530     16.978
REMARK  1 active torsions:
REMARK  status: ('A' for Active; 'I' for Inactive)
REMARK    1  A    between atoms: C3_3  and  C6_6 
ROOT
HETATM    1  C1  UNL     1     -35.544  17.117   0.398  1.00 20.00     0.013 C 
HETATM    2  C2  UNL     1     -35.009  17.293  -0.662  1.00 20.00    -0.107 C 
HETATM    3  C5  UNL     1     -32.857  17.529  -1.954  1.00 20.00     0.033 A 
HETATM    4  C6  UNL     1     -33.581  16.329  -2.500  1.00 20.00     0.030 A 
HETATM    5  C7  UNL     1     -34.368  17.503  -1.937  1.00 20.00     0.027 A 
HETATM    6  C10 UNL     1     -35.096  18.453  -2.853  1.00 20.00     0.030 C 
ENDROOT
BRANCH   4   7
HETATM    7  C3  UNL     1     -33.544  16.072  -3.932  1.00 20.00    -0.018 C 
HETATM    8  C4  UNL     1     -34.153  15.078  -4.607  1.00 20.00    -0.091 C 
HETATM    9  C8  UNL     1     -34.013  14.950  -6.099  1.00 20.00     0.042 C 
HETATM   10  C9  UNL     1     -35.009  14.029  -3.956  1.00 20.00     0.042 C 
ENDBRANCH   4   7
TORSDOF 1
ENDMDL
MODEL 9
REMARK VINA RESULT:      -4.0     16.293     17.736
REMARK  1 active torsions:
REMARK  status: ('A' for Active; 'I' for Inactive)
REMARK    1  A    between atoms: C3_3  and  C6_6 
ROOT
HETATM    1  C1  UNL     1     -35.447  16.983   0.058  1.00 20.00     0.013 C 
HETATM    2  C2  UNL     1     -35.029  17.019  -1.067  1.00 20.00    -0.107 C 
HETATM    3  C5  UNL     1     -33.074  16.708  -2.630  1.00 20.00     0.033 A 
HETATM    4  C6  UNL     1     -34.140  15.728  -3.039  1.00 20.00     0.030 A 
HETATM    5  C7  UNL     1     -34.529  17.062  -2.419  1.00 20.00     0.027 A 
HETATM    6  C10 UNL     1     -35.111  18.164  -3.266  1.00 20.00     0.030 C 
ENDROOT
BRANCH   4   7
HETATM    7  C3  UNL     1     -34.356  15.469  -4.455  1.00 20.00    -0.018 C 
HETATM    8  C4  UNL     1     -35.377  14.799  -5.024  1.00 20.00    -0.091 C 
HETATM    9  C8  UNL     1     -35.454  14.617  -6.515  1.00 20.00     0.042 C 
HETATM   10  C9  UNL     1     -36.507  14.184  -4.249  1.00 20.00     0.042 C 
ENDBRANCH   4   7
TORSDOF 1
ENDMDL
