MODEL 1
REMARK VINA RESULT:      -4.6      0.000      0.000
REMARK  0 active torsions:
REMARK  status: ('A' for Active; 'I' for Inactive)
ROOT
HETATM    1  C1  UNL     1     -36.144  13.808  -4.828  1.00 20.00     0.012 C 
HETATM    2  C2  UNL     1     -35.479  14.405  -4.026  1.00 20.00    -0.112 C 
HETATM    3  C3  UNL     1     -33.288  17.384  -1.951  1.00 20.00    -0.026 C 
HETATM    4  C4  UNL     1     -34.484  17.013  -1.461  1.00 20.00    -0.024 C 
HETATM    5  C5  UNL     1     -34.232  17.846  -4.181  1.00 20.00     0.009 C 
HETATM    6  C6  UNL     1     -35.605  17.429  -3.606  1.00 20.00     0.010 C 
HETATM    7  C7  UNL     1     -33.305  15.588  -3.653  1.00 20.00     0.026 C 
HETATM    8  C8  UNL     1     -34.663  15.138  -3.043  1.00 20.00     0.072 C 
HETATM    9  C9  UNL     1     -33.103  17.106  -3.429  1.00 20.00     0.009 C 
HETATM   10  C10 UNL     1     -35.411  16.381  -2.482  1.00 20.00     0.023 C 
ENDROOT
TORSDOF 0
ENDMDL
MODEL 2
REMARK VINA RESULT:      -4.6     15.435     17.438
REMARK  0 active torsions:
REMARK  status: ('A' for Active; 'I' for Inactive)
ROOT
HETATM    1  C1  UNL     1     -25.404  18.885   7.481  1.00 20.00     0.012 C 
HETATM    2  C2  UNL     1     -24.880  18.880   8.561  1.00 20.00    -0.112 C 
HETATM    3  C3  UNL     1     -23.315  17.737  12.332  1.00 20.00    -0.026 C 
HETATM    4  C4  UNL     1     -22.451  18.008  11.338  1.00 20.00    -0.024 C 
HETATM    5  C5  UNL     1     -24.559  16.120  10.948  1.00 20.00     0.009 C 
HETATM    6  C6  UNL     1     -23.555  16.429   9.814  1.00 20.00     0.010 C 
HETATM    7  C7  UNL     1     -25.255  18.518  11.008  1.00 20.00     0.026 C 
HETATM    8  C8  UNL     1     -24.239  18.874   9.887  1.00 20.00     0.072 C 
HETATM    9  C9  UNL     1     -24.705  17.353  11.868  1.00 20.00     0.009 C 
HETATM   10  C10 UNL     1     -23.041  17.885   9.945  1.00 20.00     0.023 C 
ENDROOT
TORSDOF 0
ENDMDL
MODEL 3
REMARK VINA RESULT:      -4.6      1.313      3.709
REMARK  0 active torsions:
REMARK  status: ('A' for Active; 'I' for Inactive)
ROOT
HETATM    1  C1  UNL     1     -32.909  17.263  -2.288  1.00 20.00     0.012 C 
HETATM    2  C2  UNL     1     -33.746  16.444  -2.553  1.00 20.00    -0.112 C 
HETATM    3  C3  UNL     1     -36.585  14.011  -4.551  1.00 20.00    -0.026 C 
HETATM    4  C4  UNL     1     -35.416  13.458  -4.184  1.00 20.00    -0.024 C 
HETATM    5  C5  UNL     1     -35.457  15.854  -5.737  1.00 20.00     0.009 C 
HETATM    6  C6  UNL     1     -34.117  15.205  -5.320  1.00 20.00     0.010 C 
HETATM    7  C7  UNL     1     -36.098  16.112  -3.338  1.00 20.00     0.026 C 
HETATM    8  C8  UNL     1     -34.774  15.441  -2.878  1.00 20.00     0.072 C 
HETATM    9  C9  UNL     1     -36.547  15.519  -4.695  1.00 20.00     0.009 C 
HETATM   10  C10 UNL     1     -34.290  14.453  -3.977  1.00 20.00     0.023 C 
ENDROOT
TORSDOF 0
ENDMDL
MODEL 4
REMARK VINA RESULT:      -4.6      1.118      3.580
REMARK  0 active torsions:
REMARK  status: ('A' for Active; 'I' for Inactive)
ROOT
HETATM    1  C1  UNL     1     -32.560  18.765  -2.277  1.00 20.00     0.012 C 
HETATM    2  C2  UNL     1     -32.947  17.642  -2.449  1.00 20.00    -0.112 C 
HETATM    3  C3  UNL     1     -35.065  14.212  -3.766  1.00 20.00    -0.026 C 
HETATM    4  C4  UNL     1     -33.815  14.406  -4.223  1.00 20.00    -0.024 C 
HETATM    5  C5  UNL     1     -35.777  16.469  -4.458  1.00 20.00     0.009 C 
HETATM    6  C6  UNL     1     -34.341  16.679  -4.992  1.00 20.00     0.010 C 
HETATM    7  C7  UNL     1     -34.885  16.085  -2.158  1.00 20.00     0.026 C 
HETATM    8  C8  UNL     1     -33.424  16.264  -2.659  1.00 20.00     0.072 C 
HETATM    9  C9  UNL     1     -35.756  15.470  -3.280  1.00 20.00     0.009 C 
HETATM   10  C10 UNL     1     -33.339  15.845  -4.154  1.00 20.00     0.023 C 
ENDROOT
TORSDOF 0
ENDMDL
MODEL 5
REMARK VINA RESULT:      -4.6      1.287      3.108
REMARK  0 active torsions:
REMARK  status: ('A' for Active; 'I' for Inactive)
ROOT
HETATM    1  C1  UNL     1     -35.511  17.224  -0.578  1.00 20.00     0.012 C 
HETATM    2  C2  UNL     1     -35.156  16.502  -1.469  1.00 20.00    -0.112 C 
HETATM    3  C3  UNL     1     -33.874  14.957  -5.203  1.00 20.00    -0.026 C 
HETATM    4  C4  UNL     1     -32.985  15.012  -4.196  1.00 20.00    -0.024 C 
HETATM    5  C5  UNL     1     -34.449  17.342  -4.963  1.00 20.00     0.009 C 
HETATM    6  C6  UNL     1     -33.416  17.400  -3.814  1.00 20.00     0.010 C 
HETATM    7  C7  UNL     1     -35.752  15.606  -3.728  1.00 20.00     0.026 C 
HETATM    8  C8  UNL     1     -34.723  15.616  -2.563  1.00 20.00     0.072 C 
HETATM    9  C9  UNL     1     -35.038  15.917  -5.066  1.00 20.00     0.009 C 
HETATM   10  C10 UNL     1     -33.327  16.020  -3.115  1.00 20.00     0.023 C 
ENDROOT
TORSDOF 0
ENDMDL
MODEL 6
REMARK VINA RESULT:      -4.5     10.618     13.030
REMARK  0 active torsions:
REMARK  status: ('A' for Active; 'I' for Inactive)
ROOT
HETATM    1  C1  UNL     1     -41.201   9.866   0.332  1.00 20.00     0.012 C 
HETATM    2  C2  UNL     1     -41.896   8.886   0.318  1.00 20.00    -0.112 C 
HETATM    3  C3  UNL     1     -43.417   4.971  -0.259  1.00 20.00    -0.026 C 
HETATM    4  C4  UNL     1     -43.074   5.346   0.986  1.00 20.00    -0.024 C 
HETATM    5  C5  UNL     1     -41.216   5.608  -1.168  1.00 20.00     0.009 C 
HETATM    6  C6  UNL     1     -40.825   6.026   0.269  1.00 20.00     0.010 C 
HETATM    7  C7  UNL     1     -43.093   7.255  -1.154  1.00 20.00     0.026 C 
HETATM    8  C8  UNL     1     -42.748   7.685   0.299  1.00 20.00     0.072 C 
HETATM    9  C9  UNL     1     -42.741   5.762  -1.361  1.00 20.00     0.009 C 
HETATM   10  C10 UNL     1     -42.083   6.493   1.043  1.00 20.00     0.023 C 
ENDROOT
TORSDOF 0
ENDMDL
MODEL 7
REMARK VINA RESULT:      -4.5     11.382     12.913
REMARK  0 active torsions:
REMARK  status: ('A' for Active; 'I' for Inactive)
ROOT
HETATM    1  C1  UNL     1     -43.387   3.875  -2.834  1.00 20.00     0.012 C 
HETATM    2  C2  UNL     1     -42.971   4.447  -1.864  1.00 20.00    -0.112 C 
HETATM    3  C3  UNL     1     -41.532   7.381   0.838  1.00 20.00    -0.026 C 
HETATM    4  C4  UNL     1     -42.781   6.916   1.007  1.00 20.00    -0.024 C 
HETATM    5  C5  UNL     1     -41.953   7.950  -1.524  1.00 20.00     0.009 C 
HETATM    6  C6  UNL     1     -43.393   7.423  -1.318  1.00 20.00     0.010 C 
HETATM    7  C7  UNL     1     -41.029   5.711  -0.917  1.00 20.00     0.026 C 
HETATM    8  C8  UNL     1     -42.459   5.150  -0.675  1.00 20.00     0.072 C 
HETATM    9  C9  UNL     1     -40.986   7.218  -0.566  1.00 20.00     0.009 C 
HETATM   10  C10 UNL     1     -43.398   6.310  -0.240  1.00 20.00     0.023 C 
ENDROOT
TORSDOF 0
ENDMDL
MODEL 8
REMARK VINA RESULT:      -4.4     10.430     12.931
REMARK  0 active torsions:
REMARK  status: ('A' for Active; 'I' for Inactive)
ROOT
HETATM    1  C1  UNL     1     -41.170   9.747   0.389  1.00 20.00     0.012 C 
HETATM    2  C2  UNL     1     -41.428   8.775  -0.267  1.00 20.00    -0.112 C 
HETATM    3  C3  UNL     1     -42.584   4.896  -1.532  1.00 20.00    -0.026 C 
HETATM    4  C4  UNL     1     -43.417   5.922  -1.776  1.00 20.00    -0.024 C 
HETATM    5  C5  UNL     1     -42.447   5.444   0.868  1.00 20.00     0.009 C 
HETATM    6  C6  UNL     1     -43.416   6.615   0.581  1.00 20.00     0.010 C 
HETATM    7  C7  UNL     1     -40.788   6.401  -0.734  1.00 20.00     0.026 C 
HETATM    8  C8  UNL     1     -41.743   7.581  -1.069  1.00 20.00     0.072 C 
HETATM    9  C9  UNL     1     -41.612   5.135  -0.394  1.00 20.00     0.009 C 
HETATM   10  C10 UNL     1     -43.215   7.122  -0.869  1.00 20.00     0.023 C 
ENDROOT
TORSDOF 0
ENDMDL
MODEL 9
REMARK VINA RESULT:      -4.4      1.767      2.118
REMARK  0 active torsions:
REMARK  status: ('A' for Active; 'I' for Inactive)
ROOT
HETATM    1  C1  UNL     1     -33.877  15.241  -7.594  1.00 20.00     0.012 C 
HETATM    2  C2  UNL     1     -34.148  15.156  -6.427  1.00 20.00    -0.112 C 
HETATM    3  C3  UNL     1     -34.618  15.916  -2.283  1.00 20.00    -0.026 C 
HETATM    4  C4  UNL     1     -35.709  15.955  -3.066  1.00 20.00    -0.024 C 
HETATM    5  C5  UNL     1     -33.403  17.509  -3.720  1.00 20.00     0.009 C 
HETATM    6  C6  UNL     1     -34.667  17.556  -4.610  1.00 20.00     0.010 C 
HETATM    7  C7  UNL     1     -33.197  15.052  -4.115  1.00 20.00     0.026 C 
HETATM    8  C8  UNL     1     -34.478  15.053  -4.996  1.00 20.00     0.072 C 
HETATM    9  C9  UNL     1     -33.310  16.136  -3.017  1.00 20.00     0.009 C 
HETATM   10  C10 UNL     1     -35.417  16.203  -4.535  1.00 20.00     0.023 C 
ENDROOT
TORSDOF 0
ENDMDL
