MODEL 1
REMARK VINA RESULT:      -5.4      0.000      0.000
REMARK  0 active torsions:
REMARK  status: ('A' for Active; 'I' for Inactive)
ROOT
HETATM    1  C1  UNL     1     -24.993  19.252   9.288  1.00 20.00     0.003 A 
HETATM    2  C2  UNL     1     -23.871  19.237   8.555  1.00 20.00     0.034 A 
HETATM    3  C3  UNL     1     -26.187  19.261   8.476  1.00 20.00     0.018 A 
HETATM    4  C4  UNL     1     -26.058  19.241   3.066  1.00 20.00     0.014 A 
HETATM    5  C5  UNL     1     -24.916  19.233   3.767  1.00 20.00     0.118 A 
HETATM    6  C6  UNL     1     -25.842  19.253   7.198  1.00 20.00     0.042 A 
HETATM    7  C7  UNL     1     -24.369  19.238   7.183  1.00 20.00     0.091 A 
HETATM    8  C8  UNL     1     -26.194  19.252   5.783  1.00 20.00     0.158 A 
HETATM    9  C9  UNL     1     -27.398  19.258   3.771  1.00 20.00     0.180 A 
HETATM   10  N10 UNL     1     -23.849  19.229   5.993  1.00 20.00    -0.166 NA
HETATM   11  N11 UNL     1     -27.369  19.263   5.262  1.00 20.00    -0.267 NA
HETATM   12  N12 UNL     1     -24.958  19.237   5.133  1.00 20.00    -0.226 N 
ENDROOT
TORSDOF 0
ENDMDL
MODEL 2
REMARK VINA RESULT:      -5.1      2.580      4.105
REMARK  0 active torsions:
REMARK  status: ('A' for Active; 'I' for Inactive)
ROOT
HETATM    1  C1  UNL     1     -22.595  17.725  11.975  1.00 20.00     0.003 A 
HETATM    2  C2  UNL     1     -23.873  18.056  12.205  1.00 20.00     0.034 A 
HETATM    3  C3  UNL     1     -22.245  17.800  10.576  1.00 20.00     0.018 A 
HETATM    4  C4  UNL     1     -25.773  19.263   6.742  1.00 20.00     0.014 A 
HETATM    5  C5  UNL     1     -26.156  19.211   8.026  1.00 20.00     0.118 A 
HETATM    6  C6  UNL     1     -23.306  18.183   9.883  1.00 20.00     0.042 A 
HETATM    7  C7  UNL     1     -24.383  18.363  10.872  1.00 20.00     0.091 A 
HETATM    8  C8  UNL     1     -23.950  18.520   8.619  1.00 20.00     0.158 A 
HETATM    9  C9  UNL     1     -24.354  18.914   6.344  1.00 20.00     0.180 A 
HETATM   10  N10 UNL     1     -25.515  18.743  10.363  1.00 20.00    -0.166 NA
HETATM   11  N11 UNL     1     -23.429  18.518   7.444  1.00 20.00    -0.267 NA
HETATM   12  N12 UNL     1     -25.259  18.841   8.987  1.00 20.00    -0.226 N 
ENDROOT
TORSDOF 0
ENDMDL
MODEL 3
REMARK VINA RESULT:      -5.1      2.695      5.294
REMARK  0 active torsions:
REMARK  status: ('A' for Active; 'I' for Inactive)
ROOT
HETATM    1  C1  UNL     1     -25.592  19.263   6.410  1.00 20.00     0.003 A 
HETATM    2  C2  UNL     1     -24.267  19.067   6.369  1.00 20.00     0.034 A 
HETATM    3  C3  UNL     1     -26.136  19.109   7.739  1.00 20.00     0.018 A 
HETATM    4  C4  UNL     1     -23.083  17.871  12.033  1.00 20.00     0.014 A 
HETATM    5  C5  UNL     1     -22.523  18.001  10.822  1.00 20.00     0.118 A 
HETATM    6  C6  UNL     1     -25.155  18.808   8.576  1.00 20.00     0.042 A 
HETATM    7  C7  UNL     1     -23.931  18.767   7.757  1.00 20.00     0.091 A 
HETATM    8  C8  UNL     1     -24.675  18.495   9.916  1.00 20.00     0.158 A 
HETATM    9  C9  UNL     1     -24.574  18.067  12.219  1.00 20.00     0.180 A 
HETATM   10  N10 UNL     1     -22.854  18.481   8.424  1.00 20.00    -0.166 NA
HETATM   11  N11 UNL     1     -25.361  18.406  11.000  1.00 20.00    -0.267 NA
HETATM   12  N12 UNL     1     -23.301  18.314   9.744  1.00 20.00    -0.226 N 
ENDROOT
TORSDOF 0
ENDMDL
MODEL 4
REMARK VINA RESULT:      -5.0      3.975      5.682
REMARK  0 active torsions:
REMARK  status: ('A' for Active; 'I' for Inactive)
ROOT
HETATM    1  C1  UNL     1     -21.785  17.523   7.846  1.00 20.00     0.003 A 
HETATM    2  C2  UNL     1     -21.460  17.040   9.053  1.00 20.00     0.034 A 
HETATM    3  C3  UNL     1     -23.063  18.196   7.844  1.00 20.00     0.018 A 
HETATM    4  C4  UNL     1     -26.142  18.667  12.269  1.00 20.00     0.014 A 
HETATM    5  C5  UNL     1     -24.964  18.030  12.332  1.00 20.00     0.118 A 
HETATM    6  C6  UNL     1     -23.580  18.152   9.062  1.00 20.00     0.042 A 
HETATM    7  C7  UNL     1     -22.597  17.422   9.884  1.00 20.00     0.091 A 
HETATM    8  C8  UNL     1     -24.643  18.466  10.008  1.00 20.00     0.158 A 
HETATM    9  C9  UNL     1     -26.630  19.262  10.965  1.00 20.00     0.180 A 
HETATM   10  N10 UNL     1     -22.944  17.282  11.127  1.00 20.00    -0.166 NA
HETATM   11  N11 UNL     1     -25.739  19.100   9.781  1.00 20.00    -0.267 NA
HETATM   12  N12 UNL     1     -24.193  17.917  11.210  1.00 20.00    -0.226 N 
ENDROOT
TORSDOF 0
ENDMDL
MODEL 5
REMARK VINA RESULT:      -4.9      0.967      4.562
REMARK  0 active torsions:
REMARK  status: ('A' for Active; 'I' for Inactive)
ROOT
HETATM    1  C1  UNL     1     -26.669  19.221   3.143  1.00 20.00     0.003 A 
HETATM    2  C2  UNL     1     -27.722  19.227   3.972  1.00 20.00     0.034 A 
HETATM    3  C3  UNL     1     -25.408  19.224   3.847  1.00 20.00     0.018 A 
HETATM    4  C4  UNL     1     -25.061  19.261   9.247  1.00 20.00     0.014 A 
HETATM    5  C5  UNL     1     -26.260  19.259   8.649  1.00 20.00     0.118 A 
HETATM    6  C6  UNL     1     -25.639  19.233   5.151  1.00 20.00     0.042 A 
HETATM    7  C7  UNL     1     -27.105  19.236   5.295  1.00 20.00     0.091 A 
HETATM    8  C8  UNL     1     -25.165  19.242   6.529  1.00 20.00     0.158 A 
HETATM    9  C9  UNL     1     -23.788  19.254   8.427  1.00 20.00     0.180 A 
HETATM   10  N10 UNL     1     -27.519  19.245   6.525  1.00 20.00    -0.166 NA
HETATM   11  N11 UNL     1     -23.948  19.244   6.945  1.00 20.00    -0.267 NA
HETATM   12  N12 UNL     1     -26.339  19.249   7.285  1.00 20.00    -0.226 N 
ENDROOT
TORSDOF 0
ENDMDL
MODEL 6
REMARK VINA RESULT:      -4.9      9.568     12.222
REMARK  0 active torsions:
REMARK  status: ('A' for Active; 'I' for Inactive)
ROOT
HETATM    1  C1  UNL     1     -34.086  15.002  -4.063  1.00 20.00     0.003 A 
HETATM    2  C2  UNL     1     -35.095  15.136  -3.192  1.00 20.00     0.034 A 
HETATM    3  C3  UNL     1     -32.972  15.869  -3.760  1.00 20.00     0.018 A 
HETATM    4  C4  UNL     1     -32.956  19.263   0.455  1.00 20.00     0.014 A 
HETATM    5  C5  UNL     1     -34.020  18.482   0.223  1.00 20.00     0.118 A 
HETATM    6  C6  UNL     1     -33.256  16.578  -2.679  1.00 20.00     0.042 A 
HETATM    7  C7  UNL     1     -34.605  16.153  -2.267  1.00 20.00     0.091 A 
HETATM    8  C8  UNL     1     -32.899  17.579  -1.681  1.00 20.00     0.158 A 
HETATM    9  C9  UNL     1     -31.746  19.211  -0.454  1.00 20.00     0.180 A 
HETATM   10  N10 UNL     1     -35.053  16.754  -1.207  1.00 20.00    -0.166 NA
HETATM   11  N11 UNL     1     -31.810  18.257  -1.598  1.00 20.00    -0.267 NA
HETATM   12  N12 UNL     1     -34.015  17.628  -0.843  1.00 20.00    -0.226 N 
ENDROOT
TORSDOF 0
ENDMDL
MODEL 7
REMARK VINA RESULT:      -4.7     10.561     12.483
REMARK  0 active torsions:
REMARK  status: ('A' for Active; 'I' for Inactive)
ROOT
HETATM    1  C1  UNL     1     -34.279  14.764  -3.961  1.00 20.00     0.003 A 
HETATM    2  C2  UNL     1     -33.135  15.456  -3.870  1.00 20.00     0.034 A 
HETATM    3  C3  UNL     1     -35.251  15.164  -2.970  1.00 20.00     0.018 A 
HETATM    4  C4  UNL     1     -34.292  19.040   0.682  1.00 20.00     0.014 A 
HETATM    5  C5  UNL     1     -33.352  18.711  -0.214  1.00 20.00     0.118 A 
HETATM    6  C6  UNL     1     -34.736  16.127  -2.222  1.00 20.00     0.042 A 
HETATM    7  C7  UNL     1     -33.379  16.359  -2.750  1.00 20.00     0.091 A 
HETATM    8  C8  UNL     1     -34.839  17.083  -1.126  1.00 20.00     0.158 A 
HETATM    9  C9  UNL     1     -35.633  18.336   0.689  1.00 20.00     0.180 A 
HETATM   10  N10 UNL     1     -32.717  17.285  -2.126  1.00 20.00    -0.166 NA
HETATM   11  N11 UNL     1     -35.838  17.278  -0.340  1.00 20.00    -0.267 NA
HETATM   12  N12 UNL     1     -33.602  17.732  -1.132  1.00 20.00    -0.226 N 
ENDROOT
TORSDOF 0
ENDMDL
MODEL 8
REMARK VINA RESULT:      -4.7     10.702     12.426
REMARK  0 active torsions:
REMARK  status: ('A' for Active; 'I' for Inactive)
ROOT
HETATM    1  C1  UNL     1     -32.708  18.846  -0.329  1.00 20.00     0.003 A 
HETATM    2  C2  UNL     1     -33.973  18.503  -0.051  1.00 20.00     0.034 A 
HETATM    3  C3  UNL     1     -32.164  18.105  -1.444  1.00 20.00     0.018 A 
HETATM    4  C4  UNL     1     -34.997  14.370  -4.147  1.00 20.00     0.014 A 
HETATM    5  C5  UNL     1     -35.554  15.025  -3.119  1.00 20.00     0.118 A 
HETATM    6  C6  UNL     1     -33.084  17.269  -1.899  1.00 20.00     0.042 A 
HETATM    7  C7  UNL     1     -34.268  17.477  -1.046  1.00 20.00     0.091 A 
HETATM    8  C8  UNL     1     -33.518  16.235  -2.831  1.00 20.00     0.158 A 
HETATM    9  C9  UNL     1     -33.572  14.661  -4.567  1.00 20.00     0.180 A 
HETATM   10  N10 UNL     1     -35.283  16.728  -1.353  1.00 20.00    -0.166 NA
HETATM   11  N11 UNL     1     -32.843  15.699  -3.785  1.00 20.00    -0.267 NA
HETATM   12  N12 UNL     1     -34.832  15.967  -2.443  1.00 20.00    -0.226 N 
ENDROOT
TORSDOF 0
ENDMDL
MODEL 9
REMARK VINA RESULT:      -4.6     10.759     12.439
REMARK  0 active torsions:
REMARK  status: ('A' for Active; 'I' for Inactive)
ROOT
HETATM    1  C1  UNL     1     -34.888  18.334   0.370  1.00 20.00     0.003 A 
HETATM    2  C2  UNL     1     -33.668  18.526  -0.152  1.00 20.00     0.034 A 
HETATM    3  C3  UNL     1     -35.633  17.309  -0.323  1.00 20.00     0.018 A 
HETATM    4  C4  UNL     1     -33.643  14.587  -4.555  1.00 20.00     0.014 A 
HETATM    5  C5  UNL     1     -32.905  15.529  -3.952  1.00 20.00     0.118 A 
HETATM    6  C6  UNL     1     -34.893  16.825  -1.308  1.00 20.00     0.042 A 
HETATM    7  C7  UNL     1     -33.620  17.566  -1.250  1.00 20.00     0.091 A 
HETATM    8  C8  UNL     1     -34.703  15.918  -2.433  1.00 20.00     0.158 A 
HETATM    9  C9  UNL     1     -35.040  14.270  -4.066  1.00 20.00     0.180 A 
HETATM   10  N10 UNL     1     -32.760  17.218  -2.157  1.00 20.00    -0.166 NA
HETATM   11  N11 UNL     1     -35.533  15.053  -2.897  1.00 20.00    -0.267 NA
HETATM   12  N12 UNL     1     -33.414  16.211  -2.884  1.00 20.00    -0.226 N 
ENDROOT
TORSDOF 0
ENDMDL
