MODEL 1
REMARK VINA RESULT:      -5.1      0.000      0.000
REMARK  1 active torsions:
REMARK  status: ('A' for Active; 'I' for Inactive)
REMARK    1  A    between atoms: C3_3  and  C8_8 
ROOT
HETATM    1  C1  UNL     1     -35.144  15.899  -2.257  1.00 20.00    -0.025 C 
HETATM    2  C2  UNL     1     -36.126  16.186  -3.123  1.00 20.00    -0.024 C 
HETATM    3  C4  UNL     1     -34.173  16.976  -4.045  1.00 20.00     0.018 C 
HETATM    4  C5  UNL     1     -33.853  15.865  -3.040  1.00 20.00     0.013 C 
HETATM    5  C6  UNL     1     -35.492  16.331  -4.491  1.00 20.00     0.024 C 
HETATM    6  C7  UNL     1     -33.874  14.590  -3.936  1.00 20.00     0.004 C 
HETATM    7  C8  UNL     1     -35.000  14.936  -4.992  1.00 20.00     0.020 C 
HETATM    8  C9  UNL     1     -32.493  14.283  -4.508  1.00 20.00     0.012 C 
HETATM    9  C10 UNL     1     -34.547  14.997  -6.455  1.00 20.00     0.024 C 
ENDROOT
BRANCH   7  10
HETATM   10  C3  UNL     1     -36.108  13.913  -4.942  1.00 20.00     0.241 C 
HETATM   11  O11 UNL     1     -35.943  12.756  -4.568  1.00 20.00    -0.306 OA
ENDBRANCH   7  10
TORSDOF 1
ENDMDL
MODEL 2
REMARK VINA RESULT:      -4.7      0.950      1.376
REMARK  1 active torsions:
REMARK  status: ('A' for Active; 'I' for Inactive)
REMARK    1  A    between atoms: C3_3  and  C8_8 
ROOT
HETATM    1  C1  UNL     1     -33.967  15.650  -2.915  1.00 20.00    -0.025 C 
HETATM    2  C2  UNL     1     -35.282  15.792  -2.695  1.00 20.00    -0.024 C 
HETATM    3  C4  UNL     1     -34.751  17.160  -4.465  1.00 20.00     0.018 C 
HETATM    4  C5  UNL     1     -33.709  16.044  -4.350  1.00 20.00     0.013 C 
HETATM    5  C6  UNL     1     -35.907  16.269  -3.991  1.00 20.00     0.024 C 
HETATM    6  C7  UNL     1     -34.310  14.933  -5.264  1.00 20.00     0.004 C 
HETATM    7  C8  UNL     1     -35.865  15.120  -5.048  1.00 20.00     0.020 C 
HETATM    8  C9  UNL     1     -33.815  15.061  -6.702  1.00 20.00     0.012 C 
HETATM    9  C10 UNL     1     -36.674  15.484  -6.298  1.00 20.00     0.024 C 
ENDROOT
BRANCH   7  10
HETATM   10  C3  UNL     1     -36.483  13.854  -4.507  1.00 20.00     0.241 C 
HETATM   11  O11 UNL     1     -35.929  12.761  -4.549  1.00 20.00    -0.306 OA
ENDBRANCH   7  10
TORSDOF 1
ENDMDL
MODEL 3
REMARK VINA RESULT:      -4.4      1.017      2.341
REMARK  1 active torsions:
REMARK  status: ('A' for Active; 'I' for Inactive)
REMARK    1  A    between atoms: C3_3  and  C8_8 
ROOT
HETATM    1  C1  UNL     1     -36.971  17.048  -5.127  1.00 20.00    -0.025 C 
HETATM    2  C2  UNL     1     -36.532  16.180  -6.049  1.00 20.00    -0.024 C 
HETATM    3  C4  UNL     1     -34.671  17.112  -5.071  1.00 20.00     0.018 C 
HETATM    4  C5  UNL     1     -35.863  17.225  -4.116  1.00 20.00     0.013 C 
HETATM    5  C6  UNL     1     -35.131  15.766  -5.647  1.00 20.00     0.024 C 
HETATM    6  C7  UNL     1     -35.756  15.907  -3.292  1.00 20.00     0.004 C 
HETATM    7  C8  UNL     1     -35.194  14.884  -4.360  1.00 20.00     0.020 C 
HETATM    8  C9  UNL     1     -34.907  16.096  -2.038  1.00 20.00     0.012 C 
HETATM    9  C10 UNL     1     -33.828  14.267  -4.039  1.00 20.00     0.024 C 
ENDROOT
BRANCH   7  10
HETATM   10  C3  UNL     1     -36.143  13.724  -4.534  1.00 20.00     0.241 C 
HETATM   11  O11 UNL     1     -35.793  12.550  -4.480  1.00 20.00    -0.306 OA
ENDBRANCH   7  10
TORSDOF 1
ENDMDL
MODEL 4
REMARK VINA RESULT:      -4.4      1.225      2.806
REMARK  1 active torsions:
REMARK  status: ('A' for Active; 'I' for Inactive)
REMARK    1  A    between atoms: C3_3  and  C8_8 
ROOT
HETATM    1  C1  UNL     1     -33.399  16.789  -3.692  1.00 20.00    -0.025 C 
HETATM    2  C2  UNL     1     -33.305  15.454  -3.769  1.00 20.00    -0.024 C 
HETATM    3  C4  UNL     1     -34.983  15.918  -2.267  1.00 20.00     0.018 C 
HETATM    4  C5  UNL     1     -34.793  17.111  -3.208  1.00 20.00     0.013 C 
HETATM    5  C6  UNL     1     -34.644  14.883  -3.348  1.00 20.00     0.024 C 
HETATM    6  C7  UNL     1     -35.785  16.786  -4.364  1.00 20.00     0.004 C 
HETATM    7  C8  UNL     1     -35.718  15.207  -4.434  1.00 20.00     0.020 C 
HETATM    8  C9  UNL     1     -37.165  17.385  -4.105  1.00 20.00     0.012 C 
HETATM    9  C10 UNL     1     -37.033  14.470  -4.156  1.00 20.00     0.024 C 
ENDROOT
BRANCH   7  10
HETATM   10  C3  UNL     1     -35.269  14.755  -5.802  1.00 20.00     0.241 C 
HETATM   11  O11 UNL     1     -35.910  13.978  -6.501  1.00 20.00    -0.306 OA
ENDBRANCH   7  10
TORSDOF 1
ENDMDL
MODEL 5
REMARK VINA RESULT:      -4.3      1.381      2.718
REMARK  1 active torsions:
REMARK  status: ('A' for Active; 'I' for Inactive)
REMARK    1  A    between atoms: C3_3  and  C8_8 
ROOT
HETATM    1  C1  UNL     1     -33.494  17.738  -3.372  1.00 20.00    -0.025 C 
HETATM    2  C2  UNL     1     -33.155  16.660  -2.651  1.00 20.00    -0.024 C 
HETATM    3  C4  UNL     1     -35.452  16.776  -2.637  1.00 20.00     0.018 C 
HETATM    4  C5  UNL     1     -34.908  17.525  -3.857  1.00 20.00     0.013 C 
HETATM    5  C6  UNL     1     -34.341  15.717  -2.666  1.00 20.00     0.024 C 
HETATM    6  C7  UNL     1     -34.875  16.410  -4.945  1.00 20.00     0.004 C 
HETATM    7  C8  UNL     1     -34.520  15.121  -4.098  1.00 20.00     0.020 C 
HETATM    8  C9  UNL     1     -36.182  16.353  -5.731  1.00 20.00     0.012 C 
HETATM    9  C10 UNL     1     -35.570  14.004  -4.110  1.00 20.00     0.024 C 
ENDROOT
BRANCH   7  10
HETATM   10  C3  UNL     1     -33.241  14.495  -4.596  1.00 20.00     0.241 C 
HETATM   11  O11 UNL     1     -32.930  13.328  -4.379  1.00 20.00    -0.306 OA
ENDBRANCH   7  10
TORSDOF 1
ENDMDL
MODEL 6
REMARK VINA RESULT:      -4.2      1.287      3.231
REMARK  1 active torsions:
REMARK  status: ('A' for Active; 'I' for Inactive)
REMARK    1  A    between atoms: C3_3  and  C8_8 
ROOT
HETATM    1  C1  UNL     1     -35.308  15.246  -7.028  1.00 20.00    -0.025 C 
HETATM    2  C2  UNL     1     -34.149  14.940  -6.428  1.00 20.00    -0.024 C 
HETATM    3  C4  UNL     1     -34.863  16.929  -5.523  1.00 20.00     0.018 C 
HETATM    4  C5  UNL     1     -36.061  16.170  -6.101  1.00 20.00     0.013 C 
HETATM    5  C6  UNL     1     -34.132  15.651  -5.091  1.00 20.00     0.024 C 
HETATM    6  C7  UNL     1     -36.543  15.330  -4.880  1.00 20.00     0.004 C 
HETATM    7  C8  UNL     1     -35.185  15.001  -4.138  1.00 20.00     0.020 C 
HETATM    8  C9  UNL     1     -37.588  16.081  -4.059  1.00 20.00     0.012 C 
HETATM    9  C10 UNL     1     -35.056  15.544  -2.710  1.00 20.00     0.024 C 
ENDROOT
BRANCH   7  10
HETATM   10  C3  UNL     1     -34.985  13.509  -4.035  1.00 20.00     0.241 C 
HETATM   11  O11 UNL     1     -35.804  12.687  -4.433  1.00 20.00    -0.306 OA
ENDBRANCH   7  10
TORSDOF 1
ENDMDL
MODEL 7
REMARK VINA RESULT:      -4.2      2.026      3.079
REMARK  1 active torsions:
REMARK  status: ('A' for Active; 'I' for Inactive)
REMARK    1  A    between atoms: C3_3  and  C8_8 
ROOT
HETATM    1  C1  UNL     1     -34.124  15.967  -2.649  1.00 20.00    -0.025 C 
HETATM    2  C2  UNL     1     -33.194  15.886  -3.611  1.00 20.00    -0.024 C 
HETATM    3  C4  UNL     1     -34.538  14.032  -3.824  1.00 20.00     0.018 C 
HETATM    4  C5  UNL     1     -35.305  15.139  -3.098  1.00 20.00     0.013 C 
HETATM    5  C6  UNL     1     -33.761  15.013  -4.712  1.00 20.00     0.024 C 
HETATM    6  C7  UNL     1     -35.994  15.894  -4.274  1.00 20.00     0.004 C 
HETATM    7  C8  UNL     1     -34.925  15.765  -5.432  1.00 20.00     0.020 C 
HETATM    8  C9  UNL     1     -37.377  15.321  -4.575  1.00 20.00     0.012 C 
HETATM    9  C10 UNL     1     -35.385  15.012  -6.686  1.00 20.00     0.024 C 
ENDROOT
BRANCH   7  10
HETATM   10  C3  UNL     1     -34.487  17.130  -5.905  1.00 20.00     0.241 C 
HETATM   11  O11 UNL     1     -35.056  18.169  -5.589  1.00 20.00    -0.306 OA
ENDBRANCH   7  10
TORSDOF 1
ENDMDL
MODEL 8
REMARK VINA RESULT:      -4.2      1.531      2.782
REMARK  1 active torsions:
REMARK  status: ('A' for Active; 'I' for Inactive)
REMARK    1  A    between atoms: C3_3  and  C8_8 
ROOT
HETATM    1  C1  UNL     1     -33.296  14.809  -4.163  1.00 20.00    -0.025 C 
HETATM    2  C2  UNL     1     -34.462  14.193  -3.920  1.00 20.00    -0.024 C 
HETATM    3  C4  UNL     1     -34.325  15.961  -2.457  1.00 20.00     0.018 C 
HETATM    4  C5  UNL     1     -33.431  16.230  -3.670  1.00 20.00     0.013 C 
HETATM    5  C6  UNL     1     -35.383  15.209  -3.276  1.00 20.00     0.024 C 
HETATM    6  C7  UNL     1     -34.397  16.979  -4.637  1.00 20.00     0.004 C 
HETATM    7  C8  UNL     1     -35.788  16.291  -4.326  1.00 20.00     0.020 C 
HETATM    8  C9  UNL     1     -34.339  18.490  -4.429  1.00 20.00     0.012 C 
HETATM    9  C10 UNL     1     -36.883  17.215  -3.781  1.00 20.00     0.024 C 
ENDROOT
BRANCH   7  10
HETATM   10  C3  UNL     1     -36.358  15.661  -5.572  1.00 20.00     0.241 C 
HETATM   11  O11 UNL     1     -37.551  15.415  -5.721  1.00 20.00    -0.306 OA
ENDBRANCH   7  10
TORSDOF 1
ENDMDL
MODEL 9
REMARK VINA RESULT:      -4.2      1.818      3.360
REMARK  1 active torsions:
REMARK  status: ('A' for Active; 'I' for Inactive)
REMARK    1  A    between atoms: C3_3  and  C8_8 
ROOT
HETATM    1  C1  UNL     1     -36.042  14.488  -5.197  1.00 20.00    -0.025 C 
HETATM    2  C2  UNL     1     -35.477  13.863  -4.154  1.00 20.00    -0.024 C 
HETATM    3  C4  UNL     1     -33.767  14.782  -5.385  1.00 20.00     0.018 C 
HETATM    4  C5  UNL     1     -35.066  15.540  -5.668  1.00 20.00     0.013 C 
HETATM    5  C6  UNL     1     -34.127  14.508  -3.919  1.00 20.00     0.024 C 
HETATM    6  C7  UNL     1     -35.032  16.671  -4.597  1.00 20.00     0.004 C 
HETATM    7  C8  UNL     1     -34.326  15.958  -3.374  1.00 20.00     0.020 C 
HETATM    8  C9  UNL     1     -34.344  17.926  -5.127  1.00 20.00     0.012 C 
HETATM    9  C10 UNL     1     -32.995  16.571  -2.921  1.00 20.00     0.024 C 
ENDROOT
BRANCH   7  10
HETATM   10  C3  UNL     1     -35.223  15.971  -2.161  1.00 20.00     0.241 C 
HETATM   11  O11 UNL     1     -35.001  16.648  -1.163  1.00 20.00    -0.306 OA
ENDBRANCH   7  10
TORSDOF 1
ENDMDL
