MODEL 1
REMARK VINA RESULT:      -4.7      0.000      0.000
REMARK  6 active torsions:
REMARK  status: ('A' for Active; 'I' for Inactive)
REMARK    1  A    between atoms: C2_2  and  C6_6 
REMARK    2  A    between atoms: C6_6  and  C11_11 
REMARK    3  A    between atoms: C7_7  and  C9_9 
REMARK    4  A    between atoms: C8_8  and  C11_11 
REMARK    5  A    between atoms: C9_9  and  C10_10 
REMARK    6  A    between atoms: C10_10  and  C11_11 
ROOT
HETATM    1  C11 UNL     1     -32.900   6.242   3.312  1.00 20.00    -0.011 C 
ENDROOT
BRANCH   1   2
HETATM    2  C6  UNL     1     -34.247   6.549   4.013  1.00 20.00     0.037 C 
BRANCH   2   3
HETATM    3  C2  UNL     1     -34.247   6.342   5.511  1.00 20.00    -0.093 C 
HETATM    4  C1  UNL     1     -33.702   7.244   6.343  1.00 20.00     0.014 C 
HETATM    5  C3  UNL     1     -34.841   5.063   6.029  1.00 20.00     0.042 C 
ENDBRANCH   2   3
ENDBRANCH   1   2
BRANCH   1   6
HETATM    6  C8  UNL     1     -33.074   5.178   2.205  1.00 20.00     0.000 C 
HETATM    7  C5  UNL     1     -33.718   3.885   2.689  1.00 20.00     0.005 C 
ENDBRANCH   1   6
BRANCH   1   8
HETATM    8  C10 UNL     1     -32.230   7.550   2.825  1.00 20.00     0.005 C 
BRANCH   8   9
HETATM    9  C9  UNL     1     -32.175   7.730   1.304  1.00 20.00     0.000 C 
BRANCH   9  10
HETATM   10  C7  UNL     1     -32.881   9.001   0.823  1.00 20.00    -0.005 C 
HETATM   11  C4  UNL     1     -33.546   8.849  -0.537  1.00 20.00     0.005 C 
ENDBRANCH   9  10
ENDBRANCH   8   9
ENDBRANCH   1   8
TORSDOF 6
ENDMDL
MODEL 2
REMARK VINA RESULT:      -4.2      0.742      4.685
REMARK  6 active torsions:
REMARK  status: ('A' for Active; 'I' for Inactive)
REMARK    1  A    between atoms: C2_2  and  C6_6 
REMARK    2  A    between atoms: C6_6  and  C11_11 
REMARK    3  A    between atoms: C7_7  and  C9_9 
REMARK    4  A    between atoms: C8_8  and  C11_11 
REMARK    5  A    between atoms: C9_9  and  C10_10 
REMARK    6  A    between atoms: C10_10  and  C11_11 
ROOT
HETATM    1  C11 UNL     1     -33.042   6.690   2.588  1.00 20.00    -0.011 C 
ENDROOT
BRANCH   1   2
HETATM    2  C6  UNL     1     -32.137   7.538   1.659  1.00 20.00     0.037 C 
BRANCH   2   3
HETATM    3  C2  UNL     1     -32.862   8.597   0.858  1.00 20.00    -0.093 C 
HETATM    4  C1  UNL     1     -33.131   9.806   1.375  1.00 20.00     0.014 C 
HETATM    5  C3  UNL     1     -33.309   8.224  -0.527  1.00 20.00     0.042 C 
ENDBRANCH   2   3
ENDBRANCH   1   2
BRANCH   1   6
HETATM    6  C8  UNL     1     -32.950   5.188   2.238  1.00 20.00     0.000 C 
HETATM    7  C5  UNL     1     -33.922   4.312   3.019  1.00 20.00     0.005 C 
ENDBRANCH   1   6
BRANCH   1   8
HETATM    8  C10 UNL     1     -32.746   7.008   4.074  1.00 20.00     0.005 C 
BRANCH   8   9
HETATM    9  C9  UNL     1     -33.975   7.318   4.935  1.00 20.00     0.000 C 
BRANCH   9  10
HETATM   10  C7  UNL     1     -34.047   6.469   6.207  1.00 20.00    -0.005 C 
HETATM   11  C4  UNL     1     -34.850   5.187   6.039  1.00 20.00     0.005 C 
ENDBRANCH   9  10
ENDBRANCH   8   9
ENDBRANCH   1   8
TORSDOF 6
ENDMDL
MODEL 3
REMARK VINA RESULT:      -4.0     10.891     12.355
REMARK  6 active torsions:
REMARK  status: ('A' for Active; 'I' for Inactive)
REMARK    1  A    between atoms: C2_2  and  C6_6 
REMARK    2  A    between atoms: C6_6  and  C11_11 
REMARK    3  A    between atoms: C7_7  and  C9_9 
REMARK    4  A    between atoms: C8_8  and  C11_11 
REMARK    5  A    between atoms: C9_9  and  C10_10 
REMARK    6  A    between atoms: C10_10  and  C11_11 
ROOT
HETATM    1  C11 UNL     1     -34.081  17.446  -1.936  1.00 20.00    -0.011 C 
ENDROOT
BRANCH   1   2
HETATM    2  C6  UNL     1     -33.124  16.517  -2.724  1.00 20.00     0.037 C 
BRANCH   2   3
HETATM    3  C2  UNL     1     -33.720  15.901  -3.971  1.00 20.00    -0.093 C 
HETATM    4  C1  UNL     1     -33.519  14.610  -4.279  1.00 20.00     0.014 C 
HETATM    5  C3  UNL     1     -34.507  16.805  -4.875  1.00 20.00     0.042 C 
ENDBRANCH   2   3
ENDBRANCH   1   2
BRANCH   1   6
HETATM    6  C8  UNL     1     -35.157  16.632  -1.182  1.00 20.00     0.000 C 
HETATM    7  C5  UNL     1     -35.465  17.160   0.213  1.00 20.00     0.005 C 
ENDBRANCH   1   6
BRANCH   1   8
HETATM    8  C10 UNL     1     -33.277  18.412  -1.031  1.00 20.00     0.005 C 
BRANCH   8   9
HETATM    9  C9  UNL     1     -31.753  18.298  -1.144  1.00 20.00     0.000 C 
BRANCH   9  10
HETATM   10  C7  UNL     1     -31.042  18.376   0.211  1.00 20.00    -0.005 C 
HETATM   11  C4  UNL     1     -31.995  18.392   1.397  1.00 20.00     0.005 C 
ENDBRANCH   9  10
ENDBRANCH   8   9
ENDBRANCH   1   8
TORSDOF 6
ENDMDL
MODEL 4
REMARK VINA RESULT:      -3.9     10.912     11.833
REMARK  6 active torsions:
REMARK  status: ('A' for Active; 'I' for Inactive)
REMARK    1  A    between atoms: C2_2  and  C6_6 
REMARK    2  A    between atoms: C6_6  and  C11_11 
REMARK    3  A    between atoms: C7_7  and  C9_9 
REMARK    4  A    between atoms: C8_8  and  C11_11 
REMARK    5  A    between atoms: C9_9  and  C10_10 
REMARK    6  A    between atoms: C10_10  and  C11_11 
ROOT
HETATM    1  C11 UNL     1     -33.673  16.460  -2.280  1.00 20.00    -0.011 C 
ENDROOT
BRANCH   1   2
HETATM    2  C6  UNL     1     -33.271  17.941  -2.066  1.00 20.00     0.037 C 
BRANCH   2   3
HETATM    3  C2  UNL     1     -32.616  18.237  -0.735  1.00 20.00    -0.093 C 
HETATM    4  C1  UNL     1     -31.281  18.273  -0.604  1.00 20.00     0.014 C 
HETATM    5  C3  UNL     1     -33.521  18.444   0.446  1.00 20.00     0.042 C 
ENDBRANCH   2   3
ENDBRANCH   1   2
BRANCH   1   6
HETATM    6  C8  UNL     1     -35.137  16.210  -1.856  1.00 20.00     0.000 C 
HETATM    7  C5  UNL     1     -36.119  17.245  -2.389  1.00 20.00     0.005 C 
ENDBRANCH   1   6
BRANCH   1   8
HETATM    8  C10 UNL     1     -33.354  16.015  -3.729  1.00 20.00     0.005 C 
BRANCH   8   9
HETATM    9  C9  UNL     1     -33.828  14.606  -4.099  1.00 20.00     0.000 C 
BRANCH   9  10
HETATM   10  C7  UNL     1     -35.034  14.606  -5.044  1.00 20.00    -0.005 C 
HETATM   11  C4  UNL     1     -36.193  13.754  -4.552  1.00 20.00     0.005 C 
ENDBRANCH   9  10
ENDBRANCH   8   9
ENDBRANCH   1   8
TORSDOF 6
ENDMDL
MODEL 5
REMARK VINA RESULT:      -3.9     10.662     12.269
REMARK  6 active torsions:
REMARK  status: ('A' for Active; 'I' for Inactive)
REMARK    1  A    between atoms: C2_2  and  C6_6 
REMARK    2  A    between atoms: C6_6  and  C11_11 
REMARK    3  A    between atoms: C7_7  and  C9_9 
REMARK    4  A    between atoms: C8_8  and  C11_11 
REMARK    5  A    between atoms: C9_9  and  C10_10 
REMARK    6  A    between atoms: C10_10  and  C11_11 
ROOT
HETATM    1  C11 UNL     1     -34.343  17.467  -2.195  1.00 20.00    -0.011 C 
ENDROOT
BRANCH   1   2
HETATM    2  C6  UNL     1     -32.816  17.503  -1.937  1.00 20.00     0.037 C 
BRANCH   2   3
HETATM    3  C2  UNL     1     -32.402  18.203  -0.661  1.00 20.00    -0.093 C 
HETATM    4  C1  UNL     1     -31.109  18.373  -0.342  1.00 20.00     0.014 C 
HETATM    5  C3  UNL     1     -33.498  18.662   0.257  1.00 20.00     0.042 C 
ENDBRANCH   2   3
ENDBRANCH   1   2
BRANCH   1   6
HETATM    6  C8  UNL     1     -34.699  18.146  -3.537  1.00 20.00     0.000 C 
HETATM    7  C5  UNL     1     -33.487  18.549  -4.365  1.00 20.00     0.005 C 
ENDBRANCH   1   6
BRANCH   1   8
HETATM    8  C10 UNL     1     -34.883  16.022  -2.060  1.00 20.00     0.005 C 
BRANCH   8   9
HETATM    9  C9  UNL     1     -35.393  15.390  -3.359  1.00 20.00     0.000 C 
BRANCH   9  10
HETATM   10  C7  UNL     1     -34.524  14.225  -3.843  1.00 20.00    -0.005 C 
HETATM   11  C4  UNL     1     -33.169  14.660  -4.382  1.00 20.00     0.005 C 
ENDBRANCH   9  10
ENDBRANCH   8   9
ENDBRANCH   1   8
TORSDOF 6
ENDMDL
MODEL 6
REMARK VINA RESULT:      -3.9     10.700     11.863
REMARK  6 active torsions:
REMARK  status: ('A' for Active; 'I' for Inactive)
REMARK    1  A    between atoms: C2_2  and  C6_6 
REMARK    2  A    between atoms: C6_6  and  C11_11 
REMARK    3  A    between atoms: C7_7  and  C9_9 
REMARK    4  A    between atoms: C8_8  and  C11_11 
REMARK    5  A    between atoms: C9_9  and  C10_10 
REMARK    6  A    between atoms: C10_10  and  C11_11 
ROOT
HETATM    1  C11 UNL     1     -34.766  17.227  -0.783  1.00 20.00    -0.011 C 
ENDROOT
BRANCH   1   2
HETATM    2  C6  UNL     1     -33.712  18.346  -0.981  1.00 20.00     0.037 C 
BRANCH   2   3
HETATM    3  C2  UNL     1     -32.615  18.378   0.060  1.00 20.00    -0.093 C 
HETATM    4  C1  UNL     1     -32.894  18.461   1.370  1.00 20.00     0.014 C 
HETATM    5  C3  UNL     1     -31.197  18.360  -0.436  1.00 20.00     0.042 C 
ENDBRANCH   2   3
ENDBRANCH   1   2
BRANCH   1   6
HETATM    6  C8  UNL     1     -36.164  17.820  -0.498  1.00 20.00     0.000 C 
HETATM    7  C5  UNL     1     -36.536  17.840   0.979  1.00 20.00     0.005 C 
ENDBRANCH   1   6
BRANCH   1   8
HETATM    8  C10 UNL     1     -34.735  16.236  -1.972  1.00 20.00     0.005 C 
BRANCH   8   9
HETATM    9  C9  UNL     1     -33.475  16.296  -2.843  1.00 20.00     0.000 C 
BRANCH   9  10
HETATM   10  C7  UNL     1     -33.450  15.226  -3.939  1.00 20.00    -0.005 C 
HETATM   11  C4  UNL     1     -34.615  14.251  -3.864  1.00 20.00     0.005 C 
ENDBRANCH   9  10
ENDBRANCH   8   9
ENDBRANCH   1   8
TORSDOF 6
ENDMDL
MODEL 7
REMARK VINA RESULT:      -3.9     11.042     12.502
REMARK  6 active torsions:
REMARK  status: ('A' for Active; 'I' for Inactive)
REMARK    1  A    between atoms: C2_2  and  C6_6 
REMARK    2  A    between atoms: C6_6  and  C11_11 
REMARK    3  A    between atoms: C7_7  and  C9_9 
REMARK    4  A    between atoms: C8_8  and  C11_11 
REMARK    5  A    between atoms: C9_9  and  C10_10 
REMARK    6  A    between atoms: C10_10  and  C11_11 
ROOT
HETATM    1  C11 UNL     1     -32.867  18.007  -1.093  1.00 20.00    -0.011 C 
ENDROOT
BRANCH   1   2
HETATM    2  C6  UNL     1     -33.138  17.652  -2.576  1.00 20.00     0.037 C 
BRANCH   2   3
HETATM    3  C2  UNL     1     -33.837  16.329  -2.797  1.00 20.00    -0.093 C 
HETATM    4  C1  UNL     1     -34.934  15.992  -2.102  1.00 20.00     0.014 C 
HETATM    5  C3  UNL     1     -33.226  15.388  -3.796  1.00 20.00     0.042 C 
ENDBRANCH   2   3
ENDBRANCH   1   2
BRANCH   1   6
HETATM    6  C8  UNL     1     -31.354  18.173  -0.825  1.00 20.00     0.000 C 
HETATM    7  C5  UNL     1     -31.013  18.467   0.630  1.00 20.00     0.005 C 
ENDBRANCH   1   6
BRANCH   1   8
HETATM    8  C10 UNL     1     -33.718  19.225  -0.661  1.00 20.00     0.005 C 
BRANCH   8   9
HETATM    9  C9  UNL     1     -34.952  18.895   0.186  1.00 20.00     0.000 C 
BRANCH   9  10
HETATM   10  C7  UNL     1     -34.696  17.790   1.215  1.00 20.00    -0.005 C 
HETATM   11  C4  UNL     1     -34.184  18.309   2.551  1.00 20.00     0.005 C 
ENDBRANCH   9  10
ENDBRANCH   8   9
ENDBRANCH   1   8
TORSDOF 6
ENDMDL
MODEL 8
REMARK VINA RESULT:      -3.9     10.764     11.730
REMARK  6 active torsions:
REMARK  status: ('A' for Active; 'I' for Inactive)
REMARK    1  A    between atoms: C2_2  and  C6_6 
REMARK    2  A    between atoms: C6_6  and  C11_11 
REMARK    3  A    between atoms: C7_7  and  C9_9 
REMARK    4  A    between atoms: C8_8  and  C11_11 
REMARK    5  A    between atoms: C9_9  and  C10_10 
REMARK    6  A    between atoms: C10_10  and  C11_11 
ROOT
HETATM    1  C11 UNL     1     -34.781  15.579  -2.861  1.00 20.00    -0.011 C 
ENDROOT
BRANCH   1   2
HETATM    2  C6  UNL     1     -35.820  15.801  -3.989  1.00 20.00     0.037 C 
BRANCH   2   3
HETATM    3  C2  UNL     1     -36.711  14.612  -4.276  1.00 20.00    -0.093 C 
HETATM    4  C1  UNL     1     -36.199  13.413  -4.592  1.00 20.00     0.014 C 
HETATM    5  C3  UNL     1     -38.195  14.841  -4.239  1.00 20.00     0.042 C 
ENDBRANCH   2   3
ENDBRANCH   1   2
BRANCH   1   6
HETATM    6  C8  UNL     1     -33.340  15.790  -3.378  1.00 20.00     0.000 C 
HETATM    7  C5  UNL     1     -32.869  14.712  -4.345  1.00 20.00     0.005 C 
ENDBRANCH   1   6
BRANCH   1   8
HETATM    8  C10 UNL     1     -35.135  16.436  -1.621  1.00 20.00     0.005 C 
BRANCH   8   9
HETATM    9  C9  UNL     1     -34.064  17.449  -1.198  1.00 20.00     0.000 C 
BRANCH   9  10
HETATM   10  C7  UNL     1     -34.297  18.019   0.204  1.00 20.00    -0.005 C 
HETATM   11  C4  UNL     1     -35.520  17.443   0.901  1.00 20.00     0.005 C 
ENDBRANCH   9  10
ENDBRANCH   8   9
ENDBRANCH   1   8
TORSDOF 6
ENDMDL
MODEL 9
REMARK VINA RESULT:      -3.8     10.885     12.453
REMARK  6 active torsions:
REMARK  status: ('A' for Active; 'I' for Inactive)
REMARK    1  A    between atoms: C2_2  and  C6_6 
REMARK    2  A    between atoms: C6_6  and  C11_11 
REMARK    3  A    between atoms: C7_7  and  C9_9 
REMARK    4  A    between atoms: C8_8  and  C11_11 
REMARK    5  A    between atoms: C9_9  and  C10_10 
REMARK    6  A    between atoms: C10_10  and  C11_11 
ROOT
HETATM    1  C11 UNL     1     -33.666  17.180  -2.697  1.00 20.00    -0.011 C 
ENDROOT
BRANCH   1   2
HETATM    2  C6  UNL     1     -34.432  15.846  -2.515  1.00 20.00     0.037 C 
BRANCH   2   3
HETATM    3  C2  UNL     1     -34.299  14.873  -3.666  1.00 20.00    -0.093 C 
HETATM    4  C1  UNL     1     -33.133  14.704  -4.310  1.00 20.00     0.014 C 
HETATM    5  C3  UNL     1     -35.537  14.136  -4.089  1.00 20.00     0.042 C 
ENDBRANCH   2   3
ENDBRANCH   1   2
BRANCH   1   6
HETATM    6  C8  UNL     1     -34.475  18.176  -3.557  1.00 20.00     0.000 C 
HETATM    7  C5  UNL     1     -33.893  18.409  -4.945  1.00 20.00     0.005 C 
ENDBRANCH   1   6
BRANCH   1   8
HETATM    8  C10 UNL     1     -33.228  17.747  -1.325  1.00 20.00     0.005 C 
BRANCH   8   9
HETATM    9  C9  UNL     1     -31.957  18.604  -1.346  1.00 20.00     0.000 C 
BRANCH   9  10
HETATM   10  C7  UNL     1     -31.013  18.307  -0.177  1.00 20.00    -0.005 C 
HETATM   11  C4  UNL     1     -31.693  18.358   1.183  1.00 20.00     0.005 C 
ENDBRANCH   9  10
ENDBRANCH   8   9
ENDBRANCH   1   8
TORSDOF 6
ENDMDL
