MODEL 1
REMARK VINA RESULT:      -4.9      0.000      0.000
REMARK  1 active torsions:
REMARK  status: ('A' for Active; 'I' for Inactive)
REMARK    1  A    between atoms: C6_6  and  C10_10 
ROOT
HETATM    1  C1  UNL     1     -36.148  13.726  -4.735  1.00 20.00     0.142 A 
HETATM    2  C2  UNL     1     -37.048  16.802  -5.034  1.00 20.00     0.006 C 
HETATM    3  C3  UNL     1     -35.659  16.199  -5.279  1.00 20.00     0.019 C 
HETATM    4  C4  UNL     1     -37.040  14.622  -4.035  1.00 20.00     0.076 A 
HETATM    5  C5  UNL     1     -37.954  15.590  -4.746  1.00 20.00    -0.006 C 
HETATM    6  C6  UNL     1     -35.605  15.015  -4.335  1.00 20.00     0.034 A 
HETATM    7  C7  UNL     1     -39.176  15.968  -3.926  1.00 20.00     0.011 C 
HETATM    8  O11 UNL     1     -35.802  12.581  -4.530  1.00 20.00    -0.297 OA
ENDROOT
BRANCH   6   9
HETATM    9  C10 UNL     1     -34.634  15.130  -3.197  1.00 20.00    -0.006 C 
HETATM   10  C8  UNL     1     -33.239  15.551  -3.687  1.00 20.00     0.011 C 
HETATM   11  C9  UNL     1     -35.127  16.123  -2.133  1.00 20.00     0.011 C 
ENDBRANCH   6   9
TORSDOF 1
ENDMDL
MODEL 2
REMARK VINA RESULT:      -4.7      1.584      3.917
REMARK  1 active torsions:
REMARK  status: ('A' for Active; 'I' for Inactive)
REMARK    1  A    between atoms: C6_6  and  C10_10 
ROOT
HETATM    1  C1  UNL     1     -33.602  14.884  -3.818  1.00 20.00     0.142 A 
HETATM    2  C2  UNL     1     -34.308  17.258  -1.762  1.00 20.00     0.006 C 
HETATM    3  C3  UNL     1     -35.030  15.916  -1.935  1.00 20.00     0.019 C 
HETATM    4  C4  UNL     1     -33.578  16.329  -3.848  1.00 20.00     0.076 A 
HETATM    5  C5  UNL     1     -33.085  17.165  -2.693  1.00 20.00    -0.006 C 
HETATM    6  C6  UNL     1     -34.813  15.571  -3.395  1.00 20.00     0.034 A 
HETATM    7  C7  UNL     1     -32.582  18.534  -3.119  1.00 20.00     0.011 C 
HETATM    8  O11 UNL     1     -33.381  14.039  -4.661  1.00 20.00    -0.297 OA
ENDROOT
BRANCH   6   9
HETATM    9  C10 UNL     1     -36.036  15.597  -4.262  1.00 20.00    -0.006 C 
HETATM   10  C8  UNL     1     -36.702  14.214  -4.338  1.00 20.00     0.011 C 
HETATM   11  C9  UNL     1     -37.057  16.633  -3.766  1.00 20.00     0.011 C 
ENDBRANCH   6   9
TORSDOF 1
ENDMDL
MODEL 3
REMARK VINA RESULT:      -4.6      1.464      3.247
REMARK  1 active torsions:
REMARK  status: ('A' for Active; 'I' for Inactive)
REMARK    1  A    between atoms: C6_6  and  C10_10 
ROOT
HETATM    1  C1  UNL     1     -35.869  13.729  -4.309  1.00 20.00     0.142 A 
HETATM    2  C2  UNL     1     -35.661  16.918  -3.922  1.00 20.00     0.006 C 
HETATM    3  C3  UNL     1     -36.610  16.141  -4.842  1.00 20.00     0.019 C 
HETATM    4  C4  UNL     1     -34.806  14.684  -4.092  1.00 20.00     0.076 A 
HETATM    5  C5  UNL     1     -34.921  15.831  -3.119  1.00 20.00    -0.006 C 
HETATM    6  C6  UNL     1     -35.835  14.886  -5.190  1.00 20.00     0.034 A 
HETATM    7  C7  UNL     1     -33.576  16.314  -2.604  1.00 20.00     0.011 C 
HETATM    8  O11 UNL     1     -35.873  12.533  -4.513  1.00 20.00    -0.297 OA
ENDROOT
BRANCH   6   9
HETATM    9  C10 UNL     1     -35.400  14.763  -6.620  1.00 20.00    -0.006 C 
HETATM   10  C8  UNL     1     -36.241  15.656  -7.545  1.00 20.00     0.011 C 
HETATM   11  C9  UNL     1     -33.911  15.105  -6.789  1.00 20.00     0.011 C 
ENDBRANCH   6   9
TORSDOF 1
ENDMDL
MODEL 4
REMARK VINA RESULT:      -4.6      1.253      3.578
REMARK  1 active torsions:
REMARK  status: ('A' for Active; 'I' for Inactive)
REMARK    1  A    between atoms: C6_6  and  C10_10 
ROOT
HETATM    1  C1  UNL     1     -36.737  14.360  -4.006  1.00 20.00     0.142 A 
HETATM    2  C2  UNL     1     -34.159  15.845  -2.778  1.00 20.00     0.006 C 
HETATM    3  C3  UNL     1     -35.637  16.141  -2.499  1.00 20.00     0.019 C 
HETATM    4  C4  UNL     1     -35.431  14.748  -4.489  1.00 20.00     0.076 A 
HETATM    5  C5  UNL     1     -34.173  14.590  -3.670  1.00 20.00    -0.006 C 
HETATM    6  C6  UNL     1     -36.337  15.741  -3.782  1.00 20.00     0.034 A 
HETATM    7  C7  UNL     1     -32.919  14.474  -4.520  1.00 20.00     0.011 C 
HETATM    8  O11 UNL     1     -37.698  13.853  -4.546  1.00 20.00    -0.297 OA
ENDROOT
BRANCH   6   9
HETATM    9  C10 UNL     1     -36.938  16.863  -4.576  1.00 20.00    -0.006 C 
HETATM   10  C8  UNL     1     -38.373  17.170  -4.119  1.00 20.00     0.011 C 
HETATM   11  C9  UNL     1     -36.085  18.138  -4.486  1.00 20.00     0.011 C 
ENDBRANCH   6   9
TORSDOF 1
ENDMDL
MODEL 5
REMARK VINA RESULT:      -4.5      2.503      3.568
REMARK  1 active torsions:
REMARK  status: ('A' for Active; 'I' for Inactive)
REMARK    1  A    between atoms: C6_6  and  C10_10 
ROOT
HETATM    1  C1  UNL     1     -34.815  16.100  -1.865  1.00 20.00     0.142 A 
HETATM    2  C2  UNL     1     -33.745  14.535  -4.466  1.00 20.00     0.006 C 
HETATM    3  C3  UNL     1     -33.019  15.611  -3.650  1.00 20.00     0.019 C 
HETATM    4  C4  UNL     1     -35.392  15.611  -3.096  1.00 20.00     0.076 A 
HETATM    5  C5  UNL     1     -35.046  14.266  -3.687  1.00 20.00    -0.006 C 
HETATM    6  C6  UNL     1     -34.141  16.470  -3.100  1.00 20.00     0.034 A 
HETATM    7  C7  UNL     1     -36.143  13.705  -4.576  1.00 20.00     0.011 C 
HETATM    8  O11 UNL     1     -35.267  16.746  -0.942  1.00 20.00    -0.297 OA
ENDROOT
BRANCH   6   9
HETATM    9  C10 UNL     1     -34.222  17.865  -3.643  1.00 20.00    -0.006 C 
HETATM   10  C8  UNL     1     -33.024  18.716  -3.193  1.00 20.00     0.011 C 
HETATM   11  C9  UNL     1     -34.310  17.869  -5.177  1.00 20.00     0.011 C 
ENDBRANCH   6   9
TORSDOF 1
ENDMDL
MODEL 6
REMARK VINA RESULT:      -4.5      1.639      2.895
REMARK  1 active torsions:
REMARK  status: ('A' for Active; 'I' for Inactive)
REMARK    1  A    between atoms: C6_6  and  C10_10 
ROOT
HETATM    1  C1  UNL     1     -36.635  14.033  -4.654  1.00 20.00     0.142 A 
HETATM    2  C2  UNL     1     -33.636  14.923  -5.415  1.00 20.00     0.006 C 
HETATM    3  C3  UNL     1     -34.166  14.470  -4.050  1.00 20.00     0.019 C 
HETATM    4  C4  UNL     1     -36.030  15.019  -5.521  1.00 20.00     0.076 A 
HETATM    5  C5  UNL     1     -34.823  14.728  -6.378  1.00 20.00    -0.006 C 
HETATM    6  C6  UNL     1     -35.621  14.894  -4.064  1.00 20.00     0.034 A 
HETATM    7  C7  UNL     1     -34.727  15.627  -7.598  1.00 20.00     0.011 C 
HETATM    8  O11 UNL     1     -37.787  13.790  -4.362  1.00 20.00    -0.297 OA
ENDROOT
BRANCH   6   9
HETATM    9  C10 UNL     1     -35.991  15.992  -3.112  1.00 20.00    -0.006 C 
HETATM   10  C8  UNL     1     -34.996  16.084  -1.944  1.00 20.00     0.011 C 
HETATM   11  C9  UNL     1     -36.076  17.351  -3.823  1.00 20.00     0.011 C 
ENDBRANCH   6   9
TORSDOF 1
ENDMDL
MODEL 7
REMARK VINA RESULT:      -4.4     10.732     11.864
REMARK  1 active torsions:
REMARK  status: ('A' for Active; 'I' for Inactive)
REMARK    1  A    between atoms: C6_6  and  C10_10 
ROOT
HETATM    1  C1  UNL     1     -32.960   5.341   2.475  1.00 20.00     0.142 A 
HETATM    2  C2  UNL     1     -31.946   8.386   2.729  1.00 20.00     0.006 C 
HETATM    3  C3  UNL     1     -31.934   7.297   3.808  1.00 20.00     0.019 C 
HETATM    4  C4  UNL     1     -33.387   6.626   1.969  1.00 20.00     0.076 A 
HETATM    5  C5  UNL     1     -32.423   7.666   1.453  1.00 20.00    -0.006 C 
HETATM    6  C6  UNL     1     -33.112   6.413   3.447  1.00 20.00     0.034 A 
HETATM    7  C7  UNL     1     -33.054   8.622   0.455  1.00 20.00     0.011 C 
HETATM    8  O11 UNL     1     -33.430   4.226   2.392  1.00 20.00    -0.297 OA
ENDROOT
BRANCH   6   9
HETATM    9  C10 UNL     1     -34.264   6.435   4.408  1.00 20.00    -0.006 C 
HETATM   10  C8  UNL     1     -34.901   5.045   4.555  1.00 20.00     0.011 C 
HETATM   11  C9  UNL     1     -33.836   6.954   5.790  1.00 20.00     0.011 C 
ENDBRANCH   6   9
TORSDOF 1
ENDMDL
MODEL 8
REMARK VINA RESULT:      -4.4      1.273      1.368
REMARK  1 active torsions:
REMARK  status: ('A' for Active; 'I' for Inactive)
REMARK    1  A    between atoms: C6_6  and  C10_10 
ROOT
HETATM    1  C1  UNL     1     -34.857  14.941  -5.014  1.00 20.00     0.142 A 
HETATM    2  C2  UNL     1     -37.327  16.839  -4.203  1.00 20.00     0.006 C 
HETATM    3  C3  UNL     1     -35.840  17.208  -4.277  1.00 20.00     0.019 C 
HETATM    4  C4  UNL     1     -36.094  14.784  -4.284  1.00 20.00     0.076 A 
HETATM    5  C5  UNL     1     -37.397  15.396  -4.736  1.00 20.00    -0.006 C 
HETATM    6  C6  UNL     1     -35.127  15.908  -3.962  1.00 20.00     0.034 A 
HETATM    7  C7  UNL     1     -38.617  14.652  -4.220  1.00 20.00     0.011 C 
HETATM    8  O11 UNL     1     -33.929  14.190  -5.232  1.00 20.00    -0.297 OA
ENDROOT
BRANCH   6   9
HETATM    9  C10 UNL     1     -34.380  15.871  -2.662  1.00 20.00    -0.006 C 
HETATM   10  C8  UNL     1     -33.015  16.566  -2.775  1.00 20.00     0.011 C 
HETATM   11  C9  UNL     1     -35.193  16.515  -1.526  1.00 20.00     0.011 C 
ENDBRANCH   6   9
TORSDOF 1
ENDMDL
MODEL 9
REMARK VINA RESULT:      -4.3      3.350      5.459
REMARK  1 active torsions:
REMARK  status: ('A' for Active; 'I' for Inactive)
REMARK    1  A    between atoms: C6_6  and  C10_10 
ROOT
HETATM    1  C1  UNL     1     -34.858  17.750  -0.666  1.00 20.00     0.142 A 
HETATM    2  C2  UNL     1     -32.372  18.936  -2.331  1.00 20.00     0.006 C 
HETATM    3  C3  UNL     1     -33.730  18.473  -2.870  1.00 20.00     0.019 C 
HETATM    4  C4  UNL     1     -33.418  17.653  -0.596  1.00 20.00     0.076 A 
HETATM    5  C5  UNL     1     -32.506  18.838  -0.800  1.00 20.00    -0.006 C 
HETATM    6  C6  UNL     1     -34.162  17.396  -1.894  1.00 20.00     0.034 A 
HETATM    7  C7  UNL     1     -31.159  18.679  -0.114  1.00 20.00     0.011 C 
HETATM    8  O11 UNL     1     -35.751  17.219  -0.038  1.00 20.00    -0.297 OA
ENDROOT
BRANCH   6   9
HETATM    9  C10 UNL     1     -34.206  16.000  -2.439  1.00 20.00    -0.006 C 
HETATM   10  C8  UNL     1     -35.595  15.657  -3.000  1.00 20.00     0.011 C 
HETATM   11  C9  UNL     1     -33.143  15.786  -3.529  1.00 20.00     0.011 C 
ENDBRANCH   6   9
TORSDOF 1
ENDMDL
