MODEL 1
REMARK VINA RESULT:      -5.0      0.000      0.000
REMARK  1 active torsions:
REMARK  status: ('A' for Active; 'I' for Inactive)
REMARK    1  A    between atoms: C4_4  and  C6_6 
ROOT
HETATM    1  C1  UNL     1     -34.008   4.322   4.932  1.00 20.00     0.062 C 
HETATM    2  C2  UNL     1     -33.845   6.442   5.026  1.00 20.00     0.062 C 
HETATM    3  C3  UNL     1     -35.552   5.545   4.127  1.00 20.00     0.062 C 
HETATM    4  C4  UNL     1     -34.004   5.440   3.810  1.00 20.00     0.067 C 
HETATM    5  C5  UNL     1     -34.907   5.433   5.531  1.00 20.00     0.106 C 
HETATM    6  F7  UNL     1     -35.521   5.427   6.703  1.00 20.00    -0.243 F 
ENDROOT
BRANCH   4   7
HETATM    7  C6  UNL     1     -33.317   5.447   2.500  1.00 20.00     0.395 C 
HETATM    8  F8  UNL     1     -34.197   5.492   1.466  1.00 20.00    -0.170 F 
HETATM    9  F9  UNL     1     -32.493   6.518   2.364  1.00 20.00    -0.170 F 
HETATM   10  F10 UNL     1     -32.554   4.337   2.321  1.00 20.00    -0.170 F 
ENDBRANCH   4   7
TORSDOF 1
ENDMDL
MODEL 2
REMARK VINA RESULT:      -5.0      0.023      1.670
REMARK  1 active torsions:
REMARK  status: ('A' for Active; 'I' for Inactive)
REMARK    1  A    between atoms: C4_4  and  C6_6 
ROOT
HETATM    1  C1  UNL     1     -33.847   6.447   5.050  1.00 20.00     0.062 C 
HETATM    2  C2  UNL     1     -35.552   5.547   4.147  1.00 20.00     0.062 C 
HETATM    3  C3  UNL     1     -34.006   4.327   4.953  1.00 20.00     0.062 C 
HETATM    4  C4  UNL     1     -34.003   5.446   3.832  1.00 20.00     0.067 C 
HETATM    5  C5  UNL     1     -34.908   5.434   5.552  1.00 20.00     0.106 C 
HETATM    6  F7  UNL     1     -35.524   5.427   6.722  1.00 20.00    -0.243 F 
ENDROOT
BRANCH   4   7
HETATM    7  C6  UNL     1     -33.315   5.455   2.523  1.00 20.00     0.395 C 
HETATM    8  F8  UNL     1     -32.549   4.346   2.344  1.00 20.00    -0.170 F 
HETATM    9  F9  UNL     1     -34.193   5.499   1.487  1.00 20.00    -0.170 F 
HETATM   10  F10 UNL     1     -32.492   6.528   2.388  1.00 20.00    -0.170 F 
ENDBRANCH   4   7
TORSDOF 1
ENDMDL
MODEL 3
REMARK VINA RESULT:      -4.5      8.563      9.679
REMARK  1 active torsions:
REMARK  status: ('A' for Active; 'I' for Inactive)
REMARK    1  A    between atoms: C4_4  and  C6_6 
ROOT
HETATM    1  C1  UNL     1     -41.285   8.039  -1.244  1.00 20.00     0.062 C 
HETATM    2  C2  UNL     1     -43.040   8.057  -0.038  1.00 20.00     0.062 C 
HETATM    3  C3  UNL     1     -41.215   7.296   0.749  1.00 20.00     0.062 C 
HETATM    4  C4  UNL     1     -42.084   6.886  -0.510  1.00 20.00     0.067 C 
HETATM    5  C5  UNL     1     -41.622   8.659   0.136  1.00 20.00     0.106 C 
HETATM    6  F7  UNL     1     -41.308   9.867   0.575  1.00 20.00    -0.243 F 
ENDROOT
BRANCH   4   7
HETATM    7  C6  UNL     1     -42.437   5.536  -1.001  1.00 20.00     0.395 C 
HETATM    8  F8  UNL     1     -41.352   4.869  -1.475  1.00 20.00    -0.170 F 
HETATM    9  F9  UNL     1     -42.978   4.764  -0.023  1.00 20.00    -0.170 F 
HETATM   10  F10 UNL     1     -43.344   5.583  -2.012  1.00 20.00    -0.170 F 
ENDBRANCH   4   7
TORSDOF 1
ENDMDL
MODEL 4
REMARK VINA RESULT:      -4.5      8.538      9.610
REMARK  1 active torsions:
REMARK  status: ('A' for Active; 'I' for Inactive)
REMARK    1  A    between atoms: C4_4  and  C6_6 
ROOT
HETATM    1  C1  UNL     1     -41.285   8.073  -1.209  1.00 20.00     0.062 C 
HETATM    2  C2  UNL     1     -43.024   8.075   0.018  1.00 20.00     0.062 C 
HETATM    3  C3  UNL     1     -41.190   7.302   0.772  1.00 20.00     0.062 C 
HETATM    4  C4  UNL     1     -42.075   6.910  -0.481  1.00 20.00     0.067 C 
HETATM    5  C5  UNL     1     -41.604   8.674   0.183  1.00 20.00     0.106 C 
HETATM    6  F7  UNL     1     -41.283   9.875   0.635  1.00 20.00    -0.243 F 
ENDROOT
BRANCH   4   7
HETATM    7  C6  UNL     1     -42.435   5.567  -0.986  1.00 20.00     0.395 C 
HETATM    8  F8  UNL     1     -43.351   5.630  -1.989  1.00 20.00    -0.170 F 
HETATM    9  F9  UNL     1     -41.357   4.903  -1.479  1.00 20.00    -0.170 F 
HETATM   10  F10 UNL     1     -42.970   4.784  -0.013  1.00 20.00    -0.170 F 
ENDBRANCH   4   7
TORSDOF 1
ENDMDL
MODEL 5
REMARK VINA RESULT:      -4.4     16.512     17.594
REMARK  1 active torsions:
REMARK  status: ('A' for Active; 'I' for Inactive)
REMARK    1  A    between atoms: C4_4  and  C6_6 
ROOT
HETATM    1  C1  UNL     1     -25.003  18.450  10.462  1.00 20.00     0.062 C 
HETATM    2  C2  UNL     1     -24.545  16.457  11.052  1.00 20.00     0.062 C 
HETATM    3  C3  UNL     1     -24.004  18.089  12.306  1.00 20.00     0.062 C 
HETATM    4  C4  UNL     1     -23.636  17.730  10.808  1.00 20.00     0.067 C 
HETATM    5  C5  UNL     1     -25.351  17.604  11.714  1.00 20.00     0.106 C 
HETATM    6  F7  UNL     1     -26.518  17.519  12.330  1.00 20.00    -0.243 F 
ENDROOT
BRANCH   4   7
HETATM    7  C6  UNL     1     -22.330  17.824  10.119  1.00 20.00     0.395 C 
HETATM    8  F8  UNL     1     -22.119  16.771   9.286  1.00 20.00    -0.170 F 
HETATM    9  F9  UNL     1     -22.234  18.949   9.363  1.00 20.00    -0.170 F 
HETATM   10  F10 UNL     1     -21.293  17.847  10.996  1.00 20.00    -0.170 F 
ENDBRANCH   4   7
TORSDOF 1
ENDMDL
MODEL 6
REMARK VINA RESULT:      -4.4      8.511      9.597
REMARK  1 active torsions:
REMARK  status: ('A' for Active; 'I' for Inactive)
REMARK    1  A    between atoms: C4_4  and  C6_6 
ROOT
HETATM    1  C1  UNL     1     -41.167   5.665  -1.111  1.00 20.00     0.062 C 
HETATM    2  C2  UNL     1     -42.669   5.535   0.391  1.00 20.00     0.062 C 
HETATM    3  C3  UNL     1     -43.090   6.512  -1.452  1.00 20.00     0.062 C 
HETATM    4  C4  UNL     1     -41.996   6.770  -0.336  1.00 20.00     0.067 C 
HETATM    5  C5  UNL     1     -42.605   5.085  -1.090  1.00 20.00     0.106 C 
HETATM    6  F7  UNL     1     -43.018   3.939  -1.604  1.00 20.00    -0.243 F 
ENDROOT
BRANCH   4   7
HETATM    7  C6  UNL     1     -41.534   8.052   0.239  1.00 20.00     0.395 C 
HETATM    8  F8  UNL     1     -40.772   8.757  -0.639  1.00 20.00    -0.170 F 
HETATM    9  F9  UNL     1     -42.571   8.855   0.592  1.00 20.00    -0.170 F 
HETATM   10  F10 UNL     1     -40.780   7.867   1.354  1.00 20.00    -0.170 F 
ENDBRANCH   4   7
TORSDOF 1
ENDMDL
MODEL 7
REMARK VINA RESULT:      -4.4      1.741      3.781
REMARK  1 active torsions:
REMARK  status: ('A' for Active; 'I' for Inactive)
REMARK    1  A    between atoms: C4_4  and  C6_6 
ROOT
HETATM    1  C1  UNL     1     -32.940   5.432   2.585  1.00 20.00     0.062 C 
HETATM    2  C2  UNL     1     -34.125   7.200   2.585  1.00 20.00     0.062 C 
HETATM    3  C3  UNL     1     -32.510   7.003   3.955  1.00 20.00     0.062 C 
HETATM    4  C4  UNL     1     -33.809   6.131   3.709  1.00 20.00     0.067 C 
HETATM    5  C5  UNL     1     -32.608   6.936   2.410  1.00 20.00     0.106 C 
HETATM    6  F7  UNL     1     -31.791   7.484   1.526  1.00 20.00    -0.243 F 
ENDROOT
BRANCH   4   7
HETATM    7  C6  UNL     1     -34.723   5.520   4.698  1.00 20.00     0.395 C 
HETATM    8  F8  UNL     1     -36.014   5.533   4.272  1.00 20.00    -0.170 F 
HETATM    9  F9  UNL     1     -34.406   4.224   4.952  1.00 20.00    -0.170 F 
HETATM   10  F10 UNL     1     -34.695   6.174   5.889  1.00 20.00    -0.170 F 
ENDBRANCH   4   7
TORSDOF 1
ENDMDL
MODEL 8
REMARK VINA RESULT:      -4.4     11.735     12.757
REMARK  1 active torsions:
REMARK  status: ('A' for Active; 'I' for Inactive)
REMARK    1  A    between atoms: C4_4  and  C6_6 
ROOT
HETATM    1  C1  UNL     1     -34.703  15.499  -2.691  1.00 20.00     0.062 C 
HETATM    2  C2  UNL     1     -33.363  14.712  -4.146  1.00 20.00     0.062 C 
HETATM    3  C3  UNL     1     -34.651  16.329  -4.650  1.00 20.00     0.062 C 
HETATM    4  C4  UNL     1     -34.939  14.864  -4.122  1.00 20.00     0.067 C 
HETATM    5  C5  UNL     1     -33.577  16.127  -3.552  1.00 20.00     0.106 C 
HETATM    6  F7  UNL     1     -32.651  16.987  -3.163  1.00 20.00    -0.243 F 
ENDROOT
BRANCH   4   7
HETATM    7  C6  UNL     1     -35.974  13.901  -4.557  1.00 20.00     0.395 C 
HETATM    8  F8  UNL     1     -36.080  13.847  -5.912  1.00 20.00    -0.170 F 
HETATM    9  F9  UNL     1     -35.707  12.639  -4.132  1.00 20.00    -0.170 F 
HETATM   10  F10 UNL     1     -37.204  14.226  -4.079  1.00 20.00    -0.170 F 
ENDBRANCH   4   7
TORSDOF 1
ENDMDL
MODEL 9
REMARK VINA RESULT:      -4.4     11.721     12.757
REMARK  1 active torsions:
REMARK  status: ('A' for Active; 'I' for Inactive)
REMARK    1  A    between atoms: C4_4  and  C6_6 
ROOT
HETATM    1  C1  UNL     1     -34.649  16.361  -4.618  1.00 20.00     0.062 C 
HETATM    2  C2  UNL     1     -34.650  15.502  -2.671  1.00 20.00     0.062 C 
HETATM    3  C3  UNL     1     -33.328  14.757  -4.163  1.00 20.00     0.062 C 
HETATM    4  C4  UNL     1     -34.905  14.885  -4.107  1.00 20.00     0.067 C 
HETATM    5  C5  UNL     1     -33.551  16.160  -3.544  1.00 20.00     0.106 C 
HETATM    6  F7  UNL     1     -32.629  17.028  -3.161  1.00 20.00    -0.243 F 
ENDROOT
BRANCH   4   7
HETATM    7  C6  UNL     1     -35.936  13.914  -4.533  1.00 20.00     0.395 C 
HETATM    8  F8  UNL     1     -37.166  14.236  -4.053  1.00 20.00    -0.170 F 
HETATM    9  F9  UNL     1     -36.046  13.850  -5.886  1.00 20.00    -0.170 F 
HETATM   10  F10 UNL     1     -35.661  12.656  -4.100  1.00 20.00    -0.170 F 
ENDBRANCH   4   7
TORSDOF 1
ENDMDL
