MODEL 1
REMARK VINA RESULT:      -6.0      0.000      0.000
REMARK  0 active torsions:
REMARK  status: ('A' for Active; 'I' for Inactive)
ROOT
HETATM    1  C1  UNL     1     -34.160   4.725   3.341  1.00 20.00     0.019 A 
HETATM    2  C2  UNL     1     -33.338   5.483   2.603  1.00 20.00     0.054 A 
HETATM    3  C3  UNL     1     -33.314   7.225   4.415  1.00 20.00     0.096 A 
HETATM    4  C4  UNL     1     -34.136   6.466   5.152  1.00 20.00     0.133 A 
HETATM    5  C5  UNL     1     -34.652   5.133   4.700  1.00 20.00     0.254 A 
HETATM    6  C6  UNL     1     -32.824   6.819   3.056  1.00 20.00     0.282 A 
HETATM    7  F7  UNL     1     -34.520   6.924   6.366  1.00 20.00    -0.207 F 
HETATM    8  F8  UNL     1     -34.305   4.180   5.613  1.00 20.00    -0.238 F 
HETATM    9  F9  UNL     1     -31.460   6.801   3.056  1.00 20.00    -0.197 F 
HETATM   10  F10 UNL     1     -33.174   7.771   2.145  1.00 20.00    -0.197 F 
ENDROOT
TORSDOF 0
ENDMDL
MODEL 2
REMARK VINA RESULT:      -5.8      1.368      3.617
REMARK  0 active torsions:
REMARK  status: ('A' for Active; 'I' for Inactive)
ROOT
HETATM    1  C1  UNL     1     -33.702   7.017   5.480  1.00 20.00     0.019 A 
HETATM    2  C2  UNL     1     -34.410   5.880   5.544  1.00 20.00     0.054 A 
HETATM    3  C3  UNL     1     -33.893   5.420   3.128  1.00 20.00     0.096 A 
HETATM    4  C4  UNL     1     -33.185   6.556   3.065  1.00 20.00     0.133 A 
HETATM    5  C5  UNL     1     -33.010   7.482   4.231  1.00 20.00     0.254 A 
HETATM    6  C6  UNL     1     -34.585   4.955   4.375  1.00 20.00     0.282 A 
HETATM    7  F7  UNL     1     -32.599   6.885   1.891  1.00 20.00    -0.207 F 
HETATM    8  F8  UNL     1     -31.680   7.646   4.484  1.00 20.00    -0.238 F 
HETATM    9  F9  UNL     1     -34.128   3.715   4.710  1.00 20.00    -0.197 F 
HETATM   10  F10 UNL     1     -35.915   4.795   4.121  1.00 20.00    -0.197 F 
ENDROOT
TORSDOF 0
ENDMDL
MODEL 3
REMARK VINA RESULT:      -5.5      1.140      3.339
REMARK  0 active torsions:
REMARK  status: ('A' for Active; 'I' for Inactive)
ROOT
HETATM    1  C1  UNL     1     -33.242   5.117   2.410  1.00 20.00     0.019 A 
HETATM    2  C2  UNL     1     -34.238   4.657   3.179  1.00 20.00     0.054 A 
HETATM    3  C3  UNL     1     -33.856   6.540   4.800  1.00 20.00     0.096 A 
HETATM    4  C4  UNL     1     -32.860   6.999   4.029  1.00 20.00     0.133 A 
HETATM    5  C5  UNL     1     -32.440   6.340   2.749  1.00 20.00     0.254 A 
HETATM    6  C6  UNL     1     -34.656   5.317   4.461  1.00 20.00     0.282 A 
HETATM    7  F7  UNL     1     -32.200   8.111   4.424  1.00 20.00    -0.207 F 
HETATM    8  F8  UNL     1     -32.529   7.239   1.728  1.00 20.00    -0.238 F 
HETATM    9  F9  UNL     1     -35.977   5.648   4.388  1.00 20.00    -0.197 F 
HETATM   10  F10 UNL     1     -34.564   4.419   5.483  1.00 20.00    -0.197 F 
ENDROOT
TORSDOF 0
ENDMDL
MODEL 4
REMARK VINA RESULT:      -5.3      1.371      2.576
REMARK  0 active torsions:
REMARK  status: ('A' for Active; 'I' for Inactive)
ROOT
HETATM    1  C1  UNL     1     -32.819   7.165   4.311  1.00 20.00     0.019 A 
HETATM    2  C2  UNL     1     -32.796   6.559   3.116  1.00 20.00     0.054 A 
HETATM    3  C3  UNL     1     -34.419   4.834   3.958  1.00 20.00     0.096 A 
HETATM    4  C4  UNL     1     -34.441   5.441   5.153  1.00 20.00     0.133 A 
HETATM    5  C5  UNL     1     -33.645   6.674   5.464  1.00 20.00     0.254 A 
HETATM    6  C6  UNL     1     -33.592   5.325   2.806  1.00 20.00     0.282 A 
HETATM    7  F7  UNL     1     -35.221   4.919   6.126  1.00 20.00    -0.207 F 
HETATM    8  F8  UNL     1     -34.487   7.665   5.874  1.00 20.00    -0.238 F 
HETATM    9  F9  UNL     1     -34.406   5.569   1.739  1.00 20.00    -0.197 F 
HETATM   10  F10 UNL     1     -32.749   4.333   2.400  1.00 20.00    -0.197 F 
ENDROOT
TORSDOF 0
ENDMDL
MODEL 5
REMARK VINA RESULT:      -5.3      1.514      2.295
REMARK  0 active torsions:
REMARK  status: ('A' for Active; 'I' for Inactive)
ROOT
HETATM    1  C1  UNL     1     -34.757   5.538   4.885  1.00 20.00     0.019 A 
HETATM    2  C2  UNL     1     -34.590   4.857   3.742  1.00 20.00     0.054 A 
HETATM    3  C3  UNL     1     -32.705   6.391   3.102  1.00 20.00     0.096 A 
HETATM    4  C4  UNL     1     -32.873   7.071   4.244  1.00 20.00     0.133 A 
HETATM    5  C5  UNL     1     -33.917   6.723   5.263  1.00 20.00     0.254 A 
HETATM    6  C6  UNL     1     -33.546   5.208   2.723  1.00 20.00     0.282 A 
HETATM    7  F7  UNL     1     -32.061   8.124   4.492  1.00 20.00    -0.207 F 
HETATM    8  F8  UNL     1     -33.315   6.488   6.464  1.00 20.00    -0.238 F 
HETATM    9  F9  UNL     1     -32.739   4.129   2.515  1.00 20.00    -0.197 F 
HETATM   10  F10 UNL     1     -34.148   5.447   1.523  1.00 20.00    -0.197 F 
ENDROOT
TORSDOF 0
ENDMDL
MODEL 6
REMARK VINA RESULT:      -5.2      1.154      2.505
REMARK  0 active torsions:
REMARK  status: ('A' for Active; 'I' for Inactive)
ROOT
HETATM    1  C1  UNL     1     -34.184   6.586   5.066  1.00 20.00     0.019 A 
HETATM    2  C2  UNL     1     -33.373   7.371   4.343  1.00 20.00     0.054 A 
HETATM    3  C3  UNL     1     -33.085   5.526   2.660  1.00 20.00     0.096 A 
HETATM    4  C4  UNL     1     -33.897   4.743   3.384  1.00 20.00     0.133 A 
HETATM    5  C5  UNL     1     -34.536   5.183   4.667  1.00 20.00     0.254 A 
HETATM    6  C6  UNL     1     -32.732   6.929   3.060  1.00 20.00     0.282 A 
HETATM    7  F7  UNL     1     -34.152   3.493   2.936  1.00 20.00    -0.207 F 
HETATM    8  F8  UNL     1     -35.891   5.068   4.559  1.00 20.00    -0.238 F 
HETATM    9  F9  UNL     1     -33.087   7.786   2.060  1.00 20.00    -0.197 F 
HETATM   10  F10 UNL     1     -31.377   7.040   3.169  1.00 20.00    -0.197 F 
ENDROOT
TORSDOF 0
ENDMDL
MODEL 7
REMARK VINA RESULT:      -4.9      1.182      3.240
REMARK  0 active torsions:
REMARK  status: ('A' for Active; 'I' for Inactive)
ROOT
HETATM    1  C1  UNL     1     -34.369   4.578   3.945  1.00 20.00     0.019 A 
HETATM    2  C2  UNL     1     -34.524   5.252   5.093  1.00 20.00     0.054 A 
HETATM    3  C3  UNL     1     -33.028   7.076   4.226  1.00 20.00     0.096 A 
HETATM    4  C4  UNL     1     -32.873   6.401   3.079  1.00 20.00     0.133 A 
HETATM    5  C5  UNL     1     -33.525   5.077   2.809  1.00 20.00     0.254 A 
HETATM    6  C6  UNL     1     -33.871   6.576   5.363  1.00 20.00     0.282 A 
HETATM    7  F7  UNL     1     -32.091   6.939   2.116  1.00 20.00    -0.207 F 
HETATM    8  F8  UNL     1     -34.288   5.171   1.683  1.00 20.00    -0.238 F 
HETATM    9  F9  UNL     1     -34.829   7.501   5.654  1.00 20.00    -0.197 F 
HETATM   10  F10 UNL     1     -33.104   6.481   6.487  1.00 20.00    -0.197 F 
ENDROOT
TORSDOF 0
ENDMDL
MODEL 8
REMARK VINA RESULT:      -4.8      1.629      2.993
REMARK  0 active torsions:
REMARK  status: ('A' for Active; 'I' for Inactive)
ROOT
HETATM    1  C1  UNL     1     -32.910   6.697   3.253  1.00 20.00     0.019 A 
HETATM    2  C2  UNL     1     -32.868   7.310   4.444  1.00 20.00     0.054 A 
HETATM    3  C3  UNL     1     -34.559   5.683   5.343  1.00 20.00     0.096 A 
HETATM    4  C4  UNL     1     -34.600   5.071   4.152  1.00 20.00     0.133 A 
HETATM    5  C5  UNL     1     -33.782   5.508   2.973  1.00 20.00     0.254 A 
HETATM    6  C6  UNL     1     -33.688   6.872   5.623  1.00 20.00     0.282 A 
HETATM    7  F7  UNL     1     -35.420   4.005   4.003  1.00 20.00    -0.207 F 
HETATM    8  F8  UNL     1     -33.009   4.468   2.548  1.00 20.00    -0.238 F 
HETATM    9  F9  UNL     1     -32.860   6.589   6.668  1.00 20.00    -0.197 F 
HETATM   10  F10 UNL     1     -34.464   7.911   6.045  1.00 20.00    -0.197 F 
ENDROOT
TORSDOF 0
ENDMDL
MODEL 9
REMARK VINA RESULT:      -4.7      9.072      9.562
REMARK  0 active torsions:
REMARK  status: ('A' for Active; 'I' for Inactive)
ROOT
HETATM    1  C1  UNL     1     -41.363   6.981  -1.664  1.00 20.00     0.019 A 
HETATM    2  C2  UNL     1     -41.640   8.188  -1.151  1.00 20.00     0.054 A 
HETATM    3  C3  UNL     1     -42.354   7.108   1.004  1.00 20.00     0.096 A 
HETATM    4  C4  UNL     1     -42.077   5.902   0.489  1.00 20.00     0.133 A 
HETATM    5  C5  UNL     1     -41.551   5.702  -0.901  1.00 20.00     0.254 A 
HETATM    6  C6  UNL     1     -42.167   8.386   0.240  1.00 20.00     0.282 A 
HETATM    7  F7  UNL     1     -42.280   4.811   1.262  1.00 20.00    -0.207 F 
HETATM    8  F8  UNL     1     -40.366   5.029  -0.844  1.00 20.00    -0.238 F 
HETATM    9  F9  UNL     1     -41.322   9.205   0.930  1.00 20.00    -0.197 F 
HETATM   10  F10 UNL     1     -43.353   9.056   0.182  1.00 20.00    -0.197 F 
ENDROOT
TORSDOF 0
ENDMDL
