MODEL 1
REMARK VINA RESULT:      -5.1      0.000      0.000
REMARK  2 active torsions:
REMARK  status: ('A' for Active; 'I' for Inactive)
REMARK    1  A    between atoms: C4_4  and  C10_10 
REMARK    2  A    between atoms: C5_5  and  C11_11 
ROOT
HETATM    1  C1  UNL     1     -33.083  16.646  -2.807  1.00 20.00     0.004 A 
HETATM    2  C2  UNL     1     -33.180  15.623  -3.668  1.00 20.00    -0.017 A 
HETATM    3  C3  UNL     1     -35.122  15.736  -2.369  1.00 20.00    -0.011 A 
HETATM    4  C4  UNL     1     -34.282  16.717  -2.004  1.00 20.00    -0.058 A 
HETATM    5  C5  UNL     1     -34.502  14.925  -3.479  1.00 20.00     0.034 A 
ENDROOT
BRANCH   4   6
HETATM    6  C10 UNL     1     -34.475  17.747  -0.954  1.00 20.00     0.010 C 
HETATM    7  C6  UNL     1     -35.319  17.197   0.199  1.00 20.00     0.015 C 
HETATM    8  C7  UNL     1     -33.133  18.268  -0.430  1.00 20.00     0.015 C 
ENDBRANCH   4   6
BRANCH   5   9
HETATM    9  C11 UNL     1     -35.349  14.941  -4.746  1.00 20.00    -0.012 C 
HETATM   10  C8  UNL     1     -34.460  14.970  -5.989  1.00 20.00     0.010 C 
HETATM   11  C9  UNL     1     -36.283  13.732  -4.786  1.00 20.00     0.010 C 
ENDBRANCH   5   9
TORSDOF 2
ENDMDL
MODEL 2
REMARK VINA RESULT:      -5.0      0.919      1.476
REMARK  2 active torsions:
REMARK  status: ('A' for Active; 'I' for Inactive)
REMARK    1  A    between atoms: C4_4  and  C10_10 
REMARK    2  A    between atoms: C5_5  and  C11_11 
ROOT
HETATM    1  C1  UNL     1     -33.144  15.799  -3.703  1.00 20.00     0.004 A 
HETATM    2  C2  UNL     1     -33.466  14.644  -4.303  1.00 20.00    -0.017 A 
HETATM    3  C3  UNL     1     -35.143  15.227  -2.781  1.00 20.00    -0.011 A 
HETATM    4  C4  UNL     1     -34.179  16.161  -2.762  1.00 20.00    -0.058 A 
HETATM    5  C5  UNL     1     -34.788  14.150  -3.774  1.00 20.00     0.034 A 
ENDROOT
BRANCH   4   6
HETATM    6  C10 UNL     1     -34.108  17.392  -1.937  1.00 20.00     0.010 C 
HETATM    7  C6  UNL     1     -34.935  17.238  -0.659  1.00 20.00     0.015 C 
HETATM    8  C7  UNL     1     -32.659  17.751  -1.594  1.00 20.00     0.015 C 
ENDBRANCH   4   6
BRANCH   5   9
HETATM    9  C11 UNL     1     -35.834  14.012  -4.873  1.00 20.00    -0.012 C 
HETATM   10  C8  UNL     1     -37.191  14.527  -4.396  1.00 20.00     0.010 C 
HETATM   11  C9  UNL     1     -35.394  14.755  -6.134  1.00 20.00     0.010 C 
ENDBRANCH   5   9
TORSDOF 2
ENDMDL
MODEL 3
REMARK VINA RESULT:      -5.0     10.397     11.404
REMARK  2 active torsions:
REMARK  status: ('A' for Active; 'I' for Inactive)
REMARK    1  A    between atoms: C4_4  and  C10_10 
REMARK    2  A    between atoms: C5_5  and  C11_11 
ROOT
HETATM    1  C1  UNL     1     -33.052   5.988   1.498  1.00 20.00     0.004 A 
HETATM    2  C2  UNL     1     -33.248   5.283   2.622  1.00 20.00    -0.017 A 
HETATM    3  C3  UNL     1     -32.795   7.512   3.168  1.00 20.00    -0.011 A 
HETATM    4  C4  UNL     1     -32.771   7.365   1.833  1.00 20.00    -0.058 A 
HETATM    5  C5  UNL     1     -33.104   6.188   3.818  1.00 20.00     0.034 A 
ENDROOT
BRANCH   4   6
HETATM    6  C10 UNL     1     -32.506   8.397   0.801  1.00 20.00     0.010 C 
HETATM    7  C6  UNL     1     -33.164   8.018  -0.528  1.00 20.00     0.015 C 
HETATM    8  C7  UNL     1     -32.984   9.779   1.257  1.00 20.00     0.015 C 
ENDBRANCH   4   6
BRANCH   5   9
HETATM    9  C11 UNL     1     -34.374   6.240   4.658  1.00 20.00    -0.012 C 
HETATM   10  C8  UNL     1     -35.076   4.882   4.661  1.00 20.00     0.010 C 
HETATM   11  C9  UNL     1     -34.059   6.681   6.087  1.00 20.00     0.010 C 
ENDBRANCH   5   9
TORSDOF 2
ENDMDL
MODEL 4
REMARK VINA RESULT:      -4.8      0.985      4.609
REMARK  2 active torsions:
REMARK  status: ('A' for Active; 'I' for Inactive)
REMARK    1  A    between atoms: C4_4  and  C10_10 
REMARK    2  A    between atoms: C5_5  and  C11_11 
ROOT
HETATM    1  C1  UNL     1     -33.074  16.575  -2.782  1.00 20.00     0.004 A 
HETATM    2  C2  UNL     1     -33.245  17.615  -1.953  1.00 20.00    -0.017 A 
HETATM    3  C3  UNL     1     -35.182  16.304  -1.970  1.00 20.00    -0.011 A 
HETATM    4  C4  UNL     1     -34.270  15.764  -2.793  1.00 20.00    -0.058 A 
HETATM    5  C5  UNL     1     -34.621  17.554  -1.341  1.00 20.00     0.034 A 
ENDROOT
BRANCH   4   6
HETATM    6  C10 UNL     1     -34.391  14.538  -3.619  1.00 20.00     0.010 C 
HETATM    7  C6  UNL     1     -35.820  14.372  -4.141  1.00 20.00     0.015 C 
HETATM    8  C7  UNL     1     -33.397  14.550  -4.786  1.00 20.00     0.015 C 
ENDBRANCH   4   6
BRANCH   5   9
HETATM    9  C11 UNL     1     -34.572  17.463   0.179  1.00 20.00    -0.012 C 
HETATM   10  C8  UNL     1     -33.670  18.554   0.757  1.00 20.00     0.010 C 
HETATM   11  C9  UNL     1     -35.977  17.562   0.772  1.00 20.00     0.010 C 
ENDBRANCH   5   9
TORSDOF 2
ENDMDL
MODEL 5
REMARK VINA RESULT:      -4.8      1.196      4.588
REMARK  2 active torsions:
REMARK  status: ('A' for Active; 'I' for Inactive)
REMARK    1  A    between atoms: C4_4  and  C10_10 
REMARK    2  A    between atoms: C5_5  and  C11_11 
ROOT
HETATM    1  C1  UNL     1     -35.243  15.821  -2.397  1.00 20.00     0.004 A 
HETATM    2  C2  UNL     1     -34.792  16.775  -1.569  1.00 20.00    -0.017 A 
HETATM    3  C3  UNL     1     -33.109  16.199  -3.088  1.00 20.00    -0.011 A 
HETATM    4  C4  UNL     1     -34.205  15.464  -3.335  1.00 20.00    -0.058 A 
HETATM    5  C5  UNL     1     -33.369  17.121  -1.924  1.00 20.00     0.034 A 
ENDROOT
BRANCH   4   6
HETATM    6  C10 UNL     1     -34.400  14.430  -4.381  1.00 20.00     0.010 C 
HETATM    7  C6  UNL     1     -35.823  13.869  -4.333  1.00 20.00     0.015 C 
HETATM    8  C7  UNL     1     -34.093  14.983  -5.776  1.00 20.00     0.015 C 
ENDBRANCH   4   6
BRANCH   5   9
HETATM    9  C11 UNL     1     -33.210  18.588  -2.303  1.00 20.00    -0.012 C 
HETATM   10  C8  UNL     1     -32.152  19.260  -1.429  1.00 20.00     0.010 C 
HETATM   11  C9  UNL     1     -32.848  18.727  -3.782  1.00 20.00     0.010 C 
ENDBRANCH   5   9
TORSDOF 2
ENDMDL
MODEL 6
REMARK VINA RESULT:      -4.7      1.402      3.139
REMARK  2 active torsions:
REMARK  status: ('A' for Active; 'I' for Inactive)
REMARK    1  A    between atoms: C4_4  and  C10_10 
REMARK    2  A    between atoms: C5_5  and  C11_11 
ROOT
HETATM    1  C1  UNL     1     -34.664  17.604   0.345  1.00 20.00     0.004 A 
HETATM    2  C2  UNL     1     -35.377  17.061  -0.653  1.00 20.00    -0.017 A 
HETATM    3  C3  UNL     1     -33.335  17.841  -1.486  1.00 20.00    -0.011 A 
HETATM    4  C4  UNL     1     -33.403  18.086  -0.168  1.00 20.00    -0.058 A 
HETATM    5  C5  UNL     1     -34.599  17.155  -1.940  1.00 20.00     0.034 A 
ENDROOT
BRANCH   4   6
HETATM    6  C10 UNL     1     -32.392  18.743   0.697  1.00 20.00     0.010 C 
HETATM    7  C6  UNL     1     -32.491  18.231   2.136  1.00 20.00     0.015 C 
HETATM    8  C7  UNL     1     -30.974  18.535   0.154  1.00 20.00     0.015 C 
ENDBRANCH   4   6
BRANCH   5   9
HETATM    9  C11 UNL     1     -34.325  15.787  -2.550  1.00 20.00    -0.012 C 
HETATM   10  C8  UNL     1     -35.561  15.265  -3.282  1.00 20.00     0.010 C 
HETATM   11  C9  UNL     1     -33.129  15.848  -3.499  1.00 20.00     0.010 C 
ENDBRANCH   5   9
TORSDOF 2
ENDMDL
MODEL 7
REMARK VINA RESULT:      -4.6      1.222      1.768
REMARK  2 active torsions:
REMARK  status: ('A' for Active; 'I' for Inactive)
REMARK    1  A    between atoms: C4_4  and  C10_10 
REMARK    2  A    between atoms: C5_5  and  C11_11 
ROOT
HETATM    1  C1  UNL     1     -33.043  15.971  -3.444  1.00 20.00     0.004 A 
HETATM    2  C2  UNL     1     -33.952  15.094  -3.894  1.00 20.00    -0.017 A 
HETATM    3  C3  UNL     1     -34.826  16.250  -2.059  1.00 20.00    -0.011 A 
HETATM    4  C4  UNL     1     -33.582  16.686  -2.310  1.00 20.00    -0.058 A 
HETATM    5  C5  UNL     1     -35.198  15.178  -3.051  1.00 20.00     0.034 A 
ENDROOT
BRANCH   4   6
HETATM    6  C10 UNL     1     -32.811  17.727  -1.587  1.00 20.00     0.010 C 
HETATM    7  C6  UNL     1     -32.466  18.893  -2.517  1.00 20.00     0.015 C 
HETATM    8  C7  UNL     1     -33.573  18.234  -0.359  1.00 20.00     0.015 C 
ENDBRANCH   4   6
BRANCH   5   9
HETATM    9  C11 UNL     1     -36.426  15.552  -3.872  1.00 20.00    -0.012 C 
HETATM   10  C8  UNL     1     -36.035  16.435  -5.057  1.00 20.00     0.010 C 
HETATM   11  C9  UNL     1     -37.154  14.299  -4.358  1.00 20.00     0.010 C 
ENDBRANCH   5   9
TORSDOF 2
ENDMDL
MODEL 8
REMARK VINA RESULT:      -4.5      1.113      4.654
REMARK  2 active torsions:
REMARK  status: ('A' for Active; 'I' for Inactive)
REMARK    1  A    between atoms: C4_4  and  C10_10 
REMARK    2  A    between atoms: C5_5  and  C11_11 
ROOT
HETATM    1  C1  UNL     1     -35.175  15.782  -2.565  1.00 20.00     0.004 A 
HETATM    2  C2  UNL     1     -34.605  16.685  -1.754  1.00 20.00    -0.017 A 
HETATM    3  C3  UNL     1     -33.065  16.015  -3.383  1.00 20.00    -0.011 A 
HETATM    4  C4  UNL     1     -34.225  15.367  -3.571  1.00 20.00    -0.058 A 
HETATM    5  C5  UNL     1     -33.184  16.933  -2.192  1.00 20.00     0.034 A 
ENDROOT
BRANCH   4   6
HETATM    6  C10 UNL     1     -34.560  14.369  -4.617  1.00 20.00     0.010 C 
HETATM    7  C6  UNL     1     -35.962  13.797  -4.395  1.00 20.00     0.015 C 
HETATM    8  C7  UNL     1     -34.448  14.973  -6.021  1.00 20.00     0.015 C 
ENDBRANCH   4   6
BRANCH   5   9
HETATM    9  C11 UNL     1     -32.941  18.390  -2.561  1.00 20.00    -0.012 C 
HETATM   10  C8  UNL     1     -34.265  19.133  -2.733  1.00 20.00     0.010 C 
HETATM   11  C9  UNL     1     -32.076  19.077  -1.504  1.00 20.00     0.010 C 
ENDBRANCH   5   9
TORSDOF 2
ENDMDL
MODEL 9
REMARK VINA RESULT:      -4.5     10.705     11.431
REMARK  2 active torsions:
REMARK  status: ('A' for Active; 'I' for Inactive)
REMARK    1  A    between atoms: C4_4  and  C10_10 
REMARK    2  A    between atoms: C5_5  and  C11_11 
ROOT
HETATM    1  C1  UNL     1     -32.960   7.336   4.309  1.00 20.00     0.004 A 
HETATM    2  C2  UNL     1     -32.145   7.856   3.380  1.00 20.00    -0.017 A 
HETATM    3  C3  UNL     1     -33.312   6.045   2.469  1.00 20.00    -0.011 A 
HETATM    4  C4  UNL     1     -33.681   6.217   3.748  1.00 20.00    -0.058 A 
HETATM    5  C5  UNL     1     -32.284   7.082   2.095  1.00 20.00     0.034 A 
ENDROOT
BRANCH   4   6
HETATM    6  C10 UNL     1     -34.661   5.428   4.535  1.00 20.00     0.010 C 
HETATM    7  C6  UNL     1     -34.450   3.927   4.319  1.00 20.00     0.015 C 
HETATM    8  C7  UNL     1     -34.582   5.768   6.027  1.00 20.00     0.015 C 
ENDBRANCH   4   6
BRANCH   5   9
HETATM    9  C11 UNL     1     -32.744   7.960   0.939  1.00 20.00    -0.012 C 
HETATM   10  C8  UNL     1     -32.982   9.394   1.411  1.00 20.00     0.010 C 
HETATM   11  C9  UNL     1     -31.724   7.935  -0.199  1.00 20.00     0.010 C 
ENDBRANCH   5   9
TORSDOF 2
ENDMDL
