MODEL 1
REMARK VINA RESULT:      -5.2      0.000      0.000
REMARK  0 active torsions:
REMARK  status: ('A' for Active; 'I' for Inactive)
ROOT
HETATM    1  C1  UNL     1     -25.456  18.526  11.297  1.00 20.00    -0.012 C 
HETATM    2  C2  UNL     1     -24.696  18.117  12.332  1.00 20.00    -0.016 C 
HETATM    3  C3  UNL     1     -24.057  18.888   9.372  1.00 20.00    -0.010 C 
HETATM    4  C4  UNL     1     -22.565  18.671   9.222  1.00 20.00     0.014 C 
HETATM    5  C5  UNL     1     -24.768  17.992  10.129  1.00 20.00     0.051 C 
HETATM    6  C6  UNL     1     -23.624  17.246  11.826  1.00 20.00     0.034 C 
HETATM    7  C7  UNL     1     -23.985  16.780  10.593  1.00 20.00     0.224 C 
HETATM    8  C8  UNL     1     -22.057  17.642   9.981  1.00 20.00     0.216 C 
HETATM    9  C9  UNL     1     -22.199  17.790  11.567  1.00 20.00     0.066 C 
HETATM   10  N10 UNL     1     -22.863  16.490   9.807  1.00 20.00     0.115 N 
HETATM   11  H17 UNL     1     -22.405  15.609  10.021  1.00 20.00     0.318 HD
ENDROOT
TORSDOF 0
ENDMDL
MODEL 2
REMARK VINA RESULT:      -4.9      0.942      2.459
REMARK  0 active torsions:
REMARK  status: ('A' for Active; 'I' for Inactive)
ROOT
HETATM    1  C1  UNL     1     -23.376  18.201   8.679  1.00 20.00    -0.012 C 
HETATM    2  C2  UNL     1     -24.553  18.493   9.265  1.00 20.00    -0.016 C 
HETATM    3  C3  UNL     1     -21.710  17.814  10.373  1.00 20.00    -0.010 C 
HETATM    4  C4  UNL     1     -21.864  17.818  11.880  1.00 20.00     0.014 C 
HETATM    5  C5  UNL     1     -22.733  17.294   9.620  1.00 20.00     0.051 C 
HETATM    6  C6  UNL     1     -24.690  17.690  10.490  1.00 20.00     0.034 C 
HETATM    7  C7  UNL     1     -23.838  16.625  10.413  1.00 20.00     0.224 C 
HETATM    8  C8  UNL     1     -23.095  17.400  12.331  1.00 20.00     0.216 C 
HETATM    9  C9  UNL     1     -24.353  18.279  11.881  1.00 20.00     0.066 C 
HETATM   10  N10 UNL     1     -23.444  16.190  11.684  1.00 20.00     0.115 N 
HETATM   11  H17 UNL     1     -24.129  15.622  12.175  1.00 20.00     0.318 HD
ENDROOT
TORSDOF 0
ENDMDL
MODEL 3
REMARK VINA RESULT:      -4.7     23.634     24.664
REMARK  0 active torsions:
REMARK  status: ('A' for Active; 'I' for Inactive)
ROOT
HETATM    1  C1  UNL     1     -41.187   7.639   0.699  1.00 20.00    -0.012 C 
HETATM    2  C2  UNL     1     -41.621   8.176  -0.457  1.00 20.00    -0.016 C 
HETATM    3  C3  UNL     1     -42.374   5.588   1.125  1.00 20.00    -0.010 C 
HETATM    4  C4  UNL     1     -43.417   4.896   0.273  1.00 20.00     0.014 C 
HETATM    5  C5  UNL     1     -41.325   6.204   0.489  1.00 20.00     0.051 C 
HETATM    6  C6  UNL     1     -41.911   7.095  -1.410  1.00 20.00     0.034 C 
HETATM    7  C7  UNL     1     -41.252   5.968  -1.006  1.00 20.00     0.224 C 
HETATM    8  C8  UNL     1     -43.258   5.070  -1.083  1.00 20.00     0.216 C 
HETATM    9  C9  UNL     1     -43.352   6.573  -1.623  1.00 20.00     0.066 C 
HETATM   10  N10 UNL     1     -41.910   4.808  -1.433  1.00 20.00     0.115 N 
HETATM   11  H17 UNL     1     -41.760   4.562  -2.407  1.00 20.00     0.318 HD
ENDROOT
TORSDOF 0
ENDMDL
MODEL 4
REMARK VINA RESULT:      -4.7     23.269     24.238
REMARK  0 active torsions:
REMARK  status: ('A' for Active; 'I' for Inactive)
ROOT
HETATM    1  C1  UNL     1     -42.564   5.042  -1.486  1.00 20.00    -0.012 C 
HETATM    2  C2  UNL     1     -43.417   5.035  -0.444  1.00 20.00    -0.016 C 
HETATM    3  C3  UNL     1     -41.436   7.166  -1.584  1.00 20.00    -0.010 C 
HETATM    4  C4  UNL     1     -41.551   8.351  -0.647  1.00 20.00     0.014 C 
HETATM    5  C5  UNL     1     -41.479   5.906  -1.041  1.00 20.00     0.051 C 
HETATM    6  C6  UNL     1     -42.819   5.784   0.671  1.00 20.00     0.034 C 
HETATM    7  C7  UNL     1     -41.469   5.859   0.474  1.00 20.00     0.224 C 
HETATM    8  C8  UNL     1     -41.814   8.022   0.663  1.00 20.00     0.216 C 
HETATM    9  C9  UNL     1     -43.193   7.261   0.942  1.00 20.00     0.066 C 
HETATM   10  N10 UNL     1     -40.925   7.000   1.077  1.00 20.00     0.115 N 
HETATM   11  H17 UNL     1     -40.788   6.931   2.081  1.00 20.00     0.318 HD
ENDROOT
TORSDOF 0
ENDMDL
MODEL 5
REMARK VINA RESULT:      -4.7      1.318      2.869
REMARK  0 active torsions:
REMARK  status: ('A' for Active; 'I' for Inactive)
ROOT
HETATM    1  C1  UNL     1     -22.653  17.983   8.153  1.00 20.00    -0.012 C 
HETATM    2  C2  UNL     1     -22.594  16.768   8.733  1.00 20.00    -0.016 C 
HETATM    3  C3  UNL     1     -24.478  19.234   9.102  1.00 20.00    -0.010 C 
HETATM    4  C4  UNL     1     -25.432  18.838  10.210  1.00 20.00     0.014 C 
HETATM    5  C5  UNL     1     -23.166  18.846   9.208  1.00 20.00     0.051 C 
HETATM    6  C6  UNL     1     -22.950  16.896  10.154  1.00 20.00     0.034 C 
HETATM    7  C7  UNL     1     -22.792  18.201  10.528  1.00 20.00     0.224 C 
HETATM    8  C8  UNL     1     -24.888  18.009  11.165  1.00 20.00     0.216 C 
HETATM    9  C9  UNL     1     -24.378  16.580  10.658  1.00 20.00     0.066 C 
HETATM   10  N10 UNL     1     -23.644  18.536  11.588  1.00 20.00     0.115 N 
HETATM   11  H17 UNL     1     -23.334  18.223  12.504  1.00 20.00     0.318 HD
ENDROOT
TORSDOF 0
ENDMDL
MODEL 6
REMARK VINA RESULT:      -4.7      1.412      2.832
REMARK  0 active torsions:
REMARK  status: ('A' for Active; 'I' for Inactive)
ROOT
HETATM    1  C1  UNL     1     -25.599  19.235  10.355  1.00 20.00    -0.012 C 
HETATM    2  C2  UNL     1     -24.752  18.682   9.465  1.00 20.00    -0.016 C 
HETATM    3  C3  UNL     1     -26.044  17.662  12.122  1.00 20.00    -0.010 C 
HETATM    4  C4  UNL     1     -25.477  16.272  12.327  1.00 20.00     0.014 C 
HETATM    5  C5  UNL     1     -25.212  18.632  11.623  1.00 20.00     0.051 C 
HETATM    6  C6  UNL     1     -23.781  17.842  10.184  1.00 20.00     0.034 C 
HETATM    7  C7  UNL     1     -23.757  18.227  11.495  1.00 20.00     0.224 C 
HETATM    8  C8  UNL     1     -24.191  16.104  11.865  1.00 20.00     0.216 C 
HETATM    9  C9  UNL     1     -23.967  16.310  10.295  1.00 20.00     0.066 C 
HETATM   10  N10 UNL     1     -23.383  17.169  12.332  1.00 20.00     0.115 N 
HETATM   11  H17 UNL     1     -22.386  16.973  12.358  1.00 20.00     0.318 HD
ENDROOT
TORSDOF 0
ENDMDL
MODEL 7
REMARK VINA RESULT:      -4.6     17.881     18.933
REMARK  0 active torsions:
REMARK  status: ('A' for Active; 'I' for Inactive)
ROOT
HETATM    1  C1  UNL     1     -34.949  15.466  -2.555  1.00 20.00    -0.012 C 
HETATM    2  C2  UNL     1     -34.480  16.659  -2.971  1.00 20.00    -0.016 C 
HETATM    3  C3  UNL     1     -35.642  14.170  -4.461  1.00 20.00    -0.010 C 
HETATM    4  C4  UNL     1     -35.558  14.518  -5.933  1.00 20.00     0.014 C 
HETATM    5  C5  UNL     1     -34.610  14.561  -3.645  1.00 20.00     0.051 C 
HETATM    6  C6  UNL     1     -33.760  16.476  -4.240  1.00 20.00     0.034 C 
HETATM    7  C7  UNL     1     -33.416  15.159  -4.361  1.00 20.00     0.224 C 
HETATM    8  C8  UNL     1     -34.489  15.314  -6.274  1.00 20.00     0.216 C 
HETATM    9  C9  UNL     1     -34.439  16.764  -5.600  1.00 20.00     0.066 C 
HETATM   10  N10 UNL     1     -33.307  14.779  -5.705  1.00 20.00     0.115 N 
HETATM   11  H17 UNL     1     -32.445  15.060  -6.162  1.00 20.00     0.318 HD
ENDROOT
TORSDOF 0
ENDMDL
MODEL 8
REMARK VINA RESULT:      -4.5     17.800     18.818
REMARK  0 active torsions:
REMARK  status: ('A' for Active; 'I' for Inactive)
ROOT
HETATM    1  C1  UNL     1     -35.772  14.450  -5.773  1.00 20.00    -0.012 C 
HETATM    2  C2  UNL     1     -35.901  13.967  -4.522  1.00 20.00    -0.016 C 
HETATM    3  C3  UNL     1     -34.628  16.567  -5.701  1.00 20.00    -0.010 C 
HETATM    4  C4  UNL     1     -34.056  17.301  -4.506  1.00 20.00     0.014 C 
HETATM    5  C5  UNL     1     -34.523  15.199  -5.730  1.00 20.00     0.051 C 
HETATM    6  C6  UNL     1     -34.697  14.310  -3.749  1.00 20.00     0.034 C 
HETATM    7  C7  UNL     1     -33.684  14.595  -4.621  1.00 20.00     0.224 C 
HETATM    8  C8  UNL     1     -33.591  16.485  -3.501  1.00 20.00     0.216 C 
HETATM    9  C9  UNL     1     -34.670  15.533  -2.802  1.00 20.00     0.066 C 
HETATM   10  N10 UNL     1     -32.760  15.483  -4.058  1.00 20.00     0.115 N 
HETATM   11  H17 UNL     1     -32.100  15.062  -3.410  1.00 20.00     0.318 HD
ENDROOT
TORSDOF 0
ENDMDL
MODEL 9
REMARK VINA RESULT:      -4.5     18.006     19.054
REMARK  0 active torsions:
REMARK  status: ('A' for Active; 'I' for Inactive)
ROOT
HETATM    1  C1  UNL     1     -34.009  16.055  -2.673  1.00 20.00    -0.012 C 
HETATM    2  C2  UNL     1     -33.149  15.640  -3.624  1.00 20.00    -0.016 C 
HETATM    3  C3  UNL     1     -36.231  16.157  -3.593  1.00 20.00    -0.010 C 
HETATM    4  C4  UNL     1     -36.706  15.787  -4.983  1.00 20.00     0.014 C 
HETATM    5  C5  UNL     1     -35.255  15.384  -3.016  1.00 20.00     0.051 C 
HETATM    6  C6  UNL     1     -33.815  14.639  -4.470  1.00 20.00     0.034 C 
HETATM    7  C7  UNL     1     -34.886  14.133  -3.789  1.00 20.00     0.224 C 
HETATM    8  C8  UNL     1     -36.002  14.763  -5.575  1.00 20.00     0.216 C 
HETATM    9  C9  UNL     1     -34.445  15.025  -5.830  1.00 20.00     0.066 C 
HETATM   10  N10 UNL     1     -35.885  13.687  -4.662  1.00 20.00     0.115 N 
HETATM   11  H17 UNL     1     -35.711  12.780  -5.087  1.00 20.00     0.318 HD
ENDROOT
TORSDOF 0
ENDMDL
