MODEL 1
REMARK VINA RESULT:      -4.9      0.000      0.000
REMARK  0 active torsions:
REMARK  status: ('A' for Active; 'I' for Inactive)
ROOT
HETATM    1  C1  UNL     1     -41.167   5.359  -1.166  1.00 20.00     0.001 C 
HETATM    2  C2  UNL     1     -42.357   9.540  -0.047  1.00 20.00     0.001 C 
HETATM    3  C3  UNL     1     -41.052   6.871  -1.041  1.00 20.00     0.005 C 
HETATM    4  C4  UNL     1     -41.015   8.934   0.373  1.00 20.00     0.005 C 
HETATM    5  C5  UNL     1     -42.603   4.868  -1.191  1.00 20.00     0.005 C 
HETATM    6  C6  UNL     1     -43.409   8.464   0.227  1.00 20.00     0.005 C 
HETATM    7  C7  UNL     1     -42.729   4.795   1.447  1.00 20.00     0.010 A 
HETATM    8  C8  UNL     1     -41.248   7.412   0.380  1.00 20.00    -0.010 C 
HETATM    9  C9  UNL     1     -43.367   4.909   0.086  1.00 20.00    -0.010 A 
HETATM   10  C10 UNL     1     -42.659   7.357   0.971  1.00 20.00    -0.006 C 
HETATM   11  C11 UNL     1     -43.417   6.076   1.039  1.00 20.00    -0.006 A 
ENDROOT
TORSDOF 0
ENDMDL
MODEL 2
REMARK VINA RESULT:      -4.8     22.950     23.969
REMARK  0 active torsions:
REMARK  status: ('A' for Active; 'I' for Inactive)
ROOT
HETATM    1  C1  UNL     1     -24.287  19.263   8.734  1.00 20.00     0.001 C 
HETATM    2  C2  UNL     1     -25.420  16.504  12.089  1.00 20.00     0.001 C 
HETATM    3  C3  UNL     1     -25.069  18.751   9.934  1.00 20.00     0.005 C 
HETATM    4  C4  UNL     1     -25.135  17.991  12.317  1.00 20.00     0.005 C 
HETATM    5  C5  UNL     1     -23.624  18.155   7.936  1.00 20.00     0.005 C 
HETATM    6  C6  UNL     1     -24.305  15.997  11.172  1.00 20.00     0.005 C 
HETATM    7  C7  UNL     1     -21.494  18.168   9.500  1.00 20.00     0.010 A 
HETATM    8  C8  UNL     1     -24.210  18.404  11.157  1.00 20.00    -0.010 C 
HETATM    9  C9  UNL     1     -22.436  17.489   8.538  1.00 20.00    -0.010 A 
HETATM   10  C10 UNL     1     -23.319  17.162  11.066  1.00 20.00    -0.006 C 
HETATM   11  C11 UNL     1     -22.334  16.999   9.960  1.00 20.00    -0.006 A 
ENDROOT
TORSDOF 0
ENDMDL
MODEL 3
REMARK VINA RESULT:      -4.8     10.576     12.203
REMARK  0 active torsions:
REMARK  status: ('A' for Active; 'I' for Inactive)
ROOT
HETATM    1  C1  UNL     1     -33.220  14.719  -4.372  1.00 20.00     0.001 C 
HETATM    2  C2  UNL     1     -35.398  18.002  -2.223  1.00 20.00     0.001 C 
HETATM    3  C3  UNL     1     -33.453  15.821  -3.350  1.00 20.00     0.005 C 
HETATM    4  C4  UNL     1     -34.803  16.800  -1.486  1.00 20.00     0.005 C 
HETATM    5  C5  UNL     1     -34.027  14.903  -5.645  1.00 20.00     0.005 C 
HETATM    6  C6  UNL     1     -36.117  17.433  -3.448  1.00 20.00     0.005 C 
HETATM    7  C7  UNL     1     -36.128  13.682  -4.608  1.00 20.00     0.010 A 
HETATM    8  C8  UNL     1     -34.744  15.675  -2.536  1.00 20.00    -0.010 C 
HETATM    9  C9  UNL     1     -35.492  14.649  -5.575  1.00 20.00    -0.010 A 
HETATM   10  C10 UNL     1     -36.070  15.914  -3.263  1.00 20.00    -0.006 C 
HETATM   11  C11 UNL     1     -36.418  15.161  -4.501  1.00 20.00    -0.006 A 
ENDROOT
TORSDOF 0
ENDMDL
MODEL 4
REMARK VINA RESULT:      -4.7     10.694     12.385
REMARK  0 active torsions:
REMARK  status: ('A' for Active; 'I' for Inactive)
ROOT
HETATM    1  C1  UNL     1     -35.284  16.447  -6.149  1.00 20.00     0.001 C 
HETATM    2  C2  UNL     1     -33.820  16.981  -1.939  1.00 20.00     0.001 C 
HETATM    3  C3  UNL     1     -34.383  16.926  -5.021  1.00 20.00     0.005 C 
HETATM    4  C4  UNL     1     -32.923  16.429  -3.051  1.00 20.00     0.005 C 
HETATM    5  C5  UNL     1     -36.716  16.204  -5.708  1.00 20.00     0.005 C 
HETATM    6  C6  UNL     1     -35.160  16.255  -2.079  1.00 20.00     0.005 C 
HETATM    7  C7  UNL     1     -36.162  13.742  -4.924  1.00 20.00     0.010 A 
HETATM    8  C8  UNL     1     -33.891  15.819  -4.081  1.00 20.00    -0.010 C 
HETATM    9  C9  UNL     1     -36.984  15.005  -4.867  1.00 20.00    -0.010 A 
HETATM   10  C10 UNL     1     -34.918  15.180  -3.141  1.00 20.00    -0.006 C 
HETATM   11  C11 UNL     1     -36.176  14.579  -3.667  1.00 20.00    -0.006 A 
ENDROOT
TORSDOF 0
ENDMDL
MODEL 5
REMARK VINA RESULT:      -4.6     11.501     12.935
REMARK  0 active torsions:
REMARK  status: ('A' for Active; 'I' for Inactive)
ROOT
HETATM    1  C1  UNL     1     -37.037  17.318  -3.353  1.00 20.00     0.001 C 
HETATM    2  C2  UNL     1     -33.387  14.906  -4.357  1.00 20.00     0.001 C 
HETATM    3  C3  UNL     1     -36.199  16.251  -4.040  1.00 20.00     0.005 C 
HETATM    4  C4  UNL     1     -34.698  14.254  -3.910  1.00 20.00     0.005 C 
HETATM    5  C5  UNL     1     -36.222  18.512  -2.889  1.00 20.00     0.005 C 
HETATM    6  C6  UNL     1     -33.154  16.080  -3.403  1.00 20.00     0.005 C 
HETATM    7  C7  UNL     1     -35.608  17.332  -0.606  1.00 20.00     0.010 A 
HETATM    8  C8  UNL     1     -35.423  15.334  -3.087  1.00 20.00    -0.010 C 
HETATM    9  C9  UNL     1     -35.335  18.324  -1.709  1.00 20.00    -0.010 A 
HETATM   10  C10 UNL     1     -34.237  15.939  -2.331  1.00 20.00    -0.006 C 
HETATM   11  C11 UNL     1     -34.398  17.162  -1.495  1.00 20.00    -0.006 A 
ENDROOT
TORSDOF 0
ENDMDL
MODEL 6
REMARK VINA RESULT:      -4.6     12.102     13.406
REMARK  0 active torsions:
REMARK  status: ('A' for Active; 'I' for Inactive)
ROOT
HETATM    1  C1  UNL     1     -34.082  17.793  -5.293  1.00 20.00     0.001 C 
HETATM    2  C2  UNL     1     -34.417  17.563  -0.823  1.00 20.00     0.001 C 
HETATM    3  C3  UNL     1     -33.947  18.239  -3.845  1.00 20.00     0.005 C 
HETATM    4  C4  UNL     1     -33.089  17.852  -1.527  1.00 20.00     0.005 C 
HETATM    5  C5  UNL     1     -35.219  16.811  -5.512  1.00 20.00     0.005 C 
HETATM    6  C6  UNL     1     -35.055  16.401  -1.588  1.00 20.00     0.005 C 
HETATM    7  C7  UNL     1     -33.692  14.750  -4.878  1.00 20.00     0.010 A 
HETATM    8  C8  UNL     1     -33.237  17.235  -2.930  1.00 20.00    -0.010 C 
HETATM    9  C9  UNL     1     -35.036  15.422  -5.008  1.00 20.00    -0.010 A 
HETATM   10  C10 UNL     1     -33.984  15.945  -2.580  1.00 20.00    -0.006 C 
HETATM   11  C11 UNL     1     -34.513  15.047  -3.645  1.00 20.00    -0.006 A 
ENDROOT
TORSDOF 0
ENDMDL
MODEL 7
REMARK VINA RESULT:      -4.6     12.043     13.981
REMARK  0 active torsions:
REMARK  status: ('A' for Active; 'I' for Inactive)
ROOT
HETATM    1  C1  UNL     1     -35.059  17.045  -0.682  1.00 20.00     0.001 C 
HETATM    2  C2  UNL     1     -34.672  15.886  -5.000  1.00 20.00     0.001 C 
HETATM    3  C3  UNL     1     -35.266  16.220  -1.943  1.00 20.00     0.005 C 
HETATM    4  C4  UNL     1     -34.326  14.921  -3.863  1.00 20.00     0.005 C 
HETATM    5  C5  UNL     1     -34.783  18.511  -0.964  1.00 20.00     0.005 C 
HETATM    6  C6  UNL     1     -34.038  17.226  -4.623  1.00 20.00     0.005 C 
HETATM    7  C7  UNL     1     -32.195  18.069  -1.260  1.00 20.00     0.010 A 
HETATM    8  C8  UNL     1     -33.973  15.823  -2.666  1.00 20.00    -0.010 C 
HETATM    9  C9  UNL     1     -33.449  18.866  -1.521  1.00 20.00    -0.010 A 
HETATM   10  C10 UNL     1     -33.194  16.930  -3.381  1.00 20.00    -0.006 C 
HETATM   11  C11 UNL     1     -32.759  18.158  -2.659  1.00 20.00    -0.006 A 
ENDROOT
TORSDOF 0
ENDMDL
MODEL 8
REMARK VINA RESULT:      -4.6     10.477     12.896
REMARK  0 active torsions:
REMARK  status: ('A' for Active; 'I' for Inactive)
ROOT
HETATM    1  C1  UNL     1     -35.292  18.065  -4.641  1.00 20.00     0.001 C 
HETATM    2  C2  UNL     1     -36.066  13.645  -4.594  1.00 20.00     0.001 C 
HETATM    3  C3  UNL     1     -36.015  16.759  -4.929  1.00 20.00     0.005 C 
HETATM    4  C4  UNL     1     -37.109  14.660  -4.118  1.00 20.00     0.005 C 
HETATM    5  C5  UNL     1     -33.798  17.890  -4.440  1.00 20.00     0.005 C 
HETATM    6  C6  UNL     1     -34.738  14.083  -3.974  1.00 20.00     0.005 C 
HETATM    7  C7  UNL     1     -34.108  17.339  -1.874  1.00 20.00     0.010 A 
HETATM    8  C8  UNL     1     -36.297  15.897  -3.692  1.00 20.00    -0.010 C 
HETATM    9  C9  UNL     1     -33.343  17.256  -3.172  1.00 20.00    -0.010 A 
HETATM   10  C10 UNL     1     -35.104  15.218  -3.016  1.00 20.00    -0.006 C 
HETATM   11  C11 UNL     1     -33.924  16.006  -2.561  1.00 20.00    -0.006 A 
ENDROOT
TORSDOF 0
ENDMDL
MODEL 9
REMARK VINA RESULT:      -4.3     12.153     13.649
REMARK  0 active torsions:
REMARK  status: ('A' for Active; 'I' for Inactive)
ROOT
HETATM    1  C1  UNL     1     -34.152  18.435  -3.945  1.00 20.00     0.001 C 
HETATM    2  C2  UNL     1     -34.404  15.304  -7.150  1.00 20.00     0.001 C 
HETATM    3  C3  UNL     1     -34.411  17.849  -5.324  1.00 20.00     0.005 C 
HETATM    4  C4  UNL     1     -35.589  16.205  -6.796  1.00 20.00     0.005 C 
HETATM    5  C5  UNL     1     -33.123  17.654  -3.147  1.00 20.00     0.005 C 
HETATM    6  C6  UNL     1     -33.820  14.830  -5.818  1.00 20.00     0.005 C 
HETATM    7  C7  UNL     1     -34.954  15.979  -2.239  1.00 20.00     0.010 A 
HETATM    8  C8  UNL     1     -35.345  16.633  -5.337  1.00 20.00    -0.010 C 
HETATM    9  C9  UNL     1     -33.533  16.330  -2.604  1.00 20.00    -0.010 A 
HETATM   10  C10 UNL     1     -34.808  15.322  -4.757  1.00 20.00    -0.006 C 
HETATM   11  C11 UNL     1     -34.263  15.257  -3.372  1.00 20.00    -0.006 A 
ENDROOT
TORSDOF 0
ENDMDL
