MODEL 1
REMARK VINA RESULT:      -4.7      0.000      0.000
REMARK  1 active torsions:
REMARK  status: ('A' for Active; 'I' for Inactive)
REMARK    1  A    between atoms: C2_2  and  C6_6 
ROOT
HETATM    1  C3  UNL     1     -35.866  17.026  -3.711  1.00 20.00     0.006 C 
HETATM    2  C4  UNL     1     -35.586  16.462  -2.307  1.00 20.00     0.006 C 
HETATM    3  C5  UNL     1     -33.445  17.431  -4.048  1.00 20.00     0.014 C 
HETATM    4  C6  UNL     1     -33.112  16.846  -2.654  1.00 20.00     0.012 C 
HETATM    5  C7  UNL     1     -34.635  16.554  -4.519  1.00 20.00    -0.006 C 
HETATM    6  C8  UNL     1     -34.216  15.760  -2.486  1.00 20.00     0.001 C 
HETATM    7  C9  UNL     1     -34.325  15.162  -3.917  1.00 20.00    -0.040 C 
HETATM    8  C10 UNL     1     -33.039  14.505  -4.455  1.00 20.00     0.015 C 
HETATM    9  C11 UNL     1     -35.445  14.118  -4.095  1.00 20.00     0.015 C 
ENDROOT
BRANCH   4  10
HETATM   10  C2  UNL     1     -33.034  17.868  -1.567  1.00 20.00    -0.032 C 
HETATM   11  C1  UNL     1     -31.891  18.293  -1.020  1.00 20.00     0.007 C 
ENDBRANCH   4  10
TORSDOF 1
ENDMDL
MODEL 2
REMARK VINA RESULT:      -4.4      1.089      3.932
REMARK  1 active torsions:
REMARK  status: ('A' for Active; 'I' for Inactive)
REMARK    1  A    between atoms: C2_2  and  C6_6 
ROOT
HETATM    1  C3  UNL     1     -33.961  17.452  -4.299  1.00 20.00     0.006 C 
HETATM    2  C4  UNL     1     -33.249  16.155  -3.874  1.00 20.00     0.006 C 
HETATM    3  C5  UNL     1     -36.136  16.515  -3.572  1.00 20.00     0.014 C 
HETATM    4  C6  UNL     1     -35.460  15.204  -3.103  1.00 20.00     0.012 C 
HETATM    5  C7  UNL     1     -35.073  17.594  -3.236  1.00 20.00    -0.006 C 
HETATM    6  C8  UNL     1     -34.064  15.709  -2.633  1.00 20.00     0.001 C 
HETATM    7  C9  UNL     1     -34.405  17.061  -1.946  1.00 20.00    -0.040 C 
HETATM    8  C10 UNL     1     -35.347  16.962  -0.731  1.00 20.00     0.015 C 
HETATM    9  C11 UNL     1     -33.180  17.869  -1.471  1.00 20.00     0.015 C 
ENDROOT
BRANCH   4  10
HETATM   10  C2  UNL     1     -35.447  14.122  -4.134  1.00 20.00    -0.032 C 
HETATM   11  C1  UNL     1     -36.117  14.182  -5.289  1.00 20.00     0.007 C 
ENDBRANCH   4  10
TORSDOF 1
ENDMDL
MODEL 3
REMARK VINA RESULT:      -4.4      1.229      1.864
REMARK  1 active torsions:
REMARK  status: ('A' for Active; 'I' for Inactive)
REMARK    1  A    between atoms: C2_2  and  C6_6 
ROOT
HETATM    1  C3  UNL     1     -34.586  17.338  -4.764  1.00 20.00     0.006 C 
HETATM    2  C4  UNL     1     -35.935  17.291  -4.024  1.00 20.00     0.006 C 
HETATM    3  C5  UNL     1     -33.534  15.999  -2.965  1.00 20.00     0.014 C 
HETATM    4  C6  UNL     1     -34.875  15.900  -2.199  1.00 20.00     0.012 C 
HETATM    5  C7  UNL     1     -33.977  15.952  -4.451  1.00 20.00    -0.006 C 
HETATM    6  C8  UNL     1     -35.912  15.890  -3.361  1.00 20.00     0.001 C 
HETATM    7  C9  UNL     1     -35.209  15.016  -4.437  1.00 20.00    -0.040 C 
HETATM    8  C10 UNL     1     -34.906  13.566  -4.011  1.00 20.00     0.015 C 
HETATM    9  C11 UNL     1     -35.962  14.918  -5.779  1.00 20.00     0.015 C 
ENDROOT
BRANCH   4  10
HETATM   10  C2  UNL     1     -35.066  16.962  -1.165  1.00 20.00    -0.032 C 
HETATM   11  C1  UNL     1     -34.114  17.823  -0.793  1.00 20.00     0.007 C 
ENDBRANCH   4  10
TORSDOF 1
ENDMDL
MODEL 4
REMARK VINA RESULT:      -4.4      1.495      3.722
REMARK  1 active torsions:
REMARK  status: ('A' for Active; 'I' for Inactive)
REMARK    1  A    between atoms: C2_2  and  C6_6 
ROOT
HETATM    1  C3  UNL     1     -35.904  14.382  -3.903  1.00 20.00     0.006 C 
HETATM    2  C4  UNL     1     -36.390  15.749  -4.417  1.00 20.00     0.006 C 
HETATM    3  C5  UNL     1     -33.688  14.761  -4.944  1.00 20.00     0.014 C 
HETATM    4  C6  UNL     1     -34.122  16.156  -5.457  1.00 20.00     0.012 C 
HETATM    5  C7  UNL     1     -34.416  14.650  -3.579  1.00 20.00    -0.006 C 
HETATM    6  C8  UNL     1     -35.108  16.618  -4.344  1.00 20.00     0.001 C 
HETATM    7  C9  UNL     1     -34.422  16.103  -3.047  1.00 20.00    -0.040 C 
HETATM    8  C10 UNL     1     -33.023  16.687  -2.767  1.00 20.00     0.015 C 
HETATM    9  C11 UNL     1     -35.239  16.316  -1.758  1.00 20.00     0.015 C 
ENDROOT
BRANCH   4  10
HETATM   10  C2  UNL     1     -34.669  16.150  -6.848  1.00 20.00    -0.032 C 
HETATM   11  C1  UNL     1     -34.115  15.484  -7.866  1.00 20.00     0.007 C 
ENDBRANCH   4  10
TORSDOF 1
ENDMDL
MODEL 5
REMARK VINA RESULT:      -4.4      1.173      2.627
REMARK  1 active torsions:
REMARK  status: ('A' for Active; 'I' for Inactive)
REMARK    1  A    between atoms: C2_2  and  C6_6 
ROOT
HETATM    1  C3  UNL     1     -34.463  13.834  -3.892  1.00 20.00     0.006 C 
HETATM    2  C4  UNL     1     -33.408  14.716  -4.583  1.00 20.00     0.006 C 
HETATM    3  C5  UNL     1     -35.310  15.800  -2.644  1.00 20.00     0.014 C 
HETATM    4  C6  UNL     1     -34.285  16.732  -3.336  1.00 20.00     0.012 C 
HETATM    5  C7  UNL     1     -35.672  14.789  -3.763  1.00 20.00    -0.006 C 
HETATM    6  C8  UNL     1     -34.143  16.072  -4.739  1.00 20.00     0.001 C 
HETATM    7  C9  UNL     1     -35.600  15.634  -5.058  1.00 20.00    -0.040 C 
HETATM    8  C10 UNL     1     -36.629  16.778  -5.133  1.00 20.00     0.015 C 
HETATM    9  C11 UNL     1     -35.760  14.830  -6.364  1.00 20.00     0.015 C 
ENDROOT
BRANCH   4  10
HETATM   10  C2  UNL     1     -33.014  16.913  -2.571  1.00 20.00    -0.032 C 
HETATM   11  C1  UNL     1     -32.876  17.750  -1.537  1.00 20.00     0.007 C 
ENDBRANCH   4  10
TORSDOF 1
ENDMDL
MODEL 6
REMARK VINA RESULT:      -4.2      1.787      2.779
REMARK  1 active torsions:
REMARK  status: ('A' for Active; 'I' for Inactive)
REMARK    1  A    between atoms: C2_2  and  C6_6 
ROOT
HETATM    1  C3  UNL     1     -35.892  14.012  -4.576  1.00 20.00     0.006 C 
HETATM    2  C4  UNL     1     -34.504  14.088  -3.915  1.00 20.00     0.006 C 
HETATM    3  C5  UNL     1     -36.363  16.345  -3.888  1.00 20.00     0.014 C 
HETATM    4  C6  UNL     1     -34.966  16.477  -3.235  1.00 20.00     0.012 C 
HETATM    5  C7  UNL     1     -36.088  15.445  -5.121  1.00 20.00    -0.006 C 
HETATM    6  C8  UNL     1     -34.094  15.565  -4.147  1.00 20.00     0.001 C 
HETATM    7  C9  UNL     1     -34.663  15.857  -5.564  1.00 20.00    -0.040 C 
HETATM    8  C10 UNL     1     -34.537  17.319  -6.034  1.00 20.00     0.015 C 
HETATM    9  C11 UNL     1     -34.061  14.993  -6.690  1.00 20.00     0.015 C 
ENDROOT
BRANCH   4  10
HETATM   10  C2  UNL     1     -34.942  16.153  -1.777  1.00 20.00    -0.032 C 
HETATM   11  C1  UNL     1     -35.332  16.997  -0.816  1.00 20.00     0.007 C 
ENDBRANCH   4  10
TORSDOF 1
ENDMDL
MODEL 7
REMARK VINA RESULT:      -4.2     11.758     14.216
REMARK  1 active torsions:
REMARK  status: ('A' for Active; 'I' for Inactive)
REMARK    1  A    between atoms: C2_2  and  C6_6 
ROOT
HETATM    1  C3  UNL     1     -42.008   5.228   1.099  1.00 20.00     0.006 C 
HETATM    2  C4  UNL     1     -43.417   5.114   0.490  1.00 20.00     0.006 C 
HETATM    3  C5  UNL     1     -41.011   5.226  -1.168  1.00 20.00     0.014 C 
HETATM    4  C6  UNL     1     -42.409   5.142  -1.828  1.00 20.00     0.012 C 
HETATM    5  C7  UNL     1     -41.265   6.117   0.076  1.00 20.00    -0.006 C 
HETATM    6  C8  UNL     1     -43.291   5.935  -0.819  1.00 20.00     0.001 C 
HETATM    7  C9  UNL     1     -42.358   7.105  -0.398  1.00 20.00    -0.040 C 
HETATM    8  C10 UNL     1     -41.921   8.041  -1.542  1.00 20.00     0.015 C 
HETATM    9  C11 UNL     1     -42.927   8.017   0.707  1.00 20.00     0.015 C 
ENDROOT
BRANCH   4  10
HETATM   10  C2  UNL     1     -42.857   3.748  -2.128  1.00 20.00    -0.032 C 
HETATM   11  C1  UNL     1     -42.303   2.969  -3.063  1.00 20.00     0.007 C 
ENDBRANCH   4  10
TORSDOF 1
ENDMDL
MODEL 8
REMARK VINA RESULT:      -4.1     11.146     13.336
REMARK  1 active torsions:
REMARK  status: ('A' for Active; 'I' for Inactive)
REMARK    1  A    between atoms: C2_2  and  C6_6 
ROOT
HETATM    1  C3  UNL     1     -41.169   5.900  -1.203  1.00 20.00     0.006 C 
HETATM    2  C4  UNL     1     -42.449   6.666  -1.585  1.00 20.00     0.006 C 
HETATM    3  C5  UNL     1     -41.174   6.977   1.028  1.00 20.00     0.014 C 
HETATM    4  C6  UNL     1     -42.477   7.746   0.699  1.00 20.00     0.012 C 
HETATM    5  C7  UNL     1     -41.377   5.621   0.303  1.00 20.00    -0.006 C 
HETATM    6  C8  UNL     1     -43.214   6.747  -0.240  1.00 20.00     0.001 C 
HETATM    7  C9  UNL     1     -42.901   5.371   0.413  1.00 20.00    -0.040 C 
HETATM    8  C10 UNL     1     -43.417   5.195   1.854  1.00 20.00     0.015 C 
HETATM    9  C11 UNL     1     -43.414   4.151  -0.377  1.00 20.00     0.015 C 
ENDROOT
BRANCH   4  10
HETATM   10  C2  UNL     1     -42.252   9.116   0.145  1.00 20.00    -0.032 C 
HETATM   11  C1  UNL     1     -41.153   9.843   0.369  1.00 20.00     0.007 C 
ENDBRANCH   4  10
TORSDOF 1
ENDMDL
MODEL 9
REMARK VINA RESULT:      -4.1      0.873      2.978
REMARK  1 active torsions:
REMARK  status: ('A' for Active; 'I' for Inactive)
REMARK    1  A    between atoms: C2_2  and  C6_6 
ROOT
HETATM    1  C3  UNL     1     -33.140  16.975  -2.594  1.00 20.00     0.006 C 
HETATM    2  C4  UNL     1     -33.393  17.499  -4.019  1.00 20.00     0.006 C 
HETATM    3  C5  UNL     1     -35.559  16.514  -2.317  1.00 20.00     0.014 C 
HETATM    4  C6  UNL     1     -35.858  17.004  -3.755  1.00 20.00     0.012 C 
HETATM    5  C7  UNL     1     -34.173  15.832  -2.463  1.00 20.00    -0.006 C 
HETATM    6  C8  UNL     1     -34.558  16.602  -4.511  1.00 20.00     0.001 C 
HETATM    7  C9  UNL     1     -34.212  15.221  -3.884  1.00 20.00    -0.040 C 
HETATM    8  C10 UNL     1     -35.278  14.126  -4.080  1.00 20.00     0.015 C 
HETATM    9  C11 UNL     1     -32.880  14.612  -4.363  1.00 20.00     0.015 C 
ENDROOT
BRANCH   4  10
HETATM   10  C2  UNL     1     -36.240  18.446  -3.840  1.00 20.00    -0.032 C 
HETATM   11  C1  UNL     1     -36.491  19.217  -2.777  1.00 20.00     0.007 C 
ENDBRANCH   4  10
TORSDOF 1
ENDMDL
