MODEL 1
REMARK VINA RESULT:      -4.8      0.000      0.000
REMARK  2 active torsions:
REMARK  status: ('A' for Active; 'I' for Inactive)
REMARK    1  A    between atoms: C6_6  and  C10_10 
REMARK    2  A    between atoms: C7_7  and  C11_11 
ROOT
HETATM    1  C1  UNL     1     -25.239  16.266  11.960  1.00 20.00    -0.025 C 
HETATM    2  C2  UNL     1     -25.609  17.515  12.284  1.00 20.00    -0.025 C 
HETATM    3  C3  UNL     1     -23.302  17.464  12.316  1.00 20.00     0.017 C 
HETATM    4  C4  UNL     1     -23.831  16.344  11.413  1.00 20.00     0.013 C 
HETATM    5  C5  UNL     1     -24.446  18.423  11.961  1.00 20.00     0.013 C 
HETATM    6  C6  UNL     1     -23.919  17.041  10.028  1.00 20.00    -0.002 C 
HETATM    7  C7  UNL     1     -24.253  18.522  10.422  1.00 20.00    -0.002 C 
ENDROOT
BRANCH   6   8
HETATM    8  C10 UNL     1     -22.618  16.937   9.237  1.00 20.00     0.001 C 
HETATM    9  C8  UNL     1     -21.875  18.233   9.223  1.00 20.00     0.005 C 
ENDBRANCH   6   8
BRANCH   7  10
HETATM   10  C11 UNL     1     -25.447  19.092   9.669  1.00 20.00     0.001 C 
HETATM   11  C9  UNL     1     -25.199  19.153   8.196  1.00 20.00     0.005 C 
ENDBRANCH   7  10
TORSDOF 2
ENDMDL
MODEL 2
REMARK VINA RESULT:      -4.6      1.141      2.142
REMARK  2 active torsions:
REMARK  status: ('A' for Active; 'I' for Inactive)
REMARK    1  A    between atoms: C6_6  and  C10_10 
REMARK    2  A    between atoms: C7_7  and  C11_11 
ROOT
HETATM    1  C1  UNL     1     -24.358  15.897  10.912  1.00 20.00    -0.025 C 
HETATM    2  C2  UNL     1     -24.485  16.295  12.187  1.00 20.00    -0.025 C 
HETATM    3  C3  UNL     1     -22.768  17.529  11.263  1.00 20.00     0.017 C 
HETATM    4  C4  UNL     1     -23.699  17.027  10.153  1.00 20.00     0.013 C 
HETATM    5  C5  UNL     1     -23.905  17.687  12.280  1.00 20.00     0.013 C 
HETATM    6  C6  UNL     1     -24.743  18.172  10.047  1.00 20.00    -0.002 C 
HETATM    7  C7  UNL     1     -24.810  18.698  11.523  1.00 20.00    -0.002 C 
ENDROOT
BRANCH   6   8
HETATM    8  C10 UNL     1     -24.318  19.263   9.068  1.00 20.00     0.001 C 
HETATM    9  C8  UNL     1     -24.740  18.947   7.671  1.00 20.00     0.005 C 
ENDBRANCH   6   8
BRANCH   7  10
HETATM   10  C11 UNL     1     -26.230  18.803  12.062  1.00 20.00     0.001 C 
HETATM   11  C9  UNL     1     -27.192  19.263  11.012  1.00 20.00     0.005 C 
ENDBRANCH   7  10
TORSDOF 2
ENDMDL
MODEL 3
REMARK VINA RESULT:      -4.4     16.096     18.435
REMARK  2 active torsions:
REMARK  status: ('A' for Active; 'I' for Inactive)
REMARK    1  A    between atoms: C6_6  and  C10_10 
REMARK    2  A    between atoms: C7_7  and  C11_11 
ROOT
HETATM    1  C1  UNL     1     -34.238  16.535  -5.518  1.00 20.00    -0.025 C 
HETATM    2  C2  UNL     1     -34.086  15.266  -5.928  1.00 20.00    -0.025 C 
HETATM    3  C3  UNL     1     -32.865  15.498  -3.984  1.00 20.00     0.017 C 
HETATM    4  C4  UNL     1     -33.970  16.560  -4.030  1.00 20.00     0.013 C 
HETATM    5  C5  UNL     1     -33.710  14.447  -4.715  1.00 20.00     0.013 C 
HETATM    6  C6  UNL     1     -35.161  15.838  -3.341  1.00 20.00    -0.002 C 
HETATM    7  C7  UNL     1     -34.918  14.341  -3.743  1.00 20.00    -0.002 C 
ENDROOT
BRANCH   6   8
HETATM    8  C10 UNL     1     -35.167  16.031  -1.828  1.00 20.00     0.001 C 
HETATM    9  C8  UNL     1     -34.626  17.368  -1.439  1.00 20.00     0.005 C 
ENDBRANCH   6   8
BRANCH   7  10
HETATM   10  C11 UNL     1     -36.149  13.668  -4.334  1.00 20.00     0.001 C 
HETATM   11  C9  UNL     1     -37.342  14.570  -4.313  1.00 20.00     0.005 C 
ENDBRANCH   7  10
TORSDOF 2
ENDMDL
MODEL 4
REMARK VINA RESULT:      -4.3     16.690     18.505
REMARK  2 active torsions:
REMARK  status: ('A' for Active; 'I' for Inactive)
REMARK    1  A    between atoms: C6_6  and  C10_10 
REMARK    2  A    between atoms: C7_7  and  C11_11 
ROOT
HETATM    1  C1  UNL     1     -34.966  17.694  -3.651  1.00 20.00    -0.025 C 
HETATM    2  C2  UNL     1     -33.745  17.270  -3.291  1.00 20.00    -0.025 C 
HETATM    3  C3  UNL     1     -35.267  16.148  -1.967  1.00 20.00     0.017 C 
HETATM    4  C4  UNL     1     -35.950  16.613  -3.259  1.00 20.00     0.013 C 
HETATM    5  C5  UNL     1     -33.915  15.911  -2.652  1.00 20.00     0.013 C 
HETATM    6  C6  UNL     1     -35.712  15.413  -4.216  1.00 20.00    -0.002 C 
HETATM    7  C7  UNL     1     -34.329  14.863  -3.721  1.00 20.00    -0.002 C 
ENDROOT
BRANCH   6   8
HETATM    8  C10 UNL     1     -36.814  14.362  -4.122  1.00 20.00     0.001 C 
HETATM    9  C8  UNL     1     -38.171  14.968  -4.273  1.00 20.00     0.005 C 
ENDBRANCH   6   8
BRANCH   7  10
HETATM   10  C11 UNL     1     -33.319  14.671  -4.844  1.00 20.00     0.001 C 
HETATM   11  C9  UNL     1     -33.914  14.963  -6.184  1.00 20.00     0.005 C 
ENDBRANCH   7  10
TORSDOF 2
ENDMDL
MODEL 5
REMARK VINA RESULT:      -4.2     15.110     16.867
REMARK  2 active torsions:
REMARK  status: ('A' for Active; 'I' for Inactive)
REMARK    1  A    between atoms: C6_6  and  C10_10 
REMARK    2  A    between atoms: C7_7  and  C11_11 
ROOT
HETATM    1  C1  UNL     1     -34.127  18.584  -3.454  1.00 20.00    -0.025 C 
HETATM    2  C2  UNL     1     -33.623  17.511  -4.082  1.00 20.00    -0.025 C 
HETATM    3  C3  UNL     1     -32.755  17.511  -1.944  1.00 20.00     0.017 C 
HETATM    4  C4  UNL     1     -34.067  18.303  -1.969  1.00 20.00     0.013 C 
HETATM    5  C5  UNL     1     -33.220  16.518  -3.017  1.00 20.00     0.013 C 
HETATM    6  C6  UNL     1     -35.127  17.208  -1.670  1.00 20.00    -0.002 C 
HETATM    7  C7  UNL     1     -34.482  15.935  -2.322  1.00 20.00    -0.002 C 
ENDROOT
BRANCH   6   8
HETATM    8  C10 UNL     1     -35.375  17.024  -0.176  1.00 20.00     0.001 C 
HETATM    9  C8  UNL     1     -35.330  18.325   0.556  1.00 20.00     0.005 C 
ENDBRANCH   6   8
BRANCH   7  10
HETATM   10  C11 UNL     1     -35.428  15.187  -3.251  1.00 20.00     0.001 C 
HETATM   11  C9  UNL     1     -34.753  14.037  -3.927  1.00 20.00     0.005 C 
ENDBRANCH   7  10
TORSDOF 2
ENDMDL
MODEL 6
REMARK VINA RESULT:      -4.2     14.365     16.826
REMARK  2 active torsions:
REMARK  status: ('A' for Active; 'I' for Inactive)
REMARK    1  A    between atoms: C6_6  and  C10_10 
REMARK    2  A    between atoms: C7_7  and  C11_11 
ROOT
HETATM    1  C1  UNL     1     -35.166  16.642  -4.584  1.00 20.00    -0.025 C 
HETATM    2  C2  UNL     1     -35.627  15.769  -3.676  1.00 20.00    -0.025 C 
HETATM    3  C3  UNL     1     -33.323  15.681  -3.587  1.00 20.00     0.017 C 
HETATM    4  C4  UNL     1     -33.767  17.032  -4.161  1.00 20.00     0.013 C 
HETATM    5  C5  UNL     1     -34.534  15.570  -2.652  1.00 20.00     0.013 C 
HETATM    6  C6  UNL     1     -33.905  17.910  -2.887  1.00 20.00    -0.002 C 
HETATM    7  C7  UNL     1     -34.348  16.861  -1.808  1.00 20.00    -0.002 C 
ENDROOT
BRANCH   6   8
HETATM    8  C10 UNL     1     -32.600  18.604  -2.510  1.00 20.00     0.001 C 
HETATM    9  C8  UNL     1     -32.100  18.156  -1.176  1.00 20.00     0.005 C 
ENDBRANCH   6   8
BRANCH   7  10
HETATM   10  C11 UNL     1     -35.580  17.288  -1.022  1.00 20.00     0.001 C 
HETATM   11  C9  UNL     1     -35.366  17.178   0.454  1.00 20.00     0.005 C 
ENDBRANCH   7  10
TORSDOF 2
ENDMDL
MODEL 7
REMARK VINA RESULT:      -4.2     16.336     18.697
REMARK  2 active torsions:
REMARK  status: ('A' for Active; 'I' for Inactive)
REMARK    1  A    between atoms: C6_6  and  C10_10 
REMARK    2  A    between atoms: C7_7  and  C11_11 
ROOT
HETATM    1  C1  UNL     1     -34.289  14.874  -5.836  1.00 20.00    -0.025 C 
HETATM    2  C2  UNL     1     -35.602  14.603  -5.901  1.00 20.00    -0.025 C 
HETATM    3  C3  UNL     1     -34.828  13.720  -3.915  1.00 20.00     0.017 C 
HETATM    4  C4  UNL     1     -33.898  14.849  -4.375  1.00 20.00     0.013 C 
HETATM    5  C5  UNL     1     -36.085  14.390  -4.485  1.00 20.00     0.013 C 
HETATM    6  C6  UNL     1     -34.535  16.101  -3.712  1.00 20.00    -0.002 C 
HETATM    7  C7  UNL     1     -36.060  15.731  -3.702  1.00 20.00    -0.002 C 
ENDROOT
BRANCH   6   8
HETATM    8  C10 UNL     1     -33.998  16.357  -2.307  1.00 20.00     0.001 C 
HETATM    9  C8  UNL     1     -35.100  16.600  -1.329  1.00 20.00     0.005 C 
ENDBRANCH   6   8
BRANCH   7  10
HETATM   10  C11 UNL     1     -36.948  16.822  -4.284  1.00 20.00     0.001 C 
HETATM   11  C9  UNL     1     -36.160  18.026  -4.691  1.00 20.00     0.005 C 
ENDBRANCH   7  10
TORSDOF 2
ENDMDL
MODEL 8
REMARK VINA RESULT:      -4.2     16.426     18.617
REMARK  2 active torsions:
REMARK  status: ('A' for Active; 'I' for Inactive)
REMARK    1  A    between atoms: C6_6  and  C10_10 
REMARK    2  A    between atoms: C7_7  and  C11_11 
ROOT
HETATM    1  C1  UNL     1     -35.903  14.044  -4.496  1.00 20.00    -0.025 C 
HETATM    2  C2  UNL     1     -34.713  13.730  -3.961  1.00 20.00    -0.025 C 
HETATM    3  C3  UNL     1     -34.292  14.901  -5.905  1.00 20.00     0.017 C 
HETATM    4  C4  UNL     1     -35.691  15.250  -5.384  1.00 20.00     0.013 C 
HETATM    5  C5  UNL     1     -33.707  14.722  -4.498  1.00 20.00     0.013 C 
HETATM    6  C6  UNL     1     -35.411  16.459  -4.449  1.00 20.00    -0.002 C 
HETATM    7  C7  UNL     1     -33.976  16.133  -3.907  1.00 20.00    -0.002 C 
ENDROOT
BRANCH   6   8
HETATM    8  C10 UNL     1     -35.456  17.793  -5.188  1.00 20.00     0.001 C 
HETATM    9  C8  UNL     1     -34.138  18.494  -5.144  1.00 20.00     0.005 C 
ENDBRANCH   6   8
BRANCH   7  10
HETATM   10  C11 UNL     1     -33.871  16.215  -2.390  1.00 20.00     0.001 C 
HETATM   11  C9  UNL     1     -35.182  16.563  -1.759  1.00 20.00     0.005 C 
ENDBRANCH   7  10
TORSDOF 2
ENDMDL
MODEL 9
REMARK VINA RESULT:      -4.1     16.441     18.595
REMARK  2 active torsions:
REMARK  status: ('A' for Active; 'I' for Inactive)
REMARK    1  A    between atoms: C6_6  and  C10_10 
REMARK    2  A    between atoms: C7_7  and  C11_11 
ROOT
HETATM    1  C1  UNL     1     -34.978  15.947  -2.173  1.00 20.00    -0.025 C 
HETATM    2  C2  UNL     1     -33.741  16.337  -2.518  1.00 20.00    -0.025 C 
HETATM    3  C3  UNL     1     -34.230  14.459  -3.767  1.00 20.00     0.017 C 
HETATM    4  C4  UNL     1     -35.532  15.139  -3.325  1.00 20.00     0.013 C 
HETATM    5  C5  UNL     1     -33.468  15.784  -3.897  1.00 20.00     0.013 C 
HETATM    6  C6  UNL     1     -35.803  16.134  -4.488  1.00 20.00    -0.002 C 
HETATM    7  C7  UNL     1     -34.352  16.507  -4.951  1.00 20.00    -0.002 C 
ENDROOT
BRANCH   6   8
HETATM    8  C10 UNL     1     -36.621  15.508  -5.614  1.00 20.00     0.001 C 
HETATM    9  C8  UNL     1     -35.822  15.372  -6.868  1.00 20.00     0.005 C 
ENDBRANCH   6   8
BRANCH   7  10
HETATM   10  C11 UNL     1     -34.118  18.008  -5.052  1.00 20.00     0.001 C 
HETATM   11  C9  UNL     1     -35.361  18.786  -4.760  1.00 20.00     0.005 C 
ENDBRANCH   7  10
TORSDOF 2
ENDMDL
