MODEL 1
REMARK VINA RESULT:      -5.2      0.000      0.000
REMARK  4 active torsions:
REMARK  status: ('A' for Active; 'I' for Inactive)
REMARK    1  A    between atoms: C1_1  and  C7_7 
REMARK    2  A    between atoms: C2_2  and  C9_9 
REMARK    3  A    between atoms: C9_9  and  C11_11 
REMARK    4  A    between atoms: C10_10  and  C11_11 
ROOT
HETATM    1  C1  UNL     1     -32.812   6.695   2.348  1.00 20.00    -0.098 C 
HETATM    2  C2  UNL     1     -33.386   5.775   2.865  1.00 20.00    -0.106 C 
ENDROOT
BRANCH   1   3
HETATM    3  C7  UNL     1     -32.111   7.818   1.716  1.00 20.00     0.087 C 
HETATM    4  C4  UNL     1     -32.060   7.626   0.234  1.00 20.00    -0.014 C 
HETATM    5  C3  UNL     1     -32.891   8.451  -0.411  1.00 20.00    -0.029 C 
HETATM    6  C5  UNL     1     -33.644   9.326   0.533  1.00 20.00     0.028 C 
HETATM    7  C6  UNL     1     -32.887   9.135   1.850  1.00 20.00     0.025 C 
ENDBRANCH   1   3
BRANCH   2   8
HETATM    8  C9  UNL     1     -34.087   4.651   3.500  1.00 20.00     0.094 C 
BRANCH   8   9
HETATM    9  C11 UNL     1     -35.214   5.145   4.406  1.00 20.00     0.012 C 
BRANCH   9  10
HETATM   10  C10 UNL     1     -34.739   5.300   5.851  1.00 20.00    -0.004 C 
HETATM   11  C8  UNL     1     -34.107   6.662   6.087  1.00 20.00     0.005 C 
ENDBRANCH   9  10
ENDBRANCH   8   9
ENDBRANCH   2   8
TORSDOF 4
ENDMDL
MODEL 2
REMARK VINA RESULT:      -4.5     10.200     11.291
REMARK  4 active torsions:
REMARK  status: ('A' for Active; 'I' for Inactive)
REMARK    1  A    between atoms: C1_1  and  C7_7 
REMARK    2  A    between atoms: C2_2  and  C9_9 
REMARK    3  A    between atoms: C9_9  and  C11_11 
REMARK    4  A    between atoms: C10_10  and  C11_11 
ROOT
HETATM    1  C1  UNL     1     -34.756  15.418  -2.813  1.00 20.00    -0.098 C 
HETATM    2  C2  UNL     1     -34.943  16.312  -2.033  1.00 20.00    -0.106 C 
ENDROOT
BRANCH   1   3
HETATM    3  C7  UNL     1     -34.528  14.327  -3.767  1.00 20.00     0.087 C 
HETATM    4  C4  UNL     1     -35.801  13.986  -4.474  1.00 20.00    -0.014 C 
HETATM    5  C3  UNL     1     -35.802  14.405  -5.743  1.00 20.00    -0.029 C 
HETATM    6  C5  UNL     1     -34.534  15.107  -6.094  1.00 20.00     0.028 C 
HETATM    7  C6  UNL     1     -33.613  14.750  -4.924  1.00 20.00     0.025 C 
ENDBRANCH   1   3
BRANCH   2   8
HETATM    8  C9  UNL     1     -35.169  17.403  -1.076  1.00 20.00     0.094 C 
BRANCH   8   9
HETATM    9  C11 UNL     1     -33.874  17.791  -0.364  1.00 20.00     0.012 C 
BRANCH   9  10
HETATM   10  C10 UNL     1     -32.733  17.998  -1.360  1.00 20.00    -0.004 C 
HETATM   11  C8  UNL     1     -31.428  18.327  -0.651  1.00 20.00     0.005 C 
ENDBRANCH   9  10
ENDBRANCH   8   9
ENDBRANCH   2   8
TORSDOF 4
ENDMDL
MODEL 3
REMARK VINA RESULT:      -4.5     10.093     11.698
REMARK  4 active torsions:
REMARK  status: ('A' for Active; 'I' for Inactive)
REMARK    1  A    between atoms: C1_1  and  C7_7 
REMARK    2  A    between atoms: C2_2  and  C9_9 
REMARK    3  A    between atoms: C9_9  and  C11_11 
REMARK    4  A    between atoms: C10_10  and  C11_11 
ROOT
HETATM    1  C1  UNL     1     -32.826  17.862  -1.565  1.00 20.00    -0.098 C 
HETATM    2  C2  UNL     1     -33.042  17.001  -2.373  1.00 20.00    -0.106 C 
ENDROOT
BRANCH   1   3
HETATM    3  C7  UNL     1     -32.562  18.916  -0.578  1.00 20.00     0.087 C 
HETATM    4  C4  UNL     1     -33.333  18.652   0.676  1.00 20.00    -0.014 C 
HETATM    5  C3  UNL     1     -32.547  18.235   1.674  1.00 20.00    -0.029 C 
HETATM    6  C5  UNL     1     -31.120  18.139   1.251  1.00 20.00     0.028 C 
HETATM    7  C6  UNL     1     -31.110  18.895  -0.082  1.00 20.00     0.025 C 
ENDBRANCH   1   3
BRANCH   2   8
HETATM    8  C9  UNL     1     -33.308  15.947  -3.361  1.00 20.00     0.094 C 
BRANCH   8   9
HETATM    9  C11 UNL     1     -34.659  15.280  -3.105  1.00 20.00     0.012 C 
BRANCH   9  10
HETATM   10  C10 UNL     1     -34.807  13.993  -3.917  1.00 20.00    -0.004 C 
HETATM   11  C8  UNL     1     -36.218  13.836  -4.460  1.00 20.00     0.005 C 
ENDBRANCH   9  10
ENDBRANCH   8   9
ENDBRANCH   2   8
TORSDOF 4
ENDMDL
MODEL 4
REMARK VINA RESULT:      -4.4      9.900     11.419
REMARK  4 active torsions:
REMARK  status: ('A' for Active; 'I' for Inactive)
REMARK    1  A    between atoms: C1_1  and  C7_7 
REMARK    2  A    between atoms: C2_2  and  C9_9 
REMARK    3  A    between atoms: C9_9  and  C11_11 
REMARK    4  A    between atoms: C10_10  and  C11_11 
ROOT
HETATM    1  C1  UNL     1     -33.648  15.709  -3.354  1.00 20.00    -0.098 C 
HETATM    2  C2  UNL     1     -33.561  16.662  -2.628  1.00 20.00    -0.106 C 
ENDROOT
BRANCH   1   3
HETATM    3  C7  UNL     1     -33.754  14.545  -4.242  1.00 20.00     0.087 C 
HETATM    4  C4  UNL     1     -34.949  13.725  -3.875  1.00 20.00    -0.014 C 
HETATM    5  C3  UNL     1     -35.938  13.847  -4.766  1.00 20.00    -0.029 C 
HETATM    6  C5  UNL     1     -35.574  14.778  -5.872  1.00 20.00     0.028 C 
HETATM    7  C6  UNL     1     -34.063  14.947  -5.690  1.00 20.00     0.025 C 
ENDBRANCH   1   3
BRANCH   2   8
HETATM    8  C9  UNL     1     -33.456  17.826  -1.738  1.00 20.00     0.094 C 
BRANCH   8   9
HETATM    9  C11 UNL     1     -32.012  18.047  -1.288  1.00 20.00     0.012 C 
BRANCH   9  10
HETATM   10  C10 UNL     1     -31.953  18.645   0.117  1.00 20.00    -0.004 C 
HETATM   11  C8  UNL     1     -30.699  18.206   0.857  1.00 20.00     0.005 C 
ENDBRANCH   9  10
ENDBRANCH   8   9
ENDBRANCH   2   8
TORSDOF 4
ENDMDL
MODEL 5
REMARK VINA RESULT:      -4.4      9.704     10.819
REMARK  4 active torsions:
REMARK  status: ('A' for Active; 'I' for Inactive)
REMARK    1  A    between atoms: C1_1  and  C7_7 
REMARK    2  A    between atoms: C2_2  and  C9_9 
REMARK    3  A    between atoms: C9_9  and  C11_11 
REMARK    4  A    between atoms: C10_10  and  C11_11 
ROOT
HETATM    1  C1  UNL     1     -41.891   5.124  -1.381  1.00 20.00    -0.098 C 
HETATM    2  C2  UNL     1     -42.481   4.332  -2.064  1.00 20.00    -0.106 C 
ENDROOT
BRANCH   1   3
HETATM    3  C7  UNL     1     -41.170   6.092  -0.545  1.00 20.00     0.087 C 
HETATM    4  C4  UNL     1     -41.202   7.445  -1.182  1.00 20.00    -0.014 C 
HETATM    5  C3  UNL     1     -42.024   8.284  -0.544  1.00 20.00    -0.029 C 
HETATM    6  C5  UNL     1     -42.688   7.629   0.619  1.00 20.00     0.028 C 
HETATM    7  C6  UNL     1     -41.877   6.342   0.794  1.00 20.00     0.025 C 
ENDBRANCH   1   3
BRANCH   2   8
HETATM    8  C9  UNL     1     -43.201   3.362  -2.899  1.00 20.00     0.094 C 
BRANCH   8   9
HETATM    9  C11 UNL     1     -42.259   2.276  -3.419  1.00 20.00     0.012 C 
BRANCH   9  10
HETATM   10  C10 UNL     1     -41.810   2.568  -4.851  1.00 20.00    -0.004 C 
HETATM   11  C8  UNL     1     -42.947   3.136  -5.686  1.00 20.00     0.005 C 
ENDBRANCH   9  10
ENDBRANCH   8   9
ENDBRANCH   2   8
TORSDOF 4
ENDMDL
MODEL 6
REMARK VINA RESULT:      -4.4      9.872     11.104
REMARK  4 active torsions:
REMARK  status: ('A' for Active; 'I' for Inactive)
REMARK    1  A    between atoms: C1_1  and  C7_7 
REMARK    2  A    between atoms: C2_2  and  C9_9 
REMARK    3  A    between atoms: C9_9  and  C11_11 
REMARK    4  A    between atoms: C10_10  and  C11_11 
ROOT
HETATM    1  C1  UNL     1     -33.579  15.573  -3.499  1.00 20.00    -0.098 C 
HETATM    2  C2  UNL     1     -33.356  16.472  -2.735  1.00 20.00    -0.106 C 
ENDROOT
BRANCH   1   3
HETATM    3  C7  UNL     1     -33.853  14.475  -4.433  1.00 20.00     0.087 C 
HETATM    4  C4  UNL     1     -35.009  13.661  -3.946  1.00 20.00    -0.014 C 
HETATM    5  C3  UNL     1     -36.113  13.867  -4.671  1.00 20.00    -0.029 C 
HETATM    6  C5  UNL     1     -35.883  14.861  -5.758  1.00 20.00     0.028 C 
HETATM    7  C6  UNL     1     -34.357  14.980  -5.792  1.00 20.00     0.025 C 
ENDBRANCH   1   3
BRANCH   2   8
HETATM    8  C9  UNL     1     -33.082  17.573  -1.802  1.00 20.00     0.094 C 
BRANCH   8   9
HETATM    9  C11 UNL     1     -34.378  18.162  -1.247  1.00 20.00     0.012 C 
BRANCH   9  10
HETATM   10  C10 UNL     1     -35.292  17.070  -0.690  1.00 20.00    -0.004 C 
HETATM   11  C8  UNL     1     -35.500  17.228   0.808  1.00 20.00     0.005 C 
ENDBRANCH   9  10
ENDBRANCH   8   9
ENDBRANCH   2   8
TORSDOF 4
ENDMDL
MODEL 7
REMARK VINA RESULT:      -4.3     10.492     11.852
REMARK  4 active torsions:
REMARK  status: ('A' for Active; 'I' for Inactive)
REMARK    1  A    between atoms: C1_1  and  C7_7 
REMARK    2  A    between atoms: C2_2  and  C9_9 
REMARK    3  A    between atoms: C9_9  and  C11_11 
REMARK    4  A    between atoms: C10_10  and  C11_11 
ROOT
HETATM    1  C1  UNL     1     -33.690  17.953  -0.746  1.00 20.00    -0.098 C 
HETATM    2  C2  UNL     1     -34.339  17.105  -1.295  1.00 20.00    -0.106 C 
ENDROOT
BRANCH   1   3
HETATM    3  C7  UNL     1     -32.898  18.991  -0.076  1.00 20.00     0.087 C 
HETATM    4  C4  UNL     1     -32.923  18.782   1.404  1.00 20.00    -0.014 C 
HETATM    5  C3  UNL     1     -31.758  18.319   1.868  1.00 20.00    -0.029 C 
HETATM    6  C5  UNL     1     -30.763  18.130   0.774  1.00 20.00     0.028 C 
HETATM    7  C6  UNL     1     -31.402  18.878  -0.399  1.00 20.00     0.025 C 
ENDBRANCH   1   3
BRANCH   2   8
HETATM    8  C9  UNL     1     -35.133  16.066  -1.964  1.00 20.00     0.094 C 
BRANCH   8   9
HETATM    9  C11 UNL     1     -34.769  15.961  -3.445  1.00 20.00     0.012 C 
BRANCH   9  10
HETATM   10  C10 UNL     1     -33.267  15.752  -3.635  1.00 20.00    -0.004 C 
HETATM   11  C8  UNL     1     -32.976  14.481  -4.416  1.00 20.00     0.005 C 
ENDBRANCH   9  10
ENDBRANCH   8   9
ENDBRANCH   2   8
TORSDOF 4
ENDMDL
MODEL 8
REMARK VINA RESULT:      -4.1      0.704      5.380
REMARK  4 active torsions:
REMARK  status: ('A' for Active; 'I' for Inactive)
REMARK    1  A    between atoms: C1_1  and  C7_7 
REMARK    2  A    between atoms: C2_2  and  C9_9 
REMARK    3  A    between atoms: C9_9  and  C11_11 
REMARK    4  A    between atoms: C10_10  and  C11_11 
ROOT
HETATM    1  C1  UNL     1     -33.539   5.849   3.012  1.00 20.00    -0.098 C 
HETATM    2  C2  UNL     1     -32.791   6.635   2.497  1.00 20.00    -0.106 C 
ENDROOT
BRANCH   1   3
HETATM    3  C7  UNL     1     -34.452   4.889   3.642  1.00 20.00     0.087 C 
HETATM    4  C4  UNL     1     -33.729   4.101   4.688  1.00 20.00    -0.014 C 
HETATM    5  C3  UNL     1     -34.081   4.464   5.926  1.00 20.00    -0.029 C 
HETATM    6  C5  UNL     1     -35.089   5.562   5.915  1.00 20.00     0.028 C 
HETATM    7  C6  UNL     1     -35.553   5.583   4.456  1.00 20.00     0.025 C 
ENDBRANCH   1   3
BRANCH   2   8
HETATM    8  C9  UNL     1     -31.878   7.597   1.865  1.00 20.00     0.094 C 
BRANCH   8   9
HETATM    9  C11 UNL     1     -32.116   7.675   0.357  1.00 20.00     0.012 C 
BRANCH   9  10
HETATM   10  C10 UNL     1     -33.141   8.754   0.011  1.00 20.00    -0.004 C 
HETATM   11  C8  UNL     1     -33.176   9.849   1.064  1.00 20.00     0.005 C 
ENDBRANCH   9  10
ENDBRANCH   8   9
ENDBRANCH   2   8
TORSDOF 4
ENDMDL
MODEL 9
REMARK VINA RESULT:      -4.0     10.051     10.846
REMARK  4 active torsions:
REMARK  status: ('A' for Active; 'I' for Inactive)
REMARK    1  A    between atoms: C1_1  and  C7_7 
REMARK    2  A    between atoms: C2_2  and  C9_9 
REMARK    3  A    between atoms: C9_9  and  C11_11 
REMARK    4  A    between atoms: C10_10  and  C11_11 
ROOT
HETATM    1  C1  UNL     1     -34.894  16.705  -2.062  1.00 20.00    -0.098 C 
HETATM    2  C2  UNL     1     -35.035  16.962  -0.897  1.00 20.00    -0.106 C 
ENDROOT
BRANCH   1   3
HETATM    3  C7  UNL     1     -34.722  16.392  -3.485  1.00 20.00     0.087 C 
HETATM    4  C4  UNL     1     -33.509  15.541  -3.683  1.00 20.00    -0.014 C 
HETATM    5  C3  UNL     1     -33.822  14.274  -3.971  1.00 20.00    -0.029 C 
HETATM    6  C5  UNL     1     -35.298  14.063  -4.003  1.00 20.00     0.028 C 
HETATM    7  C6  UNL     1     -35.845  15.494  -4.021  1.00 20.00     0.025 C 
ENDBRANCH   1   3
BRANCH   2   8
HETATM    8  C9  UNL     1     -35.206  17.277   0.527  1.00 20.00     0.094 C 
BRANCH   8   9
HETATM    9  C11 UNL     1     -34.077  18.174   1.033  1.00 20.00     0.012 C 
BRANCH   9  10
HETATM   10  C10 UNL     1     -34.009  18.177   2.560  1.00 20.00    -0.004 C 
HETATM   11  C8  UNL     1     -32.635  17.757   3.058  1.00 20.00     0.005 C 
ENDBRANCH   9  10
ENDBRANCH   8   9
ENDBRANCH   2   8
TORSDOF 4
ENDMDL
