MODEL 1
REMARK VINA RESULT:      -5.3      0.000      0.000
REMARK  1 active torsions:
REMARK  status: ('A' for Active; 'I' for Inactive)
REMARK    1  A    between atoms: C6_6  and  C10_10 
ROOT
HETATM    1  C1  UNL     1     -32.158   8.093   1.112  1.00 20.00     0.017 C 
HETATM    2  C2  UNL     1     -32.651   7.248   1.807  1.00 20.00    -0.083 C 
HETATM    3  C3  UNL     1     -34.011   6.616   3.667  1.00 20.00    -0.002 C 
HETATM    4  C4  UNL     1     -33.236   6.244   2.633  1.00 20.00    -0.009 C 
HETATM    5  C7  UNL     1     -32.988   4.794   2.304  1.00 20.00     0.048 C 
HETATM    6  C8  UNL     1     -33.970   3.842   2.989  1.00 20.00     0.006 C 
HETATM    7  C9  UNL     1     -34.147   4.210   4.458  1.00 20.00     0.012 C 
HETATM    8  C10 UNL     1     -34.677   5.644   4.610  1.00 20.00     0.031 C 
ENDROOT
BRANCH   8   9
HETATM    9  C6  UNL     1     -34.543   6.083   6.037  1.00 20.00    -0.028 C 
HETATM   10  C5  UNL     1     -33.792   7.115   6.436  1.00 20.00     0.007 C 
ENDBRANCH   8   9
TORSDOF 1
ENDMDL
MODEL 2
REMARK VINA RESULT:      -4.9     11.615     12.628
REMARK  1 active torsions:
REMARK  status: ('A' for Active; 'I' for Inactive)
REMARK    1  A    between atoms: C6_6  and  C10_10 
ROOT
HETATM    1  C1  UNL     1     -34.092  14.475  -4.189  1.00 20.00     0.017 C 
HETATM    2  C2  UNL     1     -34.048  15.326  -3.344  1.00 20.00    -0.083 C 
HETATM    3  C3  UNL     1     -32.937  17.164  -2.297  1.00 20.00    -0.002 C 
HETATM    4  C4  UNL     1     -33.996  16.336  -2.339  1.00 20.00    -0.009 C 
HETATM    5  C7  UNL     1     -35.144  16.461  -1.370  1.00 20.00     0.048 C 
HETATM    6  C8  UNL     1     -35.165  17.797  -0.627  1.00 20.00     0.006 C 
HETATM    7  C9  UNL     1     -33.774  18.158  -0.118  1.00 20.00     0.012 C 
HETATM    8  C10 UNL     1     -32.771  18.264  -1.278  1.00 20.00     0.031 C 
ENDROOT
BRANCH   8   9
HETATM    9  C6  UNL     1     -31.375  18.305  -0.735  1.00 20.00    -0.028 C 
HETATM   10  C5  UNL     1     -31.078  18.490   0.555  1.00 20.00     0.007 C 
ENDBRANCH   8   9
TORSDOF 1
ENDMDL
MODEL 3
REMARK VINA RESULT:      -4.8     11.237     12.479
REMARK  1 active torsions:
REMARK  status: ('A' for Active; 'I' for Inactive)
REMARK    1  A    between atoms: C6_6  and  C10_10 
ROOT
HETATM    1  C1  UNL     1     -35.839  17.444   0.842  1.00 20.00     0.017 C 
HETATM    2  C2  UNL     1     -35.307  17.150  -0.193  1.00 20.00    -0.083 C 
HETATM    3  C3  UNL     1     -35.316  15.990  -2.282  1.00 20.00    -0.002 C 
HETATM    4  C4  UNL     1     -34.673  16.800  -1.422  1.00 20.00    -0.009 C 
HETATM    5  C7  UNL     1     -33.313  17.372  -1.729  1.00 20.00     0.048 C 
HETATM    6  C8  UNL     1     -32.930  17.259  -3.206  1.00 20.00     0.006 C 
HETATM    7  C9  UNL     1     -33.246  15.869  -3.745  1.00 20.00     0.012 C 
HETATM    8  C10 UNL     1     -34.743  15.550  -3.607  1.00 20.00     0.031 C 
ENDROOT
BRANCH   8   9
HETATM    9  C6  UNL     1     -34.970  14.087  -3.845  1.00 20.00    -0.028 C 
HETATM   10  C5  UNL     1     -36.023  13.589  -4.500  1.00 20.00     0.007 C 
ENDBRANCH   8   9
TORSDOF 1
ENDMDL
MODEL 4
REMARK VINA RESULT:      -4.6     16.176     16.959
REMARK  1 active torsions:
REMARK  status: ('A' for Active; 'I' for Inactive)
REMARK    1  A    between atoms: C6_6  and  C10_10 
ROOT
HETATM    1  C1  UNL     1     -25.019  19.263   6.619  1.00 20.00     0.017 C 
HETATM    2  C2  UNL     1     -24.503  18.909   7.643  1.00 20.00    -0.083 C 
HETATM    3  C3  UNL     1     -24.664  18.026   9.858  1.00 20.00    -0.002 C 
HETATM    4  C4  UNL     1     -23.890  18.489   8.860  1.00 20.00    -0.009 C 
HETATM    5  C7  UNL     1     -22.388  18.555   8.980  1.00 20.00     0.048 C 
HETATM    6  C8  UNL     1     -21.838  17.719  10.137  1.00 20.00     0.006 C 
HETATM    7  C9  UNL     1     -22.655  17.943  11.405  1.00 20.00     0.012 C 
HETATM    8  C10 UNL     1     -24.128  17.560  11.189  1.00 20.00     0.031 C 
ENDROOT
BRANCH   8   9
HETATM    9  C6  UNL     1     -24.955  18.078  12.327  1.00 20.00    -0.028 C 
HETATM   10  C5  UNL     1     -26.167  18.625  12.183  1.00 20.00     0.007 C 
ENDBRANCH   8   9
TORSDOF 1
ENDMDL
MODEL 5
REMARK VINA RESULT:      -4.6      0.959      4.043
REMARK  1 active torsions:
REMARK  status: ('A' for Active; 'I' for Inactive)
REMARK    1  A    between atoms: C6_6  and  C10_10 
ROOT
HETATM    1  C1  UNL     1     -34.452   6.578   6.625  1.00 20.00     0.017 C 
HETATM    2  C2  UNL     1     -34.094   6.436   5.488  1.00 20.00    -0.083 C 
HETATM    3  C3  UNL     1     -32.960   7.243   3.546  1.00 20.00    -0.002 C 
HETATM    4  C4  UNL     1     -33.670   6.266   4.137  1.00 20.00    -0.009 C 
HETATM    5  C7  UNL     1     -34.011   4.983   3.422  1.00 20.00     0.048 C 
HETATM    6  C8  UNL     1     -33.176   4.755   2.161  1.00 20.00     0.006 C 
HETATM    7  C9  UNL     1     -33.097   6.027   1.324  1.00 20.00     0.012 C 
HETATM    8  C10 UNL     1     -32.464   7.177   2.123  1.00 20.00     0.031 C 
ENDROOT
BRANCH   8   9
HETATM    9  C6  UNL     1     -32.685   8.473   1.403  1.00 20.00    -0.028 C 
HETATM   10  C5  UNL     1     -33.068   8.563   0.125  1.00 20.00     0.007 C 
ENDBRANCH   8   9
TORSDOF 1
ENDMDL
MODEL 6
REMARK VINA RESULT:      -4.5     16.470     17.124
REMARK  1 active torsions:
REMARK  status: ('A' for Active; 'I' for Inactive)
REMARK    1  A    between atoms: C6_6  and  C10_10 
ROOT
HETATM    1  C1  UNL     1     -21.678  17.338   7.495  1.00 20.00     0.017 C 
HETATM    2  C2  UNL     1     -22.229  17.495   8.549  1.00 20.00    -0.083 C 
HETATM    3  C3  UNL     1     -24.222  17.819   9.827  1.00 20.00    -0.002 C 
HETATM    4  C4  UNL     1     -22.884  17.682   9.802  1.00 20.00    -0.009 C 
HETATM    5  C7  UNL     1     -22.057  17.693  11.062  1.00 20.00     0.048 C 
HETATM    6  C8  UNL     1     -22.887  17.494  12.331  1.00 20.00     0.006 C 
HETATM    7  C9  UNL     1     -24.139  18.363  12.304  1.00 20.00     0.012 C 
HETATM    8  C10 UNL     1     -25.020  18.026  11.091  1.00 20.00     0.031 C 
ENDROOT
BRANCH   8   9
HETATM    9  C6  UNL     1     -26.063  19.089  10.914  1.00 20.00    -0.028 C 
HETATM   10  C5  UNL     1     -27.219  19.122  11.583  1.00 20.00     0.007 C 
ENDBRANCH   8   9
TORSDOF 1
ENDMDL
MODEL 7
REMARK VINA RESULT:      -4.4     11.792     12.368
REMARK  1 active torsions:
REMARK  status: ('A' for Active; 'I' for Inactive)
REMARK    1  A    between atoms: C6_6  and  C10_10 
ROOT
HETATM    1  C1  UNL     1     -38.385  14.640  -4.270  1.00 20.00     0.017 C 
HETATM    2  C2  UNL     1     -37.218  14.850  -4.084  1.00 20.00    -0.083 C 
HETATM    3  C3  UNL     1     -35.453  15.754  -2.753  1.00 20.00    -0.002 C 
HETATM    4  C4  UNL     1     -35.831  15.098  -3.864  1.00 20.00    -0.009 C 
HETATM    5  C7  UNL     1     -34.831  14.594  -4.873  1.00 20.00     0.048 C 
HETATM    6  C8  UNL     1     -33.398  14.562  -4.338  1.00 20.00     0.006 C 
HETATM    7  C9  UNL     1     -33.064  15.854  -3.601  1.00 20.00     0.012 C 
HETATM    8  C10 UNL     1     -34.017  16.078  -2.417  1.00 20.00     0.031 C 
ENDROOT
BRANCH   8   9
HETATM    9  C6  UNL     1     -33.874  17.483  -1.914  1.00 20.00    -0.028 C 
HETATM   10  C5  UNL     1     -32.792  17.944  -1.278  1.00 20.00     0.007 C 
ENDBRANCH   8   9
TORSDOF 1
ENDMDL
MODEL 8
REMARK VINA RESULT:      -4.4     11.360     12.505
REMARK  1 active torsions:
REMARK  status: ('A' for Active; 'I' for Inactive)
REMARK    1  A    between atoms: C6_6  and  C10_10 
ROOT
HETATM    1  C1  UNL     1     -35.161  13.934  -4.132  1.00 20.00     0.017 C 
HETATM    2  C2  UNL     1     -34.817  14.858  -3.447  1.00 20.00    -0.083 C 
HETATM    3  C3  UNL     1     -35.133  16.270  -1.545  1.00 20.00    -0.002 C 
HETATM    4  C4  UNL     1     -34.408  15.956  -2.634  1.00 20.00    -0.009 C 
HETATM    5  C7  UNL     1     -33.159  16.713  -3.007  1.00 20.00     0.048 C 
HETATM    6  C8  UNL     1     -32.613  17.576  -1.868  1.00 20.00     0.006 C 
HETATM    7  C9  UNL     1     -33.735  18.358  -1.192  1.00 20.00     0.012 C 
HETATM    8  C10 UNL     1     -34.799  17.411  -0.616  1.00 20.00     0.031 C 
ENDROOT
BRANCH   8   9
HETATM    9  C6  UNL     1     -36.023  18.195  -0.246  1.00 20.00    -0.028 C 
HETATM   10  C5  UNL     1     -37.177  18.142  -0.918  1.00 20.00     0.007 C 
ENDBRANCH   8   9
TORSDOF 1
ENDMDL
MODEL 9
REMARK VINA RESULT:      -4.4     11.427     12.705
REMARK  1 active torsions:
REMARK  status: ('A' for Active; 'I' for Inactive)
REMARK    1  A    between atoms: C6_6  and  C10_10 
ROOT
HETATM    1  C1  UNL     1     -36.208  17.748   1.496  1.00 20.00     0.017 C 
HETATM    2  C2  UNL     1     -35.541  17.564   0.515  1.00 20.00    -0.083 C 
HETATM    3  C3  UNL     1     -35.267  16.643  -1.673  1.00 20.00    -0.002 C 
HETATM    4  C4  UNL     1     -34.748  17.346  -0.650  1.00 20.00    -0.009 C 
HETATM    5  C7  UNL     1     -33.361  17.934  -0.708  1.00 20.00     0.048 C 
HETATM    6  C8  UNL     1     -32.784  17.981  -2.124  1.00 20.00     0.006 C 
HETATM    7  C9  UNL     1     -33.020  16.662  -2.851  1.00 20.00     0.012 C 
HETATM    8  C10 UNL     1     -34.521  16.346  -2.950  1.00 20.00     0.031 C 
ENDROOT
BRANCH   8   9
HETATM    9  C6  UNL     1     -34.709  14.921  -3.377  1.00 20.00    -0.028 C 
HETATM   10  C5  UNL     1     -33.862  14.260  -4.173  1.00 20.00     0.007 C 
ENDBRANCH   8   9
TORSDOF 1
ENDMDL
