MODEL 1
REMARK VINA RESULT:      -6.1      0.000      0.000
REMARK  0 active torsions:
REMARK  status: ('A' for Active; 'I' for Inactive)
ROOT
HETATM    1  C1  UNL     1     -33.596   4.631   2.582  1.00 20.00     0.017 A 
HETATM    2  C2  UNL     1     -32.902   5.715   2.210  1.00 20.00     0.054 A 
HETATM    3  C3  UNL     1     -33.549   6.860   4.352  1.00 20.00     0.060 A 
HETATM    4  C4  UNL     1     -34.248   5.778   4.738  1.00 20.00    -0.044 A 
HETATM    5  C5  UNL     1     -34.343   4.538   3.881  1.00 20.00     0.221 A 
HETATM    6  C6  UNL     1     -32.800   6.948   3.054  1.00 20.00     0.280 A 
HETATM    7  C7  UNL     1     -34.984   5.736   6.045  1.00 20.00     0.046 C 
HETATM    8  F8  UNL     1     -33.884   3.461   4.581  1.00 20.00    -0.240 F 
HETATM    9  F9  UNL     1     -31.487   7.215   3.308  1.00 20.00    -0.197 F 
HETATM   10  F10 UNL     1     -33.256   8.020   2.343  1.00 20.00    -0.197 F 
ENDROOT
TORSDOF 0
ENDMDL
MODEL 2
REMARK VINA RESULT:      -6.0      1.316      3.807
REMARK  0 active torsions:
REMARK  status: ('A' for Active; 'I' for Inactive)
ROOT
HETATM    1  C1  UNL     1     -33.849   6.913   5.701  1.00 20.00     0.017 A 
HETATM    2  C2  UNL     1     -34.513   5.751   5.635  1.00 20.00     0.054 A 
HETATM    3  C3  UNL     1     -33.899   5.542   3.207  1.00 20.00     0.060 A 
HETATM    4  C4  UNL     1     -33.228   6.706   3.259  1.00 20.00    -0.044 A 
HETATM    5  C5  UNL     1     -33.134   7.520   4.528  1.00 20.00     0.221 A 
HETATM    6  C6  UNL     1     -34.610   4.937   4.382  1.00 20.00     0.280 A 
HETATM    7  C7  UNL     1     -32.533   7.274   2.057  1.00 20.00     0.046 C 
HETATM    8  F8  UNL     1     -31.823   7.706   4.857  1.00 20.00    -0.240 F 
HETATM    9  F9  UNL     1     -34.115   3.688   4.615  1.00 20.00    -0.197 F 
HETATM   10  F10 UNL     1     -35.925   4.751   4.066  1.00 20.00    -0.197 F 
ENDROOT
TORSDOF 0
ENDMDL
MODEL 3
REMARK VINA RESULT:      -5.1      1.759      2.745
REMARK  0 active torsions:
REMARK  status: ('A' for Active; 'I' for Inactive)
ROOT
HETATM    1  C1  UNL     1     -32.681   7.254   4.021  1.00 20.00     0.017 A 
HETATM    2  C2  UNL     1     -32.701   6.597   2.853  1.00 20.00     0.054 A 
HETATM    3  C3  UNL     1     -34.258   4.891   3.843  1.00 20.00     0.060 A 
HETATM    4  C4  UNL     1     -34.248   5.541   5.021  1.00 20.00    -0.044 A 
HETATM    5  C5  UNL     1     -33.448   6.804   5.231  1.00 20.00     0.221 A 
HETATM    6  C6  UNL     1     -33.492   5.345   2.635  1.00 20.00     0.280 A 
HETATM    7  C7  UNL     1     -35.028   5.048   6.204  1.00 20.00     0.046 C 
HETATM    8  F8  UNL     1     -34.278   7.811   5.629  1.00 20.00    -0.240 F 
HETATM    9  F9  UNL     1     -34.357   5.532   1.597  1.00 20.00    -0.197 F 
HETATM   10  F10 UNL     1     -32.654   4.346   2.231  1.00 20.00    -0.197 F 
ENDROOT
TORSDOF 0
ENDMDL
MODEL 4
REMARK VINA RESULT:      -5.0      1.397      3.384
REMARK  0 active torsions:
REMARK  status: ('A' for Active; 'I' for Inactive)
ROOT
HETATM    1  C1  UNL     1     -33.293   4.858   2.462  1.00 20.00     0.017 A 
HETATM    2  C2  UNL     1     -34.276   4.472   3.286  1.00 20.00     0.054 A 
HETATM    3  C3  UNL     1     -33.877   6.504   4.711  1.00 20.00     0.060 A 
HETATM    4  C4  UNL     1     -32.888   6.904   3.891  1.00 20.00    -0.044 A 
HETATM    5  C5  UNL     1     -32.492   6.111   2.668  1.00 20.00     0.221 A 
HETATM    6  C6  UNL     1     -34.678   5.252   4.500  1.00 20.00     0.280 A 
HETATM    7  C7  UNL     1     -32.112   8.163   4.143  1.00 20.00     0.046 C 
HETATM    8  F8  UNL     1     -32.602   6.896   1.558  1.00 20.00    -0.240 F 
HETATM    9  F9  UNL     1     -36.001   5.573   4.414  1.00 20.00    -0.197 F 
HETATM   10  F10 UNL     1     -34.570   4.458   5.603  1.00 20.00    -0.197 F 
ENDROOT
TORSDOF 0
ENDMDL
MODEL 5
REMARK VINA RESULT:      -5.0     11.522     12.143
REMARK  0 active torsions:
REMARK  status: ('A' for Active; 'I' for Inactive)
ROOT
HETATM    1  C1  UNL     1     -35.629  15.025  -3.256  1.00 20.00     0.017 A 
HETATM    2  C2  UNL     1     -34.938  14.293  -4.140  1.00 20.00     0.054 A 
HETATM    3  C3  UNL     1     -32.890  15.675  -3.679  1.00 20.00     0.060 A 
HETATM    4  C4  UNL     1     -33.571  16.417  -2.788  1.00 20.00    -0.044 A 
HETATM    5  C5  UNL     1     -35.028  16.163  -2.483  1.00 20.00     0.221 A 
HETATM    6  C6  UNL     1     -33.493  14.536  -4.448  1.00 20.00     0.280 A 
HETATM    7  C7  UNL     1     -32.927  17.548  -2.042  1.00 20.00     0.046 C 
HETATM    8  F8  UNL     1     -35.182  15.922  -1.148  1.00 20.00    -0.240 F 
HETATM    9  F9  UNL     1     -32.781  13.399  -4.203  1.00 20.00    -0.197 F 
HETATM   10  F10 UNL     1     -33.349  14.770  -5.785  1.00 20.00    -0.197 F 
ENDROOT
TORSDOF 0
ENDMDL
MODEL 6
REMARK VINA RESULT:      -4.9      1.965      3.265
REMARK  0 active torsions:
REMARK  status: ('A' for Active; 'I' for Inactive)
ROOT
HETATM    1  C1  UNL     1     -34.101   4.179   3.691  1.00 20.00     0.017 A 
HETATM    2  C2  UNL     1     -34.463   4.627   4.901  1.00 20.00     0.054 A 
HETATM    3  C3  UNL     1     -33.481   6.876   4.358  1.00 20.00     0.060 A 
HETATM    4  C4  UNL     1     -33.114   6.439   3.139  1.00 20.00    -0.044 A 
HETATM    5  C5  UNL     1     -33.391   5.028   2.678  1.00 20.00     0.221 A 
HETATM    6  C6  UNL     1     -34.194   6.025   5.367  1.00 20.00     0.280 A 
HETATM    7  C7  UNL     1     -32.400   7.327   2.162  1.00 20.00     0.046 C 
HETATM    8  F8  UNL     1     -34.128   5.059   1.529  1.00 20.00    -0.240 F 
HETATM    9  F9  UNL     1     -35.372   6.621   5.709  1.00 20.00    -0.197 F 
HETATM   10  F10 UNL     1     -33.462   5.983   6.518  1.00 20.00    -0.197 F 
ENDROOT
TORSDOF 0
ENDMDL
MODEL 7
REMARK VINA RESULT:      -4.7     11.354     12.247
REMARK  0 active torsions:
REMARK  status: ('A' for Active; 'I' for Inactive)
ROOT
HETATM    1  C1  UNL     1     -32.789  15.411  -3.929  1.00 20.00     0.017 A 
HETATM    2  C2  UNL     1     -33.553  14.492  -4.535  1.00 20.00     0.054 A 
HETATM    3  C3  UNL     1     -35.462  15.075  -3.007  1.00 20.00     0.060 A 
HETATM    4  C4  UNL     1     -34.707  16.002  -2.391  1.00 20.00    -0.044 A 
HETATM    5  C5  UNL     1     -33.276  16.267  -2.795  1.00 20.00     0.221 A 
HETATM    6  C6  UNL     1     -34.973  14.223  -4.143  1.00 20.00     0.280 A 
HETATM    7  C7  UNL     1     -35.238  16.830  -1.258  1.00 20.00     0.046 C 
HETATM    8  F8  UNL     1     -33.132  17.580  -3.138  1.00 20.00    -0.240 F 
HETATM    9  F9  UNL     1     -35.783  14.405  -5.224  1.00 20.00    -0.197 F 
HETATM   10  F10 UNL     1     -35.108  12.907  -3.808  1.00 20.00    -0.197 F 
ENDROOT
TORSDOF 0
ENDMDL
MODEL 8
REMARK VINA RESULT:      -4.6     15.925     16.609
REMARK  0 active torsions:
REMARK  status: ('A' for Active; 'I' for Inactive)
ROOT
HETATM    1  C1  UNL     1     -23.711  18.034   9.508  1.00 20.00     0.017 A 
HETATM    2  C2  UNL     1     -23.327  16.902  10.112  1.00 20.00     0.054 A 
HETATM    3  C3  UNL     1     -25.052  17.275  11.902  1.00 20.00     0.060 A 
HETATM    4  C4  UNL     1     -25.449  18.413  11.304  1.00 20.00    -0.044 A 
HETATM    5  C5  UNL     1     -24.810  18.914  10.031  1.00 20.00     0.221 A 
HETATM    6  C6  UNL     1     -23.955  16.396  11.374  1.00 20.00     0.280 A 
HETATM    7  C7  UNL     1     -26.551  19.261  11.870  1.00 20.00     0.046 C 
HETATM    8  F8  UNL     1     -25.764  19.054   9.065  1.00 20.00    -0.240 F 
HETATM    9  F9  UNL     1     -24.444  15.141  11.164  1.00 20.00    -0.197 F 
HETATM   10  F10 UNL     1     -22.994  16.254  12.332  1.00 20.00    -0.197 F 
ENDROOT
TORSDOF 0
ENDMDL
MODEL 9
REMARK VINA RESULT:      -4.6      1.854      2.892
REMARK  0 active torsions:
REMARK  status: ('A' for Active; 'I' for Inactive)
ROOT
HETATM    1  C1  UNL     1     -34.778   5.474   4.874  1.00 20.00     0.017 A 
HETATM    2  C2  UNL     1     -34.630   4.740   3.763  1.00 20.00     0.054 A 
HETATM    3  C3  UNL     1     -32.783   6.265   3.003  1.00 20.00     0.060 A 
HETATM    4  C4  UNL     1     -32.919   7.010   4.114  1.00 20.00    -0.044 A 
HETATM    5  C5  UNL     1     -33.944   6.686   5.175  1.00 20.00     0.221 A 
HETATM    6  C6  UNL     1     -33.615   5.052   2.706  1.00 20.00     0.280 A 
HETATM    7  C7  UNL     1     -32.064   8.217   4.368  1.00 20.00     0.046 C 
HETATM    8  F8  UNL     1     -33.319   6.508   6.375  1.00 20.00    -0.240 F 
HETATM    9  F9  UNL     1     -32.798   3.975   2.532  1.00 20.00    -0.197 F 
HETATM   10  F10 UNL     1     -34.249   5.223   1.510  1.00 20.00    -0.197 F 
ENDROOT
TORSDOF 0
ENDMDL
