MODEL 1
REMARK VINA RESULT:      -4.5      0.000      0.000
REMARK  0 active torsions:
REMARK  status: ('A' for Active; 'I' for Inactive)
ROOT
HETATM    1  C1  UNL     1     -41.169   5.334  -1.167  1.00 20.00     0.005 C 
HETATM    2  C2  UNL     1     -41.680   7.753  -1.540  1.00 20.00     0.005 C 
HETATM    3  C3  UNL     1     -42.670   5.040  -1.030  1.00 20.00     0.011 C 
HETATM    4  C4  UNL     1     -43.181   7.456  -1.401  1.00 20.00     0.011 C 
HETATM    5  C5  UNL     1     -41.289   6.902   0.782  1.00 20.00     0.084 C 
HETATM    6  C6  UNL     1     -40.859   6.765  -0.692  1.00 20.00    -0.009 C 
HETATM    7  C7  UNL     1     -43.400   6.265  -0.453  1.00 20.00     0.058 C 
HETATM    8  C8  UNL     1     -42.782   6.605   0.907  1.00 20.00     0.247 C 
HETATM    9  F9  UNL     1     -42.973   5.574   1.769  1.00 20.00    -0.206 F 
HETATM   10  F10 UNL     1     -43.417   7.675   1.447  1.00 20.00    -0.206 F 
ENDROOT
TORSDOF 0
ENDMDL
MODEL 2
REMARK VINA RESULT:      -4.4      1.487      2.677
REMARK  0 active torsions:
REMARK  status: ('A' for Active; 'I' for Inactive)
ROOT
HETATM    1  C1  UNL     1     -41.192   5.402  -1.165  1.00 20.00     0.005 C 
HETATM    2  C2  UNL     1     -43.417   5.641  -0.051  1.00 20.00     0.005 C 
HETATM    3  C3  UNL     1     -40.517   6.063   0.045  1.00 20.00     0.011 C 
HETATM    4  C4  UNL     1     -42.739   6.302   1.158  1.00 20.00     0.011 C 
HETATM    5  C5  UNL     1     -42.563   7.464  -1.539  1.00 20.00     0.084 C 
HETATM    6  C6  UNL     1     -42.625   5.937  -1.337  1.00 20.00    -0.009 C 
HETATM    7  C7  UNL     1     -41.480   7.061   0.710  1.00 20.00     0.058 C 
HETATM    8  C8  UNL     1     -41.887   8.110  -0.330  1.00 20.00     0.247 C 
HETATM    9  F9  UNL     1     -40.794   8.806  -0.735  1.00 20.00    -0.206 F 
HETATM   10  F10 UNL     1     -42.727   9.015   0.233  1.00 20.00    -0.206 F 
ENDROOT
TORSDOF 0
ENDMDL
MODEL 3
REMARK VINA RESULT:      -4.4     11.968     13.061
REMARK  0 active torsions:
REMARK  status: ('A' for Active; 'I' for Inactive)
ROOT
HETATM    1  C1  UNL     1     -34.768  15.902  -2.161  1.00 20.00     0.005 C 
HETATM    2  C2  UNL     1     -36.072  16.298  -4.257  1.00 20.00     0.005 C 
HETATM    3  C3  UNL     1     -33.550  16.595  -2.790  1.00 20.00     0.011 C 
HETATM    4  C4  UNL     1     -34.852  16.990  -4.884  1.00 20.00     0.011 C 
HETATM    5  C5  UNL     1     -34.749  14.190  -3.989  1.00 20.00     0.084 C 
HETATM    6  C6  UNL     1     -35.619  15.225  -3.251  1.00 20.00    -0.009 C 
HETATM    7  C7  UNL     1     -33.554  16.394  -4.315  1.00 20.00     0.058 C 
HETATM    8  C8  UNL     1     -33.540  14.890  -4.608  1.00 20.00     0.247 C 
HETATM    9  F9  UNL     1     -32.396  14.339  -4.127  1.00 20.00    -0.206 F 
HETATM   10  F10 UNL     1     -33.528  14.682  -5.948  1.00 20.00    -0.206 F 
ENDROOT
TORSDOF 0
ENDMDL
MODEL 4
REMARK VINA RESULT:      -4.4     11.705     12.799
REMARK  0 active torsions:
REMARK  status: ('A' for Active; 'I' for Inactive)
ROOT
HETATM    1  C1  UNL     1     -34.042  17.373  -4.525  1.00 20.00     0.005 C 
HETATM    2  C2  UNL     1     -33.837  16.402  -2.230  1.00 20.00     0.005 C 
HETATM    3  C3  UNL     1     -35.491  16.872  -4.606  1.00 20.00     0.011 C 
HETATM    4  C4  UNL     1     -35.287  15.901  -2.315  1.00 20.00     0.011 C 
HETATM    5  C5  UNL     1     -33.234  15.022  -4.230  1.00 20.00     0.084 C 
HETATM    6  C6  UNL     1     -33.203  16.441  -3.632  1.00 20.00    -0.009 C 
HETATM    7  C7  UNL     1     -35.655  15.588  -3.775  1.00 20.00     0.058 C 
HETATM    8  C8  UNL     1     -34.680  14.534  -4.309  1.00 20.00     0.247 C 
HETATM    9  F9  UNL     1     -34.991  14.229  -5.594  1.00 20.00    -0.206 F 
HETATM   10  F10 UNL     1     -34.813  13.384  -3.602  1.00 20.00    -0.206 F 
ENDROOT
TORSDOF 0
ENDMDL
MODEL 5
REMARK VINA RESULT:      -4.4     12.149     13.257
REMARK  0 active torsions:
REMARK  status: ('A' for Active; 'I' for Inactive)
ROOT
HETATM    1  C1  UNL     1     -34.825  14.068  -3.895  1.00 20.00     0.005 C 
HETATM    2  C2  UNL     1     -35.021  15.890  -2.194  1.00 20.00     0.005 C 
HETATM    3  C3  UNL     1     -33.420  14.565  -4.262  1.00 20.00     0.011 C 
HETATM    4  C4  UNL     1     -33.615  16.385  -2.564  1.00 20.00     0.011 C 
HETATM    5  C5  UNL     1     -35.789  16.287  -4.543  1.00 20.00     0.084 C 
HETATM    6  C6  UNL     1     -35.698  15.242  -3.414  1.00 20.00    -0.009 C 
HETATM    7  C7  UNL     1     -33.319  16.084  -4.042  1.00 20.00     0.058 C 
HETATM    8  C8  UNL     1     -34.385  16.771  -4.902  1.00 20.00     0.247 C 
HETATM    9  F9  UNL     1     -34.140  16.533  -6.216  1.00 20.00    -0.206 F 
HETATM   10  F10 UNL     1     -34.310  18.116  -4.740  1.00 20.00    -0.206 F 
ENDROOT
TORSDOF 0
ENDMDL
MODEL 6
REMARK VINA RESULT:      -4.3     11.828     12.927
REMARK  0 active torsions:
REMARK  status: ('A' for Active; 'I' for Inactive)
ROOT
HETATM    1  C1  UNL     1     -33.621  16.553  -2.371  1.00 20.00     0.005 C 
HETATM    2  C2  UNL     1     -33.323  14.797  -4.126  1.00 20.00     0.005 C 
HETATM    3  C3  UNL     1     -35.029  16.016  -2.075  1.00 20.00     0.011 C 
HETATM    4  C4  UNL     1     -34.733  14.263  -3.828  1.00 20.00     0.011 C 
HETATM    5  C5  UNL     1     -34.287  17.024  -4.738  1.00 20.00     0.084 C 
HETATM    6  C6  UNL     1     -33.255  16.309  -3.846  1.00 20.00    -0.009 C 
HETATM    7  C7  UNL     1     -35.642  15.405  -3.347  1.00 20.00     0.058 C 
HETATM    8  C8  UNL     1     -35.684  16.485  -4.434  1.00 20.00     0.247 C 
HETATM    9  F9  UNL     1     -36.493  17.502  -4.041  1.00 20.00    -0.206 F 
HETATM   10  F10 UNL     1     -36.235  15.977  -5.565  1.00 20.00    -0.206 F 
ENDROOT
TORSDOF 0
ENDMDL
MODEL 7
REMARK VINA RESULT:      -4.3      1.308      2.791
REMARK  0 active torsions:
REMARK  status: ('A' for Active; 'I' for Inactive)
ROOT
HETATM    1  C1  UNL     1     -43.417   7.465  -1.519  1.00 20.00     0.005 C 
HETATM    2  C2  UNL     1     -42.574   5.248  -0.730  1.00 20.00     0.005 C 
HETATM    3  C3  UNL     1     -41.981   7.889  -1.859  1.00 20.00     0.011 C 
HETATM    4  C4  UNL     1     -41.138   5.675  -1.071  1.00 20.00     0.011 C 
HETATM    5  C5  UNL     1     -42.768   7.155   0.879  1.00 20.00     0.084 C 
HETATM    6  C6  UNL     1     -43.417   6.474  -0.341  1.00 20.00    -0.009 C 
HETATM    7  C7  UNL     1     -40.986   7.196  -0.913  1.00 20.00     0.058 C 
HETATM    8  C8  UNL     1     -41.341   7.575   0.529  1.00 20.00     0.247 C 
HETATM    9  F9  UNL     1     -41.202   8.914   0.701  1.00 20.00    -0.206 F 
HETATM   10  F10 UNL     1     -40.469   6.989   1.387  1.00 20.00    -0.206 F 
ENDROOT
TORSDOF 0
ENDMDL
MODEL 8
REMARK VINA RESULT:      -4.3      1.946      2.830
REMARK  0 active torsions:
REMARK  status: ('A' for Active; 'I' for Inactive)
ROOT
HETATM    1  C1  UNL     1     -40.976   7.879   0.690  1.00 20.00     0.005 C 
HETATM    2  C2  UNL     1     -43.417   7.528   0.284  1.00 20.00     0.005 C 
HETATM    3  C3  UNL     1     -40.727   7.895  -0.825  1.00 20.00     0.011 C 
HETATM    4  C4  UNL     1     -43.166   7.543  -1.232  1.00 20.00     0.011 C 
HETATM    5  C5  UNL     1     -41.895   5.556   0.526  1.00 20.00     0.084 C 
HETATM    6  C6  UNL     1     -42.183   6.985   1.025  1.00 20.00    -0.009 C 
HETATM    7  C7  UNL     1     -41.759   7.006  -1.541  1.00 20.00     0.058 C 
HETATM    8  C8  UNL     1     -41.646   5.584  -0.982  1.00 20.00     0.247 C 
HETATM    9  F9  UNL     1     -40.416   5.079  -1.253  1.00 20.00    -0.206 F 
HETATM   10  F10 UNL     1     -42.536   4.772  -1.606  1.00 20.00    -0.206 F 
ENDROOT
TORSDOF 0
ENDMDL
MODEL 9
REMARK VINA RESULT:      -4.3     11.940     13.066
REMARK  0 active torsions:
REMARK  status: ('A' for Active; 'I' for Inactive)
ROOT
HETATM    1  C1  UNL     1     -36.144  16.438  -3.909  1.00 20.00     0.005 C 
HETATM    2  C2  UNL     1     -34.019  17.549  -4.617  1.00 20.00     0.005 C 
HETATM    3  C3  UNL     1     -35.438  15.888  -2.661  1.00 20.00     0.011 C 
HETATM    4  C4  UNL     1     -33.316  16.996  -3.368  1.00 20.00     0.011 C 
HETATM    5  C5  UNL     1     -34.522  15.217  -5.375  1.00 20.00     0.084 C 
HETATM    6  C6  UNL     1     -35.140  16.594  -5.065  1.00 20.00    -0.009 C 
HETATM    7  C7  UNL     1     -33.946  15.657  -2.954  1.00 20.00     0.058 C 
HETATM    8  C8  UNL     1     -33.826  14.678  -4.126  1.00 20.00     0.247 C 
HETATM    9  F9  UNL     1     -34.364  13.480  -3.783  1.00 20.00    -0.206 F 
HETATM   10  F10 UNL     1     -32.518  14.443  -4.398  1.00 20.00    -0.206 F 
ENDROOT
TORSDOF 0
ENDMDL
