MODEL 1
REMARK VINA RESULT:      -4.8      0.000      0.000
REMARK  2 active torsions:
REMARK  status: ('A' for Active; 'I' for Inactive)
REMARK    1  A    between atoms: C7_7  and  C9_9 
REMARK    2  A    between atoms: C8_8  and  C10_10 
ROOT
HETATM    1  C1  UNL     1     -25.615  18.932   6.823  1.00 20.00     0.012 C 
HETATM    2  C2  UNL     1     -25.031  19.077   7.861  1.00 20.00    -0.112 C 
HETATM    3  C6  UNL     1     -24.331  19.251   9.102  1.00 20.00     0.074 A 
HETATM    4  C9  UNL     1     -24.208  18.055  10.023  1.00 20.00     0.011 A 
HETATM    5  C10 UNL     1     -23.004  18.544   9.277  1.00 20.00     0.011 A 
ENDROOT
BRANCH   4   6
HETATM    6  C7  UNL     1     -23.786  18.130  11.489  1.00 20.00    -0.008 C 
HETATM    7  C3  UNL     1     -25.081  18.202  12.331  1.00 20.00     0.005 C 
HETATM    8  C4  UNL     1     -25.663  16.773  12.185  1.00 20.00     0.005 C 
HETATM    9  C8  UNL     1     -24.623  16.073  11.278  1.00 20.00    -0.008 C 
HETATM   10  C5  UNL     1     -23.327  16.700  11.816  1.00 20.00     0.010 C 
ENDBRANCH   4   6
TORSDOF 2
ENDMDL
MODEL 2
REMARK VINA RESULT:      -4.4     13.768     16.986
REMARK  2 active torsions:
REMARK  status: ('A' for Active; 'I' for Inactive)
REMARK    1  A    between atoms: C7_7  and  C9_9 
REMARK    2  A    between atoms: C8_8  and  C10_10 
ROOT
HETATM    1  C1  UNL     1     -31.874  18.155  -1.163  1.00 20.00     0.012 C 
HETATM    2  C2  UNL     1     -32.913  17.795  -1.644  1.00 20.00    -0.112 C 
HETATM    3  C6  UNL     1     -34.156  17.365  -2.219  1.00 20.00     0.074 A 
HETATM    4  C9  UNL     1     -34.276  15.920  -2.657  1.00 20.00     0.011 A 
HETATM    5  C10 UNL     1     -35.004  16.388  -1.433  1.00 20.00     0.011 A 
ENDROOT
BRANCH   4   6
HETATM    6  C7  UNL     1     -35.383  15.377  -3.556  1.00 20.00    -0.008 C 
HETATM    7  C3  UNL     1     -35.188  16.014  -4.952  1.00 20.00     0.005 C 
HETATM    8  C4  UNL     1     -33.908  15.310  -5.472  1.00 20.00     0.005 C 
HETATM    9  C8  UNL     1     -33.541  14.365  -4.304  1.00 20.00    -0.008 C 
HETATM   10  C5  UNL     1     -34.945  13.933  -3.852  1.00 20.00     0.010 C 
ENDBRANCH   4   6
TORSDOF 2
ENDMDL
MODEL 3
REMARK VINA RESULT:      -4.2     15.986     17.819
REMARK  2 active torsions:
REMARK  status: ('A' for Active; 'I' for Inactive)
REMARK    1  A    between atoms: C7_7  and  C9_9 
REMARK    2  A    between atoms: C8_8  and  C10_10 
ROOT
HETATM    1  C1  UNL     1     -36.273  18.381  -1.221  1.00 20.00     0.012 C 
HETATM    2  C2  UNL     1     -35.683  17.376  -1.505  1.00 20.00    -0.112 C 
HETATM    3  C6  UNL     1     -34.976  16.173  -1.844  1.00 20.00     0.074 A 
HETATM    4  C9  UNL     1     -34.851  15.810  -3.309  1.00 20.00     0.011 A 
HETATM    5  C10 UNL     1     -33.650  16.305  -2.561  1.00 20.00     0.011 A 
ENDROOT
BRANCH   4   6
HETATM    6  C7  UNL     1     -34.421  14.440  -3.828  1.00 20.00    -0.008 C 
HETATM    7  C3  UNL     1     -35.693  13.733  -4.353  1.00 20.00     0.005 C 
HETATM    8  C4  UNL     1     -36.020  14.532  -5.640  1.00 20.00     0.005 C 
HETATM    9  C8  UNL     1     -34.892  15.590  -5.680  1.00 20.00    -0.008 C 
HETATM   10  C5  UNL     1     -33.715  14.752  -5.157  1.00 20.00     0.010 C 
ENDBRANCH   4   6
TORSDOF 2
ENDMDL
MODEL 4
REMARK VINA RESULT:      -4.2     15.522     17.574
REMARK  2 active torsions:
REMARK  status: ('A' for Active; 'I' for Inactive)
REMARK    1  A    between atoms: C7_7  and  C9_9 
REMARK    2  A    between atoms: C8_8  and  C10_10 
ROOT
HETATM    1  C1  UNL     1     -34.309  15.290  -7.631  1.00 20.00     0.012 C 
HETATM    2  C2  UNL     1     -34.057  15.097  -6.474  1.00 20.00    -0.112 C 
HETATM    3  C6  UNL     1     -33.753  14.865  -5.090  1.00 20.00     0.074 A 
HETATM    4  C9  UNL     1     -34.409  15.759  -4.058  1.00 20.00     0.011 A 
HETATM    5  C10 UNL     1     -34.856  14.335  -4.199  1.00 20.00     0.011 A 
ENDROOT
BRANCH   4   6
HETATM    6  C7  UNL     1     -33.971  15.863  -2.599  1.00 20.00    -0.008 C 
HETATM    7  C3  UNL     1     -33.040  17.093  -2.491  1.00 20.00     0.005 C 
HETATM    8  C4  UNL     1     -34.021  18.280  -2.670  1.00 20.00     0.005 C 
HETATM    9  C8  UNL     1     -35.383  17.571  -2.858  1.00 20.00    -0.008 C 
HETATM   10  C5  UNL     1     -35.217  16.399  -1.876  1.00 20.00     0.010 C 
ENDBRANCH   4   6
TORSDOF 2
ENDMDL
MODEL 5
REMARK VINA RESULT:      -4.1     11.758     15.305
REMARK  2 active torsions:
REMARK  status: ('A' for Active; 'I' for Inactive)
REMARK    1  A    between atoms: C7_7  and  C9_9 
REMARK    2  A    between atoms: C8_8  and  C10_10 
ROOT
HETATM    1  C1  UNL     1     -30.690  18.108   0.962  1.00 20.00     0.012 C 
HETATM    2  C2  UNL     1     -31.240  18.341  -0.079  1.00 20.00    -0.112 C 
HETATM    3  C6  UNL     1     -31.897  18.621  -1.324  1.00 20.00     0.074 A 
HETATM    4  C9  UNL     1     -33.127  17.811  -1.678  1.00 20.00     0.011 A 
HETATM    5  C10 UNL     1     -33.275  19.247  -1.278  1.00 20.00     0.011 A 
ENDROOT
BRANCH   4   6
HETATM    6  C7  UNL     1     -33.755  17.751  -3.069  1.00 20.00    -0.008 C 
HETATM    7  C3  UNL     1     -33.451  16.348  -3.644  1.00 20.00     0.005 C 
HETATM    8  C4  UNL     1     -34.357  15.426  -2.788  1.00 20.00     0.005 C 
HETATM    9  C8  UNL     1     -35.057  16.424  -1.837  1.00 20.00    -0.008 C 
HETATM   10  C5  UNL     1     -35.259  17.612  -2.790  1.00 20.00     0.010 C 
ENDBRANCH   4   6
TORSDOF 2
ENDMDL
MODEL 6
REMARK VINA RESULT:      -4.1     15.831     18.613
REMARK  2 active torsions:
REMARK  status: ('A' for Active; 'I' for Inactive)
REMARK    1  A    between atoms: C7_7  and  C9_9 
REMARK    2  A    between atoms: C8_8  and  C10_10 
ROOT
HETATM    1  C1  UNL     1     -35.344  16.953  -1.012  1.00 20.00     0.012 C 
HETATM    2  C2  UNL     1     -34.973  16.231  -1.896  1.00 20.00    -0.112 C 
HETATM    3  C6  UNL     1     -34.529  15.366  -2.952  1.00 20.00     0.074 A 
HETATM    4  C9  UNL     1     -34.546  15.905  -4.367  1.00 20.00     0.011 A 
HETATM    5  C10 UNL     1     -33.238  15.714  -3.661  1.00 20.00     0.011 A 
ENDROOT
BRANCH   4   6
HETATM    6  C7  UNL     1     -34.413  15.046  -5.622  1.00 20.00    -0.008 C 
HETATM    7  C3  UNL     1     -35.821  14.492  -5.945  1.00 20.00     0.005 C 
HETATM    8  C4  UNL     1     -36.579  15.753  -6.436  1.00 20.00     0.005 C 
HETATM    9  C8  UNL     1     -35.504  16.859  -6.328  1.00 20.00    -0.008 C 
HETATM   10  C5  UNL     1     -34.257  16.070  -6.757  1.00 20.00     0.010 C 
ENDBRANCH   4   6
TORSDOF 2
ENDMDL
MODEL 7
REMARK VINA RESULT:      -4.1     15.287     18.482
REMARK  2 active torsions:
REMARK  status: ('A' for Active; 'I' for Inactive)
REMARK    1  A    between atoms: C7_7  and  C9_9 
REMARK    2  A    between atoms: C8_8  and  C10_10 
ROOT
HETATM    1  C1  UNL     1     -32.881  17.803  -2.342  1.00 20.00     0.012 C 
HETATM    2  C2  UNL     1     -33.356  16.748  -2.660  1.00 20.00    -0.112 C 
HETATM    3  C6  UNL     1     -33.923  15.486  -3.039  1.00 20.00     0.074 A 
HETATM    4  C9  UNL     1     -34.686  15.412  -4.345  1.00 20.00     0.011 A 
HETATM    5  C10 UNL     1     -33.335  14.771  -4.237  1.00 20.00     0.011 A 
ENDROOT
BRANCH   4   6
HETATM    6  C7  UNL     1     -35.605  14.261  -4.747  1.00 20.00    -0.008 C 
HETATM    7  C3  UNL     1     -37.020  14.605  -4.224  1.00 20.00     0.005 C 
HETATM    8  C4  UNL     1     -37.452  15.769  -5.153  1.00 20.00     0.005 C 
HETATM    9  C8  UNL     1     -36.228  15.935  -6.083  1.00 20.00    -0.008 C 
HETATM   10  C5  UNL     1     -35.816  14.465  -6.256  1.00 20.00     0.010 C 
ENDBRANCH   4   6
TORSDOF 2
ENDMDL
MODEL 8
REMARK VINA RESULT:      -3.9     15.485     16.432
REMARK  2 active torsions:
REMARK  status: ('A' for Active; 'I' for Inactive)
REMARK    1  A    between atoms: C7_7  and  C9_9 
REMARK    2  A    between atoms: C8_8  and  C10_10 
ROOT
HETATM    1  C1  UNL     1     -33.008   8.916   0.808  1.00 20.00     0.012 C 
HETATM    2  C2  UNL     1     -32.736   7.980   1.508  1.00 20.00    -0.112 C 
HETATM    3  C6  UNL     1     -32.410   6.860   2.344  1.00 20.00     0.074 A 
HETATM    4  C9  UNL     1     -33.505   6.276   3.211  1.00 20.00     0.011 A 
HETATM    5  C10 UNL     1     -33.026   5.519   2.010  1.00 20.00     0.011 A 
ENDROOT
BRANCH   4   6
HETATM    6  C7  UNL     1     -33.271   5.312   4.371  1.00 20.00    -0.008 C 
HETATM    7  C3  UNL     1     -33.613   6.074   5.673  1.00 20.00     0.005 C 
HETATM    8  C4  UNL     1     -35.157   6.197   5.599  1.00 20.00     0.005 C 
HETATM    9  C8  UNL     1     -35.491   5.490   4.265  1.00 20.00    -0.008 C 
HETATM   10  C5  UNL     1     -34.464   4.347   4.298  1.00 20.00     0.010 C 
ENDBRANCH   4   6
TORSDOF 2
ENDMDL
MODEL 9
REMARK VINA RESULT:      -3.8     16.468     18.641
REMARK  2 active torsions:
REMARK  status: ('A' for Active; 'I' for Inactive)
REMARK    1  A    between atoms: C7_7  and  C9_9 
REMARK    2  A    between atoms: C8_8  and  C10_10 
ROOT
HETATM    1  C1  UNL     1     -36.221  18.336  -7.521  1.00 20.00     0.012 C 
HETATM    2  C2  UNL     1     -35.408  17.537  -7.146  1.00 20.00    -0.112 C 
HETATM    3  C6  UNL     1     -34.435  16.582  -6.698  1.00 20.00     0.074 A 
HETATM    4  C9  UNL     1     -34.748  15.776  -5.455  1.00 20.00     0.011 A 
HETATM    5  C10 UNL     1     -34.782  15.112  -6.798  1.00 20.00     0.011 A 
ENDROOT
BRANCH   4   6
HETATM    6  C7  UNL     1     -33.723  14.961  -4.669  1.00 20.00    -0.008 C 
HETATM    7  C3  UNL     1     -33.182  15.876  -3.545  1.00 20.00     0.005 C 
HETATM    8  C4  UNL     1     -34.391  15.980  -2.580  1.00 20.00     0.005 C 
HETATM    9  C8  UNL     1     -35.463  15.113  -3.281  1.00 20.00    -0.008 C 
HETATM   10  C5  UNL     1     -34.578  13.988  -3.842  1.00 20.00     0.010 C 
ENDBRANCH   4   6
TORSDOF 2
ENDMDL
