MODEL 1
REMARK VINA RESULT:      -5.8      0.000      0.000
REMARK  1 active torsions:
REMARK  status: ('A' for Active; 'I' for Inactive)
REMARK    1  A    between atoms: C4_4  and  C6_6 
ROOT
HETATM    1  C1  UNL     1     -32.898   9.176   0.706  1.00 20.00     0.012 C 
HETATM    2  C2  UNL     1     -32.710   8.188   1.362  1.00 20.00    -0.109 C 
HETATM    3  C3  UNL     1     -32.996   7.197   3.566  1.00 20.00    -0.003 C 
HETATM    4  C4  UNL     1     -33.721   6.288   4.242  1.00 20.00    -0.061 C 
HETATM    5  C7  UNL     1     -34.058   4.936   3.665  1.00 20.00     0.038 C 
HETATM    6  C8  UNL     1     -33.216   4.579   2.436  1.00 20.00     0.006 C 
HETATM    7  C9  UNL     1     -33.116   5.761   1.479  1.00 20.00     0.021 C 
HETATM    8  C10 UNL     1     -32.479   6.977   2.168  1.00 20.00     0.087 C 
ENDROOT
BRANCH   4   9
HETATM    9  C6  UNL     1     -34.207   6.555   5.574  1.00 20.00    -0.004 C 
HETATM   10  C5  UNL     1     -34.886   5.602   6.233  1.00 20.00     0.012 C 
ENDBRANCH   4   9
TORSDOF 1
ENDMDL
MODEL 2
REMARK VINA RESULT:      -5.0     10.906     12.040
REMARK  1 active torsions:
REMARK  status: ('A' for Active; 'I' for Inactive)
REMARK    1  A    between atoms: C4_4  and  C6_6 
ROOT
HETATM    1  C1  UNL     1     -30.887  18.482   0.269  1.00 20.00     0.012 C 
HETATM    2  C2  UNL     1     -31.899  18.357  -0.365  1.00 20.00    -0.109 C 
HETATM    3  C3  UNL     1     -32.895  17.271  -2.301  1.00 20.00    -0.003 C 
HETATM    4  C4  UNL     1     -33.741  16.288  -2.657  1.00 20.00    -0.061 C 
HETATM    5  C7  UNL     1     -35.044  16.049  -1.937  1.00 20.00     0.038 C 
HETATM    6  C8  UNL     1     -35.460  17.218  -1.039  1.00 20.00     0.006 C 
HETATM    7  C9  UNL     1     -34.278  17.730  -0.225  1.00 20.00     0.021 C 
HETATM    8  C10 UNL     1     -33.140  18.203  -1.143  1.00 20.00     0.087 C 
ENDROOT
BRANCH   4   9
HETATM    9  C6  UNL     1     -33.451  15.411  -3.765  1.00 20.00    -0.004 C 
HETATM   10  C5  UNL     1     -34.310  14.425  -4.070  1.00 20.00     0.012 C 
ENDBRANCH   4   9
TORSDOF 1
ENDMDL
MODEL 3
REMARK VINA RESULT:      -4.7     11.065     12.062
REMARK  1 active torsions:
REMARK  status: ('A' for Active; 'I' for Inactive)
REMARK    1  A    between atoms: C4_4  and  C6_6 
ROOT
HETATM    1  C1  UNL     1     -34.045  15.119  -6.072  1.00 20.00     0.012 C 
HETATM    2  C2  UNL     1     -34.000  15.245  -4.878  1.00 20.00    -0.109 C 
HETATM    3  C3  UNL     1     -32.914  16.441  -3.059  1.00 20.00    -0.003 C 
HETATM    4  C4  UNL     1     -33.117  17.405  -2.143  1.00 20.00    -0.061 C 
HETATM    5  C7  UNL     1     -34.399  17.510  -1.357  1.00 20.00     0.038 C 
HETATM    6  C8  UNL     1     -35.260  16.246  -1.437  1.00 20.00     0.006 C 
HETATM    7  C9  UNL     1     -35.340  15.729  -2.869  1.00 20.00     0.021 C 
HETATM    8  C10 UNL     1     -33.943  15.399  -3.415  1.00 20.00     0.087 C 
ENDROOT
BRANCH   4   9
HETATM    9  C6  UNL     1     -32.104  18.390  -1.852  1.00 20.00    -0.004 C 
HETATM   10  C5  UNL     1     -31.494  18.377  -0.655  1.00 20.00     0.012 C 
ENDBRANCH   4   9
TORSDOF 1
ENDMDL
MODEL 4
REMARK VINA RESULT:      -4.7     15.270     16.258
REMARK  1 active torsions:
REMARK  status: ('A' for Active; 'I' for Inactive)
REMARK    1  A    between atoms: C4_4  and  C6_6 
ROOT
HETATM    1  C1  UNL     1     -26.118  18.848   6.422  1.00 20.00     0.012 C 
HETATM    2  C2  UNL     1     -25.317  18.981   7.307  1.00 20.00    -0.109 C 
HETATM    3  C3  UNL     1     -25.022  18.965   9.722  1.00 20.00    -0.003 C 
HETATM    4  C4  UNL     1     -24.511  18.238  10.730  1.00 20.00    -0.061 C 
HETATM    5  C7  UNL     1     -23.171  17.552  10.630  1.00 20.00     0.038 C 
HETATM    6  C8  UNL     1     -22.325  18.054   9.456  1.00 20.00     0.006 C 
HETATM    7  C9  UNL     1     -23.163  18.172   8.189  1.00 20.00     0.021 C 
HETATM    8  C10 UNL     1     -24.335  19.145   8.392  1.00 20.00     0.087 C 
ENDROOT
BRANCH   4   9
HETATM    9  C6  UNL     1     -25.217  18.084  11.979  1.00 20.00    -0.004 C 
HETATM   10  C5  UNL     1     -26.468  18.560  12.094  1.00 20.00     0.012 C 
ENDBRANCH   4   9
TORSDOF 1
ENDMDL
MODEL 5
REMARK VINA RESULT:      -4.6     10.984     12.181
REMARK  1 active torsions:
REMARK  status: ('A' for Active; 'I' for Inactive)
REMARK    1  A    between atoms: C4_4  and  C6_6 
ROOT
HETATM    1  C1  UNL     1     -37.438  18.265  -0.541  1.00 20.00     0.012 C 
HETATM    2  C2  UNL     1     -36.340  17.794  -0.661  1.00 20.00    -0.109 C 
HETATM    3  C3  UNL     1     -35.033  16.104  -1.827  1.00 20.00    -0.003 C 
HETATM    4  C4  UNL     1     -34.108  15.946  -2.790  1.00 20.00    -0.061 C 
HETATM    5  C7  UNL     1     -32.916  16.861  -2.919  1.00 20.00     0.038 C 
HETATM    6  C8  UNL     1     -32.679  17.721  -1.674  1.00 20.00     0.006 C 
HETATM    7  C9  UNL     1     -33.986  18.318  -1.165  1.00 20.00     0.021 C 
HETATM    8  C10 UNL     1     -34.994  17.215  -0.808  1.00 20.00     0.087 C 
ENDROOT
BRANCH   4   9
HETATM    9  C6  UNL     1     -34.201  14.875  -3.752  1.00 20.00    -0.004 C 
HETATM   10  C5  UNL     1     -33.100  14.486  -4.416  1.00 20.00     0.012 C 
ENDBRANCH   4   9
TORSDOF 1
ENDMDL
MODEL 6
REMARK VINA RESULT:      -4.4     10.536     11.643
REMARK  1 active torsions:
REMARK  status: ('A' for Active; 'I' for Inactive)
REMARK    1  A    between atoms: C4_4  and  C6_6 
ROOT
HETATM    1  C1  UNL     1     -34.805  13.959  -3.823  1.00 20.00     0.012 C 
HETATM    2  C2  UNL     1     -34.687  15.086  -3.425  1.00 20.00    -0.109 C 
HETATM    3  C3  UNL     1     -35.308  16.630  -1.650  1.00 20.00    -0.003 C 
HETATM    4  C4  UNL     1     -34.821  17.267  -0.571  1.00 20.00    -0.061 C 
HETATM    5  C7  UNL     1     -33.459  17.914  -0.564  1.00 20.00     0.038 C 
HETATM    6  C8  UNL     1     -32.867  18.085  -1.966  1.00 20.00     0.006 C 
HETATM    7  C9  UNL     1     -33.054  16.821  -2.797  1.00 20.00     0.021 C 
HETATM    8  C10 UNL     1     -34.542  16.468  -2.938  1.00 20.00     0.087 C 
ENDROOT
BRANCH   4   9
HETATM    9  C6  UNL     1     -35.589  17.380   0.645  1.00 20.00    -0.004 C 
HETATM   10  C5  UNL     1     -35.064  18.020   1.703  1.00 20.00     0.012 C 
ENDBRANCH   4   9
TORSDOF 1
ENDMDL
MODEL 7
REMARK VINA RESULT:      -4.3     11.136     11.764
REMARK  1 active torsions:
REMARK  status: ('A' for Active; 'I' for Inactive)
REMARK    1  A    between atoms: C4_4  and  C6_6 
ROOT
HETATM    1  C1  UNL     1     -34.648  18.711  -1.446  1.00 20.00     0.012 C 
HETATM    2  C2  UNL     1     -34.397  17.598  -1.819  1.00 20.00    -0.109 C 
HETATM    3  C3  UNL     1     -35.357  15.558  -2.734  1.00 20.00    -0.003 C 
HETATM    4  C4  UNL     1     -35.448  14.833  -3.863  1.00 20.00    -0.061 C 
HETATM    5  C7  UNL     1     -34.265  14.603  -4.769  1.00 20.00     0.038 C 
HETATM    6  C8  UNL     1     -32.926  14.949  -4.112  1.00 20.00     0.006 C 
HETATM    7  C9  UNL     1     -33.009  16.278  -3.369  1.00 20.00     0.021 C 
HETATM    8  C10 UNL     1     -34.089  16.233  -2.277  1.00 20.00     0.087 C 
ENDROOT
BRANCH   4   9
HETATM    9  C6  UNL     1     -36.691  14.221  -4.264  1.00 20.00    -0.004 C 
HETATM   10  C5  UNL     1     -37.805  14.969  -4.330  1.00 20.00     0.012 C 
ENDBRANCH   4   9
TORSDOF 1
ENDMDL
MODEL 8
REMARK VINA RESULT:      -4.3      0.836      4.087
REMARK  1 active torsions:
REMARK  status: ('A' for Active; 'I' for Inactive)
REMARK    1  A    between atoms: C4_4  and  C6_6 
ROOT
HETATM    1  C1  UNL     1     -34.894   5.750   6.721  1.00 20.00     0.012 C 
HETATM    2  C2  UNL     1     -34.805   5.632   5.530  1.00 20.00    -0.109 C 
HETATM    3  C3  UNL     1     -33.926   6.654   3.504  1.00 20.00    -0.003 C 
HETATM    4  C4  UNL     1     -32.960   6.528   2.577  1.00 20.00    -0.061 C 
HETATM    5  C7  UNL     1     -32.579   5.192   1.988  1.00 20.00     0.038 C 
HETATM    6  C8  UNL     1     -33.610   4.095   2.267  1.00 20.00     0.006 C 
HETATM    7  C9  UNL     1     -34.067   4.131   3.721  1.00 20.00     0.021 C 
HETATM    8  C10 UNL     1     -34.697   5.488   4.068  1.00 20.00     0.087 C 
ENDROOT
BRANCH   4   9
HETATM    9  C6  UNL     1     -32.239   7.675   2.082  1.00 20.00    -0.004 C 
HETATM   10  C5  UNL     1     -32.636   8.263   0.941  1.00 20.00     0.012 C 
ENDBRANCH   4   9
TORSDOF 1
ENDMDL
MODEL 9
REMARK VINA RESULT:      -4.3     10.992     12.010
REMARK  1 active torsions:
REMARK  status: ('A' for Active; 'I' for Inactive)
REMARK    1  A    between atoms: C4_4  and  C6_6 
ROOT
HETATM    1  C1  UNL     1     -35.021  15.846  -2.328  1.00 20.00     0.012 C 
HETATM    2  C2  UNL     1     -34.476  16.797  -1.837  1.00 20.00    -0.109 C 
HETATM    3  C3  UNL     1     -34.091  17.994   0.246  1.00 20.00    -0.003 C 
HETATM    4  C4  UNL     1     -33.153  18.244   1.177  1.00 20.00    -0.061 C 
HETATM    5  C7  UNL     1     -31.721  18.549   0.815  1.00 20.00     0.038 C 
HETATM    6  C8  UNL     1     -31.535  18.898  -0.665  1.00 20.00     0.006 C 
HETATM    7  C9  UNL     1     -32.307  17.930  -1.555  1.00 20.00     0.021 C 
HETATM    8  C10 UNL     1     -33.808  17.963  -1.234  1.00 20.00     0.087 C 
ENDROOT
BRANCH   4   9
HETATM    9  C6  UNL     1     -33.472  18.245   2.584  1.00 20.00    -0.004 C 
HETATM   10  C5  UNL     1     -32.583  17.758   3.464  1.00 20.00     0.012 C 
ENDBRANCH   4   9
TORSDOF 1
ENDMDL
