MODEL 1
REMARK VINA RESULT:      -5.2      0.000      0.000
REMARK  0 active torsions:
REMARK  status: ('A' for Active; 'I' for Inactive)
ROOT
HETATM    1  C1  UNL     1     -35.437  16.245  -1.967  1.00 20.00     0.009 A 
HETATM    2  C2  UNL     1     -34.507  17.105  -1.380  1.00 20.00     0.019 A 
HETATM    3  C3  UNL     1     -32.873  16.519  -3.066  1.00 20.00     0.032 A 
HETATM    4  C4  UNL     1     -33.815  15.675  -3.650  1.00 20.00    -0.011 A 
HETATM    5  C5  UNL     1     -35.097  15.529  -3.115  1.00 20.00    -0.045 A 
HETATM    6  C6  UNL     1     -33.228  17.241  -1.929  1.00 20.00     0.011 A 
HETATM    7  C7  UNL     1     -33.477  14.876  -4.831  1.00 20.00     0.122 C 
HETATM    8  C8  UNL     1     -36.028  14.543  -3.754  1.00 20.00     0.061 C 
HETATM    9  C9  UNL     1     -35.760  14.472  -5.254  1.00 20.00     0.153 C 
HETATM   10  N10 UNL     1     -34.339  14.265  -5.572  1.00 20.00    -0.300 NA
HETATM   11 BR11 UNL     1     -31.974  18.402  -1.118  1.00 20.00    -0.051 Br
ENDROOT
TORSDOF 0
ENDMDL
MODEL 2
REMARK VINA RESULT:      -4.9      3.082      4.709
REMARK  0 active torsions:
REMARK  status: ('A' for Active; 'I' for Inactive)
ROOT
HETATM    1  C1  UNL     1     -32.883  16.206  -3.426  1.00 20.00     0.009 A 
HETATM    2  C2  UNL     1     -33.701  15.289  -4.090  1.00 20.00     0.019 A 
HETATM    3  C3  UNL     1     -35.472  15.681  -2.488  1.00 20.00     0.032 A 
HETATM    4  C4  UNL     1     -34.652  16.603  -1.843  1.00 20.00    -0.011 A 
HETATM    5  C5  UNL     1     -33.359  16.877  -2.299  1.00 20.00    -0.045 A 
HETATM    6  C6  UNL     1     -34.992  15.028  -3.621  1.00 20.00     0.011 A 
HETATM    7  C7  UNL     1     -35.105  17.294  -0.632  1.00 20.00     0.122 C 
HETATM    8  C8  UNL     1     -32.509  17.823  -1.507  1.00 20.00     0.061 C 
HETATM    9  C9  UNL     1     -33.386  18.890  -0.857  1.00 20.00     0.153 C 
HETATM   10  N10 UNL     1     -34.523  18.323  -0.117  1.00 20.00    -0.300 NA
HETATM   11 BR11 UNL     1     -36.085  13.777  -4.524  1.00 20.00    -0.051 Br
ENDROOT
TORSDOF 0
ENDMDL
MODEL 3
REMARK VINA RESULT:      -4.8      3.159      4.690
REMARK  0 active torsions:
REMARK  status: ('A' for Active; 'I' for Inactive)
ROOT
HETATM    1  C1  UNL     1     -35.182  16.727  -1.175  1.00 20.00     0.009 A 
HETATM    2  C2  UNL     1     -35.060  15.848  -2.254  1.00 20.00     0.019 A 
HETATM    3  C3  UNL     1     -32.881  16.762  -2.776  1.00 20.00     0.032 A 
HETATM    4  C4  UNL     1     -33.009  17.624  -1.689  1.00 20.00    -0.011 A 
HETATM    5  C5  UNL     1     -34.150  17.617  -0.881  1.00 20.00    -0.045 A 
HETATM    6  C6  UNL     1     -33.912  15.866  -3.051  1.00 20.00     0.011 A 
HETATM    7  C7  UNL     1     -31.962  18.601  -1.378  1.00 20.00     0.122 C 
HETATM    8  C8  UNL     1     -34.248  18.628   0.221  1.00 20.00     0.061 C 
HETATM    9  C9  UNL     1     -32.859  18.927   0.777  1.00 20.00     0.153 C 
HETATM   10  N10 UNL     1     -31.883  19.259  -0.271  1.00 20.00    -0.300 NA
HETATM   11 BR11 UNL     1     -33.763  14.677  -4.514  1.00 20.00    -0.051 Br
ENDROOT
TORSDOF 0
ENDMDL
MODEL 4
REMARK VINA RESULT:      -4.7      1.558      2.523
REMARK  0 active torsions:
REMARK  status: ('A' for Active; 'I' for Inactive)
ROOT
HETATM    1  C1  UNL     1     -32.840  17.250  -2.241  1.00 20.00     0.009 A 
HETATM    2  C2  UNL     1     -33.480  17.821  -1.139  1.00 20.00     0.019 A 
HETATM    3  C3  UNL     1     -35.398  16.387  -1.487  1.00 20.00     0.032 A 
HETATM    4  C4  UNL     1     -34.743  15.817  -2.575  1.00 20.00    -0.011 A 
HETATM    5  C5  UNL     1     -33.467  16.235  -2.963  1.00 20.00    -0.045 A 
HETATM    6  C6  UNL     1     -34.756  17.390  -0.764  1.00 20.00     0.011 A 
HETATM    7  C7  UNL     1     -35.390  14.777  -3.381  1.00 20.00     0.122 C 
HETATM    8  C8  UNL     1     -32.860  15.628  -4.192  1.00 20.00     0.061 C 
HETATM    9  C9  UNL     1     -33.321  14.180  -4.338  1.00 20.00     0.153 C 
HETATM   10  N10 UNL     1     -34.780  14.032  -4.240  1.00 20.00    -0.300 NA
HETATM   11 BR11 UNL     1     -35.616  18.178   0.725  1.00 20.00    -0.051 Br
ENDROOT
TORSDOF 0
ENDMDL
MODEL 5
REMARK VINA RESULT:      -4.6      1.376      2.290
REMARK  0 active torsions:
REMARK  status: ('A' for Active; 'I' for Inactive)
ROOT
HETATM    1  C1  UNL     1     -33.290  15.736  -3.632  1.00 20.00     0.009 A 
HETATM    2  C2  UNL     1     -33.096  16.627  -2.574  1.00 20.00     0.019 A 
HETATM    3  C3  UNL     1     -35.459  16.559  -2.057  1.00 20.00     0.032 A 
HETATM    4  C4  UNL     1     -35.637  15.660  -3.106  1.00 20.00    -0.011 A 
HETATM    5  C5  UNL     1     -34.566  15.240  -3.899  1.00 20.00    -0.045 A 
HETATM    6  C6  UNL     1     -34.177  17.036  -1.789  1.00 20.00     0.011 A 
HETATM    7  C7  UNL     1     -36.971  15.152  -3.441  1.00 20.00     0.122 C 
HETATM    8  C8  UNL     1     -34.850  14.333  -5.058  1.00 20.00     0.061 C 
HETATM    9  C9  UNL     1     -36.025  13.417  -4.726  1.00 20.00     0.153 C 
HETATM   10  N10 UNL     1     -37.196  14.150  -4.222  1.00 20.00    -0.300 NA
HETATM   11 BR11 UNL     1     -33.901  18.250  -0.365  1.00 20.00    -0.051 Br
ENDROOT
TORSDOF 0
ENDMDL
MODEL 6
REMARK VINA RESULT:      -4.5      1.933      3.102
REMARK  0 active torsions:
REMARK  status: ('A' for Active; 'I' for Inactive)
ROOT
HETATM    1  C1  UNL     1     -32.823  17.994  -1.234  1.00 20.00     0.009 A 
HETATM    2  C2  UNL     1     -33.394  18.362  -0.013  1.00 20.00     0.019 A 
HETATM    3  C3  UNL     1     -35.330  16.989  -0.484  1.00 20.00     0.032 A 
HETATM    4  C4  UNL     1     -34.743  16.619  -1.692  1.00 20.00    -0.011 A 
HETATM    5  C5  UNL     1     -33.493  17.110  -2.079  1.00 20.00    -0.045 A 
HETATM    6  C6  UNL     1     -34.644  17.860   0.359  1.00 20.00     0.011 A 
HETATM    7  C7  UNL     1     -35.439  15.725  -2.622  1.00 20.00     0.122 C 
HETATM    8  C8  UNL     1     -32.964  16.728  -3.427  1.00 20.00     0.061 C 
HETATM    9  C9  UNL     1     -33.433  15.322  -3.790  1.00 20.00     0.153 C 
HETATM   10  N10 UNL     1     -34.883  15.144  -3.631  1.00 20.00    -0.300 NA
HETATM   11 BR11 UNL     1     -35.411  18.374   2.010  1.00 20.00    -0.051 Br
ENDROOT
TORSDOF 0
ENDMDL
MODEL 7
REMARK VINA RESULT:      -4.4      3.097      4.314
REMARK  0 active torsions:
REMARK  status: ('A' for Active; 'I' for Inactive)
ROOT
HETATM    1  C1  UNL     1     -34.738  15.872  -2.223  1.00 20.00     0.009 A 
HETATM    2  C2  UNL     1     -35.217  15.226  -3.366  1.00 20.00     0.019 A 
HETATM    3  C3  UNL     1     -34.105  16.851  -4.773  1.00 20.00     0.032 A 
HETATM    4  C4  UNL     1     -33.623  17.477  -3.626  1.00 20.00    -0.011 A 
HETATM    5  C5  UNL     1     -33.928  17.000  -2.348  1.00 20.00    -0.045 A 
HETATM    6  C6  UNL     1     -34.900  15.715  -4.636  1.00 20.00     0.011 A 
HETATM    7  C7  UNL     1     -32.804  18.689  -3.720  1.00 20.00     0.122 C 
HETATM    8  C8  UNL     1     -33.437  17.774  -1.162  1.00 20.00     0.061 C 
HETATM    9  C9  UNL     1     -32.097  18.428  -1.487  1.00 20.00     0.153 C 
HETATM   10  N10 UNL     1     -32.123  19.189  -2.745  1.00 20.00    -0.300 NA
HETATM   11 BR11 UNL     1     -35.563  14.837  -6.175  1.00 20.00    -0.051 Br
ENDROOT
TORSDOF 0
ENDMDL
MODEL 8
REMARK VINA RESULT:      -4.4     14.469     16.113
REMARK  0 active torsions:
REMARK  status: ('A' for Active; 'I' for Inactive)
ROOT
HETATM    1  C1  UNL     1     -22.748  18.519   8.238  1.00 20.00     0.009 A 
HETATM    2  C2  UNL     1     -22.302  18.192   9.520  1.00 20.00     0.019 A 
HETATM    3  C3  UNL     1     -24.534  18.513  10.399  1.00 20.00     0.032 A 
HETATM    4  C4  UNL     1     -24.969  18.825   9.113  1.00 20.00    -0.011 A 
HETATM    5  C5  UNL     1     -24.091  18.831   8.025  1.00 20.00    -0.045 A 
HETATM    6  C6  UNL     1     -23.194  18.189  10.597  1.00 20.00     0.011 A 
HETATM    7  C7  UNL     1     -26.364  19.198   8.862  1.00 20.00     0.122 C 
HETATM    8  C8  UNL     1     -24.618  19.252   6.687  1.00 20.00     0.061 C 
HETATM    9  C9  UNL     1     -26.080  18.839   6.550  1.00 20.00     0.153 C 
HETATM   10  N10 UNL     1     -26.904  19.263   7.692  1.00 20.00    -0.300 NA
HETATM   11 BR11 UNL     1     -22.574  17.753  12.330  1.00 20.00    -0.051 Br
ENDROOT
TORSDOF 0
ENDMDL
MODEL 9
REMARK VINA RESULT:      -4.3     11.498     13.108
REMARK  0 active torsions:
REMARK  status: ('A' for Active; 'I' for Inactive)
ROOT
HETATM    1  C1  UNL     1     -40.793   5.767  -0.371  1.00 20.00     0.009 A 
HETATM    2  C2  UNL     1     -41.355   4.767  -1.168  1.00 20.00     0.019 A 
HETATM    3  C3  UNL     1     -43.293   6.157  -1.579  1.00 20.00     0.032 A 
HETATM    4  C4  UNL     1     -42.715   7.151  -0.793  1.00 20.00    -0.011 A 
HETATM    5  C5  UNL     1     -41.469   6.972  -0.185  1.00 20.00    -0.045 A 
HETATM    6  C6  UNL     1     -42.601   4.963  -1.769  1.00 20.00     0.011 A 
HETATM    7  C7  UNL     1     -43.417   8.413  -0.543  1.00 20.00     0.122 C 
HETATM    8  C8  UNL     1     -40.950   8.057   0.709  1.00 20.00     0.061 C 
HETATM    9  C9  UNL     1     -41.420   9.418   0.202  1.00 20.00     0.153 C 
HETATM   10  N10 UNL     1     -42.869   9.468  -0.041  1.00 20.00    -0.300 NA
HETATM   11 BR11 UNL     1     -43.355   3.596  -2.838  1.00 20.00    -0.051 Br
ENDROOT
TORSDOF 0
ENDMDL
