MODEL 1
REMARK VINA RESULT:      -5.0      0.000      0.000
REMARK  0 active torsions:
REMARK  status: ('A' for Active; 'I' for Inactive)
ROOT
HETATM    1  C1  UNL     1     -32.241  18.054  -1.535  1.00 20.00     0.012 C 
HETATM    2  C2  UNL     1     -34.283  15.553  -6.978  1.00 20.00     0.012 C 
HETATM    3  C3  UNL     1     -32.899  17.371  -2.272  1.00 20.00    -0.113 C 
HETATM    4  C4  UNL     1     -33.999  15.049  -5.927  1.00 20.00    -0.113 C 
HETATM    5  C5  UNL     1     -35.751  15.051  -3.329  1.00 20.00     0.002 C 
HETATM    6  C6  UNL     1     -34.927  15.976  -2.439  1.00 20.00     0.017 C 
HETATM    7  C7  UNL     1     -34.902  13.921  -3.911  1.00 20.00     0.017 C 
HETATM    8  C8  UNL     1     -32.847  15.397  -3.757  1.00 20.00     0.034 C 
HETATM    9  C9  UNL     1     -33.705  16.534  -3.178  1.00 20.00     0.065 C 
HETATM   10  C10 UNL     1     -33.649  14.427  -4.637  1.00 20.00     0.065 C 
ENDROOT
TORSDOF 0
ENDMDL
MODEL 2
REMARK VINA RESULT:      -4.8      1.346      4.575
REMARK  0 active torsions:
REMARK  status: ('A' for Active; 'I' for Inactive)
ROOT
HETATM    1  C1  UNL     1     -33.441  14.688  -4.824  1.00 20.00     0.012 C 
HETATM    2  C2  UNL     1     -31.039  18.269  -0.193  1.00 20.00     0.012 C 
HETATM    3  C3  UNL     1     -33.427  15.403  -3.860  1.00 20.00    -0.113 C 
HETATM    4  C4  UNL     1     -31.940  18.461  -0.962  1.00 20.00    -0.113 C 
HETATM    5  C5  UNL     1     -34.816  17.227  -0.797  1.00 20.00     0.002 C 
HETATM    6  C6  UNL     1     -34.780  16.278  -1.992  1.00 20.00     0.017 C 
HETATM    7  C7  UNL     1     -34.403  18.645  -1.189  1.00 20.00     0.017 C 
HETATM    8  C8  UNL     1     -32.996  17.706  -3.077  1.00 20.00     0.034 C 
HETATM    9  C9  UNL     1     -33.408  16.280  -2.676  1.00 20.00     0.065 C 
HETATM   10  C10 UNL     1     -33.048  18.698  -1.906  1.00 20.00     0.065 C 
ENDROOT
TORSDOF 0
ENDMDL
MODEL 3
REMARK VINA RESULT:      -4.4      1.668      2.919
REMARK  0 active torsions:
REMARK  status: ('A' for Active; 'I' for Inactive)
ROOT
HETATM    1  C1  UNL     1     -35.571  17.403   0.477  1.00 20.00     0.012 C 
HETATM    2  C2  UNL     1     -36.202  13.565  -4.514  1.00 20.00     0.012 C 
HETATM    3  C3  UNL     1     -35.315  16.899  -0.581  1.00 20.00    -0.113 C 
HETATM    4  C4  UNL     1     -35.975  14.741  -4.438  1.00 20.00    -0.113 C 
HETATM    5  C5  UNL     1     -33.235  16.060  -3.681  1.00 20.00     0.002 C 
HETATM    6  C6  UNL     1     -33.573  16.634  -2.308  1.00 20.00     0.017 C 
HETATM    7  C7  UNL     1     -34.248  16.495  -4.740  1.00 20.00     0.017 C 
HETATM    8  C8  UNL     1     -36.020  16.721  -2.942  1.00 20.00     0.034 C 
HETATM    9  C9  UNL     1     -35.001  16.277  -1.880  1.00 20.00     0.065 C 
HETATM   10  C10 UNL     1     -35.697  16.187  -4.345  1.00 20.00     0.065 C 
ENDROOT
TORSDOF 0
ENDMDL
MODEL 4
REMARK VINA RESULT:      -4.3      1.657      2.143
REMARK  0 active torsions:
REMARK  status: ('A' for Active; 'I' for Inactive)
ROOT
HETATM    1  C1  UNL     1     -31.133  18.620  -0.313  1.00 20.00     0.012 C 
HETATM    2  C2  UNL     1     -34.803  17.878  -5.415  1.00 20.00     0.012 C 
HETATM    3  C3  UNL     1     -32.067  18.252  -0.971  1.00 20.00    -0.113 C 
HETATM    4  C4  UNL     1     -34.413  17.095  -4.594  1.00 20.00    -0.113 C 
HETATM    5  C5  UNL     1     -35.515  16.755  -1.679  1.00 20.00     0.002 C 
HETATM    6  C6  UNL     1     -34.336  17.290  -0.872  1.00 20.00     0.017 C 
HETATM    7  C7  UNL     1     -35.079  15.676  -2.671  1.00 20.00     0.017 C 
HETATM    8  C8  UNL     1     -32.769  16.715  -2.773  1.00 20.00     0.034 C 
HETATM    9  C9  UNL     1     -33.213  17.802  -1.781  1.00 20.00     0.065 C 
HETATM   10  C10 UNL     1     -33.934  16.131  -3.585  1.00 20.00     0.065 C 
ENDROOT
TORSDOF 0
ENDMDL
MODEL 5
REMARK VINA RESULT:      -4.3      1.606      2.797
REMARK  0 active torsions:
REMARK  status: ('A' for Active; 'I' for Inactive)
ROOT
HETATM    1  C1  UNL     1     -31.372  18.443  -0.410  1.00 20.00     0.012 C 
HETATM    2  C2  UNL     1     -34.385  14.102  -3.892  1.00 20.00     0.012 C 
HETATM    3  C3  UNL     1     -32.091  18.000  -1.263  1.00 20.00    -0.113 C 
HETATM    4  C4  UNL     1     -34.771  15.110  -3.367  1.00 20.00    -0.113 C 
HETATM    5  C5  UNL     1     -34.301  18.036  -4.385  1.00 20.00     0.002 C 
HETATM    6  C6  UNL     1     -33.336  18.549  -3.321  1.00 20.00     0.017 C 
HETATM    7  C7  UNL     1     -35.558  17.428  -3.763  1.00 20.00     0.017 C 
HETATM    8  C8  UNL     1     -34.237  16.849  -1.679  1.00 20.00     0.034 C 
HETATM    9  C9  UNL     1     -32.973  17.455  -2.310  1.00 20.00     0.065 C 
HETATM   10  C10 UNL     1     -35.248  16.347  -2.720  1.00 20.00     0.065 C 
ENDROOT
TORSDOF 0
ENDMDL
MODEL 6
REMARK VINA RESULT:      -4.3      1.789      4.404
REMARK  0 active torsions:
REMARK  status: ('A' for Active; 'I' for Inactive)
ROOT
HETATM    1  C1  UNL     1     -33.149  14.479  -4.447  1.00 20.00     0.012 C 
HETATM    2  C2  UNL     1     -37.086  18.842  -2.100  1.00 20.00     0.012 C 
HETATM    3  C3  UNL     1     -33.523  15.392  -3.762  1.00 20.00    -0.113 C 
HETATM    4  C4  UNL     1     -36.346  18.066  -1.562  1.00 20.00    -0.113 C 
HETATM    5  C5  UNL     1     -33.231  18.327  -1.327  1.00 20.00     0.002 C 
HETATM    6  C6  UNL     1     -32.787  17.201  -2.255  1.00 20.00     0.017 C 
HETATM    7  C7  UNL     1     -34.234  17.837  -0.282  1.00 20.00     0.017 C 
HETATM    8  C8  UNL     1     -34.987  16.013  -1.872  1.00 20.00     0.034 C 
HETATM    9  C9  UNL     1     -33.983  16.512  -2.923  1.00 20.00     0.065 C 
HETATM   10  C10 UNL     1     -35.436  17.113  -0.899  1.00 20.00     0.065 C 
ENDROOT
TORSDOF 0
ENDMDL
MODEL 7
REMARK VINA RESULT:      -4.2      1.617      4.188
REMARK  0 active torsions:
REMARK  status: ('A' for Active; 'I' for Inactive)
ROOT
HETATM    1  C1  UNL     1     -38.991  14.788  -4.217  1.00 20.00     0.012 C 
HETATM    2  C2  UNL     1     -33.160  16.705  -2.678  1.00 20.00     0.012 C 
HETATM    3  C3  UNL     1     -37.835  15.074  -4.367  1.00 20.00    -0.113 C 
HETATM    4  C4  UNL     1     -33.546  15.771  -3.325  1.00 20.00    -0.113 C 
HETATM    5  C5  UNL     1     -34.613  15.866  -6.271  1.00 20.00     0.002 C 
HETATM    6  C6  UNL     1     -36.091  15.565  -6.041  1.00 20.00     0.017 C 
HETATM    7  C7  UNL     1     -33.713  14.821  -5.610  1.00 20.00     0.017 C 
HETATM    8  C8  UNL     1     -35.516  14.370  -3.887  1.00 20.00     0.034 C 
HETATM    9  C9  UNL     1     -36.416  15.426  -4.549  1.00 20.00     0.065 C 
HETATM   10  C10 UNL     1     -34.020  14.623  -4.120  1.00 20.00     0.065 C 
ENDROOT
TORSDOF 0
ENDMDL
MODEL 8
REMARK VINA RESULT:      -4.2     11.080     12.597
REMARK  0 active torsions:
REMARK  status: ('A' for Active; 'I' for Inactive)
ROOT
HETATM    1  C1  UNL     1     -32.175   8.019   0.803  1.00 20.00     0.012 C 
HETATM    2  C2  UNL     1     -33.582   6.486   6.779  1.00 20.00     0.012 C 
HETATM    3  C3  UNL     1     -32.548   7.345   1.723  1.00 20.00    -0.113 C 
HETATM    4  C4  UNL     1     -34.190   6.340   5.755  1.00 20.00    -0.113 C 
HETATM    5  C5  UNL     1     -33.640   4.172   3.560  1.00 20.00     0.002 C 
HETATM    6  C6  UNL     1     -33.107   5.049   2.431  1.00 20.00     0.017 C 
HETATM    7  C7  UNL     1     -34.980   4.683   4.088  1.00 20.00     0.017 C 
HETATM    8  C8  UNL     1     -34.356   7.034   3.378  1.00 20.00     0.034 C 
HETATM    9  C9  UNL     1     -33.005   6.519   2.854  1.00 20.00     0.065 C 
HETATM   10  C10 UNL     1     -34.939   6.160   4.498  1.00 20.00     0.065 C 
ENDROOT
TORSDOF 0
ENDMDL
MODEL 9
REMARK VINA RESULT:      -4.1      1.297      2.499
REMARK  0 active torsions:
REMARK  status: ('A' for Active; 'I' for Inactive)
ROOT
HETATM    1  C1  UNL     1     -33.283  17.971  -1.111  1.00 20.00     0.012 C 
HETATM    2  C2  UNL     1     -37.482  14.449  -4.275  1.00 20.00     0.012 C 
HETATM    3  C3  UNL     1     -33.701  17.211  -1.940  1.00 20.00    -0.113 C 
HETATM    4  C4  UNL     1     -36.630  15.205  -4.654  1.00 20.00    -0.113 C 
HETATM    5  C5  UNL     1     -33.550  14.631  -4.761  1.00 20.00     0.002 C 
HETATM    6  C6  UNL     1     -33.057  15.560  -3.656  1.00 20.00     0.017 C 
HETATM    7  C7  UNL     1     -34.424  15.373  -5.774  1.00 20.00     0.017 C 
HETATM    8  C8  UNL     1     -35.090  17.029  -3.975  1.00 20.00     0.034 C 
HETATM    9  C9  UNL     1     -34.217  16.277  -2.957  1.00 20.00     0.065 C 
HETATM   10  C10 UNL     1     -35.584  16.133  -5.121  1.00 20.00     0.065 C 
ENDROOT
TORSDOF 0
ENDMDL
