MODEL 1
REMARK VINA RESULT:      -5.1      0.000      0.000
REMARK  0 active torsions:
REMARK  status: ('A' for Active; 'I' for Inactive)
ROOT
HETATM    1  C1  UNL     1     -33.567   7.011   5.049  1.00 20.00    -0.007 A 
HETATM    2  C2  UNL     1     -33.486   6.549   3.792  1.00 20.00    -0.014 A 
HETATM    3  C3  UNL     1     -34.429   5.389   3.599  1.00 20.00     0.051 A 
HETATM    4  C4  UNL     1     -34.351   4.824   6.180  1.00 20.00     0.014 A 
HETATM    5  C5  UNL     1     -34.544   6.282   5.875  1.00 20.00     0.014 A 
HETATM    6  C6  UNL     1     -35.113   5.224   4.945  1.00 20.00    -0.002 A 
HETATM    7 BR7  UNL     1     -32.421   7.137   2.421  1.00 20.00    -0.056 Br
ENDROOT
TORSDOF 0
ENDMDL
MODEL 2
REMARK VINA RESULT:      -4.6      0.935      1.899
REMARK  0 active torsions:
REMARK  status: ('A' for Active; 'I' for Inactive)
ROOT
HETATM    1  C1  UNL     1     -33.581   5.160   2.820  1.00 20.00    -0.007 A 
HETATM    2  C2  UNL     1     -33.216   6.436   3.013  1.00 20.00    -0.014 A 
HETATM    3  C3  UNL     1     -33.652   6.904   4.378  1.00 20.00     0.051 A 
HETATM    4  C4  UNL     1     -35.605   5.124   4.427  1.00 20.00     0.014 A 
HETATM    5  C5  UNL     1     -34.282   4.574   3.975  1.00 20.00     0.014 A 
HETATM    6  C6  UNL     1     -34.335   5.697   4.997  1.00 20.00    -0.002 A 
HETATM    7 BR7  UNL     1     -32.331   7.560   1.868  1.00 20.00    -0.056 Br
ENDROOT
TORSDOF 0
ENDMDL
MODEL 3
REMARK VINA RESULT:      -4.1      2.199      3.419
REMARK  0 active torsions:
REMARK  status: ('A' for Active; 'I' for Inactive)
ROOT
HETATM    1  C1  UNL     1     -33.155   7.012   4.254  1.00 20.00    -0.007 A 
HETATM    2  C2  UNL     1     -33.872   5.906   4.007  1.00 20.00    -0.014 A 
HETATM    3  C3  UNL     1     -33.494   5.326   2.668  1.00 20.00     0.051 A 
HETATM    4  C4  UNL     1     -32.700   7.694   1.802  1.00 20.00     0.014 A 
HETATM    5  C5  UNL     1     -32.206   7.343   3.177  1.00 20.00     0.014 A 
HETATM    6  C6  UNL     1     -32.415   6.254   2.138  1.00 20.00    -0.002 A 
HETATM    7 BR7  UNL     1     -35.159   5.118   5.047  1.00 20.00    -0.056 Br
ENDROOT
TORSDOF 0
ENDMDL
MODEL 4
REMARK VINA RESULT:      -3.8     12.208     12.721
REMARK  0 active torsions:
REMARK  status: ('A' for Active; 'I' for Inactive)
ROOT
HETATM    1  C1  UNL     1     -35.206  15.673  -2.673  1.00 20.00    -0.007 A 
HETATM    2  C2  UNL     1     -35.048  14.876  -3.740  1.00 20.00    -0.014 A 
HETATM    3  C3  UNL     1     -33.634  14.968  -4.256  1.00 20.00     0.051 A 
HETATM    4  C4  UNL     1     -33.359  17.390  -3.236  1.00 20.00     0.014 A 
HETATM    5  C5  UNL     1     -33.978  16.394  -2.298  1.00 20.00     0.014 A 
HETATM    6  C6  UNL     1     -32.946  15.945  -3.319  1.00 20.00    -0.002 A 
HETATM    7 BR7  UNL     1     -36.283  13.799  -4.559  1.00 20.00    -0.056 Br
ENDROOT
TORSDOF 0
ENDMDL
MODEL 5
REMARK VINA RESULT:      -3.7     15.776     16.802
REMARK  0 active torsions:
REMARK  status: ('A' for Active; 'I' for Inactive)
ROOT
HETATM    1  C1  UNL     1     -24.025  16.589  10.238  1.00 20.00    -0.007 A 
HETATM    2  C2  UNL     1     -22.898  17.233   9.900  1.00 20.00    -0.014 A 
HETATM    3  C3  UNL     1     -22.271  17.864  11.118  1.00 20.00     0.051 A 
HETATM    4  C4  UNL     1     -24.616  17.984  12.332  1.00 20.00     0.014 A 
HETATM    5  C5  UNL     1     -24.329  16.663  11.677  1.00 20.00     0.014 A 
HETATM    6  C6  UNL     1     -23.196  17.489  12.263  1.00 20.00    -0.002 A 
HETATM    7 BR7  UNL     1     -22.131  17.410   8.245  1.00 20.00    -0.056 Br
ENDROOT
TORSDOF 0
ENDMDL
MODEL 6
REMARK VINA RESULT:      -3.7     12.154     12.686
REMARK  0 active torsions:
REMARK  status: ('A' for Active; 'I' for Inactive)
ROOT
HETATM    1  C1  UNL     1     -32.949  15.939  -3.405  1.00 20.00    -0.007 A 
HETATM    2  C2  UNL     1     -33.899  16.344  -2.548  1.00 20.00    -0.014 A 
HETATM    3  C3  UNL     1     -35.131  15.487  -2.692  1.00 20.00     0.051 A 
HETATM    4  C4  UNL     1     -34.502  14.901  -5.191  1.00 20.00     0.014 A 
HETATM    5  C5  UNL     1     -33.357  14.786  -4.225  1.00 20.00     0.014 A 
HETATM    6  C6  UNL     1     -34.775  14.481  -3.772  1.00 20.00    -0.002 A 
HETATM    7 BR7  UNL     1     -33.844  17.723  -1.343  1.00 20.00    -0.056 Br
ENDROOT
TORSDOF 0
ENDMDL
MODEL 7
REMARK VINA RESULT:      -3.6     12.095     12.815
REMARK  0 active torsions:
REMARK  status: ('A' for Active; 'I' for Inactive)
ROOT
HETATM    1  C1  UNL     1     -35.070  16.073  -2.015  1.00 20.00    -0.007 A 
HETATM    2  C2  UNL     1     -34.498  15.463  -3.064  1.00 20.00    -0.014 A 
HETATM    3  C3  UNL     1     -33.152  16.075  -3.355  1.00 20.00     0.051 A 
HETATM    4  C4  UNL     1     -33.888  18.360  -2.250  1.00 20.00     0.014 A 
HETATM    5  C5  UNL     1     -34.238  17.144  -1.441  1.00 20.00     0.014 A 
HETATM    6  C6  UNL     1     -32.986  17.156  -2.302  1.00 20.00    -0.002 A 
HETATM    7 BR7  UNL     1     -35.152  14.090  -4.086  1.00 20.00    -0.056 Br
ENDROOT
TORSDOF 0
ENDMDL
MODEL 8
REMARK VINA RESULT:      -3.6      9.120      9.479
REMARK  0 active torsions:
REMARK  status: ('A' for Active; 'I' for Inactive)
ROOT
HETATM    1  C1  UNL     1     -41.078   6.947  -1.051  1.00 20.00    -0.007 A 
HETATM    2  C2  UNL     1     -41.571   7.649  -0.020  1.00 20.00    -0.014 A 
HETATM    3  C3  UNL     1     -42.344   6.746   0.906  1.00 20.00     0.051 A 
HETATM    4  C4  UNL     1     -42.838   5.054  -1.063  1.00 20.00     0.014 A 
HETATM    5  C5  UNL     1     -41.409   5.513  -0.990  1.00 20.00     0.014 A 
HETATM    6  C6  UNL     1     -42.233   5.367   0.279  1.00 20.00    -0.002 A 
HETATM    7 BR7  UNL     1     -41.416   9.443   0.322  1.00 20.00    -0.056 Br
ENDROOT
TORSDOF 0
ENDMDL
MODEL 9
REMARK VINA RESULT:      -3.6     16.382     16.879
REMARK  0 active torsions:
REMARK  status: ('A' for Active; 'I' for Inactive)
ROOT
HETATM    1  C1  UNL     1     -23.724  17.080  10.516  1.00 20.00    -0.007 A 
HETATM    2  C2  UNL     1     -24.555  18.132  10.472  1.00 20.00    -0.014 A 
HETATM    3  C3  UNL     1     -24.310  18.941   9.224  1.00 20.00     0.051 A 
HETATM    4  C4  UNL     1     -21.816  18.077   9.085  1.00 20.00     0.014 A 
HETATM    5  C5  UNL     1     -22.828  16.998   9.350  1.00 20.00     0.014 A 
HETATM    6  C6  UNL     1     -23.197  18.202   8.501  1.00 20.00    -0.002 A 
HETATM    7 BR7  UNL     1     -25.831  18.635  11.687  1.00 20.00    -0.056 Br
ENDROOT
TORSDOF 0
ENDMDL
