MODEL 1
REMARK VINA RESULT:      -5.5      0.000      0.000
REMARK  1 active torsions:
REMARK  status: ('A' for Active; 'I' for Inactive)
REMARK    1  A    between atoms: C1_1  and  C6_6 
ROOT
HETATM    1  C1  UNL     1     -33.301   6.419   3.137  1.00 20.00    -0.029 A 
HETATM    2  C2  UNL     1     -33.884   6.452   4.348  1.00 20.00     0.168 A 
HETATM    3  C3  UNL     1     -33.902   5.086   2.766  1.00 20.00     0.124 A 
HETATM    4  C7  UNL     1     -34.572   5.105   4.162  1.00 20.00     0.300 A 
HETATM    5  F8  UNL     1     -33.867   7.335   5.355  1.00 20.00    -0.204 F 
HETATM    6  F9  UNL     1     -34.201   4.089   4.980  1.00 20.00    -0.198 F 
HETATM    7  F10 UNL     1     -35.926   5.086   4.138  1.00 20.00    -0.198 F 
ENDROOT
BRANCH   1   8
HETATM    8  C6  UNL     1     -32.371   7.409   2.426  1.00 20.00     0.018 A 
HETATM    9  C4  UNL     1     -32.209   7.486   0.907  1.00 20.00     0.010 A 
HETATM   10  C5  UNL     1     -32.858   8.624   1.636  1.00 20.00     0.010 A 
ENDBRANCH   1   8
TORSDOF 1
ENDMDL
MODEL 2
REMARK VINA RESULT:      -5.5      0.972      1.955
REMARK  1 active torsions:
REMARK  status: ('A' for Active; 'I' for Inactive)
REMARK    1  A    between atoms: C1_1  and  C6_6 
ROOT
HETATM    1  C1  UNL     1     -33.291   6.493   3.208  1.00 20.00    -0.029 A 
HETATM    2  C2  UNL     1     -33.687   5.221   3.023  1.00 20.00     0.168 A 
HETATM    3  C3  UNL     1     -34.106   6.677   4.462  1.00 20.00     0.124 A 
HETATM    4  C7  UNL     1     -34.580   5.217   4.257  1.00 20.00     0.300 A 
HETATM    5  F8  UNL     1     -33.409   4.295   2.095  1.00 20.00    -0.204 F 
HETATM    6  F9  UNL     1     -35.915   5.078   4.069  1.00 20.00    -0.198 F 
HETATM    7  F10 UNL     1     -34.258   4.372   5.266  1.00 20.00    -0.198 F 
ENDROOT
BRANCH   1   8
HETATM    8  C6  UNL     1     -32.341   7.391   2.407  1.00 20.00     0.018 A 
HETATM    9  C4  UNL     1     -32.275   7.416   0.879  1.00 20.00     0.010 A 
HETATM   10  C5  UNL     1     -32.790   8.618   1.612  1.00 20.00     0.010 A 
ENDBRANCH   1   8
TORSDOF 1
ENDMDL
MODEL 3
REMARK VINA RESULT:      -5.0      1.515      2.469
REMARK  1 active torsions:
REMARK  status: ('A' for Active; 'I' for Inactive)
REMARK    1  A    between atoms: C1_1  and  C6_6 
ROOT
HETATM    1  C1  UNL     1     -33.833   6.508   4.388  1.00 20.00    -0.029 A 
HETATM    2  C2  UNL     1     -34.476   5.338   4.548  1.00 20.00     0.168 A 
HETATM    3  C3  UNL     1     -33.781   6.804   5.865  1.00 20.00     0.124 A 
HETATM    4  C7  UNL     1     -34.531   5.465   6.066  1.00 20.00     0.300 A 
HETATM    5  F8  UNL     1     -34.916   4.404   3.695  1.00 20.00    -0.204 F 
HETATM    6  F9  UNL     1     -35.751   5.582   6.645  1.00 20.00    -0.198 F 
HETATM    7  F10 UNL     1     -33.858   4.546   6.800  1.00 20.00    -0.198 F 
ENDROOT
BRANCH   1   8
HETATM    8  C6  UNL     1     -33.341   7.237   3.132  1.00 20.00     0.018 A 
HETATM    9  C4  UNL     1     -31.866   7.470   2.803  1.00 20.00     0.010 A 
HETATM   10  C5  UNL     1     -32.672   6.542   1.946  1.00 20.00     0.010 A 
ENDBRANCH   1   8
TORSDOF 1
ENDMDL
MODEL 4
REMARK VINA RESULT:      -5.0      2.297      4.213
REMARK  1 active torsions:
REMARK  status: ('A' for Active; 'I' for Inactive)
REMARK    1  A    between atoms: C1_1  and  C6_6 
ROOT
HETATM    1  C1  UNL     1     -33.886   6.149   3.769  1.00 20.00    -0.029 A 
HETATM    2  C2  UNL     1     -33.123   5.694   2.759  1.00 20.00     0.168 A 
HETATM    3  C3  UNL     1     -33.398   7.570   3.640  1.00 20.00     0.124 A 
HETATM    4  C7  UNL     1     -32.506   7.059   2.482  1.00 20.00     0.300 A 
HETATM    5  F8  UNL     1     -32.956   4.487   2.201  1.00 20.00    -0.204 F 
HETATM    6  F9  UNL     1     -31.174   7.203   2.690  1.00 20.00    -0.198 F 
HETATM    7  F10 UNL     1     -32.757   7.633   1.281  1.00 20.00    -0.198 F 
ENDROOT
BRANCH   1   8
HETATM    8  C6  UNL     1     -34.887   5.440   4.689  1.00 20.00     0.018 A 
HETATM    9  C4  UNL     1     -34.492   4.401   5.740  1.00 20.00     0.010 A 
HETATM   10  C5  UNL     1     -35.027   5.729   6.184  1.00 20.00     0.010 A 
ENDBRANCH   1   8
TORSDOF 1
ENDMDL
MODEL 5
REMARK VINA RESULT:      -4.7      2.504      4.133
REMARK  1 active torsions:
REMARK  status: ('A' for Active; 'I' for Inactive)
REMARK    1  A    between atoms: C1_1  and  C6_6 
ROOT
HETATM    1  C1  UNL     1     -33.268   6.386   3.110  1.00 20.00    -0.029 A 
HETATM    2  C2  UNL     1     -32.316   7.336   3.113  1.00 20.00     0.168 A 
HETATM    3  C3  UNL     1     -33.605   6.578   1.653  1.00 20.00     0.124 A 
HETATM    4  C7  UNL     1     -32.520   7.682   1.643  1.00 20.00     0.300 A 
HETATM    5  F8  UNL     1     -31.493   7.813   4.056  1.00 20.00    -0.204 F 
HETATM    6  F9  UNL     1     -32.978   8.922   1.344  1.00 20.00    -0.198 F 
HETATM    7  F10 UNL     1     -31.490   7.453   0.793  1.00 20.00    -0.198 F 
ENDROOT
BRANCH   1   8
HETATM    8  C6  UNL     1     -33.786   5.459   4.215  1.00 20.00     0.018 A 
HETATM    9  C4  UNL     1     -34.474   5.951   5.489  1.00 20.00     0.010 A 
HETATM   10  C5  UNL     1     -35.267   5.182   4.476  1.00 20.00     0.010 A 
ENDBRANCH   1   8
TORSDOF 1
ENDMDL
MODEL 6
REMARK VINA RESULT:      -4.6     16.401     17.327
REMARK  1 active torsions:
REMARK  status: ('A' for Active; 'I' for Inactive)
REMARK    1  A    between atoms: C1_1  and  C6_6 
ROOT
HETATM    1  C1  UNL     1     -24.296  18.227  11.059  1.00 20.00    -0.029 A 
HETATM    2  C2  UNL     1     -23.070  17.705  11.239  1.00 20.00     0.168 A 
HETATM    3  C3  UNL     1     -24.127  18.388   9.570  1.00 20.00     0.124 A 
HETATM    4  C7  UNL     1     -22.708  17.798   9.762  1.00 20.00     0.300 A 
HETATM    5  F8  UNL     1     -22.403  17.268  12.316  1.00 20.00    -0.204 F 
HETATM    6  F9  UNL     1     -21.697  18.632   9.411  1.00 20.00    -0.198 F 
HETATM    7  F10 UNL     1     -22.482  16.641   9.094  1.00 20.00    -0.198 F 
ENDROOT
BRANCH   1   8
HETATM    8  C6  UNL     1     -25.431  18.527  12.046  1.00 20.00     0.018 A 
HETATM    9  C4  UNL     1     -26.861  18.865  11.624  1.00 20.00     0.010 A 
HETATM   10  C5  UNL     1     -26.590  17.572  12.332  1.00 20.00     0.010 A 
ENDBRANCH   1   8
TORSDOF 1
ENDMDL
MODEL 7
REMARK VINA RESULT:      -4.6     15.758     16.435
REMARK  1 active torsions:
REMARK  status: ('A' for Active; 'I' for Inactive)
REMARK    1  A    between atoms: C1_1  and  C6_6 
ROOT
HETATM    1  C1  UNL     1     -24.224  18.221   9.874  1.00 20.00    -0.029 A 
HETATM    2  C2  UNL     1     -23.413  17.150   9.916  1.00 20.00     0.168 A 
HETATM    3  C3  UNL     1     -24.721  18.035  11.285  1.00 20.00     0.124 A 
HETATM    4  C7  UNL     1     -23.800  16.792  11.345  1.00 20.00     0.300 A 
HETATM    5  F8  UNL     1     -22.576  16.592   9.031  1.00 20.00    -0.204 F 
HETATM    6  F9  UNL     1     -24.448  15.618  11.548  1.00 20.00    -0.198 F 
HETATM    7  F10 UNL     1     -22.834  16.851  12.294  1.00 20.00    -0.198 F 
ENDROOT
BRANCH   1   8
HETATM    8  C6  UNL     1     -24.505  19.244   8.767  1.00 20.00     0.018 A 
HETATM    9  C4  UNL     1     -24.475  18.915   7.273  1.00 20.00     0.010 A 
HETATM   10  C5  UNL     1     -25.780  19.263   7.923  1.00 20.00     0.010 A 
ENDBRANCH   1   8
TORSDOF 1
ENDMDL
MODEL 8
REMARK VINA RESULT:      -4.5     10.848     11.818
REMARK  1 active torsions:
REMARK  status: ('A' for Active; 'I' for Inactive)
REMARK    1  A    between atoms: C1_1  and  C6_6 
ROOT
HETATM    1  C1  UNL     1     -33.787  15.822  -3.090  1.00 20.00    -0.029 A 
HETATM    2  C2  UNL     1     -33.355  14.883  -3.949  1.00 20.00     0.168 A 
HETATM    3  C3  UNL     1     -35.222  15.361  -3.139  1.00 20.00     0.124 A 
HETATM    4  C7  UNL     1     -34.742  14.280  -4.138  1.00 20.00     0.300 A 
HETATM    5  F8  UNL     1     -32.153  14.584  -4.461  1.00 20.00    -0.204 F 
HETATM    6  F9  UNL     1     -35.302  14.360  -5.370  1.00 20.00    -0.198 F 
HETATM    7  F10 UNL     1     -34.936  13.004  -3.726  1.00 20.00    -0.198 F 
ENDROOT
BRANCH   1   8
HETATM    8  C6  UNL     1     -33.047  16.939  -2.345  1.00 20.00     0.018 A 
HETATM    9  C4  UNL     1     -33.228  18.429  -2.641  1.00 20.00     0.010 A 
HETATM   10  C5  UNL     1     -33.707  17.877  -1.333  1.00 20.00     0.010 A 
ENDBRANCH   1   8
TORSDOF 1
ENDMDL
MODEL 9
REMARK VINA RESULT:      -4.5     10.795     11.681
REMARK  1 active torsions:
REMARK  status: ('A' for Active; 'I' for Inactive)
REMARK    1  A    between atoms: C1_1  and  C6_6 
ROOT
HETATM    1  C1  UNL     1     -33.516  15.853  -3.229  1.00 20.00    -0.029 A 
HETATM    2  C2  UNL     1     -34.752  15.380  -2.990  1.00 20.00     0.168 A 
HETATM    3  C3  UNL     1     -33.232  14.862  -4.328  1.00 20.00     0.124 A 
HETATM    4  C7  UNL     1     -34.649  14.299  -4.059  1.00 20.00     0.300 A 
HETATM    5  F8  UNL     1     -35.720  15.722  -2.129  1.00 20.00    -0.204 F 
HETATM    6  F9  UNL     1     -34.676  13.006  -3.652  1.00 20.00    -0.198 F 
HETATM    7  F10 UNL     1     -35.496  14.372  -5.114  1.00 20.00    -0.198 F 
ENDROOT
BRANCH   1   8
HETATM    8  C6  UNL     1     -32.723  16.999  -2.590  1.00 20.00     0.018 A 
HETATM    9  C4  UNL     1     -33.088  18.477  -2.739  1.00 20.00     0.010 A 
HETATM   10  C5  UNL     1     -33.215  17.820  -1.398  1.00 20.00     0.010 A 
ENDBRANCH   1   8
TORSDOF 1
ENDMDL
