MODEL 1
REMARK VINA RESULT:      -5.0      0.000      0.000
REMARK  0 active torsions:
REMARK  status: ('A' for Active; 'I' for Inactive)
ROOT
HETATM    1  C1  UNL     1     -33.150   6.425   3.319  1.00 20.00     0.041 A 
HETATM    2  C2  UNL     1     -33.807   6.292   4.485  1.00 20.00     0.101 A 
HETATM    3  C3  UNL     1     -33.814   5.222   2.692  1.00 20.00     0.138 A 
HETATM    4  C4  UNL     1     -34.576   5.058   4.029  1.00 20.00     0.287 A 
HETATM    5  F5  UNL     1     -34.339   3.892   4.675  1.00 20.00    -0.199 F 
HETATM    6  F6  UNL     1     -35.923   5.157   3.925  1.00 20.00    -0.199 F 
HETATM    7 CL7  UNL     1     -31.952   7.577   2.730  1.00 20.00    -0.087 Cl
HETATM    8 CL8  UNL     1     -33.796   7.201   5.995  1.00 20.00    -0.081 Cl
ENDROOT
TORSDOF 0
ENDMDL
MODEL 2
REMARK VINA RESULT:      -4.7      1.412      2.355
REMARK  0 active torsions:
REMARK  status: ('A' for Active; 'I' for Inactive)
ROOT
HETATM    1  C1  UNL     1     -33.188   6.591   3.848  1.00 20.00     0.041 A 
HETATM    2  C2  UNL     1     -33.719   5.434   3.410  1.00 20.00     0.101 A 
HETATM    3  C3  UNL     1     -34.164   6.720   4.993  1.00 20.00     0.138 A 
HETATM    4  C4  UNL     1     -34.783   5.391   4.498  1.00 20.00     0.287 A 
HETATM    5  F5  UNL     1     -36.080   5.480   4.116  1.00 20.00    -0.199 F 
HETATM    6  F6  UNL     1     -34.730   4.376   5.394  1.00 20.00    -0.199 F 
HETATM    7 CL7  UNL     1     -31.846   7.592   3.296  1.00 20.00    -0.087 Cl
HETATM    8 CL8  UNL     1     -33.335   4.354   2.071  1.00 20.00    -0.081 Cl
ENDROOT
TORSDOF 0
ENDMDL
MODEL 3
REMARK VINA RESULT:      -4.4      1.475      2.805
REMARK  0 active torsions:
REMARK  status: ('A' for Active; 'I' for Inactive)
ROOT
HETATM    1  C1  UNL     1     -33.926   6.116   4.525  1.00 20.00     0.041 A 
HETATM    2  C2  UNL     1     -33.096   6.367   3.496  1.00 20.00     0.101 A 
HETATM    3  C3  UNL     1     -34.530   4.896   3.870  1.00 20.00     0.138 A 
HETATM    4  C4  UNL     1     -33.581   5.175   2.680  1.00 20.00     0.287 A 
HETATM    5  F5  UNL     1     -34.207   5.426   1.505  1.00 20.00    -0.199 F 
HETATM    6  F6  UNL     1     -32.694   4.184   2.423  1.00 20.00    -0.199 F 
HETATM    7 CL7  UNL     1     -34.210   6.911   6.072  1.00 20.00    -0.087 Cl
HETATM    8 CL8  UNL     1     -31.887   7.612   3.188  1.00 20.00    -0.081 Cl
ENDROOT
TORSDOF 0
ENDMDL
MODEL 4
REMARK VINA RESULT:      -4.1      2.876      3.713
REMARK  0 active torsions:
REMARK  status: ('A' for Active; 'I' for Inactive)
ROOT
HETATM    1  C1  UNL     1     -34.055   5.820   4.027  1.00 20.00     0.041 A 
HETATM    2  C2  UNL     1     -33.283   5.588   2.949  1.00 20.00     0.101 A 
HETATM    3  C3  UNL     1     -33.592   7.250   4.174  1.00 20.00     0.138 A 
HETATM    4  C4  UNL     1     -32.699   6.995   2.936  1.00 20.00     0.287 A 
HETATM    5  F5  UNL     1     -31.370   7.129   3.161  1.00 20.00    -0.199 F 
HETATM    6  F6  UNL     1     -32.976   7.783   1.870  1.00 20.00    -0.199 F 
HETATM    7 CL7  UNL     1     -35.192   4.827   4.937  1.00 20.00    -0.087 Cl
HETATM    8 CL8  UNL     1     -33.029   4.180   1.919  1.00 20.00    -0.081 Cl
ENDROOT
TORSDOF 0
ENDMDL
MODEL 5
REMARK VINA RESULT:      -4.0     16.144     16.533
REMARK  0 active torsions:
REMARK  status: ('A' for Active; 'I' for Inactive)
ROOT
HETATM    1  C1  UNL     1     -24.326  18.003   9.842  1.00 20.00     0.041 A 
HETATM    2  C2  UNL     1     -24.774  17.810  11.096  1.00 20.00     0.101 A 
HETATM    3  C3  UNL     1     -23.498  16.741   9.836  1.00 20.00     0.138 A 
HETATM    4  C4  UNL     1     -24.005  16.508  11.280  1.00 20.00     0.287 A 
HETATM    5  F5  UNL     1     -23.032  16.477  12.222  1.00 20.00    -0.199 F 
HETATM    6  F6  UNL     1     -24.721  15.370  11.449  1.00 20.00    -0.199 F 
HETATM    7 CL7  UNL     1     -24.602  19.262   8.639  1.00 20.00    -0.087 Cl
HETATM    8 CL8  UNL     1     -25.854  18.718  12.152  1.00 20.00    -0.081 Cl
ENDROOT
TORSDOF 0
ENDMDL
MODEL 6
REMARK VINA RESULT:      -4.0      2.761      3.277
REMARK  0 active torsions:
REMARK  status: ('A' for Active; 'I' for Inactive)
ROOT
HETATM    1  C1  UNL     1     -33.672   5.336   3.530  1.00 20.00     0.041 A 
HETATM    2  C2  UNL     1     -33.428   6.541   4.078  1.00 20.00     0.101 A 
HETATM    3  C3  UNL     1     -32.944   5.661   2.248  1.00 20.00     0.138 A 
HETATM    4  C4  UNL     1     -32.658   7.050   2.867  1.00 20.00     0.287 A 
HETATM    5  F5  UNL     1     -33.180   8.093   2.179  1.00 20.00    -0.199 F 
HETATM    6  F6  UNL     1     -31.343   7.334   3.029  1.00 20.00    -0.199 F 
HETATM    7 CL7  UNL     1     -34.526   3.901   4.095  1.00 20.00    -0.087 Cl
HETATM    8 CL8  UNL     1     -33.841   7.276   5.626  1.00 20.00    -0.081 Cl
ENDROOT
TORSDOF 0
ENDMDL
MODEL 7
REMARK VINA RESULT:      -3.9      9.183      9.841
REMARK  0 active torsions:
REMARK  status: ('A' for Active; 'I' for Inactive)
ROOT
HETATM    1  C1  UNL     1     -42.585   6.563   0.644  1.00 20.00     0.041 A 
HETATM    2  C2  UNL     1     -41.731   6.474  -0.392  1.00 20.00     0.101 A 
HETATM    3  C3  UNL     1     -42.821   8.042   0.450  1.00 20.00     0.138 A 
HETATM    4  C4  UNL     1     -41.840   7.952  -0.743  1.00 20.00     0.287 A 
HETATM    5  F5  UNL     1     -40.727   8.714  -0.618  1.00 20.00    -0.199 F 
HETATM    6  F6  UNL     1     -42.380   8.278  -1.942  1.00 20.00    -0.199 F 
HETATM    7 CL7  UNL     1     -43.205   5.391   1.805  1.00 20.00    -0.087 Cl
HETATM    8 CL8  UNL     1     -40.814   5.143  -1.098  1.00 20.00    -0.081 Cl
ENDROOT
TORSDOF 0
ENDMDL
MODEL 8
REMARK VINA RESULT:      -3.8      9.244      9.639
REMARK  0 active torsions:
REMARK  status: ('A' for Active; 'I' for Inactive)
ROOT
HETATM    1  C1  UNL     1     -41.527   6.558  -0.692  1.00 20.00     0.041 A 
HETATM    2  C2  UNL     1     -42.311   6.945   0.330  1.00 20.00     0.101 A 
HETATM    3  C3  UNL     1     -41.285   7.969  -1.171  1.00 20.00     0.138 A 
HETATM    4  C4  UNL     1     -42.186   8.427   0.001  1.00 20.00     0.287 A 
HETATM    5  F5  UNL     1     -43.308   9.088  -0.374  1.00 20.00    -0.199 F 
HETATM    6  F6  UNL     1     -41.571   9.225   0.906  1.00 20.00    -0.199 F 
HETATM    7 CL7  UNL     1     -40.978   4.985  -1.267  1.00 20.00    -0.087 Cl
HETATM    8 CL8  UNL     1     -43.174   6.073   1.596  1.00 20.00    -0.081 Cl
ENDROOT
TORSDOF 0
ENDMDL
MODEL 9
REMARK VINA RESULT:      -3.8     17.046     17.540
REMARK  0 active torsions:
REMARK  status: ('A' for Active; 'I' for Inactive)
ROOT
HETATM    1  C1  UNL     1     -24.518  18.436  10.553  1.00 20.00     0.041 A 
HETATM    2  C2  UNL     1     -23.257  18.057  10.832  1.00 20.00     0.101 A 
HETATM    3  C3  UNL     1     -24.291  18.448   9.061  1.00 20.00     0.138 A 
HETATM    4  C4  UNL     1     -22.838  18.012   9.368  1.00 20.00     0.287 A 
HETATM    5  F5  UNL     1     -21.888  18.886   8.957  1.00 20.00    -0.199 F 
HETATM    6  F6  UNL     1     -22.487  16.812   8.848  1.00 20.00    -0.199 F 
HETATM    7 CL7  UNL     1     -25.924  18.789  11.556  1.00 20.00    -0.087 Cl
HETATM    8 CL8  UNL     1     -22.392  17.727  12.332  1.00 20.00    -0.081 Cl
ENDROOT
TORSDOF 0
ENDMDL
