MODEL 1
REMARK VINA RESULT:      -4.5      0.000      0.000
REMARK  1 active torsions:
REMARK  status: ('A' for Active; 'I' for Inactive)
REMARK    1  A    between atoms: C1_1  and  C5_5 
ROOT
HETATM    1  C1  UNL     1     -34.756  15.644  -2.744  1.00 20.00    -0.097 C 
HETATM    2  C2  UNL     1     -35.001  16.260  -1.743  1.00 20.00    -0.110 C 
HETATM    3  C7  UNL     1     -35.299  17.009  -0.524  1.00 20.00     0.112 C 
ENDROOT
BRANCH   1   4
HETATM    4  C5  UNL     1     -34.459  14.894  -3.962  1.00 20.00     0.027 C 
HETATM    5  C3  UNL     1     -35.085  13.464  -3.959  1.00 20.00     0.024 C 
HETATM    6  C4  UNL     1     -36.300  14.025  -4.725  1.00 20.00     0.012 C 
HETATM    7  C6  UNL     1     -35.409  15.210  -5.206  1.00 20.00    -0.029 C 
HETATM    8  C9  UNL     1     -36.139  16.556  -5.201  1.00 20.00     0.016 C 
HETATM    9  C10 UNL     1     -34.814  14.952  -6.597  1.00 20.00     0.016 C 
HETATM   10  C8  UNL     1     -32.952  14.904  -4.207  1.00 20.00     0.030 C 
ENDBRANCH   1   4
TORSDOF 1
ENDMDL
MODEL 2
REMARK VINA RESULT:      -4.1      1.631      1.714
REMARK  1 active torsions:
REMARK  status: ('A' for Active; 'I' for Inactive)
REMARK    1  A    between atoms: C1_1  and  C5_5 
ROOT
HETATM    1  C1  UNL     1     -33.330  16.356  -3.066  1.00 20.00    -0.097 C 
HETATM    2  C2  UNL     1     -32.892  17.160  -2.290  1.00 20.00    -0.110 C 
HETATM    3  C7  UNL     1     -32.357  18.138  -1.344  1.00 20.00     0.112 C 
ENDROOT
BRANCH   1   4
HETATM    4  C5  UNL     1     -33.865  15.377  -4.010  1.00 20.00     0.027 C 
HETATM    5  C3  UNL     1     -35.176  14.701  -3.501  1.00 20.00     0.024 C 
HETATM    6  C4  UNL     1     -35.989  15.748  -4.286  1.00 20.00     0.012 C 
HETATM    7  C6  UNL     1     -34.746  15.984  -5.196  1.00 20.00    -0.029 C 
HETATM    8  C9  UNL     1     -34.523  17.458  -5.545  1.00 20.00     0.016 C 
HETATM    9  C10 UNL     1     -34.812  15.153  -6.485  1.00 20.00     0.016 C 
HETATM   10  C8  UNL     1     -32.767  14.385  -4.385  1.00 20.00     0.030 C 
ENDBRANCH   1   4
TORSDOF 1
ENDMDL
MODEL 3
REMARK VINA RESULT:      -4.1     17.556     18.794
REMARK  1 active torsions:
REMARK  status: ('A' for Active; 'I' for Inactive)
REMARK    1  A    between atoms: C1_1  and  C5_5 
ROOT
HETATM    1  C1  UNL     1     -23.200  17.081   9.825  1.00 20.00    -0.097 C 
HETATM    2  C2  UNL     1     -22.561  17.229   8.819  1.00 20.00    -0.110 C 
HETATM    3  C7  UNL     1     -21.785  17.410   7.594  1.00 20.00     0.112 C 
ENDROOT
BRANCH   1   4
HETATM    4  C5  UNL     1     -23.976  16.899  11.049  1.00 20.00     0.027 C 
HETATM    5  C3  UNL     1     -23.183  17.300  12.332  1.00 20.00     0.024 C 
HETATM    6  C4  UNL     1     -23.823  18.699  12.257  1.00 20.00     0.012 C 
HETATM    7  C6  UNL     1     -24.977  18.090  11.405  1.00 20.00    -0.029 C 
HETATM    8  C9  UNL     1     -25.421  18.996  10.252  1.00 20.00     0.016 C 
HETATM    9  C10 UNL     1     -26.193  17.721  12.266  1.00 20.00     0.016 C 
HETATM   10  C8  UNL     1     -24.531  15.477  11.089  1.00 20.00     0.030 C 
ENDBRANCH   1   4
TORSDOF 1
ENDMDL
MODEL 4
REMARK VINA RESULT:      -4.1      0.958      1.533
REMARK  1 active torsions:
REMARK  status: ('A' for Active; 'I' for Inactive)
REMARK    1  A    between atoms: C1_1  and  C5_5 
ROOT
HETATM    1  C1  UNL     1     -34.860  16.259  -2.638  1.00 20.00    -0.097 C 
HETATM    2  C2  UNL     1     -35.103  16.612  -1.517  1.00 20.00    -0.110 C 
HETATM    3  C7  UNL     1     -35.402  17.042  -0.152  1.00 20.00     0.112 C 
ENDROOT
BRANCH   1   4
HETATM    4  C5  UNL     1     -34.562  15.831  -4.003  1.00 20.00     0.027 C 
HETATM    5  C3  UNL     1     -33.463  14.724  -4.062  1.00 20.00     0.024 C 
HETATM    6  C4  UNL     1     -34.576  13.658  -4.081  1.00 20.00     0.012 C 
HETATM    7  C6  UNL     1     -35.561  14.744  -4.609  1.00 20.00    -0.029 C 
HETATM    8  C9  UNL     1     -36.955  14.652  -3.982  1.00 20.00     0.016 C 
HETATM    9  C10 UNL     1     -35.682  14.712  -6.140  1.00 20.00     0.016 C 
HETATM   10  C8  UNL     1     -34.248  17.055  -4.860  1.00 20.00     0.030 C 
ENDBRANCH   1   4
TORSDOF 1
ENDMDL
MODEL 5
REMARK VINA RESULT:      -4.0      2.660      3.681
REMARK  1 active torsions:
REMARK  status: ('A' for Active; 'I' for Inactive)
REMARK    1  A    between atoms: C1_1  and  C5_5 
ROOT
HETATM    1  C1  UNL     1     -32.508  17.879  -1.811  1.00 20.00    -0.097 C 
HETATM    2  C2  UNL     1     -31.812  18.145  -0.869  1.00 20.00    -0.110 C 
HETATM    3  C7  UNL     1     -30.964  18.469   0.277  1.00 20.00     0.112 C 
ENDROOT
BRANCH   1   4
HETATM    4  C5  UNL     1     -33.355  17.555  -2.956  1.00 20.00     0.027 C 
HETATM    5  C3  UNL     1     -33.219  16.065  -3.404  1.00 20.00     0.024 C 
HETATM    6  C4  UNL     1     -34.443  15.720  -2.534  1.00 20.00     0.012 C 
HETATM    7  C6  UNL     1     -34.875  17.216  -2.606  1.00 20.00    -0.029 C 
HETATM    8  C9  UNL     1     -35.421  17.752  -1.280  1.00 20.00     0.016 C 
HETATM    9  C10 UNL     1     -35.900  17.463  -3.722  1.00 20.00     0.016 C 
HETATM   10  C8  UNL     1     -33.097  18.559  -4.076  1.00 20.00     0.030 C 
ENDBRANCH   1   4
TORSDOF 1
ENDMDL
MODEL 6
REMARK VINA RESULT:      -3.8     10.933     12.734
REMARK  1 active torsions:
REMARK  status: ('A' for Active; 'I' for Inactive)
REMARK    1  A    between atoms: C1_1  and  C5_5 
ROOT
HETATM    1  C1  UNL     1     -42.323   5.009  -1.085  1.00 20.00    -0.097 C 
HETATM    2  C2  UNL     1     -42.319   4.199  -1.971  1.00 20.00    -0.110 C 
HETATM    3  C7  UNL     1     -42.316   3.211  -3.049  1.00 20.00     0.112 C 
ENDROOT
BRANCH   1   4
HETATM    4  C5  UNL     1     -42.325   5.995  -0.008  1.00 20.00     0.027 C 
HETATM    5  C3  UNL     1     -40.893   6.507   0.346  1.00 20.00     0.024 C 
HETATM    6  C4  UNL     1     -41.114   7.699  -0.606  1.00 20.00     0.012 C 
HETATM    7  C6  UNL     1     -42.651   7.493  -0.455  1.00 20.00    -0.029 C 
HETATM    8  C9  UNL     1     -43.417   7.677  -1.768  1.00 20.00     0.016 C 
HETATM    9  C10 UNL     1     -43.249   8.408   0.623  1.00 20.00     0.016 C 
HETATM   10  C8  UNL     1     -43.090   5.435   1.189  1.00 20.00     0.030 C 
ENDBRANCH   1   4
TORSDOF 1
ENDMDL
MODEL 7
REMARK VINA RESULT:      -3.8      2.281      3.687
REMARK  1 active torsions:
REMARK  status: ('A' for Active; 'I' for Inactive)
REMARK    1  A    between atoms: C1_1  and  C5_5 
ROOT
HETATM    1  C1  UNL     1     -33.265  17.665  -1.539  1.00 20.00    -0.097 C 
HETATM    2  C2  UNL     1     -32.236  18.042  -1.048  1.00 20.00    -0.110 C 
HETATM    3  C7  UNL     1     -30.984  18.503  -0.450  1.00 20.00     0.112 C 
ENDROOT
BRANCH   1   4
HETATM    4  C5  UNL     1     -34.515  17.205  -2.138  1.00 20.00     0.027 C 
HETATM    5  C3  UNL     1     -35.155  18.266  -3.089  1.00 20.00     0.024 C 
HETATM    6  C4  UNL     1     -34.455  17.581  -4.278  1.00 20.00     0.012 C 
HETATM    7  C6  UNL     1     -34.353  16.279  -3.428  1.00 20.00    -0.029 C 
HETATM    8  C9  UNL     1     -33.019  15.548  -3.598  1.00 20.00     0.016 C 
HETATM    9  C10 UNL     1     -35.510  15.313  -3.719  1.00 20.00     0.016 C 
HETATM   10  C8  UNL     1     -35.455  16.721  -1.036  1.00 20.00     0.030 C 
ENDBRANCH   1   4
TORSDOF 1
ENDMDL
MODEL 8
REMARK VINA RESULT:      -3.7      2.048      5.166
REMARK  1 active torsions:
REMARK  status: ('A' for Active; 'I' for Inactive)
REMARK    1  A    between atoms: C1_1  and  C5_5 
ROOT
HETATM    1  C1  UNL     1     -34.000  16.725  -2.318  1.00 20.00    -0.097 C 
HETATM    2  C2  UNL     1     -34.267  15.736  -2.944  1.00 20.00    -0.110 C 
HETATM    3  C7  UNL     1     -34.591  14.531  -3.706  1.00 20.00     0.112 C 
ENDROOT
BRANCH   1   4
HETATM    4  C5  UNL     1     -33.676  17.929  -1.557  1.00 20.00     0.027 C 
HETATM    5  C3  UNL     1     -34.242  19.228  -2.213  1.00 20.00     0.024 C 
HETATM    6  C4  UNL     1     -35.482  19.113  -1.306  1.00 20.00     0.012 C 
HETATM    7  C6  UNL     1     -34.644  18.238  -0.325  1.00 20.00    -0.029 C 
HETATM    8  C9  UNL     1     -35.430  17.059   0.256  1.00 20.00     0.016 C 
HETATM    9  C10 UNL     1     -34.045  19.070   0.817  1.00 20.00     0.016 C 
HETATM   10  C8  UNL     1     -32.172  17.975  -1.300  1.00 20.00     0.030 C 
ENDBRANCH   1   4
TORSDOF 1
ENDMDL
MODEL 9
REMARK VINA RESULT:      -3.6      1.454      4.057
REMARK  1 active torsions:
REMARK  status: ('A' for Active; 'I' for Inactive)
REMARK    1  A    between atoms: C1_1  and  C5_5 
ROOT
HETATM    1  C1  UNL     1     -35.092  16.634  -5.529  1.00 20.00    -0.097 C 
HETATM    2  C2  UNL     1     -34.617  16.871  -6.606  1.00 20.00    -0.110 C 
HETATM    3  C7  UNL     1     -34.040  17.162  -7.918  1.00 20.00     0.112 C 
ENDROOT
BRANCH   1   4
HETATM    4  C5  UNL     1     -35.671  16.344  -4.220  1.00 20.00     0.027 C 
HETATM    5  C3  UNL     1     -36.238  14.893  -4.119  1.00 20.00     0.024 C 
HETATM    6  C4  UNL     1     -34.897  14.440  -3.511  1.00 20.00     0.012 C 
HETATM    7  C6  UNL     1     -34.624  15.916  -3.092  1.00 20.00    -0.029 C 
HETATM    8  C9  UNL     1     -33.168  16.344  -3.294  1.00 20.00     0.016 C 
HETATM    9  C10 UNL     1     -35.043  16.187  -1.640  1.00 20.00     0.016 C 
HETATM   10  C8  UNL     1     -36.686  17.427  -3.864  1.00 20.00     0.030 C 
ENDBRANCH   1   4
TORSDOF 1
ENDMDL
