MODEL 1
REMARK VINA RESULT:      -5.2      0.000      0.000
REMARK  1 active torsions:
REMARK  status: ('A' for Active; 'I' for Inactive)
REMARK    1  A    between atoms: C3_3  and  C6_6 
ROOT
HETATM    1  C1  UNL     1     -32.641   8.807   0.278  1.00 20.00     0.013 C 
HETATM    2  C2  UNL     1     -32.610   8.122   1.264  1.00 20.00    -0.107 C 
HETATM    3  C5  UNL     1     -32.790   5.813   2.266  1.00 20.00     0.033 A 
HETATM    4  C6  UNL     1     -33.887   6.652   2.862  1.00 20.00     0.030 A 
HETATM    5  C7  UNL     1     -32.573   7.298   2.447  1.00 20.00     0.027 A 
HETATM    6  C10 UNL     1     -31.572   7.737   3.483  1.00 20.00     0.030 C 
ENDROOT
BRANCH   4   7
HETATM    7  C3  UNL     1     -34.225   6.477   4.268  1.00 20.00    -0.018 C 
HETATM    8  C4  UNL     1     -34.494   5.327   4.915  1.00 20.00    -0.091 C 
HETATM    9  C8  UNL     1     -34.828   5.317   6.380  1.00 20.00     0.042 C 
HETATM   10  C9  UNL     1     -34.486   3.976   4.255  1.00 20.00     0.042 C 
ENDBRANCH   4   7
TORSDOF 1
ENDMDL
MODEL 2
REMARK VINA RESULT:      -4.8     11.175     12.218
REMARK  1 active torsions:
REMARK  status: ('A' for Active; 'I' for Inactive)
REMARK    1  A    between atoms: C3_3  and  C6_6 
ROOT
HETATM    1  C1  UNL     1     -32.906  14.761  -4.265  1.00 20.00     0.013 C 
HETATM    2  C2  UNL     1     -33.393  15.586  -3.542  1.00 20.00    -0.107 C 
HETATM    3  C5  UNL     1     -33.930  18.018  -3.135  1.00 20.00     0.033 A 
HETATM    4  C6  UNL     1     -33.013  17.567  -2.032  1.00 20.00     0.030 A 
HETATM    5  C7  UNL     1     -33.976  16.579  -2.673  1.00 20.00     0.027 A 
HETATM    6  C10 UNL     1     -35.208  16.120  -1.938  1.00 20.00     0.030 C 
ENDROOT
BRANCH   4   7
HETATM    7  C3  UNL     1     -33.236  18.063  -0.680  1.00 20.00    -0.018 C 
HETATM    8  C4  UNL     1     -32.311  18.405   0.235  1.00 20.00    -0.091 C 
HETATM    9  C8  UNL     1     -32.709  18.902   1.597  1.00 20.00     0.042 C 
HETATM   10  C9  UNL     1     -30.829  18.328  -0.005  1.00 20.00     0.042 C 
ENDBRANCH   4   7
TORSDOF 1
ENDMDL
MODEL 3
REMARK VINA RESULT:      -4.7     11.130     12.340
REMARK  1 active torsions:
REMARK  status: ('A' for Active; 'I' for Inactive)
REMARK    1  A    between atoms: C3_3  and  C6_6 
ROOT
HETATM    1  C1  UNL     1     -33.513  18.619   2.187  1.00 20.00     0.013 C 
HETATM    2  C2  UNL     1     -33.118  18.528   1.056  1.00 20.00    -0.107 C 
HETATM    3  C5  UNL     1     -33.348  19.253  -1.350  1.00 20.00     0.033 A 
HETATM    4  C6  UNL     1     -33.596  17.771  -1.299  1.00 20.00     0.030 A 
HETATM    5  C7  UNL     1     -32.646  18.419  -0.302  1.00 20.00     0.027 A 
HETATM    6  C10 UNL     1     -31.156  18.241  -0.433  1.00 20.00     0.030 C 
ENDROOT
BRANCH   4   7
HETATM    7  C3  UNL     1     -33.093  16.932  -2.378  1.00 20.00    -0.018 C 
HETATM    8  C4  UNL     1     -33.730  15.927  -3.007  1.00 20.00    -0.091 C 
HETATM    9  C8  UNL     1     -33.066  15.152  -4.110  1.00 20.00     0.042 C 
HETATM   10  C9  UNL     1     -35.131  15.491  -2.678  1.00 20.00     0.042 C 
ENDBRANCH   4   7
TORSDOF 1
ENDMDL
MODEL 4
REMARK VINA RESULT:      -4.6     11.090     12.020
REMARK  1 active torsions:
REMARK  status: ('A' for Active; 'I' for Inactive)
REMARK    1  A    between atoms: C3_3  and  C6_6 
ROOT
HETATM    1  C1  UNL     1     -31.804  18.163  -1.152  1.00 20.00     0.013 C 
HETATM    2  C2  UNL     1     -32.893  17.871  -1.565  1.00 20.00    -0.107 C 
HETATM    3  C5  UNL     1     -35.213  17.023  -1.055  1.00 20.00     0.033 A 
HETATM    4  C6  UNL     1     -34.572  16.044  -1.999  1.00 20.00     0.030 A 
HETATM    5  C7  UNL     1     -34.200  17.518  -2.062  1.00 20.00     0.027 A 
HETATM    6  C10 UNL     1     -34.698  18.389  -3.185  1.00 20.00     0.030 C 
ENDROOT
BRANCH   4   7
HETATM    7  C3  UNL     1     -35.385  15.431  -3.041  1.00 20.00    -0.018 C 
HETATM    8  C4  UNL     1     -34.963  14.725  -4.107  1.00 20.00    -0.091 C 
HETATM    9  C8  UNL     1     -35.938  14.155  -5.099  1.00 20.00     0.042 C 
HETATM   10  C9  UNL     1     -33.516  14.445  -4.404  1.00 20.00     0.042 C 
ENDBRANCH   4   7
TORSDOF 1
ENDMDL
MODEL 5
REMARK VINA RESULT:      -4.6     10.822     12.017
REMARK  1 active torsions:
REMARK  status: ('A' for Active; 'I' for Inactive)
REMARK    1  A    between atoms: C3_3  and  C6_6 
ROOT
HETATM    1  C1  UNL     1     -38.433  14.749  -4.202  1.00 20.00     0.013 C 
HETATM    2  C2  UNL     1     -37.252  14.953  -4.265  1.00 20.00    -0.107 C 
HETATM    3  C5  UNL     1     -34.912  14.042  -4.023  1.00 20.00     0.033 A 
HETATM    4  C6  UNL     1     -35.069  15.154  -3.022  1.00 20.00     0.030 A 
HETATM    5  C7  UNL     1     -35.832  15.199  -4.338  1.00 20.00     0.027 A 
HETATM    6  C10 UNL     1     -35.418  16.144  -5.435  1.00 20.00     0.030 C 
ENDROOT
BRANCH   4   7
HETATM    7  C3  UNL     1     -33.946  16.048  -2.776  1.00 20.00    -0.018 C 
HETATM    8  C4  UNL     1     -33.833  16.985  -1.816  1.00 20.00    -0.091 C 
HETATM    9  C8  UNL     1     -32.598  17.832  -1.696  1.00 20.00     0.042 C 
HETATM   10  C9  UNL     1     -34.900  17.268  -0.796  1.00 20.00     0.042 C 
ENDBRANCH   4   7
TORSDOF 1
ENDMDL
MODEL 6
REMARK VINA RESULT:      -4.6     11.231     12.169
REMARK  1 active torsions:
REMARK  status: ('A' for Active; 'I' for Inactive)
REMARK    1  A    between atoms: C3_3  and  C6_6 
ROOT
HETATM    1  C1  UNL     1     -36.817  13.996  -4.547  1.00 20.00     0.013 C 
HETATM    2  C2  UNL     1     -35.785  14.610  -4.571  1.00 20.00    -0.107 C 
HETATM    3  C5  UNL     1     -33.266  14.556  -4.440  1.00 20.00     0.033 A 
HETATM    4  C6  UNL     1     -33.760  15.396  -3.295  1.00 20.00     0.030 A 
HETATM    5  C7  UNL     1     -34.545  15.346  -4.597  1.00 20.00     0.027 A 
HETATM    6  C10 UNL     1     -34.533  16.515  -5.547  1.00 20.00     0.030 C 
ENDROOT
BRANCH   4   7
HETATM    7  C3  UNL     1     -33.010  16.587  -2.916  1.00 20.00    -0.018 C 
HETATM    8  C4  UNL     1     -33.291  17.459  -1.930  1.00 20.00    -0.091 C 
HETATM    9  C8  UNL     1     -32.410  18.648  -1.667  1.00 20.00     0.042 C 
HETATM   10  C9  UNL     1     -34.481  17.335  -1.019  1.00 20.00     0.042 C 
ENDBRANCH   4   7
TORSDOF 1
ENDMDL
MODEL 7
REMARK VINA RESULT:      -4.6     11.025     11.899
REMARK  1 active torsions:
REMARK  status: ('A' for Active; 'I' for Inactive)
REMARK    1  A    between atoms: C3_3  and  C6_6 
ROOT
HETATM    1  C1  UNL     1     -35.761  17.669   1.473  1.00 20.00     0.013 C 
HETATM    2  C2  UNL     1     -35.217  17.647   0.403  1.00 20.00    -0.107 C 
HETATM    3  C5  UNL     1     -35.420  17.886  -2.100  1.00 20.00     0.033 A 
HETATM    4  C6  UNL     1     -34.958  16.483  -1.816  1.00 20.00     0.030 A 
HETATM    5  C7  UNL     1     -34.565  17.618  -0.883  1.00 20.00     0.027 A 
HETATM    6  C10 UNL     1     -33.159  18.161  -0.882  1.00 20.00     0.030 C 
ENDROOT
BRANCH   4   7
HETATM    7  C3  UNL     1     -33.979  15.868  -2.703  1.00 20.00    -0.018 C 
HETATM    8  C4  UNL     1     -34.199  14.951  -3.663  1.00 20.00    -0.091 C 
HETATM    9  C8  UNL     1     -33.071  14.412  -4.498  1.00 20.00     0.042 C 
HETATM   10  C9  UNL     1     -35.555  14.390  -3.989  1.00 20.00     0.042 C 
ENDBRANCH   4   7
TORSDOF 1
ENDMDL
MODEL 8
REMARK VINA RESULT:      -4.6     10.985     12.154
REMARK  1 active torsions:
REMARK  status: ('A' for Active; 'I' for Inactive)
REMARK    1  A    between atoms: C3_3  and  C6_6 
ROOT
HETATM    1  C1  UNL     1     -35.480  15.024  -6.512  1.00 20.00     0.013 C 
HETATM    2  C2  UNL     1     -34.826  15.095  -5.507  1.00 20.00    -0.107 C 
HETATM    3  C5  UNL     1     -34.789  15.181  -2.986  1.00 20.00     0.033 A 
HETATM    4  C6  UNL     1     -34.185  16.462  -3.491  1.00 20.00     0.030 A 
HETATM    5  C7  UNL     1     -34.042  15.182  -4.300  1.00 20.00     0.027 A 
HETATM    6  C10 UNL     1     -32.726  14.451  -4.356  1.00 20.00     0.030 C 
ENDROOT
BRANCH   4   7
HETATM    7  C3  UNL     1     -33.047  17.034  -2.783  1.00 20.00    -0.018 C 
HETATM    8  C4  UNL     1     -33.052  17.690  -1.608  1.00 20.00    -0.091 C 
HETATM    9  C8  UNL     1     -31.781  18.223  -1.009  1.00 20.00     0.042 C 
HETATM   10  C9  UNL     1     -34.293  17.949  -0.801  1.00 20.00     0.042 C 
ENDBRANCH   4   7
TORSDOF 1
ENDMDL
MODEL 9
REMARK VINA RESULT:      -4.4     10.691     11.782
REMARK  1 active torsions:
REMARK  status: ('A' for Active; 'I' for Inactive)
REMARK    1  A    between atoms: C3_3  and  C6_6 
ROOT
HETATM    1  C1  UNL     1     -34.214  15.304  -7.271  1.00 20.00     0.013 C 
HETATM    2  C2  UNL     1     -34.121  15.054  -6.100  1.00 20.00    -0.107 C 
HETATM    3  C5  UNL     1     -34.973  13.738  -4.123  1.00 20.00     0.033 A 
HETATM    4  C6  UNL     1     -35.172  15.197  -3.815  1.00 20.00     0.030 A 
HETATM    5  C7  UNL     1     -34.011  14.755  -4.693  1.00 20.00     0.027 A 
HETATM    6  C10 UNL     1     -32.601  14.757  -4.162  1.00 20.00     0.030 C 
ENDROOT
BRANCH   4   7
HETATM    7  C3  UNL     1     -34.946  15.669  -2.455  1.00 20.00    -0.018 C 
HETATM    8  C4  UNL     1     -35.411  16.797  -1.887  1.00 20.00    -0.091 C 
HETATM    9  C8  UNL     1     -35.084  17.143  -0.461  1.00 20.00     0.042 C 
HETATM   10  C9  UNL     1     -36.279  17.796  -2.600  1.00 20.00     0.042 C 
ENDBRANCH   4   7
TORSDOF 1
ENDMDL
