MODEL 1
REMARK VINA RESULT:      -3.9      0.000      0.000
REMARK  0 active torsions:
REMARK  status: ('A' for Active; 'I' for Inactive)
ROOT
HETATM    1  C1  UNL     1     -33.525   6.485   3.597  1.00 20.00    -0.064 A 
HETATM    2  C2  UNL     1     -32.506   7.070   2.997  1.00 20.00     0.016 C 
HETATM    3  C3  UNL     1     -34.711   5.896   6.036  1.00 20.00     0.017 A 
HETATM    4  C4  UNL     1     -33.495   6.712   5.954  1.00 20.00     0.017 A 
HETATM    5  C5  UNL     1     -34.436   5.447   3.484  1.00 20.00     0.099 A 
HETATM    6  C6  UNL     1     -34.391   6.562   4.714  1.00 20.00     0.000 A 
HETATM    7 BR7  UNL     1     -33.711   3.695   3.685  1.00 20.00    -0.085 Br
ENDROOT
TORSDOF 0
ENDMDL
MODEL 2
REMARK VINA RESULT:      -3.7      1.675      2.633
REMARK  0 active torsions:
REMARK  status: ('A' for Active; 'I' for Inactive)
ROOT
HETATM    1  C1  UNL     1     -34.138   6.533   4.948  1.00 20.00    -0.064 A 
HETATM    2  C2  UNL     1     -33.867   7.013   6.147  1.00 20.00     0.016 C 
HETATM    3  C3  UNL     1     -34.316   4.242   3.390  1.00 20.00     0.017 A 
HETATM    4  C4  UNL     1     -33.999   4.172   4.821  1.00 20.00     0.017 A 
HETATM    5  C5  UNL     1     -34.105   6.831   3.596  1.00 20.00     0.099 A 
HETATM    6  C6  UNL     1     -34.688   5.426   4.260  1.00 20.00     0.000 A 
HETATM    7 BR7  UNL     1     -32.366   6.935   2.822  1.00 20.00    -0.085 Br
ENDROOT
TORSDOF 0
ENDMDL
MODEL 3
REMARK VINA RESULT:      -3.7     12.500     12.891
REMARK  0 active torsions:
REMARK  status: ('A' for Active; 'I' for Inactive)
ROOT
HETATM    1  C1  UNL     1     -35.094  14.436  -4.464  1.00 20.00    -0.064 A 
HETATM    2  C2  UNL     1     -36.242  13.784  -4.478  1.00 20.00     0.016 C 
HETATM    3  C3  UNL     1     -33.489  16.208  -3.054  1.00 20.00     0.017 A 
HETATM    4  C4  UNL     1     -34.767  15.736  -2.512  1.00 20.00     0.017 A 
HETATM    5  C5  UNL     1     -34.129  15.007  -5.277  1.00 20.00     0.099 A 
HETATM    6  C6  UNL     1     -34.071  14.928  -3.619  1.00 20.00     0.000 A 
HETATM    7 BR7  UNL     1     -34.662  16.592  -6.193  1.00 20.00    -0.085 Br
ENDROOT
TORSDOF 0
ENDMDL
MODEL 4
REMARK VINA RESULT:      -3.6     16.347     17.114
REMARK  0 active torsions:
REMARK  status: ('A' for Active; 'I' for Inactive)
ROOT
HETATM    1  C1  UNL     1     -23.363  17.609  11.454  1.00 20.00    -0.064 A 
HETATM    2  C2  UNL     1     -22.390  17.761  12.332  1.00 20.00     0.016 C 
HETATM    3  C3  UNL     1     -24.264  18.242   8.906  1.00 20.00     0.017 A 
HETATM    4  C4  UNL     1     -22.947  18.678   9.382  1.00 20.00     0.017 A 
HETATM    5  C5  UNL     1     -24.728  17.406  11.329  1.00 20.00     0.099 A 
HETATM    6  C6  UNL     1     -23.648  17.497  10.072  1.00 20.00     0.000 A 
HETATM    7 BR7  UNL     1     -25.825  18.884  11.825  1.00 20.00    -0.085 Br
ENDROOT
TORSDOF 0
ENDMDL
MODEL 5
REMARK VINA RESULT:      -3.6      9.166      9.804
REMARK  0 active torsions:
REMARK  status: ('A' for Active; 'I' for Inactive)
ROOT
HETATM    1  C1  UNL     1     -41.824   6.197  -0.816  1.00 20.00    -0.064 A 
HETATM    2  C2  UNL     1     -40.807   5.389  -1.051  1.00 20.00     0.016 C 
HETATM    3  C3  UNL     1     -42.580   8.753  -0.043  1.00 20.00     0.017 A 
HETATM    4  C4  UNL     1     -41.169   8.391  -0.212  1.00 20.00     0.017 A 
HETATM    5  C5  UNL     1     -43.142   6.233  -0.390  1.00 20.00     0.099 A 
HETATM    6  C6  UNL     1     -42.254   7.543  -0.893  1.00 20.00     0.000 A 
HETATM    7 BR7  UNL     1     -43.417   5.851   1.457  1.00 20.00    -0.085 Br
ENDROOT
TORSDOF 0
ENDMDL
MODEL 6
REMARK VINA RESULT:      -3.6     16.455     16.890
REMARK  0 active torsions:
REMARK  status: ('A' for Active; 'I' for Inactive)
ROOT
HETATM    1  C1  UNL     1     -22.767  17.286   9.400  1.00 20.00    -0.064 A 
HETATM    2  C2  UNL     1     -21.601  17.171   8.793  1.00 20.00     0.016 C 
HETATM    3  C3  UNL     1     -25.008  18.883   9.763  1.00 20.00     0.017 A 
HETATM    4  C4  UNL     1     -23.941  19.263   8.831  1.00 20.00     0.017 A 
HETATM    5  C5  UNL     1     -23.466  16.933  10.543  1.00 20.00     0.099 A 
HETATM    6  C6  UNL     1     -24.081  17.795   9.263  1.00 20.00     0.000 A 
HETATM    7 BR7  UNL     1     -22.894  17.786  12.150  1.00 20.00    -0.085 Br
ENDROOT
TORSDOF 0
ENDMDL
MODEL 7
REMARK VINA RESULT:      -3.5     16.105     16.873
REMARK  0 active torsions:
REMARK  status: ('A' for Active; 'I' for Inactive)
ROOT
HETATM    1  C1  UNL     1     -24.046  18.588   9.135  1.00 20.00    -0.064 A 
HETATM    2  C2  UNL     1     -25.051  18.899   8.338  1.00 20.00     0.016 C 
HETATM    3  C3  UNL     1     -21.506  17.478   9.286  1.00 20.00     0.017 A 
HETATM    4  C4  UNL     1     -22.195  17.640   8.001  1.00 20.00     0.017 A 
HETATM    5  C5  UNL     1     -23.726  18.218  10.432  1.00 20.00     0.099 A 
HETATM    6  C6  UNL     1     -22.636  18.484   9.208  1.00 20.00     0.000 A 
HETATM    7 BR7  UNL     1     -24.265  16.460  10.937  1.00 20.00    -0.085 Br
ENDROOT
TORSDOF 0
ENDMDL
MODEL 8
REMARK VINA RESULT:      -3.5     12.427     12.859
REMARK  0 active torsions:
REMARK  status: ('A' for Active; 'I' for Inactive)
ROOT
HETATM    1  C1  UNL     1     -35.175  15.982  -2.387  1.00 20.00    -0.064 A 
HETATM    2  C2  UNL     1     -35.148  16.700  -1.280  1.00 20.00     0.016 C 
HETATM    3  C3  UNL     1     -33.697  15.055  -4.546  1.00 20.00     0.017 A 
HETATM    4  C4  UNL     1     -33.077  15.845  -3.477  1.00 20.00     0.017 A 
HETATM    5  C5  UNL     1     -35.993  15.568  -3.426  1.00 20.00     0.099 A 
HETATM    6  C6  UNL     1     -34.407  15.124  -3.210  1.00 20.00     0.000 A 
HETATM    7 BR7  UNL     1     -36.499  16.928  -4.662  1.00 20.00    -0.085 Br
ENDROOT
TORSDOF 0
ENDMDL
MODEL 9
REMARK VINA RESULT:      -3.5     15.907     16.647
REMARK  0 active torsions:
REMARK  status: ('A' for Active; 'I' for Inactive)
ROOT
HETATM    1  C1  UNL     1     -22.749  18.041   8.789  1.00 20.00    -0.064 A 
HETATM    2  C2  UNL     1     -21.885  17.402   8.023  1.00 20.00     0.016 C 
HETATM    3  C3  UNL     1     -24.669  17.783  10.778  1.00 20.00     0.017 A 
HETATM    4  C4  UNL     1     -23.902  16.628  10.300  1.00 20.00     0.017 A 
HETATM    5  C5  UNL     1     -23.575  19.152   8.849  1.00 20.00     0.099 A 
HETATM    6  C6  UNL     1     -23.356  18.045  10.068  1.00 20.00     0.000 A 
HETATM    7 BR7  UNL     1     -25.098  19.102   7.704  1.00 20.00    -0.085 Br
ENDROOT
TORSDOF 0
ENDMDL
