MODEL 1
REMARK VINA RESULT:      -4.7      0.000      0.000
REMARK  1 active torsions:
REMARK  status: ('A' for Active; 'I' for Inactive)
REMARK    1  A    between atoms: C8_8  and  C11_11 
ROOT
HETATM    1  C1  UNL     1     -35.860  16.285  -4.357  1.00 20.00    -0.084 C 
HETATM    2  C2  UNL     1     -36.953  17.050  -4.423  1.00 20.00     0.014 C 
HETATM    3  C3  UNL     1     -34.777  16.190  -5.402  1.00 20.00     0.038 C 
HETATM    4  C4  UNL     1     -34.870  14.197  -4.096  1.00 20.00     0.014 C 
HETATM    5  C5  UNL     1     -33.155  15.760  -3.518  1.00 20.00     0.010 C 
HETATM    6  C6  UNL     1     -35.511  15.306  -3.256  1.00 20.00     0.018 C 
HETATM    7  C7  UNL     1     -33.855  15.140  -4.749  1.00 20.00    -0.010 C 
HETATM    8  C8  UNL     1     -34.286  15.816  -2.463  1.00 20.00    -0.003 C 
ENDROOT
BRANCH   8   9
HETATM    9  C11 UNL     1     -34.447  17.185  -1.819  1.00 20.00    -0.018 C 
HETATM   10  C9  UNL     1     -35.274  17.086  -0.536  1.00 20.00     0.010 C 
HETATM   11  C10 UNL     1     -33.084  17.812  -1.527  1.00 20.00     0.010 C 
ENDBRANCH   8   9
TORSDOF 1
ENDMDL
MODEL 2
REMARK VINA RESULT:      -4.5     11.251     12.584
REMARK  1 active torsions:
REMARK  status: ('A' for Active; 'I' for Inactive)
REMARK    1  A    between atoms: C8_8  and  C11_11 
ROOT
HETATM    1  C1  UNL     1     -42.700   5.583   0.600  1.00 20.00    -0.084 C 
HETATM    2  C2  UNL     1     -43.236   5.441   1.815  1.00 20.00     0.014 C 
HETATM    3  C3  UNL     1     -43.351   5.213  -0.708  1.00 20.00     0.038 C 
HETATM    4  C4  UNL     1     -40.975   5.174  -0.906  1.00 20.00     0.014 C 
HETATM    5  C5  UNL     1     -42.075   7.121  -1.753  1.00 20.00     0.010 C 
HETATM    6  C6  UNL     1     -41.306   6.082   0.284  1.00 20.00     0.018 C 
HETATM    7  C7  UNL     1     -42.223   5.584  -1.693  1.00 20.00    -0.010 C 
HETATM    8  C8  UNL     1     -41.381   7.460  -0.412  1.00 20.00    -0.003 C 
ENDROOT
BRANCH   8   9
HETATM    9  C11 UNL     1     -42.086   8.553   0.377  1.00 20.00    -0.018 C 
HETATM   10  C9  UNL     1     -41.192   9.787   0.509  1.00 20.00     0.010 C 
HETATM   11  C10 UNL     1     -43.415   8.926  -0.282  1.00 20.00     0.010 C 
ENDBRANCH   8   9
TORSDOF 1
ENDMDL
MODEL 3
REMARK VINA RESULT:      -4.4      1.260      1.994
REMARK  1 active torsions:
REMARK  status: ('A' for Active; 'I' for Inactive)
REMARK    1  A    between atoms: C8_8  and  C11_11 
ROOT
HETATM    1  C1  UNL     1     -36.302  16.133  -5.405  1.00 20.00    -0.084 C 
HETATM    2  C2  UNL     1     -36.337  17.358  -5.937  1.00 20.00     0.014 C 
HETATM    3  C3  UNL     1     -35.890  14.868  -6.113  1.00 20.00     0.038 C 
HETATM    4  C4  UNL     1     -37.359  14.382  -4.298  1.00 20.00     0.014 C 
HETATM    5  C5  UNL     1     -35.028  14.040  -3.892  1.00 20.00     0.010 C 
HETATM    6  C6  UNL     1     -36.729  15.748  -4.005  1.00 20.00     0.018 C 
HETATM    7  C7  UNL     1     -36.102  13.838  -4.984  1.00 20.00    -0.010 C 
HETATM    8  C8  UNL     1     -35.497  15.327  -3.172  1.00 20.00    -0.003 C 
ENDROOT
BRANCH   8   9
HETATM    9  C11 UNL     1     -34.406  16.380  -3.039  1.00 20.00    -0.018 C 
HETATM   10  C9  UNL     1     -34.323  16.896  -1.602  1.00 20.00     0.010 C 
HETATM   11  C10 UNL     1     -33.055  15.820  -3.484  1.00 20.00     0.010 C 
ENDBRANCH   8   9
TORSDOF 1
ENDMDL
MODEL 4
REMARK VINA RESULT:      -4.4      1.441      3.759
REMARK  1 active torsions:
REMARK  status: ('A' for Active; 'I' for Inactive)
REMARK    1  A    between atoms: C8_8  and  C11_11 
ROOT
HETATM    1  C1  UNL     1     -33.858  18.283  -3.493  1.00 20.00    -0.084 C 
HETATM    2  C2  UNL     1     -33.515  18.777  -4.686  1.00 20.00     0.014 C 
HETATM    3  C3  UNL     1     -35.053  18.696  -2.671  1.00 20.00     0.038 C 
HETATM    4  C4  UNL     1     -33.333  17.807  -1.278  1.00 20.00     0.014 C 
HETATM    5  C5  UNL     1     -35.135  16.326  -1.809  1.00 20.00     0.010 C 
HETATM    6  C6  UNL     1     -33.089  17.258  -2.688  1.00 20.00     0.018 C 
HETATM    7  C7  UNL     1     -34.857  17.799  -1.431  1.00 20.00    -0.010 C 
HETATM    8  C8  UNL     1     -33.880  15.932  -2.626  1.00 20.00    -0.003 C 
ENDROOT
BRANCH   8   9
HETATM    9  C11 UNL     1     -34.206  15.300  -3.971  1.00 20.00    -0.018 C 
HETATM   10  C9  UNL     1     -33.027  14.470  -4.479  1.00 20.00     0.010 C 
HETATM   11  C10 UNL     1     -35.464  14.437  -3.875  1.00 20.00     0.010 C 
ENDBRANCH   8   9
TORSDOF 1
ENDMDL
MODEL 5
REMARK VINA RESULT:      -4.2      1.522      3.919
REMARK  1 active torsions:
REMARK  status: ('A' for Active; 'I' for Inactive)
REMARK    1  A    between atoms: C8_8  and  C11_11 
ROOT
HETATM    1  C1  UNL     1     -33.971  15.798  -3.455  1.00 20.00    -0.084 C 
HETATM    2  C2  UNL     1     -32.986  16.608  -3.061  1.00 20.00     0.014 C 
HETATM    3  C3  UNL     1     -35.340  15.694  -2.833  1.00 20.00     0.038 C 
HETATM    4  C4  UNL     1     -34.758  13.663  -3.939  1.00 20.00     0.014 C 
HETATM    5  C5  UNL     1     -36.218  15.135  -5.131  1.00 20.00     0.010 C 
HETATM    6  C6  UNL     1     -33.901  14.769  -4.564  1.00 20.00     0.018 C 
HETATM    7  C7  UNL     1     -35.959  14.586  -3.710  1.00 20.00    -0.010 C 
HETATM    8  C8  UNL     1     -34.799  15.202  -5.745  1.00 20.00    -0.003 C 
ENDROOT
BRANCH   8   9
HETATM    9  C11 UNL     1     -34.467  16.553  -6.359  1.00 20.00    -0.018 C 
HETATM   10  C9  UNL     1     -34.070  16.398  -7.828  1.00 20.00     0.010 C 
HETATM   11  C10 UNL     1     -35.647  17.516  -6.225  1.00 20.00     0.010 C 
ENDBRANCH   8   9
TORSDOF 1
ENDMDL
MODEL 6
REMARK VINA RESULT:      -4.2      1.499      3.759
REMARK  1 active torsions:
REMARK  status: ('A' for Active; 'I' for Inactive)
REMARK    1  A    between atoms: C8_8  and  C11_11 
ROOT
HETATM    1  C1  UNL     1     -35.075  17.608  -3.855  1.00 20.00    -0.084 C 
HETATM    2  C2  UNL     1     -35.512  18.669  -4.538  1.00 20.00     0.014 C 
HETATM    3  C3  UNL     1     -35.788  16.933  -2.710  1.00 20.00     0.038 C 
HETATM    4  C4  UNL     1     -33.435  16.564  -2.577  1.00 20.00     0.014 C 
HETATM    5  C5  UNL     1     -34.737  14.773  -3.480  1.00 20.00     0.010 C 
HETATM    6  C6  UNL     1     -33.749  16.902  -4.039  1.00 20.00     0.018 C 
HETATM    7  C7  UNL     1     -34.763  15.834  -2.357  1.00 20.00    -0.010 C 
HETATM    8  C8  UNL     1     -33.977  15.489  -4.622  1.00 20.00    -0.003 C 
ENDROOT
BRANCH   8   9
HETATM    9  C11 UNL     1     -34.706  15.442  -5.957  1.00 20.00    -0.018 C 
HETATM   10  C9  UNL     1     -33.746  15.057  -7.084  1.00 20.00     0.010 C 
HETATM   11  C10 UNL     1     -35.880  14.465  -5.901  1.00 20.00     0.010 C 
ENDBRANCH   8   9
TORSDOF 1
ENDMDL
MODEL 7
REMARK VINA RESULT:      -4.2      1.243      3.566
REMARK  1 active torsions:
REMARK  status: ('A' for Active; 'I' for Inactive)
REMARK    1  A    between atoms: C8_8  and  C11_11 
ROOT
HETATM    1  C1  UNL     1     -33.743  16.439  -2.772  1.00 20.00    -0.084 C 
HETATM    2  C2  UNL     1     -32.855  17.242  -2.182  1.00 20.00     0.014 C 
HETATM    3  C3  UNL     1     -35.047  15.968  -2.178  1.00 20.00     0.038 C 
HETATM    4  C4  UNL     1     -34.263  14.433  -3.827  1.00 20.00     0.014 C 
HETATM    5  C5  UNL     1     -35.976  15.949  -4.523  1.00 20.00     0.010 C 
HETATM    6  C6  UNL     1     -33.602  15.782  -4.128  1.00 20.00     0.018 C 
HETATM    7  C7  UNL     1     -35.562  15.069  -3.322  1.00 20.00    -0.010 C 
HETATM    8  C8  UNL     1     -34.618  16.390  -5.120  1.00 20.00    -0.003 C 
ENDROOT
BRANCH   8   9
HETATM    9  C11 UNL     1     -34.508  17.893  -5.331  1.00 20.00    -0.018 C 
HETATM   10  C9  UNL     1     -34.167  18.212  -6.787  1.00 20.00     0.010 C 
HETATM   11  C10 UNL     1     -35.803  18.595  -4.921  1.00 20.00     0.010 C 
ENDBRANCH   8   9
TORSDOF 1
ENDMDL
MODEL 8
REMARK VINA RESULT:      -4.2      1.331      3.257
REMARK  1 active torsions:
REMARK  status: ('A' for Active; 'I' for Inactive)
REMARK    1  A    between atoms: C8_8  and  C11_11 
ROOT
HETATM    1  C1  UNL     1     -35.251  14.577  -3.979  1.00 20.00    -0.084 C 
HETATM    2  C2  UNL     1     -36.021  13.596  -4.455  1.00 20.00     0.014 C 
HETATM    3  C3  UNL     1     -33.745  14.626  -4.021  1.00 20.00     0.038 C 
HETATM    4  C4  UNL     1     -34.582  15.947  -2.221  1.00 20.00     0.014 C 
HETATM    5  C5  UNL     1     -33.944  17.135  -4.196  1.00 20.00     0.010 C 
HETATM    6  C6  UNL     1     -35.721  15.812  -3.238  1.00 20.00     0.018 C 
HETATM    7  C7  UNL     1     -33.491  15.963  -3.295  1.00 20.00    -0.010 C 
HETATM    8  C8  UNL     1     -35.488  17.070  -4.105  1.00 20.00    -0.003 C 
ENDROOT
BRANCH   8   9
HETATM    9  C11 UNL     1     -36.175  17.066  -5.462  1.00 20.00    -0.018 C 
HETATM   10  C9  UNL     1     -37.248  18.153  -5.529  1.00 20.00     0.010 C 
HETATM   11  C10 UNL     1     -35.157  17.252  -6.587  1.00 20.00     0.010 C 
ENDBRANCH   8   9
TORSDOF 1
ENDMDL
MODEL 9
REMARK VINA RESULT:      -4.2      1.405      3.621
REMARK  1 active torsions:
REMARK  status: ('A' for Active; 'I' for Inactive)
REMARK    1  A    between atoms: C8_8  and  C11_11 
ROOT
HETATM    1  C1  UNL     1     -35.700  17.019  -3.007  1.00 20.00    -0.084 C 
HETATM    2  C2  UNL     1     -36.953  17.461  -2.881  1.00 20.00     0.014 C 
HETATM    3  C3  UNL     1     -34.888  16.332  -1.938  1.00 20.00     0.038 C 
HETATM    4  C4  UNL     1     -33.465  17.405  -3.522  1.00 20.00     0.014 C 
HETATM    5  C5  UNL     1     -33.753  15.046  -3.787  1.00 20.00     0.010 C 
HETATM    6  C6  UNL     1     -34.809  17.172  -4.221  1.00 20.00     0.018 C 
HETATM    7  C7  UNL     1     -33.560  16.120  -2.693  1.00 20.00    -0.010 C 
HETATM    8  C8  UNL     1     -34.563  15.793  -4.874  1.00 20.00    -0.003 C 
ENDROOT
BRANCH   8   9
HETATM    9  C11 UNL     1     -35.812  15.047  -5.319  1.00 20.00    -0.018 C 
HETATM   10  C9  UNL     1     -35.755  14.740  -6.816  1.00 20.00     0.010 C 
HETATM   11  C10 UNL     1     -35.989  13.758  -4.517  1.00 20.00     0.010 C 
ENDBRANCH   8   9
TORSDOF 1
ENDMDL
