MODEL 1
REMARK VINA RESULT:      -6.1      0.000      0.000
REMARK  0 active torsions:
REMARK  status: ('A' for Active; 'I' for Inactive)
ROOT
HETATM    1  C1  UNL     1     -33.156   7.109   3.981  1.00 20.00     0.019 A 
HETATM    2  C2  UNL     1     -34.097   6.644   4.815  1.00 20.00     0.054 A 
HETATM    3  C3  UNL     1     -34.193   4.497   3.511  1.00 20.00     0.096 A 
HETATM    4  C4  UNL     1     -33.253   4.963   2.677  1.00 20.00     0.133 A 
HETATM    5  C5  UNL     1     -32.629   6.319   2.818  1.00 20.00     0.254 A 
HETATM    6  C6  UNL     1     -34.720   5.286   4.674  1.00 20.00     0.282 A 
HETATM    7  F7  UNL     1     -32.847   4.173   1.658  1.00 20.00    -0.207 F 
HETATM    8  F8  UNL     1     -32.817   7.026   1.668  1.00 20.00    -0.238 F 
HETATM    9  F9  UNL     1     -34.528   4.579   5.824  1.00 20.00    -0.197 F 
HETATM   10  F10 UNL     1     -36.072   5.420   4.553  1.00 20.00    -0.197 F 
ENDROOT
TORSDOF 0
ENDMDL
MODEL 2
REMARK VINA RESULT:      -6.0      1.368      3.806
REMARK  0 active torsions:
REMARK  status: ('A' for Active; 'I' for Inactive)
ROOT
HETATM    1  C1  UNL     1     -33.942   4.721   3.138  1.00 20.00     0.019 A 
HETATM    2  C2  UNL     1     -33.138   5.565   2.476  1.00 20.00     0.054 A 
HETATM    3  C3  UNL     1     -33.298   7.207   4.373  1.00 20.00     0.096 A 
HETATM    4  C4  UNL     1     -34.102   6.363   5.033  1.00 20.00     0.133 A 
HETATM    5  C5  UNL     1     -34.513   5.027   4.492  1.00 20.00     0.254 A 
HETATM    6  C6  UNL     1     -32.725   6.901   3.020  1.00 20.00     0.282 A 
HETATM    7  F7  UNL     1     -34.566   6.733   6.248  1.00 20.00    -0.207 F 
HETATM    8  F8  UNL     1     -35.874   4.961   4.434  1.00 20.00    -0.238 F 
HETATM    9  F9  UNL     1     -31.364   6.964   3.080  1.00 20.00    -0.197 F 
HETATM   10  F10 UNL     1     -33.094   7.879   2.143  1.00 20.00    -0.197 F 
ENDROOT
TORSDOF 0
ENDMDL
MODEL 3
REMARK VINA RESULT:      -5.9      1.095      3.308
REMARK  0 active torsions:
REMARK  status: ('A' for Active; 'I' for Inactive)
ROOT
HETATM    1  C1  UNL     1     -33.090   7.213   4.071  1.00 20.00     0.019 A 
HETATM    2  C2  UNL     1     -32.885   6.488   2.963  1.00 20.00     0.054 A 
HETATM    3  C3  UNL     1     -34.398   4.691   3.859  1.00 20.00     0.096 A 
HETATM    4  C4  UNL     1     -34.601   5.418   4.966  1.00 20.00     0.133 A 
HETATM    5  C5  UNL     1     -33.973   6.759   5.197  1.00 20.00     0.254 A 
HETATM    6  C6  UNL     1     -33.517   5.146   2.733  1.00 20.00     0.282 A 
HETATM    7  F7  UNL     1     -35.414   4.917   5.924  1.00 20.00    -0.207 F 
HETATM    8  F8  UNL     1     -33.251   6.728   6.354  1.00 20.00    -0.238 F 
HETATM    9  F9  UNL     1     -34.241   5.179   1.577  1.00 20.00    -0.197 F 
HETATM   10  F10 UNL     1     -32.540   4.218   2.521  1.00 20.00    -0.197 F 
ENDROOT
TORSDOF 0
ENDMDL
MODEL 4
REMARK VINA RESULT:      -5.9      1.462      2.647
REMARK  0 active torsions:
REMARK  status: ('A' for Active; 'I' for Inactive)
ROOT
HETATM    1  C1  UNL     1     -34.796   4.858   4.217  1.00 20.00     0.019 A 
HETATM    2  C2  UNL     1     -34.715   5.455   5.413  1.00 20.00     0.054 A 
HETATM    3  C3  UNL     1     -33.050   7.094   4.483  1.00 20.00     0.096 A 
HETATM    4  C4  UNL     1     -33.132   6.495   3.287  1.00 20.00     0.133 A 
HETATM    5  C5  UNL     1     -34.013   5.312   3.019  1.00 20.00     0.254 A 
HETATM    6  C6  UNL     1     -33.834   6.641   5.680  1.00 20.00     0.282 A 
HETATM    7  F7  UNL     1     -32.383   6.980   2.271  1.00 20.00    -0.207 F 
HETATM    8  F8  UNL     1     -33.255   4.278   2.555  1.00 20.00    -0.238 F 
HETATM    9  F9  UNL     1     -34.594   7.675   6.141  1.00 20.00    -0.197 F 
HETATM   10  F10 UNL     1     -32.973   6.344   6.696  1.00 20.00    -0.197 F 
ENDROOT
TORSDOF 0
ENDMDL
MODEL 5
REMARK VINA RESULT:      -5.4      1.334      3.340
REMARK  0 active torsions:
REMARK  status: ('A' for Active; 'I' for Inactive)
ROOT
HETATM    1  C1  UNL     1     -34.090   6.805   5.489  1.00 20.00     0.019 A 
HETATM    2  C2  UNL     1     -33.321   7.472   4.617  1.00 20.00     0.054 A 
HETATM    3  C3  UNL     1     -33.385   5.504   3.054  1.00 20.00     0.096 A 
HETATM    4  C4  UNL     1     -34.153   4.838   3.927  1.00 20.00     0.133 A 
HETATM    5  C5  UNL     1     -34.592   5.412   5.240  1.00 20.00     0.254 A 
HETATM    6  C6  UNL     1     -32.883   6.897   3.302  1.00 20.00     0.282 A 
HETATM    7  F7  UNL     1     -34.551   3.586   3.609  1.00 20.00    -0.207 F 
HETATM    8  F8  UNL     1     -34.181   4.596   6.252  1.00 20.00    -0.238 F 
HETATM    9  F9  UNL     1     -33.298   7.713   2.290  1.00 20.00    -0.197 F 
HETATM   10  F10 UNL     1     -31.521   6.904   3.237  1.00 20.00    -0.197 F 
ENDROOT
TORSDOF 0
ENDMDL
MODEL 6
REMARK VINA RESULT:      -5.3      1.585      2.802
REMARK  0 active torsions:
REMARK  status: ('A' for Active; 'I' for Inactive)
ROOT
HETATM    1  C1  UNL     1     -33.055   6.249   2.664  1.00 20.00     0.019 A 
HETATM    2  C2  UNL     1     -33.775   5.132   2.838  1.00 20.00     0.054 A 
HETATM    3  C3  UNL     1     -34.310   5.842   5.189  1.00 20.00     0.096 A 
HETATM    4  C4  UNL     1     -33.589   6.958   5.014  1.00 20.00     0.133 A 
HETATM    5  C5  UNL     1     -32.882   7.288   3.734  1.00 20.00     0.254 A 
HETATM    6  C6  UNL     1     -34.484   4.804   4.120  1.00 20.00     0.282 A 
HETATM    7  F7  UNL     1     -33.494   7.831   6.042  1.00 20.00    -0.207 F 
HETATM    8  F8  UNL     1     -31.553   7.465   3.983  1.00 20.00    -0.238 F 
HETATM    9  F9  UNL     1     -35.813   4.631   3.870  1.00 20.00    -0.197 F 
HETATM   10  F10 UNL     1     -34.043   3.600   4.584  1.00 20.00    -0.197 F 
ENDROOT
TORSDOF 0
ENDMDL
MODEL 7
REMARK VINA RESULT:      -5.0      1.772      2.657
REMARK  0 active torsions:
REMARK  status: ('A' for Active; 'I' for Inactive)
ROOT
HETATM    1  C1  UNL     1     -34.292   6.026   6.328  1.00 20.00     0.019 A 
HETATM    2  C2  UNL     1     -34.961   5.080   5.655  1.00 20.00     0.054 A 
HETATM    3  C3  UNL     1     -33.890   5.846   3.513  1.00 20.00     0.096 A 
HETATM    4  C4  UNL     1     -33.223   6.792   4.188  1.00 20.00     0.133 A 
HETATM    5  C5  UNL     1     -33.347   6.988   5.669  1.00 20.00     0.254 A 
HETATM    6  C6  UNL     1     -34.834   4.883   4.172  1.00 20.00     0.282 A 
HETATM    7  F7  UNL     1     -32.396   7.612   3.500  1.00 20.00    -0.207 F 
HETATM    8  F8  UNL     1     -33.750   8.266   5.925  1.00 20.00    -0.238 F 
HETATM    9  F9  UNL     1     -34.427   3.607   3.918  1.00 20.00    -0.197 F 
HETATM   10  F10 UNL     1     -36.065   4.992   3.596  1.00 20.00    -0.197 F 
ENDROOT
TORSDOF 0
ENDMDL
MODEL 8
REMARK VINA RESULT:      -4.7     16.837     17.872
REMARK  0 active torsions:
REMARK  status: ('A' for Active; 'I' for Inactive)
ROOT
HETATM    1  C1  UNL     1     -23.559  18.509   9.478  1.00 20.00     0.019 A 
HETATM    2  C2  UNL     1     -24.745  18.504  10.103  1.00 20.00     0.054 A 
HETATM    3  C3  UNL     1     -23.610  17.842  12.247  1.00 20.00     0.096 A 
HETATM    4  C4  UNL     1     -22.426  17.847  11.619  1.00 20.00     0.133 A 
HETATM    5  C5  UNL     1     -22.267  18.182  10.167  1.00 20.00     0.254 A 
HETATM    6  C6  UNL     1     -24.902  18.170  11.558  1.00 20.00     0.282 A 
HETATM    7  F7  UNL     1     -21.319  17.535  12.330  1.00 20.00    -0.207 F 
HETATM    8  F8  UNL     1     -21.663  17.141   9.525  1.00 20.00    -0.238 F 
HETATM    9  F9  UNL     1     -25.503  19.214  12.199  1.00 20.00    -0.197 F 
HETATM   10  F10 UNL     1     -25.763  17.121  11.690  1.00 20.00    -0.197 F 
ENDROOT
TORSDOF 0
ENDMDL
MODEL 9
REMARK VINA RESULT:      -4.6      8.896      9.511
REMARK  0 active torsions:
REMARK  status: ('A' for Active; 'I' for Inactive)
ROOT
HETATM    1  C1  UNL     1     -41.111   6.829  -1.439  1.00 20.00     0.019 A 
HETATM    2  C2  UNL     1     -41.489   8.065  -1.084  1.00 20.00     0.054 A 
HETATM    3  C3  UNL     1     -42.539   7.143   1.006  1.00 20.00     0.096 A 
HETATM    4  C4  UNL     1     -42.160   5.908   0.649  1.00 20.00     0.133 A 
HETATM    5  C5  UNL     1     -41.404   5.612  -0.611  1.00 20.00     0.254 A 
HETATM    6  C6  UNL     1     -42.244   8.360   0.179  1.00 20.00     0.282 A 
HETATM    7  F7  UNL     1     -42.476   4.877   1.465  1.00 20.00    -0.207 F 
HETATM    8  F8  UNL     1     -42.105   4.713  -1.359  1.00 20.00    -0.238 F 
HETATM    9  F9  UNL     1     -41.541   9.257   0.928  1.00 20.00    -0.197 F 
HETATM   10  F10 UNL     1     -43.415   8.988  -0.131  1.00 20.00    -0.197 F 
ENDROOT
TORSDOF 0
ENDMDL
