MODEL 1
REMARK VINA RESULT:      -4.4      0.000      0.000
REMARK  2 active torsions:
REMARK  status: ('A' for Active; 'I' for Inactive)
REMARK    1  A    between atoms: C8_8  and  C10_10 
REMARK    2  A    between atoms: C10_10  and  C11_11 
ROOT
HETATM    1  C1  UNL     1     -35.166  17.927  -0.692  1.00 20.00     0.012 C 
HETATM    2  C2  UNL     1     -34.845  17.011  -1.398  1.00 20.00    -0.113 C 
HETATM    3  C3  UNL     1     -35.618  15.385  -3.157  1.00 20.00     0.017 C 
HETATM    4  C4  UNL     1     -33.238  16.234  -3.174  1.00 20.00     0.017 C 
HETATM    5  C5  UNL     1     -35.223  14.248  -4.102  1.00 20.00     0.006 C 
HETATM    6  C6  UNL     1     -32.838  15.099  -4.119  1.00 20.00     0.006 C 
HETATM    7  C7  UNL     1     -34.435  15.846  -2.297  1.00 20.00     0.064 C 
HETATM    8  C8  UNL     1     -34.005  14.586  -4.972  1.00 20.00    -0.014 C 
ENDROOT
BRANCH   8   9
HETATM    9  C10 UNL     1     -34.359  15.559  -6.022  1.00 20.00     0.004 C 
BRANCH   9  10
HETATM   10  C11 UNL     1     -35.473  15.026  -6.916  1.00 20.00    -0.004 C 
HETATM   11  C9  UNL     1     -36.592  16.042  -7.067  1.00 20.00     0.005 C 
ENDBRANCH   9  10
ENDBRANCH   8   9
TORSDOF 2
ENDMDL
MODEL 2
REMARK VINA RESULT:      -4.4      1.067      1.216
REMARK  2 active torsions:
REMARK  status: ('A' for Active; 'I' for Inactive)
REMARK    1  A    between atoms: C8_8  and  C10_10 
REMARK    2  A    between atoms: C10_10  and  C11_11 
ROOT
HETATM    1  C1  UNL     1     -33.756  18.586  -1.052  1.00 20.00     0.012 C 
HETATM    2  C2  UNL     1     -33.883  17.533  -1.615  1.00 20.00    -0.113 C 
HETATM    3  C3  UNL     1     -35.486  16.008  -2.814  1.00 20.00     0.017 C 
HETATM    4  C4  UNL     1     -33.056  16.081  -3.498  1.00 20.00     0.017 C 
HETATM    5  C5  UNL     1     -35.665  14.693  -3.576  1.00 20.00     0.006 C 
HETATM    6  C6  UNL     1     -33.229  14.766  -4.261  1.00 20.00     0.006 C 
HETATM    7  C7  UNL     1     -34.043  16.193  -2.330  1.00 20.00     0.064 C 
HETATM    8  C8  UNL     1     -34.669  14.529  -4.731  1.00 20.00    -0.014 C 
ENDROOT
BRANCH   8   9
HETATM    9  C10 UNL     1     -35.013  15.420  -5.855  1.00 20.00     0.004 C 
BRANCH   9  10
HETATM   10  C11 UNL     1     -34.090  15.188  -7.046  1.00 20.00    -0.004 C 
HETATM   11  C9  UNL     1     -33.992  16.429  -7.918  1.00 20.00     0.005 C 
ENDBRANCH   9  10
ENDBRANCH   8   9
TORSDOF 2
ENDMDL
MODEL 3
REMARK VINA RESULT:      -4.3      2.027      4.299
REMARK  2 active torsions:
REMARK  status: ('A' for Active; 'I' for Inactive)
REMARK    1  A    between atoms: C8_8  and  C10_10 
REMARK    2  A    between atoms: C10_10  and  C11_11 
ROOT
HETATM    1  C1  UNL     1     -32.821  17.876   3.017  1.00 20.00     0.012 C 
HETATM    2  C2  UNL     1     -33.350  18.047   1.954  1.00 20.00    -0.113 C 
HETATM    3  C3  UNL     1     -33.002  18.163  -0.537  1.00 20.00     0.017 C 
HETATM    4  C4  UNL     1     -35.170  17.266   0.399  1.00 20.00     0.017 C 
HETATM    5  C5  UNL     1     -33.658  18.331  -1.908  1.00 20.00     0.006 C 
HETATM    6  C6  UNL     1     -35.832  17.432  -0.970  1.00 20.00     0.006 C 
HETATM    7  C7  UNL     1     -34.025  18.266   0.601  1.00 20.00     0.064 C 
HETATM    8  C8  UNL     1     -34.833  17.371  -2.133  1.00 20.00    -0.014 C 
ENDROOT
BRANCH   8   9
HETATM    9  C10 UNL     1     -34.355  15.992  -2.346  1.00 20.00     0.004 C 
BRANCH   9  10
HETATM   10  C11 UNL     1     -33.285  15.939  -3.432  1.00 20.00    -0.004 C 
HETATM   11  C9  UNL     1     -33.407  14.674  -4.264  1.00 20.00     0.005 C 
ENDBRANCH   9  10
ENDBRANCH   8   9
TORSDOF 2
ENDMDL
MODEL 4
REMARK VINA RESULT:      -4.3      2.418      5.638
REMARK  2 active torsions:
REMARK  status: ('A' for Active; 'I' for Inactive)
REMARK    1  A    between atoms: C8_8  and  C10_10 
REMARK    2  A    between atoms: C10_10  and  C11_11 
ROOT
HETATM    1  C1  UNL     1     -34.493  14.031  -3.802  1.00 20.00     0.012 C 
HETATM    2  C2  UNL     1     -34.450  15.161  -3.399  1.00 20.00    -0.113 C 
HETATM    3  C3  UNL     1     -34.968  16.690  -1.468  1.00 20.00     0.017 C 
HETATM    4  C4  UNL     1     -32.958  17.135  -2.933  1.00 20.00     0.017 C 
HETATM    5  C5  UNL     1     -34.882  18.113  -0.913  1.00 20.00     0.006 C 
HETATM    6  C6  UNL     1     -32.868  18.558  -2.380  1.00 20.00     0.006 C 
HETATM    7  C7  UNL     1     -34.395  16.598  -2.888  1.00 20.00     0.064 C 
HETATM    8  C8  UNL     1     -33.465  18.697  -0.974  1.00 20.00    -0.014 C 
ENDROOT
BRANCH   8   9
HETATM    9  C10 UNL     1     -32.591  18.071   0.036  1.00 20.00     0.004 C 
BRANCH   9  10
HETATM   10  C11 UNL     1     -31.145  18.526  -0.126  1.00 20.00    -0.004 C 
HETATM   11  C9  UNL     1     -30.484  18.750   1.224  1.00 20.00     0.005 C 
ENDBRANCH   9  10
ENDBRANCH   8   9
TORSDOF 2
ENDMDL
MODEL 5
REMARK VINA RESULT:      -4.2      1.894      3.084
REMARK  2 active torsions:
REMARK  status: ('A' for Active; 'I' for Inactive)
REMARK    1  A    between atoms: C8_8  and  C10_10 
REMARK    2  A    between atoms: C10_10  and  C11_11 
ROOT
HETATM    1  C1  UNL     1     -31.251  18.347  -0.192  1.00 20.00     0.012 C 
HETATM    2  C2  UNL     1     -32.182  18.170  -0.930  1.00 20.00    -0.113 C 
HETATM    3  C3  UNL     1     -32.898  17.332  -3.193  1.00 20.00     0.017 C 
HETATM    4  C4  UNL     1     -34.426  17.061  -1.200  1.00 20.00     0.017 C 
HETATM    5  C5  UNL     1     -34.070  17.054  -4.135  1.00 20.00     0.006 C 
HETATM    6  C6  UNL     1     -35.602  16.782  -2.137  1.00 20.00     0.006 C 
HETATM    7  C7  UNL     1     -33.366  17.946  -1.868  1.00 20.00     0.064 C 
HETATM    8  C8  UNL     1     -35.169  16.200  -3.489  1.00 20.00    -0.014 C 
ENDROOT
BRANCH   8   9
HETATM    9  C10 UNL     1     -34.734  14.798  -3.346  1.00 20.00     0.004 C 
BRANCH   9  10
HETATM   10  C11 UNL     1     -35.539  13.874  -4.253  1.00 20.00    -0.004 C 
HETATM   11  C9  UNL     1     -37.010  14.254  -4.260  1.00 20.00     0.005 C 
ENDBRANCH   9  10
ENDBRANCH   8   9
TORSDOF 2
ENDMDL
MODEL 6
REMARK VINA RESULT:      -4.2     17.420     18.355
REMARK  2 active torsions:
REMARK  status: ('A' for Active; 'I' for Inactive)
REMARK    1  A    between atoms: C8_8  and  C10_10 
REMARK    2  A    between atoms: C10_10  and  C11_11 
ROOT
HETATM    1  C1  UNL     1     -28.782  17.630  12.192  1.00 20.00     0.012 C 
HETATM    2  C2  UNL     1     -27.584  17.571  12.253  1.00 20.00    -0.113 C 
HETATM    3  C3  UNL     1     -25.570  16.079  12.018  1.00 20.00     0.017 C 
HETATM    4  C4  UNL     1     -25.420  18.520  11.384  1.00 20.00     0.017 C 
HETATM    5  C5  UNL     1     -24.044  15.988  12.043  1.00 20.00     0.006 C 
HETATM    6  C6  UNL     1     -23.893  18.434  11.408  1.00 20.00     0.006 C 
HETATM    7  C7  UNL     1     -26.061  17.498  12.331  1.00 20.00     0.064 C 
HETATM    8  C8  UNL     1     -23.366  17.020  11.133  1.00 20.00    -0.014 C 
ENDROOT
BRANCH   8   9
HETATM    9  C10 UNL     1     -23.530  16.661   9.712  1.00 20.00     0.004 C 
BRANCH   9  10
HETATM   10  C11 UNL     1     -22.817  17.657   8.804  1.00 20.00    -0.004 C 
HETATM   11  C9  UNL     1     -21.333  17.344   8.702  1.00 20.00     0.005 C 
ENDBRANCH   9  10
ENDBRANCH   8   9
TORSDOF 2
ENDMDL
MODEL 7
REMARK VINA RESULT:      -4.0      1.285      4.665
REMARK  2 active torsions:
REMARK  status: ('A' for Active; 'I' for Inactive)
REMARK    1  A    between atoms: C8_8  and  C10_10 
REMARK    2  A    between atoms: C10_10  and  C11_11 
ROOT
HETATM    1  C1  UNL     1     -36.654  16.276  -7.860  1.00 20.00     0.012 C 
HETATM    2  C2  UNL     1     -36.201  15.833  -6.841  1.00 20.00    -0.113 C 
HETATM    3  C3  UNL     1     -34.103  15.125  -5.645  1.00 20.00     0.017 C 
HETATM    4  C4  UNL     1     -36.015  16.149  -4.350  1.00 20.00     0.017 C 
HETATM    5  C5  UNL     1     -33.494  14.605  -4.341  1.00 20.00     0.006 C 
HETATM    6  C6  UNL     1     -35.411  15.631  -3.043  1.00 20.00     0.006 C 
HETATM    7  C7  UNL     1     -35.626  15.268  -5.544  1.00 20.00     0.064 C 
HETATM    8  C8  UNL     1     -33.890  15.442  -3.118  1.00 20.00    -0.014 C 
ENDROOT
BRANCH   8   9
HETATM    9  C10 UNL     1     -33.195  16.742  -3.119  1.00 20.00     0.004 C 
BRANCH   9  10
HETATM   10  C11 UNL     1     -33.433  17.497  -1.816  1.00 20.00    -0.004 C 
HETATM   11  C9  UNL     1     -32.146  18.112  -1.292  1.00 20.00     0.005 C 
ENDBRANCH   9  10
ENDBRANCH   8   9
TORSDOF 2
ENDMDL
MODEL 8
REMARK VINA RESULT:      -4.0      1.987      5.110
REMARK  2 active torsions:
REMARK  status: ('A' for Active; 'I' for Inactive)
REMARK    1  A    between atoms: C8_8  and  C10_10 
REMARK    2  A    between atoms: C10_10  and  C11_11 
ROOT
HETATM    1  C1  UNL     1     -34.013  15.137  -7.179  1.00 20.00     0.012 C 
HETATM    2  C2  UNL     1     -34.385  15.577  -6.127  1.00 20.00    -0.113 C 
HETATM    3  C3  UNL     1     -34.332  15.286  -3.627  1.00 20.00     0.017 C 
HETATM    4  C4  UNL     1     -34.432  17.602  -4.631  1.00 20.00     0.017 C 
HETATM    5  C5  UNL     1     -34.754  15.853  -2.270  1.00 20.00     0.006 C 
HETATM    6  C6  UNL     1     -34.854  18.174  -3.277  1.00 20.00     0.006 C 
HETATM    7  C7  UNL     1     -34.860  16.138  -4.788  1.00 20.00     0.064 C 
HETATM    8  C8  UNL     1     -34.374  17.328  -2.091  1.00 20.00    -0.014 C 
ENDROOT
BRANCH   8   9
HETATM    9  C10 UNL     1     -32.921  17.478  -1.888  1.00 20.00     0.004 C 
BRANCH   9  10
HETATM   10  C11 UNL     1     -32.617  18.229  -0.597  1.00 20.00    -0.004 C 
HETATM   11  C9  UNL     1     -31.119  18.368  -0.380  1.00 20.00     0.005 C 
ENDBRANCH   9  10
ENDBRANCH   8   9
TORSDOF 2
ENDMDL
MODEL 9
REMARK VINA RESULT:      -4.0      1.918      2.514
REMARK  2 active torsions:
REMARK  status: ('A' for Active; 'I' for Inactive)
REMARK    1  A    between atoms: C8_8  and  C10_10 
REMARK    2  A    between atoms: C10_10  and  C11_11 
ROOT
HETATM    1  C1  UNL     1     -32.605  17.836  -1.794  1.00 20.00     0.012 C 
HETATM    2  C2  UNL     1     -33.016  17.073  -2.625  1.00 20.00    -0.113 C 
HETATM    3  C3  UNL     1     -34.544  15.123  -3.067  1.00 20.00     0.017 C 
HETATM    4  C4  UNL     1     -34.167  16.868  -4.854  1.00 20.00     0.017 C 
HETATM    5  C5  UNL     1     -35.120  14.168  -4.115  1.00 20.00     0.006 C 
HETATM    6  C6  UNL     1     -34.742  15.917  -5.907  1.00 20.00     0.006 C 
HETATM    7  C7  UNL     1     -33.539  16.104  -3.682  1.00 20.00     0.064 C 
HETATM    8  C8  UNL     1     -35.726  14.897  -5.321  1.00 20.00    -0.014 C 
ENDROOT
BRANCH   8   9
HETATM    9  C10 UNL     1     -37.004  15.540  -4.963  1.00 20.00     0.004 C 
BRANCH   9  10
HETATM   10  C11 UNL     1     -37.949  14.553  -4.287  1.00 20.00    -0.004 C 
HETATM   11  C9  UNL     1     -39.363  15.105  -4.214  1.00 20.00     0.005 C 
ENDBRANCH   9  10
ENDBRANCH   8   9
TORSDOF 2
ENDMDL
