MODEL 1
REMARK VINA RESULT:      -4.1      0.000      0.000
REMARK  0 active torsions:
REMARK  status: ('A' for Active; 'I' for Inactive)
ROOT
HETATM    1  C1  UNL     1     -34.148   6.310   5.391  1.00 20.00    -0.075 C 
HETATM    2  C2  UNL     1     -33.543   7.249   6.121  1.00 20.00     0.015 C 
HETATM    3  C3  UNL     1     -34.721   4.954   5.735  1.00 20.00     0.036 C 
HETATM    4  C4  UNL     1     -35.457   5.081   4.386  1.00 20.00     0.024 C 
HETATM    5  C5  UNL     1     -34.517   6.218   3.925  1.00 20.00     0.086 C 
HETATM    6 BR6  UNL     1     -33.035   5.690   2.798  1.00 20.00    -0.086 Br
ENDROOT
TORSDOF 0
ENDMDL
MODEL 2
REMARK VINA RESULT:      -3.6      8.884      9.335
REMARK  0 active torsions:
REMARK  status: ('A' for Active; 'I' for Inactive)
ROOT
HETATM    1  C1  UNL     1     -41.471   8.184  -0.101  1.00 20.00    -0.075 C 
HETATM    2  C2  UNL     1     -41.383   9.435   0.358  1.00 20.00     0.015 C 
HETATM    3  C3  UNL     1     -41.530   7.606  -1.496  1.00 20.00     0.036 C 
HETATM    4  C4  UNL     1     -41.157   6.277  -0.807  1.00 20.00     0.024 C 
HETATM    5  C5  UNL     1     -41.541   6.835   0.583  1.00 20.00     0.086 C 
HETATM    6 BR6  UNL     1     -43.316   6.391   1.214  1.00 20.00    -0.086 Br
ENDROOT
TORSDOF 0
ENDMDL
MODEL 3
REMARK VINA RESULT:      -3.4      2.319      3.320
REMARK  0 active torsions:
REMARK  status: ('A' for Active; 'I' for Inactive)
ROOT
HETATM    1  C1  UNL     1     -33.141   5.927   2.899  1.00 20.00    -0.075 C 
HETATM    2  C2  UNL     1     -33.343   4.737   2.330  1.00 20.00     0.015 C 
HETATM    3  C3  UNL     1     -33.790   6.626   4.073  1.00 20.00     0.036 C 
HETATM    4  C4  UNL     1     -32.543   7.533   4.038  1.00 20.00     0.024 C 
HETATM    5  C5  UNL     1     -32.179   7.061   2.611  1.00 20.00     0.086 C 
HETATM    6 BR6  UNL     1     -32.763   8.206   1.164  1.00 20.00    -0.086 Br
ENDROOT
TORSDOF 0
ENDMDL
MODEL 4
REMARK VINA RESULT:      -3.4     12.342     12.670
REMARK  0 active torsions:
REMARK  status: ('A' for Active; 'I' for Inactive)
ROOT
HETATM    1  C1  UNL     1     -34.439  15.566  -2.950  1.00 20.00    -0.075 C 
HETATM    2  C2  UNL     1     -35.069  16.098  -1.900  1.00 20.00     0.015 C 
HETATM    3  C3  UNL     1     -33.156  15.924  -3.667  1.00 20.00     0.036 C 
HETATM    4  C4  UNL     1     -33.256  14.501  -4.255  1.00 20.00     0.024 C 
HETATM    5  C5  UNL     1     -34.743  14.385  -3.849  1.00 20.00     0.086 C 
HETATM    6 BR6  UNL     1     -36.035  14.793  -5.231  1.00 20.00    -0.086 Br
ENDROOT
TORSDOF 0
ENDMDL
MODEL 5
REMARK VINA RESULT:      -3.3      8.488      9.307
REMARK  0 active torsions:
REMARK  status: ('A' for Active; 'I' for Inactive)
ROOT
HETATM    1  C1  UNL     1     -42.733   6.589   1.061  1.00 20.00    -0.075 C 
HETATM    2  C2  UNL     1     -43.417   5.719   1.806  1.00 20.00     0.015 C 
HETATM    3  C3  UNL     1     -43.087   7.936   0.470  1.00 20.00     0.036 C 
HETATM    4  C4  UNL     1     -41.562   8.107   0.311  1.00 20.00     0.024 C 
HETATM    5  C5  UNL     1     -41.323   6.592   0.508  1.00 20.00     0.086 C 
HETATM    6 BR6  UNL     1     -41.136   5.546  -1.110  1.00 20.00    -0.086 Br
ENDROOT
TORSDOF 0
ENDMDL
MODEL 6
REMARK VINA RESULT:      -3.3     15.662     16.908
REMARK  0 active torsions:
REMARK  status: ('A' for Active; 'I' for Inactive)
ROOT
HETATM    1  C1  UNL     1     -23.729  16.745  11.203  1.00 20.00    -0.075 C 
HETATM    2  C2  UNL     1     -24.621  15.844  11.617  1.00 20.00     0.015 C 
HETATM    3  C3  UNL     1     -22.769  17.653  11.939  1.00 20.00     0.036 C 
HETATM    4  C4  UNL     1     -22.069  17.785  10.571  1.00 20.00     0.024 C 
HETATM    5  C5  UNL     1     -23.304  17.224   9.830  1.00 20.00     0.086 C 
HETATM    6 BR6  UNL     1     -24.509  18.537   9.075  1.00 20.00    -0.086 Br
ENDROOT
TORSDOF 0
ENDMDL
MODEL 7
REMARK VINA RESULT:      -3.2     12.821     13.112
REMARK  0 active torsions:
REMARK  status: ('A' for Active; 'I' for Inactive)
ROOT
HETATM    1  C1  UNL     1     -33.789  15.391  -3.511  1.00 20.00    -0.075 C 
HETATM    2  C2  UNL     1     -33.137  14.579  -4.346  1.00 20.00     0.015 C 
HETATM    3  C3  UNL     1     -35.226  15.445  -3.045  1.00 20.00     0.036 C 
HETATM    4  C4  UNL     1     -34.677  16.337  -1.913  1.00 20.00     0.024 C 
HETATM    5  C5  UNL     1     -33.358  16.584  -2.682  1.00 20.00     0.086 C 
HETATM    6 BR6  UNL     1     -33.266  18.226  -3.701  1.00 20.00    -0.086 Br
ENDROOT
TORSDOF 0
ENDMDL
MODEL 8
REMARK VINA RESULT:      -3.2      8.852      9.501
REMARK  0 active torsions:
REMARK  status: ('A' for Active; 'I' for Inactive)
ROOT
HETATM    1  C1  UNL     1     -41.865   6.123  -0.282  1.00 20.00    -0.075 C 
HETATM    2  C2  UNL     1     -40.930   5.510  -1.011  1.00 20.00     0.015 C 
HETATM    3  C3  UNL     1     -43.371   5.998  -0.232  1.00 20.00     0.036 C 
HETATM    4  C4  UNL     1     -43.243   6.723   1.124  1.00 20.00     0.024 C 
HETATM    5  C5  UNL     1     -41.804   7.186   0.795  1.00 20.00     0.086 C 
HETATM    6 BR6  UNL     1     -41.631   8.979   0.087  1.00 20.00    -0.086 Br
ENDROOT
TORSDOF 0
ENDMDL
MODEL 9
REMARK VINA RESULT:      -3.2     16.670     17.262
REMARK  0 active torsions:
REMARK  status: ('A' for Active; 'I' for Inactive)
ROOT
HETATM    1  C1  UNL     1     -23.657  18.159  10.293  1.00 20.00    -0.075 C 
HETATM    2  C2  UNL     1     -24.429  18.692   9.343  1.00 20.00     0.015 C 
HETATM    3  C3  UNL     1     -22.182  17.834  10.354  1.00 20.00     0.036 C 
HETATM    4  C4  UNL     1     -22.405  17.766  11.878  1.00 20.00     0.024 C 
HETATM    5  C5  UNL     1     -23.938  17.667  11.697  1.00 20.00     0.086 C 
HETATM    6 BR6  UNL     1     -24.685  15.882  11.745  1.00 20.00    -0.086 Br
ENDROOT
TORSDOF 0
ENDMDL
