MODEL 1
REMARK VINA RESULT:      -5.2      0.000      0.000
REMARK  0 active torsions:
REMARK  status: ('A' for Active; 'I' for Inactive)
ROOT
HETATM    1  C1  UNL     1     -33.730   4.860   3.213  1.00 20.00    -0.011 A 
HETATM    2  C2  UNL     1     -33.516   6.176   3.364  1.00 20.00    -0.011 A 
HETATM    3  C3  UNL     1     -34.636   4.375   4.319  1.00 20.00     0.033 A 
HETATM    4  C4  UNL     1     -33.873   6.338   5.916  1.00 20.00     0.016 A 
HETATM    5  C5  UNL     1     -34.207   6.774   4.516  1.00 20.00     0.030 A 
HETATM    6  C6  UNL     1     -34.942   5.605   5.151  1.00 20.00    -0.002 A 
HETATM    7 BR7  UNL     1     -32.464   7.251   2.302  1.00 20.00    -0.056 Br
ENDROOT
TORSDOF 0
ENDMDL
MODEL 2
REMARK VINA RESULT:      -5.1      0.825      1.978
REMARK  0 active torsions:
REMARK  status: ('A' for Active; 'I' for Inactive)
ROOT
HETATM    1  C1  UNL     1     -33.456   7.150   5.164  1.00 20.00    -0.011 A 
HETATM    2  C2  UNL     1     -33.446   6.520   3.979  1.00 20.00    -0.011 A 
HETATM    3  C3  UNL     1     -34.291   6.359   6.140  1.00 20.00     0.033 A 
HETATM    4  C4  UNL     1     -35.699   5.276   4.183  1.00 20.00     0.016 A 
HETATM    5  C5  UNL     1     -34.213   5.266   3.955  1.00 20.00     0.030 A 
HETATM    6  C6  UNL     1     -34.773   5.150   5.363  1.00 20.00    -0.002 A 
HETATM    7 BR7  UNL     1     -32.599   7.075   2.442  1.00 20.00    -0.056 Br
ENDROOT
TORSDOF 0
ENDMDL
MODEL 3
REMARK VINA RESULT:      -4.3      2.089      3.270
REMARK  0 active torsions:
REMARK  status: ('A' for Active; 'I' for Inactive)
ROOT
HETATM    1  C1  UNL     1     -33.058   7.042   4.345  1.00 20.00    -0.011 A 
HETATM    2  C2  UNL     1     -33.926   6.024   4.446  1.00 20.00    -0.011 A 
HETATM    3  C3  UNL     1     -32.528   7.105   2.933  1.00 20.00     0.033 A 
HETATM    4  C4  UNL     1     -32.995   4.531   2.557  1.00 20.00     0.016 A 
HETATM    5  C5  UNL     1     -34.132   5.279   3.195  1.00 20.00     0.030 A 
HETATM    6  C6  UNL     1     -33.221   5.975   2.198  1.00 20.00    -0.002 A 
HETATM    7 BR7  UNL     1     -34.836   5.496   5.956  1.00 20.00    -0.056 Br
ENDROOT
TORSDOF 0
ENDMDL
MODEL 4
REMARK VINA RESULT:      -3.9      1.896      2.849
REMARK  0 active torsions:
REMARK  status: ('A' for Active; 'I' for Inactive)
ROOT
HETATM    1  C1  UNL     1     -34.246   5.128   3.692  1.00 20.00    -0.011 A 
HETATM    2  C2  UNL     1     -33.694   6.188   4.303  1.00 20.00    -0.011 A 
HETATM    3  C3  UNL     1     -33.594   4.936   2.345  1.00 20.00     0.033 A 
HETATM    4  C4  UNL     1     -32.936   7.492   2.207  1.00 20.00     0.016 A 
HETATM    5  C5  UNL     1     -32.630   6.845   3.530  1.00 20.00     0.030 A 
HETATM    6  C6  UNL     1     -32.556   6.036   2.245  1.00 20.00    -0.002 A 
HETATM    7 BR7  UNL     1     -34.145   6.868   5.953  1.00 20.00    -0.056 Br
ENDROOT
TORSDOF 0
ENDMDL
MODEL 5
REMARK VINA RESULT:      -3.7      8.826      9.254
REMARK  0 active torsions:
REMARK  status: ('A' for Active; 'I' for Inactive)
ROOT
HETATM    1  C1  UNL     1     -43.235   7.258   1.000  1.00 20.00    -0.011 A 
HETATM    2  C2  UNL     1     -42.033   7.650   0.549  1.00 20.00    -0.011 A 
HETATM    3  C3  UNL     1     -43.278   5.750   1.052  1.00 20.00     0.033 A 
HETATM    4  C4  UNL     1     -41.432   5.552  -0.829  1.00 20.00     0.016 A 
HETATM    5  C5  UNL     1     -41.109   6.546   0.252  1.00 20.00     0.030 A 
HETATM    6  C6  UNL     1     -41.913   5.297   0.574  1.00 20.00    -0.002 A 
HETATM    7 BR7  UNL     1     -41.470   9.381   0.273  1.00 20.00    -0.056 Br
ENDROOT
TORSDOF 0
ENDMDL
MODEL 6
REMARK VINA RESULT:      -3.7     12.017     12.431
REMARK  0 active torsions:
REMARK  status: ('A' for Active; 'I' for Inactive)
ROOT
HETATM    1  C1  UNL     1     -33.686  14.979  -4.242  1.00 20.00    -0.011 A 
HETATM    2  C2  UNL     1     -34.946  14.841  -3.804  1.00 20.00    -0.011 A 
HETATM    3  C3  UNL     1     -32.956  15.957  -3.354  1.00 20.00     0.033 A 
HETATM    4  C4  UNL     1     -35.215  17.142  -2.664  1.00 20.00     0.016 A 
HETATM    5  C5  UNL     1     -35.263  15.640  -2.611  1.00 20.00     0.030 A 
HETATM    6  C6  UNL     1     -33.970  16.377  -2.308  1.00 20.00    -0.002 A 
HETATM    7 BR7  UNL     1     -36.262  13.789  -4.545  1.00 20.00    -0.056 Br
ENDROOT
TORSDOF 0
ENDMDL
MODEL 7
REMARK VINA RESULT:      -3.7     16.236     16.904
REMARK  0 active torsions:
REMARK  status: ('A' for Active; 'I' for Inactive)
ROOT
HETATM    1  C1  UNL     1     -24.590  18.356   9.805  1.00 20.00    -0.011 A 
HETATM    2  C2  UNL     1     -24.016  17.196  10.159  1.00 20.00    -0.011 A 
HETATM    3  C3  UNL     1     -23.815  18.964   8.661  1.00 20.00     0.033 A 
HETATM    4  C4  UNL     1     -21.607  17.700   9.377  1.00 20.00     0.016 A 
HETATM    5  C5  UNL     1     -22.837  16.835   9.358  1.00 20.00     0.030 A 
HETATM    6  C6  UNL     1     -22.694  17.985   8.375  1.00 20.00    -0.002 A 
HETATM    7 BR7  UNL     1     -24.550  16.070  11.514  1.00 20.00    -0.056 Br
ENDROOT
TORSDOF 0
ENDMDL
MODEL 8
REMARK VINA RESULT:      -3.7     11.950     12.540
REMARK  0 active torsions:
REMARK  status: ('A' for Active; 'I' for Inactive)
ROOT
HETATM    1  C1  UNL     1     -33.176  16.004  -3.429  1.00 20.00    -0.011 A 
HETATM    2  C2  UNL     1     -34.364  15.439  -3.165  1.00 20.00    -0.011 A 
HETATM    3  C3  UNL     1     -32.929  17.123  -2.446  1.00 20.00     0.033 A 
HETATM    4  C4  UNL     1     -35.521  17.465  -2.058  1.00 20.00     0.016 A 
HETATM    5  C5  UNL     1     -35.074  16.030  -2.021  1.00 20.00     0.030 A 
HETATM    6  C6  UNL     1     -34.146  17.134  -1.542  1.00 20.00    -0.002 A 
HETATM    7 BR7  UNL     1     -35.153  14.052  -4.082  1.00 20.00    -0.056 Br
ENDROOT
TORSDOF 0
ENDMDL
MODEL 9
REMARK VINA RESULT:      -3.6     12.063     12.576
REMARK  0 active torsions:
REMARK  status: ('A' for Active; 'I' for Inactive)
ROOT
HETATM    1  C1  UNL     1     -35.195  15.668  -2.540  1.00 20.00    -0.011 A 
HETATM    2  C2  UNL     1     -35.380  15.134  -3.757  1.00 20.00    -0.011 A 
HETATM    3  C3  UNL     1     -33.797  16.231  -2.453  1.00 20.00     0.033 A 
HETATM    4  C4  UNL     1     -32.923  14.566  -4.310  1.00 20.00     0.016 A 
HETATM    5  C5  UNL     1     -34.219  15.248  -4.651  1.00 20.00     0.030 A 
HETATM    6  C6  UNL     1     -33.175  15.963  -3.809  1.00 20.00    -0.002 A 
HETATM    7 BR7  UNL     1     -36.898  14.294  -4.373  1.00 20.00    -0.056 Br
ENDROOT
TORSDOF 0
ENDMDL
