MODEL 1
REMARK VINA RESULT:      -4.8      0.000      0.000
REMARK  1 active torsions:
REMARK  status: ('A' for Active; 'I' for Inactive)
REMARK    1  A    between atoms: C8_8  and  C9_9 
ROOT
HETATM    1  C1  UNL     1     -33.300   4.333   2.217  1.00 20.00     0.014 C 
HETATM    2  C2  UNL     1     -34.201   6.682   5.837  1.00 20.00     0.014 C 
HETATM    3  C3  UNL     1     -33.174   5.379   2.792  1.00 20.00    -0.094 C 
HETATM    4  C4  UNL     1     -33.664   6.658   4.764  1.00 20.00    -0.094 C 
HETATM    5  C7  UNL     1     -31.720   7.374   3.320  1.00 20.00     0.043 A 
HETATM    6  C9  UNL     1     -32.970   7.921   2.681  1.00 20.00     0.025 A 
HETATM    7  C10 UNL     1     -33.024   6.629   3.480  1.00 20.00     0.089 A 
ENDROOT
BRANCH   6   8
HETATM    8  C8  UNL     1     -33.143   8.006   1.170  1.00 20.00    -0.008 A 
HETATM    9  C5  UNL     1     -33.047   9.302   0.415  1.00 20.00     0.005 A 
HETATM   10  C6  UNL     1     -31.990   8.249   0.235  1.00 20.00     0.005 A 
ENDBRANCH   6   8
TORSDOF 1
ENDMDL
MODEL 2
REMARK VINA RESULT:      -4.7     10.084     11.892
REMARK  1 active torsions:
REMARK  status: ('A' for Active; 'I' for Inactive)
REMARK    1  A    between atoms: C8_8  and  C9_9 
ROOT
HETATM    1  C1  UNL     1     -32.780  19.263  -4.398  1.00 20.00     0.014 C 
HETATM    2  C2  UNL     1     -31.223  18.197  -0.414  1.00 20.00     0.014 C 
HETATM    3  C3  UNL     1     -32.921  18.596  -3.411  1.00 20.00    -0.094 C 
HETATM    4  C4  UNL     1     -32.073  18.015  -1.240  1.00 20.00    -0.094 C 
HETATM    5  C7  UNL     1     -34.497  17.526  -1.754  1.00 20.00     0.043 A 
HETATM    6  C9  UNL     1     -33.685  16.405  -2.347  1.00 20.00     0.025 A 
HETATM    7  C10 UNL     1     -33.090  17.798  -2.230  1.00 20.00     0.089 A 
ENDROOT
BRANCH   6   8
HETATM    8  C8  UNL     1     -34.057  15.736  -3.664  1.00 20.00    -0.008 A 
HETATM    9  C5  UNL     1     -33.202  14.681  -4.308  1.00 20.00     0.005 A 
HETATM   10  C6  UNL     1     -34.545  14.315  -3.742  1.00 20.00     0.005 A 
ENDBRANCH   6   8
TORSDOF 1
ENDMDL
MODEL 3
REMARK VINA RESULT:      -4.5      9.940     11.269
REMARK  1 active torsions:
REMARK  status: ('A' for Active; 'I' for Inactive)
REMARK    1  A    between atoms: C8_8  and  C9_9 
ROOT
HETATM    1  C1  UNL     1     -37.824  14.436  -4.269  1.00 20.00     0.014 C 
HETATM    2  C2  UNL     1     -34.990  16.487  -1.587  1.00 20.00     0.014 C 
HETATM    3  C3  UNL     1     -36.677  14.686  -4.023  1.00 20.00    -0.094 C 
HETATM    4  C4  UNL     1     -35.133  15.803  -2.562  1.00 20.00    -0.094 C 
HETATM    5  C7  UNL     1     -34.272  13.918  -4.006  1.00 20.00     0.043 A 
HETATM    6  C9  UNL     1     -34.314  15.152  -4.868  1.00 20.00     0.025 A 
HETATM    7  C10 UNL     1     -35.304  14.984  -3.729  1.00 20.00     0.089 A 
ENDROOT
BRANCH   6   8
HETATM    8  C8  UNL     1     -34.685  15.102  -6.345  1.00 20.00    -0.008 A 
HETATM    9  C5  UNL     1     -34.546  16.290  -7.257  1.00 20.00     0.005 A 
HETATM   10  C6  UNL     1     -33.653  15.094  -7.440  1.00 20.00     0.005 A 
ENDBRANCH   6   8
TORSDOF 1
ENDMDL
MODEL 4
REMARK VINA RESULT:      -4.4      9.937     11.102
REMARK  1 active torsions:
REMARK  status: ('A' for Active; 'I' for Inactive)
REMARK    1  A    between atoms: C8_8  and  C9_9 
ROOT
HETATM    1  C1  UNL     1     -32.205  18.074  -1.504  1.00 20.00     0.014 C 
HETATM    2  C2  UNL     1     -35.740  17.323   1.020  1.00 20.00     0.014 C 
HETATM    3  C3  UNL     1     -33.335  17.675  -1.453  1.00 20.00    -0.094 C 
HETATM    4  C4  UNL     1     -35.261  17.266  -0.079  1.00 20.00    -0.094 C 
HETATM    5  C7  UNL     1     -35.586  17.462  -2.575  1.00 20.00     0.043 A 
HETATM    6  C9  UNL     1     -35.118  16.057  -2.299  1.00 20.00     0.025 A 
HETATM    7  C10 UNL     1     -34.686  17.196  -1.392  1.00 20.00     0.089 A 
ENDROOT
BRANCH   6   8
HETATM    8  C8  UNL     1     -34.187  15.308  -3.243  1.00 20.00    -0.008 A 
HETATM    9  C5  UNL     1     -34.575  14.018  -3.911  1.00 20.00     0.005 A 
HETATM   10  C6  UNL     1     -34.403  15.266  -4.732  1.00 20.00     0.005 A 
ENDBRANCH   6   8
TORSDOF 1
ENDMDL
MODEL 5
REMARK VINA RESULT:      -4.4      9.702     11.415
REMARK  1 active torsions:
REMARK  status: ('A' for Active; 'I' for Inactive)
REMARK    1  A    between atoms: C8_8  and  C9_9 
ROOT
HETATM    1  C1  UNL     1     -34.466  15.414  -6.982  1.00 20.00     0.014 C 
HETATM    2  C2  UNL     1     -37.931  14.580  -4.388  1.00 20.00     0.014 C 
HETATM    3  C3  UNL     1     -34.849  15.100  -5.890  1.00 20.00    -0.094 C 
HETATM    4  C4  UNL     1     -36.736  14.646  -4.476  1.00 20.00    -0.094 C 
HETATM    5  C7  UNL     1     -34.481  13.734  -3.800  1.00 20.00     0.043 A 
HETATM    6  C9  UNL     1     -34.526  15.173  -3.358  1.00 20.00     0.025 A 
HETATM    7  C10 UNL     1     -35.307  14.725  -4.582  1.00 20.00     0.089 A 
ENDROOT
BRANCH   6   8
HETATM    8  C8  UNL     1     -33.301  16.077  -3.403  1.00 20.00    -0.008 A 
HETATM    9  C5  UNL     1     -33.393  17.555  -3.665  1.00 20.00     0.005 A 
HETATM   10  C6  UNL     1     -32.977  17.058  -2.308  1.00 20.00     0.005 A 
ENDBRANCH   6   8
TORSDOF 1
ENDMDL
MODEL 6
REMARK VINA RESULT:      -4.4     10.788     11.985
REMARK  1 active torsions:
REMARK  status: ('A' for Active; 'I' for Inactive)
REMARK    1  A    between atoms: C8_8  and  C9_9 
ROOT
HETATM    1  C1  UNL     1     -35.452  17.394  -0.104  1.00 20.00     0.014 C 
HETATM    2  C2  UNL     1     -33.058  15.800  -3.445  1.00 20.00     0.014 C 
HETATM    3  C3  UNL     1     -34.506  17.551  -0.825  1.00 20.00    -0.094 C 
HETATM    4  C4  UNL     1     -33.202  16.683  -2.645  1.00 20.00    -0.094 C 
HETATM    5  C7  UNL     1     -33.034  19.146  -2.113  1.00 20.00     0.043 A 
HETATM    6  C9  UNL     1     -32.129  18.423  -1.150  1.00 20.00     0.025 A 
HETATM    7  C10 UNL     1     -33.375  17.738  -1.687  1.00 20.00     0.089 A 
ENDROOT
BRANCH   6   8
HETATM    8  C8  UNL     1     -31.950  18.873   0.294  1.00 20.00    -0.008 A 
HETATM    9  C5  UNL     1     -31.385  17.976   1.360  1.00 20.00     0.005 A 
HETATM   10  C6  UNL     1     -30.601  19.169   0.890  1.00 20.00     0.005 A 
ENDBRANCH   6   8
TORSDOF 1
ENDMDL
MODEL 7
REMARK VINA RESULT:      -4.4     15.213     16.398
REMARK  1 active torsions:
REMARK  status: ('A' for Active; 'I' for Inactive)
REMARK    1  A    between atoms: C8_8  and  C9_9 
ROOT
HETATM    1  C1  UNL     1     -24.727  15.135  11.661  1.00 20.00     0.014 C 
HETATM    2  C2  UNL     1     -26.344  19.226  11.950  1.00 20.00     0.014 C 
HETATM    3  C3  UNL     1     -24.488  16.311  11.665  1.00 20.00    -0.094 C 
HETATM    4  C4  UNL     1     -25.368  18.539  11.822  1.00 20.00    -0.094 C 
HETATM    5  C7  UNL     1     -22.919  18.177  12.319  1.00 20.00     0.043 A 
HETATM    6  C9  UNL     1     -23.060  18.251  10.821  1.00 20.00     0.025 A 
HETATM    7  C10 UNL     1     -24.202  17.717  11.670  1.00 20.00     0.089 A 
ENDROOT
BRANCH   6   8
HETATM    8  C8  UNL     1     -22.216  17.401   9.881  1.00 20.00    -0.008 A 
HETATM    9  C5  UNL     1     -22.526  17.262   8.416  1.00 20.00     0.005 A 
HETATM   10  C6  UNL     1     -21.293  18.001   8.855  1.00 20.00     0.005 A 
ENDBRANCH   6   8
TORSDOF 1
ENDMDL
MODEL 8
REMARK VINA RESULT:      -4.3     10.354     11.655
REMARK  1 active torsions:
REMARK  status: ('A' for Active; 'I' for Inactive)
REMARK    1  A    between atoms: C8_8  and  C9_9 
ROOT
HETATM    1  C1  UNL     1     -35.747  17.981  -5.009  1.00 20.00     0.014 C 
HETATM    2  C2  UNL     1     -36.173  13.622  -4.505  1.00 20.00     0.014 C 
HETATM    3  C3  UNL     1     -35.440  17.009  -4.376  1.00 20.00    -0.094 C 
HETATM    4  C4  UNL     1     -35.672  14.635  -4.101  1.00 20.00    -0.094 C 
HETATM    5  C7  UNL     1     -33.671  15.775  -3.065  1.00 20.00     0.043 A 
HETATM    6  C9  UNL     1     -34.830  15.974  -2.123  1.00 20.00     0.025 A 
HETATM    7  C10 UNL     1     -35.074  15.847  -3.618  1.00 20.00     0.089 A 
ENDROOT
BRANCH   6   8
HETATM    8  C8  UNL     1     -35.021  17.258  -1.327  1.00 20.00    -0.008 A 
HETATM    9  C5  UNL     1     -36.364  17.709  -0.825  1.00 20.00     0.005 A 
HETATM   10  C6  UNL     1     -35.311  17.261   0.150  1.00 20.00     0.005 A 
ENDBRANCH   6   8
TORSDOF 1
ENDMDL
MODEL 9
REMARK VINA RESULT:      -4.3     10.341     11.683
REMARK  1 active torsions:
REMARK  status: ('A' for Active; 'I' for Inactive)
REMARK    1  A    between atoms: C8_8  and  C9_9 
ROOT
HETATM    1  C1  UNL     1     -32.831  14.511  -4.326  1.00 20.00     0.014 C 
HETATM    2  C2  UNL     1     -36.575  16.702  -5.109  1.00 20.00     0.014 C 
HETATM    3  C3  UNL     1     -33.667  15.255  -3.894  1.00 20.00    -0.094 C 
HETATM    4  C4  UNL     1     -35.707  16.449  -4.321  1.00 20.00    -0.094 C 
HETATM    5  C7  UNL     1     -35.044  16.022  -1.922  1.00 20.00     0.043 A 
HETATM    6  C9  UNL     1     -34.268  17.226  -2.387  1.00 20.00     0.025 A 
HETATM    7  C10 UNL     1     -34.667  16.146  -3.378  1.00 20.00     0.089 A 
ENDROOT
BRANCH   6   8
HETATM    8  C8  UNL     1     -32.838  17.497  -1.939  1.00 20.00    -0.008 A 
HETATM    9  C5  UNL     1     -32.191  18.849  -2.064  1.00 20.00     0.005 A 
HETATM   10  C6  UNL     1     -32.512  18.292  -0.704  1.00 20.00     0.005 A 
ENDBRANCH   6   8
TORSDOF 1
ENDMDL
