MODEL 1
REMARK VINA RESULT:      -4.6      0.000      0.000
REMARK  1 active torsions:
REMARK  status: ('A' for Active; 'I' for Inactive)
REMARK    1  A    between atoms: C5_5  and  C7_7 
ROOT
HETATM    1  C1  UNL     1     -22.436  17.988   9.942  1.00 20.00     0.001 C 
HETATM    2  C2  UNL     1     -21.821  17.787  11.327  1.00 20.00     0.001 C 
HETATM    3  C3  UNL     1     -23.900  18.350  10.174  1.00 20.00     0.018 C 
HETATM    4  C4  UNL     1     -22.943  18.040  12.332  1.00 20.00     0.018 C 
HETATM    5  C5  UNL     1     -24.240  17.773  11.556  1.00 20.00     0.054 C 
HETATM    6  C6  UNL     1     -25.433  18.491  12.189  1.00 20.00     0.024 C 
ENDROOT
BRANCH   5   7
HETATM    7  C7  UNL     1     -24.541  16.268  11.472  1.00 20.00     0.395 C 
HETATM    8  F8  UNL     1     -23.701  15.596  12.268  1.00 20.00    -0.170 F 
HETATM    9  F9  UNL     1     -25.799  16.039  11.864  1.00 20.00    -0.170 F 
HETATM   10  F10 UNL     1     -24.388  15.847  10.211  1.00 20.00    -0.170 F 
ENDBRANCH   5   7
TORSDOF 1
ENDMDL
MODEL 2
REMARK VINA RESULT:      -4.5     23.586     24.537
REMARK  1 active torsions:
REMARK  status: ('A' for Active; 'I' for Inactive)
REMARK    1  A    between atoms: C5_5  and  C7_7 
ROOT
HETATM    1  C1  UNL     1     -43.385   8.071  -0.211  1.00 20.00     0.001 C 
HETATM    2  C2  UNL     1     -43.317   7.217   1.056  1.00 20.00     0.001 C 
HETATM    3  C3  UNL     1     -43.315   7.099  -1.385  1.00 20.00     0.018 C 
HETATM    4  C4  UNL     1     -43.211   5.768   0.586  1.00 20.00     0.018 C 
HETATM    5  C5  UNL     1     -42.618   5.849  -0.827  1.00 20.00     0.054 C 
HETATM    6  C6  UNL     1     -42.952   4.603  -1.650  1.00 20.00     0.024 C 
ENDROOT
BRANCH   5   7
HETATM    7  C7  UNL     1     -41.093   6.034  -0.784  1.00 20.00     0.395 C 
HETATM    8  F8  UNL     1     -40.745   7.087  -1.532  1.00 20.00    -0.170 F 
HETATM    9  F9  UNL     1     -40.701   6.241   0.479  1.00 20.00    -0.170 F 
HETATM   10  F10 UNL     1     -40.492   4.936  -1.258  1.00 20.00    -0.170 F 
ENDBRANCH   5   7
TORSDOF 1
ENDMDL
MODEL 3
REMARK VINA RESULT:      -4.5     23.600     24.542
REMARK  1 active torsions:
REMARK  status: ('A' for Active; 'I' for Inactive)
REMARK    1  A    between atoms: C5_5  and  C7_7 
ROOT
HETATM    1  C1  UNL     1     -43.384   8.089  -0.222  1.00 20.00     0.001 C 
HETATM    2  C2  UNL     1     -43.325   7.234   1.045  1.00 20.00     0.001 C 
HETATM    3  C3  UNL     1     -43.319   7.116  -1.396  1.00 20.00     0.018 C 
HETATM    4  C4  UNL     1     -43.228   5.784   0.575  1.00 20.00     0.018 C 
HETATM    5  C5  UNL     1     -42.632   5.861  -0.837  1.00 20.00     0.054 C 
HETATM    6  C6  UNL     1     -42.974   4.618  -1.661  1.00 20.00     0.024 C 
ENDROOT
BRANCH   5   7
HETATM    7  C7  UNL     1     -41.106   6.035  -0.791  1.00 20.00     0.395 C 
HETATM    8  F8  UNL     1     -40.713   6.228   0.473  1.00 20.00    -0.170 F 
HETATM    9  F9  UNL     1     -40.514   4.937  -1.275  1.00 20.00    -0.170 F 
HETATM   10  F10 UNL     1     -40.751   7.092  -1.532  1.00 20.00    -0.170 F 
ENDBRANCH   5   7
TORSDOF 1
ENDMDL
MODEL 4
REMARK VINA RESULT:      -4.4     22.955     24.105
REMARK  1 active torsions:
REMARK  status: ('A' for Active; 'I' for Inactive)
REMARK    1  A    between atoms: C5_5  and  C7_7 
ROOT
HETATM    1  C1  UNL     1     -42.953   5.249   0.851  1.00 20.00     0.001 C 
HETATM    2  C2  UNL     1     -43.054   5.077  -0.665  1.00 20.00     0.001 C 
HETATM    3  C3  UNL     1     -43.157   6.736   1.126  1.00 20.00     0.018 C 
HETATM    4  C4  UNL     1     -43.317   6.471  -1.234  1.00 20.00     0.018 C 
HETATM    5  C5  UNL     1     -42.767   7.441  -0.180  1.00 20.00     0.054 C 
HETATM    6  C6  UNL     1     -43.417   8.821  -0.292  1.00 20.00     0.024 C 
ENDROOT
BRANCH   5   7
HETATM    7  C7  UNL     1     -41.241   7.589  -0.299  1.00 20.00     0.395 C 
HETATM    8  F8  UNL     1     -40.810   6.946  -1.391  1.00 20.00    -0.170 F 
HETATM    9  F9  UNL     1     -40.922   8.885  -0.395  1.00 20.00    -0.170 F 
HETATM   10  F10 UNL     1     -40.653   7.068   0.783  1.00 20.00    -0.170 F 
ENDBRANCH   5   7
TORSDOF 1
ENDMDL
MODEL 5
REMARK VINA RESULT:      -4.4     22.846     23.918
REMARK  1 active torsions:
REMARK  status: ('A' for Active; 'I' for Inactive)
REMARK    1  A    between atoms: C5_5  and  C7_7 
ROOT
HETATM    1  C1  UNL     1     -42.982   8.791  -0.258  1.00 20.00     0.001 C 
HETATM    2  C2  UNL     1     -41.545   8.955   0.240  1.00 20.00     0.001 C 
HETATM    3  C3  UNL     1     -43.410   7.379   0.133  1.00 20.00     0.018 C 
HETATM    4  C4  UNL     1     -41.174   7.634   0.911  1.00 20.00     0.018 C 
HETATM    5  C5  UNL     1     -42.100   6.589   0.273  1.00 20.00     0.054 C 
HETATM    6  C6  UNL     1     -42.274   5.366   1.175  1.00 20.00     0.024 C 
ENDROOT
BRANCH   5   7
HETATM    7  C7  UNL     1     -41.572   6.137  -1.098  1.00 20.00     0.395 C 
HETATM    8  F8  UNL     1     -40.792   7.092  -1.617  1.00 20.00    -0.170 F 
HETATM    9  F9  UNL     1     -40.861   5.013  -0.957  1.00 20.00    -0.170 F 
HETATM   10  F10 UNL     1     -42.601   5.909  -1.923  1.00 20.00    -0.170 F 
ENDBRANCH   5   7
TORSDOF 1
ENDMDL
MODEL 6
REMARK VINA RESULT:      -4.3      1.611      3.172
REMARK  1 active torsions:
REMARK  status: ('A' for Active; 'I' for Inactive)
REMARK    1  A    between atoms: C5_5  and  C7_7 
ROOT
HETATM    1  C1  UNL     1     -25.430  16.263  11.963  1.00 20.00     0.001 C 
HETATM    2  C2  UNL     1     -25.752  17.753  12.090  1.00 20.00     0.001 C 
HETATM    3  C3  UNL     1     -23.917  16.140  12.117  1.00 20.00     0.018 C 
HETATM    4  C4  UNL     1     -24.417  18.459  12.317  1.00 20.00     0.018 C 
HETATM    5  C5  UNL     1     -23.362  17.516  11.723  1.00 20.00     0.054 C 
HETATM    6  C6  UNL     1     -21.980  17.762  12.332  1.00 20.00     0.024 C 
ENDROOT
BRANCH   5   7
HETATM    7  C7  UNL     1     -23.276  17.666  10.195  1.00 20.00     0.395 C 
HETATM    8  F8  UNL     1     -24.157  18.585   9.783  1.00 20.00    -0.170 F 
HETATM    9  F9  UNL     1     -22.042  18.051   9.850  1.00 20.00    -0.170 F 
HETATM   10  F10 UNL     1     -23.553  16.494   9.612  1.00 20.00    -0.170 F 
ENDBRANCH   5   7
TORSDOF 1
ENDMDL
MODEL 7
REMARK VINA RESULT:      -4.3     17.474     18.536
REMARK  1 active torsions:
REMARK  status: ('A' for Active; 'I' for Inactive)
REMARK    1  A    between atoms: C5_5  and  C7_7 
ROOT
HETATM    1  C1  UNL     1     -33.600  16.844  -2.151  1.00 20.00     0.001 C 
HETATM    2  C2  UNL     1     -34.908  16.065  -2.017  1.00 20.00     0.001 C 
HETATM    3  C3  UNL     1     -33.456  17.184  -3.632  1.00 20.00     0.018 C 
HETATM    4  C4  UNL     1     -35.494  15.972  -3.425  1.00 20.00     0.018 C 
HETATM    5  C5  UNL     1     -34.292  16.128  -4.367  1.00 20.00     0.054 C 
HETATM    6  C6  UNL     1     -34.723  16.614  -5.752  1.00 20.00     0.024 C 
ENDROOT
BRANCH   5   7
HETATM    7  C7  UNL     1     -33.520  14.806  -4.511  1.00 20.00     0.395 C 
HETATM    8  F8  UNL     1     -34.185  13.826  -3.888  1.00 20.00    -0.170 F 
HETATM    9  F9  UNL     1     -33.394  14.499  -5.807  1.00 20.00    -0.170 F 
HETATM   10  F10 UNL     1     -32.305  14.934  -3.967  1.00 20.00    -0.170 F 
ENDBRANCH   5   7
TORSDOF 1
ENDMDL
MODEL 8
REMARK VINA RESULT:      -4.3      1.663      2.523
REMARK  1 active torsions:
REMARK  status: ('A' for Active; 'I' for Inactive)
REMARK    1  A    between atoms: C5_5  and  C7_7 
ROOT
HETATM    1  C1  UNL     1     -22.128  18.107  11.003  1.00 20.00     0.001 C 
HETATM    2  C2  UNL     1     -22.711  17.781   9.628  1.00 20.00     0.001 C 
HETATM    3  C3  UNL     1     -22.862  17.214  12.000  1.00 20.00     0.018 C 
HETATM    4  C4  UNL     1     -23.770  16.704   9.859  1.00 20.00     0.018 C 
HETATM    5  C5  UNL     1     -24.197  16.874  11.323  1.00 20.00     0.054 C 
HETATM    6  C6  UNL     1     -24.802  15.586  11.886  1.00 20.00     0.024 C 
ENDROOT
BRANCH   5   7
HETATM    7  C7  UNL     1     -25.210  18.020  11.481  1.00 20.00     0.395 C 
HETATM    8  F8  UNL     1     -24.727  18.933  12.331  1.00 20.00    -0.170 F 
HETATM    9  F9  UNL     1     -25.426  18.594  10.292  1.00 20.00    -0.170 F 
HETATM   10  F10 UNL     1     -26.364  17.538  11.955  1.00 20.00    -0.170 F 
ENDBRANCH   5   7
TORSDOF 1
ENDMDL
MODEL 9
REMARK VINA RESULT:      -4.3      1.902      2.889
REMARK  1 active torsions:
REMARK  status: ('A' for Active; 'I' for Inactive)
REMARK    1  A    between atoms: C5_5  and  C7_7 
ROOT
HETATM    1  C1  UNL     1     -23.056  16.859  12.138  1.00 20.00     0.001 C 
HETATM    2  C2  UNL     1     -24.177  15.903  11.730  1.00 20.00     0.001 C 
HETATM    3  C3  UNL     1     -23.710  18.225  12.332  1.00 20.00     0.018 C 
HETATM    4  C4  UNL     1     -25.457  16.736  11.698  1.00 20.00     0.018 C 
HETATM    5  C5  UNL     1     -24.986  18.181  11.479  1.00 20.00     0.054 C 
HETATM    6  C6  UNL     1     -26.026  19.192  11.967  1.00 20.00     0.024 C 
ENDROOT
BRANCH   5   7
HETATM    7  C7  UNL     1     -24.676  18.449   9.997  1.00 20.00     0.395 C 
HETATM    8  F8  UNL     1     -25.605  19.262   9.482  1.00 20.00    -0.170 F 
HETATM    9  F9  UNL     1     -23.474  19.026   9.887  1.00 20.00    -0.170 F 
HETATM   10  F10 UNL     1     -24.674  17.293   9.321  1.00 20.00    -0.170 F 
ENDBRANCH   5   7
TORSDOF 1
ENDMDL
