MODEL 1
REMARK VINA RESULT:      -3.4      0.000      0.000
REMARK  0 active torsions:
REMARK  status: ('A' for Active; 'I' for Inactive)
ROOT
HETATM    1  C1  UNL     1     -41.783   8.636  -0.082  1.00 20.00    -0.027 A 
HETATM    2  C2  UNL     1     -41.186   7.668   0.635  1.00 20.00    -0.010 A 
HETATM    3  C3  UNL     1     -42.582   7.665  -0.924  1.00 20.00     0.051 A 
HETATM    4  C4  UNL     1     -41.883   6.539  -0.108  1.00 20.00     0.035 A 
HETATM    5  C5  UNL     1     -40.972   5.617  -0.904  1.00 20.00     0.032 C 
HETATM    6 BR6  UNL     1     -43.074   5.539   1.077  1.00 20.00    -0.081 Br
ENDROOT
TORSDOF 0
ENDMDL
MODEL 2
REMARK VINA RESULT:      -3.3     22.930     23.757
REMARK  0 active torsions:
REMARK  status: ('A' for Active; 'I' for Inactive)
ROOT
HETATM    1  C1  UNL     1     -22.421  17.808  10.624  1.00 20.00    -0.027 A 
HETATM    2  C2  UNL     1     -22.853  17.608  11.881  1.00 20.00    -0.010 A 
HETATM    3  C3  UNL     1     -23.748  17.442   9.996  1.00 20.00     0.051 A 
HETATM    4  C4  UNL     1     -24.252  17.195  11.448  1.00 20.00     0.035 A 
HETATM    5  C5  UNL     1     -24.642  15.761  11.774  1.00 20.00     0.032 C 
HETATM    6 BR6  UNL     1     -25.594  18.474  12.068  1.00 20.00    -0.081 Br
ENDROOT
TORSDOF 0
ENDMDL
MODEL 3
REMARK VINA RESULT:      -3.3      1.948      2.600
REMARK  0 active torsions:
REMARK  status: ('A' for Active; 'I' for Inactive)
ROOT
HETATM    1  C1  UNL     1     -41.210   5.834  -0.939  1.00 20.00    -0.027 A 
HETATM    2  C2  UNL     1     -41.061   6.326   0.303  1.00 20.00    -0.010 A 
HETATM    3  C3  UNL     1     -42.375   6.740  -1.272  1.00 20.00     0.051 A 
HETATM    4  C4  UNL     1     -42.218   7.304   0.169  1.00 20.00     0.035 A 
HETATM    5  C5  UNL     1     -43.394   7.060   1.104  1.00 20.00     0.032 C 
HETATM    6 BR6  UNL     1     -41.595   9.156   0.251  1.00 20.00    -0.081 Br
ENDROOT
TORSDOF 0
ENDMDL
MODEL 4
REMARK VINA RESULT:      -3.2     23.039     23.917
REMARK  0 active torsions:
REMARK  status: ('A' for Active; 'I' for Inactive)
ROOT
HETATM    1  C1  UNL     1     -25.421  16.665  12.209  1.00 20.00    -0.027 A 
HETATM    2  C2  UNL     1     -24.312  16.231  11.584  1.00 20.00    -0.010 A 
HETATM    3  C3  UNL     1     -24.964  18.107  12.246  1.00 20.00     0.051 A 
HETATM    4  C4  UNL     1     -23.671  17.610  11.536  1.00 20.00     0.035 A 
HETATM    5  C5  UNL     1     -22.383  17.761  12.332  1.00 20.00     0.032 C 
HETATM    6 BR6  UNL     1     -23.467  18.235   9.695  1.00 20.00    -0.081 Br
ENDROOT
TORSDOF 0
ENDMDL
MODEL 5
REMARK VINA RESULT:      -3.2     23.157     23.631
REMARK  0 active torsions:
REMARK  status: ('A' for Active; 'I' for Inactive)
ROOT
HETATM    1  C1  UNL     1     -23.526  17.964   8.905  1.00 20.00    -0.027 A 
HETATM    2  C2  UNL     1     -22.885  16.998   9.585  1.00 20.00    -0.010 A 
HETATM    3  C3  UNL     1     -24.440  18.315  10.058  1.00 20.00     0.051 A 
HETATM    4  C4  UNL     1     -23.712  17.188  10.847  1.00 20.00     0.035 A 
HETATM    5  C5  UNL     1     -24.576  16.002  11.249  1.00 20.00     0.032 C 
HETATM    6 BR6  UNL     1     -22.608  17.822  12.331  1.00 20.00    -0.081 Br
ENDROOT
TORSDOF 0
ENDMDL
MODEL 6
REMARK VINA RESULT:      -3.2      1.440      2.078
REMARK  0 active torsions:
REMARK  status: ('A' for Active; 'I' for Inactive)
ROOT
HETATM    1  C1  UNL     1     -42.050   8.854  -0.089  1.00 20.00    -0.027 A 
HETATM    2  C2  UNL     1     -42.772   7.864  -0.642  1.00 20.00    -0.010 A 
HETATM    3  C3  UNL     1     -41.263   7.921   0.806  1.00 20.00     0.051 A 
HETATM    4  C4  UNL     1     -42.105   6.772   0.180  1.00 20.00     0.035 A 
HETATM    5  C5  UNL     1     -43.018   6.026   1.142  1.00 20.00     0.032 C 
HETATM    6 BR6  UNL     1     -41.087   5.548  -0.955  1.00 20.00    -0.081 Br
ENDROOT
TORSDOF 0
ENDMDL
MODEL 7
REMARK VINA RESULT:      -3.2     23.141     23.719
REMARK  0 active torsions:
REMARK  status: ('A' for Active; 'I' for Inactive)
ROOT
HETATM    1  C1  UNL     1     -23.690  18.100   9.053  1.00 20.00    -0.027 A 
HETATM    2  C2  UNL     1     -24.220  18.356  10.263  1.00 20.00    -0.010 A 
HETATM    3  C3  UNL     1     -22.832  16.959   9.553  1.00 20.00     0.051 A 
HETATM    4  C4  UNL     1     -23.430  17.258  10.958  1.00 20.00     0.035 A 
HETATM    5  C5  UNL     1     -22.436  17.732  12.009  1.00 20.00     0.032 C 
HETATM    6 BR6  UNL     1     -24.611  15.862  11.650  1.00 20.00    -0.081 Br
ENDROOT
TORSDOF 0
ENDMDL
MODEL 8
REMARK VINA RESULT:      -3.2      8.435      9.173
REMARK  0 active torsions:
REMARK  status: ('A' for Active; 'I' for Inactive)
ROOT
HETATM    1  C1  UNL     1     -33.985   6.369   6.136  1.00 20.00    -0.027 A 
HETATM    2  C2  UNL     1     -34.060   6.855   4.885  1.00 20.00    -0.010 A 
HETATM    3  C3  UNL     1     -34.569   5.025   5.762  1.00 20.00     0.051 A 
HETATM    4  C4  UNL     1     -34.672   5.585   4.314  1.00 20.00     0.035 A 
HETATM    5  C5  UNL     1     -36.084   5.729   3.763  1.00 20.00     0.032 C 
HETATM    6 BR6  UNL     1     -33.471   4.733   3.028  1.00 20.00    -0.081 Br
ENDROOT
TORSDOF 0
ENDMDL
MODEL 9
REMARK VINA RESULT:      -3.2     22.887     23.689
REMARK  0 active torsions:
REMARK  status: ('A' for Active; 'I' for Inactive)
ROOT
HETATM    1  C1  UNL     1     -23.617  16.670  11.761  1.00 20.00    -0.027 A 
HETATM    2  C2  UNL     1     -24.143  16.418  10.550  1.00 20.00    -0.010 A 
HETATM    3  C3  UNL     1     -22.767  17.821  11.269  1.00 20.00     0.051 A 
HETATM    4  C4  UNL     1     -23.361  17.526   9.862  1.00 20.00     0.035 A 
HETATM    5  C5  UNL     1     -22.363  17.067   8.809  1.00 20.00     0.032 C 
HETATM    6 BR6  UNL     1     -24.553  18.918   9.178  1.00 20.00    -0.081 Br
ENDROOT
TORSDOF 0
ENDMDL
