MODEL 1
REMARK VINA RESULT:      -4.6      0.000      0.000
REMARK  0 active torsions:
REMARK  status: ('A' for Active; 'I' for Inactive)
ROOT
HETATM    1  C1  UNL     1     -24.424  18.310   9.559  1.00 20.00    -0.059 A 
HETATM    2  C2  UNL     1     -24.873  18.231  10.828  1.00 20.00    -0.055 A 
HETATM    3  C3  UNL     1     -23.420  17.186   9.733  1.00 20.00     0.138 A 
HETATM    4  C4  UNL     1     -23.846  17.164  11.238  1.00 20.00     0.077 A 
HETATM    5  C5  UNL     1     -24.829  19.174   8.347  1.00 20.00     0.045 C 
HETATM    6  C6  UNL     1     -25.969  18.983  11.612  1.00 20.00     0.046 C 
HETATM    7  C7  UNL     1     -22.825  17.681  12.258  1.00 20.00     0.039 C 
HETATM    8 CL8  UNL     1     -21.693  17.503   9.274  1.00 20.00    -0.118 Cl
HETATM    9 CL9  UNL     1     -24.545  15.591  11.808  1.00 20.00    -0.113 Cl
ENDROOT
TORSDOF 0
ENDMDL
MODEL 2
REMARK VINA RESULT:      -4.3      1.652      2.954
REMARK  0 active torsions:
REMARK  status: ('A' for Active; 'I' for Inactive)
ROOT
HETATM    1  C1  UNL     1     -24.644  18.468   9.742  1.00 20.00    -0.059 A 
HETATM    2  C2  UNL     1     -23.623  17.590   9.805  1.00 20.00    -0.055 A 
HETATM    3  C3  UNL     1     -24.889  18.449  11.240  1.00 20.00     0.138 A 
HETATM    4  C4  UNL     1     -23.788  17.341  11.312  1.00 20.00     0.077 A 
HETATM    5  C5  UNL     1     -25.285  19.263   8.587  1.00 20.00     0.045 C 
HETATM    6  C6  UNL     1     -22.674  16.992   8.744  1.00 20.00     0.046 C 
HETATM    7  C7  UNL     1     -24.255  15.916  11.633  1.00 20.00     0.039 C 
HETATM    8 CL8  UNL     1     -26.572  18.109  11.827  1.00 20.00    -0.118 Cl
HETATM    9 CL9  UNL     1     -22.349  17.762  12.331  1.00 20.00    -0.113 Cl
ENDROOT
TORSDOF 0
ENDMDL
MODEL 3
REMARK VINA RESULT:      -3.9     16.398     17.691
REMARK  0 active torsions:
REMARK  status: ('A' for Active; 'I' for Inactive)
ROOT
HETATM    1  C1  UNL     1     -34.718  16.179  -2.325  1.00 20.00    -0.059 A 
HETATM    2  C2  UNL     1     -33.690  16.613  -3.083  1.00 20.00    -0.055 A 
HETATM    3  C3  UNL     1     -34.991  14.970  -3.202  1.00 20.00     0.138 A 
HETATM    4  C4  UNL     1     -33.881  15.527  -4.153  1.00 20.00     0.077 A 
HETATM    5  C5  UNL     1     -35.345  16.680  -1.008  1.00 20.00     0.045 C 
HETATM    6  C6  UNL     1     -32.717  17.805  -2.965  1.00 20.00     0.046 C 
HETATM    7  C7  UNL     1     -34.341  16.094  -5.502  1.00 20.00     0.039 C 
HETATM    8 CL8  UNL     1     -36.680  14.721  -3.813  1.00 20.00    -0.118 Cl
HETATM    9 CL9  UNL     1     -32.464  14.422  -4.400  1.00 20.00    -0.113 Cl
ENDROOT
TORSDOF 0
ENDMDL
MODEL 4
REMARK VINA RESULT:      -3.8     15.610     17.189
REMARK  0 active torsions:
REMARK  status: ('A' for Active; 'I' for Inactive)
ROOT
HETATM    1  C1  UNL     1     -34.804  16.675  -1.655  1.00 20.00    -0.059 A 
HETATM    2  C2  UNL     1     -33.635  16.986  -2.249  1.00 20.00    -0.055 A 
HETATM    3  C3  UNL     1     -35.292  15.833  -2.820  1.00 20.00     0.138 A 
HETATM    4  C4  UNL     1     -33.994  16.284  -3.567  1.00 20.00     0.077 A 
HETATM    5  C5  UNL     1     -35.404  16.992  -0.270  1.00 20.00     0.045 C 
HETATM    6  C6  UNL     1     -32.407  17.808  -1.803  1.00 20.00     0.046 C 
HETATM    7  C7  UNL     1     -34.168  17.262  -4.735  1.00 20.00     0.039 C 
HETATM    8 CL8  UNL     1     -36.926  16.202  -3.517  1.00 20.00    -0.118 Cl
HETATM    9 CL9  UNL     1     -32.887  14.933  -4.054  1.00 20.00    -0.113 Cl
ENDROOT
TORSDOF 0
ENDMDL
MODEL 5
REMARK VINA RESULT:      -3.7      0.808      3.056
REMARK  0 active torsions:
REMARK  status: ('A' for Active; 'I' for Inactive)
ROOT
HETATM    1  C1  UNL     1     -24.910  18.472  10.817  1.00 20.00    -0.059 A 
HETATM    2  C2  UNL     1     -24.511  18.624   9.538  1.00 20.00    -0.055 A 
HETATM    3  C3  UNL     1     -23.618  17.803  11.250  1.00 20.00     0.138 A 
HETATM    4  C4  UNL     1     -23.192  17.864   9.746  1.00 20.00     0.077 A 
HETATM    5  C5  UNL     1     -26.180  18.889  11.585  1.00 20.00     0.045 C 
HETATM    6  C6  UNL     1     -25.165  19.263   8.295  1.00 20.00     0.046 C 
HETATM    7  C7  UNL     1     -23.142  16.536   8.982  1.00 20.00     0.039 C 
HETATM    8 CL8  UNL     1     -23.726  16.208  12.107  1.00 20.00    -0.118 Cl
HETATM    9 CL9  UNL     1     -21.686  18.820   9.419  1.00 20.00    -0.113 Cl
ENDROOT
TORSDOF 0
ENDMDL
MODEL 6
REMARK VINA RESULT:      -3.6     17.100     18.618
REMARK  0 active torsions:
REMARK  status: ('A' for Active; 'I' for Inactive)
ROOT
HETATM    1  C1  UNL     1     -34.570  16.102  -2.985  1.00 20.00    -0.059 A 
HETATM    2  C2  UNL     1     -34.160  15.230  -3.928  1.00 20.00    -0.055 A 
HETATM    3  C3  UNL     1     -36.036  15.979  -3.360  1.00 20.00     0.138 A 
HETATM    4  C4  UNL     1     -35.561  15.060  -4.534  1.00 20.00     0.077 A 
HETATM    5  C5  UNL     1     -33.836  16.885  -1.878  1.00 20.00     0.045 C 
HETATM    6  C6  UNL     1     -32.778  14.659  -4.312  1.00 20.00     0.046 C 
HETATM    7  C7  UNL     1     -35.671  15.631  -5.952  1.00 20.00     0.039 C 
HETATM    8 CL8  UNL     1     -36.961  17.501  -3.705  1.00 20.00    -0.118 Cl
HETATM    9 CL9  UNL     1     -36.225  13.372  -4.495  1.00 20.00    -0.113 Cl
ENDROOT
TORSDOF 0
ENDMDL
MODEL 7
REMARK VINA RESULT:      -3.5     17.598     19.107
REMARK  0 active torsions:
REMARK  status: ('A' for Active; 'I' for Inactive)
ROOT
HETATM    1  C1  UNL     1     -34.331  14.847  -4.325  1.00 20.00    -0.059 A 
HETATM    2  C2  UNL     1     -35.267  15.076  -5.269  1.00 20.00    -0.055 A 
HETATM    3  C3  UNL     1     -35.290  15.074  -3.171  1.00 20.00     0.138 A 
HETATM    4  C4  UNL     1     -36.353  15.459  -4.252  1.00 20.00     0.077 A 
HETATM    5  C5  UNL     1     -32.847  14.433  -4.387  1.00 20.00     0.045 C 
HETATM    6  C6  UNL     1     -35.246  15.039  -6.812  1.00 20.00     0.046 C 
HETATM    7  C7  UNL     1     -36.756  16.935  -4.337  1.00 20.00     0.039 C 
HETATM    8 CL8  UNL     1     -34.816  16.266  -1.887  1.00 20.00    -0.118 Cl
HETATM    9 CL9  UNL     1     -37.835  14.413  -4.267  1.00 20.00    -0.113 Cl
ENDROOT
TORSDOF 0
ENDMDL
MODEL 8
REMARK VINA RESULT:      -3.5     15.909     16.984
REMARK  0 active torsions:
REMARK  status: ('A' for Active; 'I' for Inactive)
ROOT
HETATM    1  C1  UNL     1     -33.673  15.877  -3.242  1.00 20.00    -0.059 A 
HETATM    2  C2  UNL     1     -34.996  15.894  -2.977  1.00 20.00    -0.055 A 
HETATM    3  C3  UNL     1     -33.359  17.000  -2.270  1.00 20.00     0.138 A 
HETATM    4  C4  UNL     1     -34.902  17.111  -2.044  1.00 20.00     0.077 A 
HETATM    5  C5  UNL     1     -32.787  14.994  -4.144  1.00 20.00     0.045 C 
HETATM    6  C6  UNL     1     -36.186  15.050  -3.480  1.00 20.00     0.046 C 
HETATM    7  C7  UNL     1     -35.601  18.352  -2.611  1.00 20.00     0.039 C 
HETATM    8 CL8  UNL     1     -32.417  18.424  -2.884  1.00 20.00    -0.118 Cl
HETATM    9 CL9  UNL     1     -35.445  16.823  -0.337  1.00 20.00    -0.113 Cl
ENDROOT
TORSDOF 0
ENDMDL
MODEL 9
REMARK VINA RESULT:      -3.4     17.797     19.433
REMARK  0 active torsions:
REMARK  status: ('A' for Active; 'I' for Inactive)
ROOT
HETATM    1  C1  UNL     1     -34.555  15.758  -4.007  1.00 20.00    -0.059 A 
HETATM    2  C2  UNL     1     -34.486  16.586  -5.069  1.00 20.00    -0.055 A 
HETATM    3  C3  UNL     1     -34.858  14.532  -4.850  1.00 20.00     0.138 A 
HETATM    4  C4  UNL     1     -34.900  15.502  -6.077  1.00 20.00     0.077 A 
HETATM    5  C5  UNL     1     -34.334  15.959  -2.494  1.00 20.00     0.045 C 
HETATM    6  C6  UNL     1     -34.177  18.090  -5.220  1.00 20.00     0.046 C 
HETATM    7  C7  UNL     1     -36.272  15.767  -6.707  1.00 20.00     0.039 C 
HETATM    8 CL8  UNL     1     -36.311  13.536  -4.419  1.00 20.00    -0.118 Cl
HETATM    9 CL9  UNL     1     -33.684  15.143  -7.373  1.00 20.00    -0.113 Cl
ENDROOT
TORSDOF 0
ENDMDL
