MODEL 1
REMARK VINA RESULT:      -4.8      0.000      0.000
REMARK  1 active torsions:
REMARK  status: ('A' for Active; 'I' for Inactive)
REMARK    1  A    between atoms: C6_6  and  C11_11 
ROOT
HETATM    1  C1  UNL     1     -35.130  16.005  -1.888  1.00 20.00     0.003 C 
HETATM    2  C2  UNL     1     -34.954  17.143  -1.201  1.00 20.00    -0.016 C 
HETATM    3  C3  UNL     1     -33.097  16.291  -3.168  1.00 20.00    -0.019 C 
HETATM    4  C4  UNL     1     -34.255  15.633  -2.981  1.00 20.00    -0.066 C 
HETATM    5  C5  UNL     1     -32.666  17.424  -2.275  1.00 20.00     0.041 C 
HETATM    6  C6  UNL     1     -33.829  18.116  -1.505  1.00 20.00    -0.020 C 
HETATM    7  C7  UNL     1     -34.687  14.486  -3.842  1.00 20.00     0.048 C 
HETATM    8  C8  UNL     1     -34.411  19.263  -2.353  1.00 20.00     0.020 C 
ENDROOT
BRANCH   6   9
HETATM    9  C11 UNL     1     -33.279  18.700  -0.193  1.00 20.00    -0.011 C 
HETATM   10  C9  UNL     1     -34.062  18.152   0.992  1.00 20.00     0.010 C 
HETATM   11  C10 UNL     1     -31.796  18.386  -0.063  1.00 20.00     0.010 C 
ENDBRANCH   6   9
TORSDOF 1
ENDMDL
MODEL 2
REMARK VINA RESULT:      -4.8      1.126      4.428
REMARK  1 active torsions:
REMARK  status: ('A' for Active; 'I' for Inactive)
REMARK    1  A    between atoms: C6_6  and  C11_11 
ROOT
HETATM    1  C1  UNL     1     -32.880  17.347  -2.122  1.00 20.00     0.003 C 
HETATM    2  C2  UNL     1     -33.100  16.766  -3.311  1.00 20.00    -0.016 C 
HETATM    3  C3  UNL     1     -35.057  16.741  -1.258  1.00 20.00    -0.019 C 
HETATM    4  C4  UNL     1     -33.922  17.449  -1.120  1.00 20.00    -0.066 C 
HETATM    5  C5  UNL     1     -35.298  15.833  -2.434  1.00 20.00     0.041 C 
HETATM    6  C6  UNL     1     -34.442  16.166  -3.692  1.00 20.00    -0.020 C 
HETATM    7  C7  UNL     1     -33.653  18.335   0.056  1.00 20.00     0.048 C 
HETATM    8  C8  UNL     1     -35.182  17.188  -4.576  1.00 20.00     0.020 C 
ENDROOT
BRANCH   6   9
HETATM    9  C11 UNL     1     -34.224  14.878  -4.502  1.00 20.00    -0.011 C 
HETATM   10  C9  UNL     1     -32.777  14.421  -4.377  1.00 20.00     0.010 C 
HETATM   11  C10 UNL     1     -35.184  13.795  -4.029  1.00 20.00     0.010 C 
ENDBRANCH   6   9
TORSDOF 1
ENDMDL
MODEL 3
REMARK VINA RESULT:      -4.8      1.013      4.328
REMARK  1 active torsions:
REMARK  status: ('A' for Active; 'I' for Inactive)
REMARK    1  A    between atoms: C6_6  and  C11_11 
ROOT
HETATM    1  C1  UNL     1     -32.676  17.553  -1.940  1.00 20.00     0.003 C 
HETATM    2  C2  UNL     1     -33.036  16.724  -2.932  1.00 20.00    -0.016 C 
HETATM    3  C3  UNL     1     -34.798  17.341  -0.796  1.00 20.00    -0.019 C 
HETATM    4  C4  UNL     1     -33.616  17.971  -0.919  1.00 20.00    -0.066 C 
HETATM    5  C5  UNL     1     -35.196  16.201  -1.695  1.00 20.00     0.041 C 
HETATM    6  C6  UNL     1     -34.439  16.157  -3.055  1.00 20.00    -0.020 C 
HETATM    7  C7  UNL     1     -33.192  19.089  -0.018  1.00 20.00     0.048 C 
HETATM    8  C8  UNL     1     -35.197  16.993  -4.104  1.00 20.00     0.020 C 
ENDROOT
BRANCH   6   9
HETATM    9  C11 UNL     1     -34.369  14.700  -3.540  1.00 20.00    -0.011 C 
HETATM   10  C9  UNL     1     -35.673  14.313  -4.222  1.00 20.00     0.010 C 
HETATM   11  C10 UNL     1     -33.184  14.518  -4.478  1.00 20.00     0.010 C 
ENDBRANCH   6   9
TORSDOF 1
ENDMDL
MODEL 4
REMARK VINA RESULT:      -4.7     12.033     14.319
REMARK  1 active torsions:
REMARK  status: ('A' for Active; 'I' for Inactive)
REMARK    1  A    between atoms: C6_6  and  C11_11 
ROOT
HETATM    1  C1  UNL     1     -40.930   4.763  -1.483  1.00 20.00     0.003 C 
HETATM    2  C2  UNL     1     -40.967   5.640  -0.468  1.00 20.00    -0.016 C 
HETATM    3  C3  UNL     1     -43.309   4.918  -1.896  1.00 20.00    -0.019 C 
HETATM    4  C4  UNL     1     -42.140   4.295  -2.129  1.00 20.00    -0.066 C 
HETATM    5  C5  UNL     1     -43.417   6.101  -0.972  1.00 20.00     0.041 C 
HETATM    6  C6  UNL     1     -42.266   6.212   0.070  1.00 20.00    -0.020 C 
HETATM    7  C7  UNL     1     -42.008   3.134  -3.065  1.00 20.00     0.048 C 
HETATM    8  C8  UNL     1     -42.635   5.429   1.345  1.00 20.00     0.020 C 
ENDROOT
BRANCH   6   9
HETATM    9  C11 UNL     1     -42.068   7.692   0.439  1.00 20.00    -0.011 C 
HETATM   10  C9  UNL     1     -41.169   8.369  -0.586  1.00 20.00     0.010 C 
HETATM   11  C10 UNL     1     -43.417   8.391   0.533  1.00 20.00     0.010 C 
ENDBRANCH   6   9
TORSDOF 1
ENDMDL
MODEL 5
REMARK VINA RESULT:      -4.4      2.190      4.230
REMARK  1 active torsions:
REMARK  status: ('A' for Active; 'I' for Inactive)
REMARK    1  A    between atoms: C6_6  and  C11_11 
ROOT
HETATM    1  C1  UNL     1     -34.878  16.512  -6.114  1.00 20.00     0.003 C 
HETATM    2  C2  UNL     1     -34.155  16.539  -4.984  1.00 20.00    -0.016 C 
HETATM    3  C3  UNL     1     -35.867  14.363  -5.602  1.00 20.00    -0.019 C 
HETATM    4  C4  UNL     1     -35.652  15.347  -6.494  1.00 20.00    -0.066 C 
HETATM    5  C5  UNL     1     -35.323  14.419  -4.200  1.00 20.00     0.041 C 
HETATM    6  C6  UNL     1     -34.100  15.367  -4.021  1.00 20.00    -0.020 C 
HETATM    7  C7  UNL     1     -36.209  15.322  -7.884  1.00 20.00     0.048 C 
HETATM    8  C8  UNL     1     -32.794  14.595  -4.289  1.00 20.00     0.020 C 
ENDROOT
BRANCH   6   9
HETATM    9  C11 UNL     1     -34.079  15.885  -2.574  1.00 20.00    -0.011 C 
HETATM   10  C9  UNL     1     -33.077  17.024  -2.441  1.00 20.00     0.010 C 
HETATM   11  C10 UNL     1     -35.474  16.331  -2.159  1.00 20.00     0.010 C 
ENDBRANCH   6   9
TORSDOF 1
ENDMDL
MODEL 6
REMARK VINA RESULT:      -4.4      1.533      4.870
REMARK  1 active torsions:
REMARK  status: ('A' for Active; 'I' for Inactive)
REMARK    1  A    between atoms: C6_6  and  C11_11 
ROOT
HETATM    1  C1  UNL     1     -34.635  16.282  -1.836  1.00 20.00     0.003 C 
HETATM    2  C2  UNL     1     -35.016  15.409  -2.782  1.00 20.00    -0.016 C 
HETATM    3  C3  UNL     1     -33.409  17.664  -3.399  1.00 20.00    -0.019 C 
HETATM    4  C4  UNL     1     -33.710  17.360  -2.124  1.00 20.00    -0.066 C 
HETATM    5  C5  UNL     1     -34.001  16.914  -4.563  1.00 20.00     0.041 C 
HETATM    6  C6  UNL     1     -34.520  15.488  -4.214  1.00 20.00    -0.020 C 
HETATM    7  C7  UNL     1     -33.154  18.112  -0.955  1.00 20.00     0.048 C 
HETATM    8  C8  UNL     1     -33.384  14.461  -4.379  1.00 20.00     0.020 C 
ENDROOT
BRANCH   6   9
HETATM    9  C11 UNL     1     -35.661  15.124  -5.179  1.00 20.00    -0.011 C 
HETATM   10  C9  UNL     1     -35.108  14.888  -6.577  1.00 20.00     0.010 C 
HETATM   11  C10 UNL     1     -36.404  13.898  -4.668  1.00 20.00     0.010 C 
ENDBRANCH   6   9
TORSDOF 1
ENDMDL
MODEL 7
REMARK VINA RESULT:      -4.3      2.119      5.318
REMARK  1 active torsions:
REMARK  status: ('A' for Active; 'I' for Inactive)
REMARK    1  A    between atoms: C6_6  and  C11_11 
ROOT
HETATM    1  C1  UNL     1     -36.193  16.602  -3.351  1.00 20.00     0.003 C 
HETATM    2  C2  UNL     1     -36.435  15.915  -4.478  1.00 20.00    -0.016 C 
HETATM    3  C3  UNL     1     -34.070  15.506  -2.966  1.00 20.00    -0.019 C 
HETATM    4  C4  UNL     1     -35.051  16.304  -2.509  1.00 20.00    -0.066 C 
HETATM    5  C5  UNL     1     -34.110  14.893  -4.340  1.00 20.00     0.041 C 
HETATM    6  C6  UNL     1     -35.536  14.792  -4.960  1.00 20.00    -0.020 C 
HETATM    7  C7  UNL     1     -35.015  16.945  -1.157  1.00 20.00     0.048 C 
HETATM    8  C8  UNL     1     -36.190  13.456  -4.556  1.00 20.00     0.020 C 
ENDROOT
BRANCH   6   9
HETATM    9  C11 UNL     1     -35.419  14.841  -6.492  1.00 20.00    -0.011 C 
HETATM   10  C9  UNL     1     -36.364  15.894  -7.054  1.00 20.00     0.010 C 
HETATM   11  C10 UNL     1     -33.979  15.124  -6.896  1.00 20.00     0.010 C 
ENDBRANCH   6   9
TORSDOF 1
ENDMDL
MODEL 8
REMARK VINA RESULT:      -4.2      1.485      2.650
REMARK  1 active torsions:
REMARK  status: ('A' for Active; 'I' for Inactive)
REMARK    1  A    between atoms: C6_6  and  C11_11 
ROOT
HETATM    1  C1  UNL     1     -34.639  14.956  -3.430  1.00 20.00     0.003 C 
HETATM    2  C2  UNL     1     -33.989  15.858  -2.680  1.00 20.00    -0.016 C 
HETATM    3  C3  UNL     1     -36.568  16.384  -3.736  1.00 20.00    -0.019 C 
HETATM    4  C4  UNL     1     -36.006  15.169  -3.863  1.00 20.00    -0.066 C 
HETATM    5  C5  UNL     1     -35.826  17.554  -3.149  1.00 20.00     0.041 C 
HETATM    6  C6  UNL     1     -34.625  17.164  -2.237  1.00 20.00    -0.020 C 
HETATM    7  C7  UNL     1     -36.719  14.001  -4.469  1.00 20.00     0.048 C 
HETATM    8  C8  UNL     1     -35.105  16.988  -0.784  1.00 20.00     0.020 C 
ENDROOT
BRANCH   6   9
HETATM    9  C11 UNL     1     -33.580  18.291  -2.280  1.00 20.00    -0.011 C 
HETATM   10  C9  UNL     1     -32.491  18.033  -1.248  1.00 20.00     0.010 C 
HETATM   11  C10 UNL     1     -32.993  18.406  -3.680  1.00 20.00     0.010 C 
ENDBRANCH   6   9
TORSDOF 1
ENDMDL
MODEL 9
REMARK VINA RESULT:      -4.2      1.341      1.836
REMARK  1 active torsions:
REMARK  status: ('A' for Active; 'I' for Inactive)
REMARK    1  A    between atoms: C6_6  and  C11_11 
ROOT
HETATM    1  C1  UNL     1     -36.242  15.828  -3.374  1.00 20.00     0.003 C 
HETATM    2  C2  UNL     1     -35.717  16.992  -2.960  1.00 20.00    -0.016 C 
HETATM    3  C3  UNL     1     -34.077  14.816  -3.752  1.00 20.00    -0.019 C 
HETATM    4  C4  UNL     1     -35.413  14.763  -3.900  1.00 20.00    -0.066 C 
HETATM    5  C5  UNL     1     -33.393  15.961  -3.052  1.00 20.00     0.041 C 
HETATM    6  C6  UNL     1     -34.226  17.276  -3.002  1.00 20.00    -0.020 C 
HETATM    7  C7  UNL     1     -36.112  13.620  -4.568  1.00 20.00     0.048 C 
HETATM    8  C8  UNL     1     -33.941  18.126  -4.255  1.00 20.00     0.020 C 
ENDROOT
BRANCH   6   9
HETATM    9  C11 UNL     1     -33.816  18.078  -1.756  1.00 20.00    -0.011 C 
HETATM   10  C9  UNL     1     -34.571  17.571  -0.536  1.00 20.00     0.010 C 
HETATM   11  C10 UNL     1     -32.311  17.985  -1.548  1.00 20.00     0.010 C 
ENDBRANCH   6   9
TORSDOF 1
ENDMDL
