MODEL 1
REMARK VINA RESULT:      -4.1      0.000      0.000
REMARK  1 active torsions:
REMARK  status: ('A' for Active; 'I' for Inactive)
REMARK    1  A    between atoms: C1_1  and  C5_5 
ROOT
HETATM    1  C1  UNL     1     -35.264  15.761  -2.654  1.00 20.00    -0.097 C 
HETATM    2  C2  UNL     1     -35.189  16.417  -1.650  1.00 20.00    -0.110 C 
HETATM    3  C7  UNL     1     -35.097  17.214  -0.429  1.00 20.00     0.112 C 
ENDROOT
BRANCH   1   4
HETATM    4  C5  UNL     1     -35.356  14.965  -3.876  1.00 20.00     0.027 C 
HETATM    5  C3  UNL     1     -34.325  13.792  -3.911  1.00 20.00     0.024 C 
HETATM    6  C4  UNL     1     -33.361  14.701  -4.699  1.00 20.00     0.012 C 
HETATM    7  C6  UNL     1     -34.582  15.563  -5.139  1.00 20.00    -0.029 C 
HETATM    8  C9  UNL     1     -35.113  15.144  -6.518  1.00 20.00     0.016 C 
HETATM    9  C10 UNL     1     -34.297  17.066  -5.133  1.00 20.00     0.016 C 
HETATM   10  C8  UNL     1     -36.802  14.519  -4.081  1.00 20.00     0.030 C 
ENDBRANCH   1   4
TORSDOF 1
ENDMDL
MODEL 2
REMARK VINA RESULT:      -4.0      0.963      1.566
REMARK  1 active torsions:
REMARK  status: ('A' for Active; 'I' for Inactive)
REMARK    1  A    between atoms: C1_1  and  C5_5 
ROOT
HETATM    1  C1  UNL     1     -35.454  16.282  -2.523  1.00 20.00    -0.097 C 
HETATM    2  C2  UNL     1     -35.349  16.676  -1.393  1.00 20.00    -0.110 C 
HETATM    3  C7  UNL     1     -35.220  17.155  -0.018  1.00 20.00     0.112 C 
ENDROOT
BRANCH   1   4
HETATM    4  C5  UNL     1     -35.584  15.802  -3.898  1.00 20.00     0.027 C 
HETATM    5  C3  UNL     1     -36.313  14.424  -3.990  1.00 20.00     0.024 C 
HETATM    6  C4  UNL     1     -34.937  13.729  -3.987  1.00 20.00     0.012 C 
HETATM    7  C6  UNL     1     -34.297  15.060  -4.484  1.00 20.00    -0.029 C 
HETATM    8  C9  UNL     1     -34.139  15.084  -6.012  1.00 20.00     0.016 C 
HETATM    9  C10 UNL     1     -32.952  15.370  -3.824  1.00 20.00     0.016 C 
HETATM   10  C8  UNL     1     -36.220  16.894  -4.755  1.00 20.00     0.030 C 
ENDBRANCH   1   4
TORSDOF 1
ENDMDL
MODEL 3
REMARK VINA RESULT:      -3.9      1.156      1.462
REMARK  1 active torsions:
REMARK  status: ('A' for Active; 'I' for Inactive)
REMARK    1  A    between atoms: C1_1  and  C5_5 
ROOT
HETATM    1  C1  UNL     1     -35.277  16.560  -1.849  1.00 20.00    -0.097 C 
HETATM    2  C2  UNL     1     -35.264  16.910  -0.700  1.00 20.00    -0.110 C 
HETATM    3  C7  UNL     1     -35.248  17.337   0.698  1.00 20.00     0.112 C 
ENDROOT
BRANCH   1   4
HETATM    4  C5  UNL     1     -35.292  16.132  -3.246  1.00 20.00     0.027 C 
HETATM    5  C3  UNL     1     -34.615  14.741  -3.460  1.00 20.00     0.024 C 
HETATM    6  C4  UNL     1     -33.299  15.467  -3.804  1.00 20.00     0.012 C 
HETATM    7  C6  UNL     1     -34.129  16.738  -4.157  1.00 20.00    -0.029 C 
HETATM    8  C9  UNL     1     -34.425  16.831  -5.661  1.00 20.00     0.016 C 
HETATM    9  C10 UNL     1     -33.477  18.039  -3.681  1.00 20.00     0.016 C 
HETATM   10  C8  UNL     1     -36.720  16.210  -3.782  1.00 20.00     0.030 C 
ENDBRANCH   1   4
TORSDOF 1
ENDMDL
MODEL 4
REMARK VINA RESULT:      -3.9      2.216      3.585
REMARK  1 active torsions:
REMARK  status: ('A' for Active; 'I' for Inactive)
REMARK    1  A    between atoms: C1_1  and  C5_5 
ROOT
HETATM    1  C1  UNL     1     -32.755  17.416  -2.197  1.00 20.00    -0.097 C 
HETATM    2  C2  UNL     1     -32.043  17.955  -1.394  1.00 20.00    -0.110 C 
HETATM    3  C7  UNL     1     -31.175  18.611  -0.417  1.00 20.00     0.112 C 
ENDROOT
BRANCH   1   4
HETATM    4  C5  UNL     1     -33.622  16.761  -3.174  1.00 20.00     0.027 C 
HETATM    5  C3  UNL     1     -34.136  17.739  -4.277  1.00 20.00     0.024 C 
HETATM    6  C4  UNL     1     -35.414  17.961  -3.445  1.00 20.00     0.012 C 
HETATM    7  C6  UNL     1     -35.148  16.602  -2.731  1.00 20.00    -0.029 C 
HETATM    8  C9  UNL     1     -35.926  15.449  -3.384  1.00 20.00     0.016 C 
HETATM    9  C10 UNL     1     -35.446  16.637  -1.230  1.00 20.00     0.016 C 
HETATM   10  C8  UNL     1     -32.916  15.525  -3.727  1.00 20.00     0.030 C 
ENDBRANCH   1   4
TORSDOF 1
ENDMDL
MODEL 5
REMARK VINA RESULT:      -3.8      1.470      2.223
REMARK  1 active torsions:
REMARK  status: ('A' for Active; 'I' for Inactive)
REMARK    1  A    between atoms: C1_1  and  C5_5 
ROOT
HETATM    1  C1  UNL     1     -34.945  16.689  -1.548  1.00 20.00    -0.097 C 
HETATM    2  C2  UNL     1     -35.311  17.004  -0.448  1.00 20.00    -0.110 C 
HETATM    3  C7  UNL     1     -35.755  17.386   0.891  1.00 20.00     0.112 C 
ENDROOT
BRANCH   1   4
HETATM    4  C5  UNL     1     -34.501  16.307  -2.887  1.00 20.00     0.027 C 
HETATM    5  C3  UNL     1     -32.951  16.395  -3.057  1.00 20.00     0.024 C 
HETATM    6  C4  UNL     1     -33.124  17.815  -3.632  1.00 20.00     0.012 C 
HETATM    7  C6  UNL     1     -34.597  17.457  -3.991  1.00 20.00    -0.029 C 
HETATM    8  C9  UNL     1     -34.735  16.988  -5.447  1.00 20.00     0.016 C 
HETATM    9  C10 UNL     1     -35.581  18.599  -3.724  1.00 20.00     0.016 C 
HETATM   10  C8  UNL     1     -35.083  14.940  -3.241  1.00 20.00     0.030 C 
ENDBRANCH   1   4
TORSDOF 1
ENDMDL
MODEL 6
REMARK VINA RESULT:      -3.8      1.781      2.655
REMARK  1 active torsions:
REMARK  status: ('A' for Active; 'I' for Inactive)
REMARK    1  A    between atoms: C1_1  and  C5_5 
ROOT
HETATM    1  C1  UNL     1     -33.414  17.250  -2.864  1.00 20.00    -0.097 C 
HETATM    2  C2  UNL     1     -32.667  17.657  -2.016  1.00 20.00    -0.110 C 
HETATM    3  C7  UNL     1     -31.758  18.152  -0.983  1.00 20.00     0.112 C 
ENDROOT
BRANCH   1   4
HETATM    4  C5  UNL     1     -34.323  16.756  -3.896  1.00 20.00     0.027 C 
HETATM    5  C3  UNL     1     -35.648  16.176  -3.307  1.00 20.00     0.024 C 
HETATM    6  C4  UNL     1     -35.013  14.771  -3.339  1.00 20.00     0.012 C 
HETATM    7  C6  UNL     1     -34.016  15.280  -4.423  1.00 20.00    -0.029 C 
HETATM    8  C9  UNL     1     -34.500  14.954  -5.844  1.00 20.00     0.016 C 
HETATM    9  C10 UNL     1     -32.592  14.753  -4.232  1.00 20.00     0.016 C 
HETATM   10  C8  UNL     1     -34.540  17.847  -4.942  1.00 20.00     0.030 C 
ENDBRANCH   1   4
TORSDOF 1
ENDMDL
MODEL 7
REMARK VINA RESULT:      -3.8      0.889      2.309
REMARK  1 active torsions:
REMARK  status: ('A' for Active; 'I' for Inactive)
REMARK    1  A    between atoms: C1_1  and  C5_5 
ROOT
HETATM    1  C1  UNL     1     -34.860  16.210  -2.718  1.00 20.00    -0.097 C 
HETATM    2  C2  UNL     1     -35.070  16.555  -1.587  1.00 20.00    -0.110 C 
HETATM    3  C7  UNL     1     -35.327  16.975  -0.210  1.00 20.00     0.112 C 
ENDROOT
BRANCH   1   4
HETATM    4  C5  UNL     1     -34.603  15.790  -4.094  1.00 20.00     0.027 C 
HETATM    5  C3  UNL     1     -34.457  16.996  -5.076  1.00 20.00     0.024 C 
HETATM    6  C4  UNL     1     -35.953  16.857  -5.422  1.00 20.00     0.012 C 
HETATM    7  C6  UNL     1     -35.897  15.378  -4.933  1.00 20.00    -0.029 C 
HETATM    8  C9  UNL     1     -35.668  14.399  -6.094  1.00 20.00     0.016 C 
HETATM    9  C10 UNL     1     -37.137  14.955  -4.141  1.00 20.00     0.016 C 
HETATM   10  C8  UNL     1     -33.414  14.832  -4.116  1.00 20.00     0.030 C 
ENDBRANCH   1   4
TORSDOF 1
ENDMDL
MODEL 8
REMARK VINA RESULT:      -3.7      1.363      3.285
REMARK  1 active torsions:
REMARK  status: ('A' for Active; 'I' for Inactive)
REMARK    1  A    between atoms: C1_1  and  C5_5 
ROOT
HETATM    1  C1  UNL     1     -36.570  15.691  -4.528  1.00 20.00    -0.097 C 
HETATM    2  C2  UNL     1     -37.712  15.345  -4.394  1.00 20.00    -0.110 C 
HETATM    3  C7  UNL     1     -39.102  14.922  -4.231  1.00 20.00     0.112 C 
ENDROOT
BRANCH   1   4
HETATM    4  C5  UNL     1     -35.180  16.114  -4.690  1.00 20.00     0.027 C 
HETATM    5  C3  UNL     1     -34.278  14.998  -5.306  1.00 20.00     0.024 C 
HETATM    6  C4  UNL     1     -33.875  14.577  -3.879  1.00 20.00     0.012 C 
HETATM    7  C6  UNL     1     -34.275  15.998  -3.380  1.00 20.00    -0.029 C 
HETATM    8  C9  UNL     1     -33.066  16.942  -3.306  1.00 20.00     0.016 C 
HETATM    9  C10 UNL     1     -35.000  15.985  -2.032  1.00 20.00     0.016 C 
HETATM   10  C8  UNL     1     -35.140  17.432  -5.461  1.00 20.00     0.030 C 
ENDBRANCH   1   4
TORSDOF 1
ENDMDL
MODEL 9
REMARK VINA RESULT:      -3.6      1.342      3.949
REMARK  1 active torsions:
REMARK  status: ('A' for Active; 'I' for Inactive)
REMARK    1  A    between atoms: C1_1  and  C5_5 
ROOT
HETATM    1  C1  UNL     1     -34.789  15.340  -5.544  1.00 20.00    -0.097 C 
HETATM    2  C2  UNL     1     -35.334  15.318  -6.614  1.00 20.00    -0.110 C 
HETATM    3  C7  UNL     1     -35.998  15.291  -7.917  1.00 20.00     0.112 C 
ENDROOT
BRANCH   1   4
HETATM    4  C5  UNL     1     -34.127  15.368  -4.242  1.00 20.00     0.027 C 
HETATM    5  C3  UNL     1     -35.067  14.928  -3.076  1.00 20.00     0.024 C 
HETATM    6  C4  UNL     1     -35.400  16.412  -2.823  1.00 20.00     0.012 C 
HETATM    7  C6  UNL     1     -34.070  16.799  -3.537  1.00 20.00    -0.029 C 
HETATM    8  C9  UNL     1     -32.925  17.017  -2.537  1.00 20.00     0.016 C 
HETATM    9  C10 UNL     1     -34.203  18.027  -4.441  1.00 20.00     0.016 C 
HETATM   10  C8  UNL     1     -32.828  14.568  -4.320  1.00 20.00     0.030 C 
ENDBRANCH   1   4
TORSDOF 1
ENDMDL
