MODEL 1
REMARK VINA RESULT:      -4.6      0.000      0.000
REMARK  0 active torsions:
REMARK  status: ('A' for Active; 'I' for Inactive)
ROOT
HETATM    1  C1  UNL     1     -22.707  18.485   9.536  1.00 20.00     0.179 C 
HETATM    2  C2  UNL     1     -24.801  16.138  11.517  1.00 20.00    -0.010 C 
HETATM    3  C3  UNL     1     -25.568  17.043  12.140  1.00 20.00    -0.023 C 
HETATM    4  C4  UNL     1     -23.923  16.465  10.347  1.00 20.00     0.161 C 
HETATM    5  C5  UNL     1     -25.080  18.659  10.278  1.00 20.00     0.143 C 
HETATM    6  C6  UNL     1     -25.651  18.478  11.692  1.00 20.00     0.022 C 
HETATM    7  C7  UNL     1     -27.093  18.982  11.743  1.00 20.00     0.016 C 
HETATM    8  N8  UNL     1     -21.795  18.947   8.989  1.00 20.00    -0.172 NA
HETATM    9  N9  UNL     1     -23.768  17.946  10.172  1.00 20.00    -0.316 N 
ENDROOT
TORSDOF 0
ENDMDL
MODEL 2
REMARK VINA RESULT:      -4.6     17.444     18.035
REMARK  0 active torsions:
REMARK  status: ('A' for Active; 'I' for Inactive)
ROOT
HETATM    1  C1  UNL     1     -36.754  14.372  -4.109  1.00 20.00     0.179 C 
HETATM    2  C2  UNL     1     -33.097  15.038  -4.080  1.00 20.00    -0.010 C 
HETATM    3  C3  UNL     1     -33.124  16.234  -3.475  1.00 20.00    -0.023 C 
HETATM    4  C4  UNL     1     -34.274  14.112  -4.131  1.00 20.00     0.161 C 
HETATM    5  C5  UNL     1     -35.344  15.616  -2.473  1.00 20.00     0.143 C 
HETATM    6  C6  UNL     1     -34.339  16.743  -2.747  1.00 20.00     0.022 C 
HETATM    7  C7  UNL     1     -33.942  17.422  -1.436  1.00 20.00     0.016 C 
HETATM    8  N8  UNL     1     -37.798  13.999  -4.448  1.00 20.00    -0.172 NA
HETATM    9  N9  UNL     1     -35.538  14.804  -3.715  1.00 20.00    -0.316 N 
ENDROOT
TORSDOF 0
ENDMDL
MODEL 3
REMARK VINA RESULT:      -4.3     18.151     18.841
REMARK  0 active torsions:
REMARK  status: ('A' for Active; 'I' for Inactive)
ROOT
HETATM    1  C1  UNL     1     -37.673  14.612  -4.198  1.00 20.00     0.179 C 
HETATM    2  C2  UNL     1     -35.090  16.705  -2.535  1.00 20.00    -0.010 C 
HETATM    3  C3  UNL     1     -34.043  15.883  -2.695  1.00 20.00    -0.023 C 
HETATM    4  C4  UNL     1     -36.393  16.533  -3.255  1.00 20.00     0.161 C 
HETATM    5  C5  UNL     1     -35.232  14.840  -4.648  1.00 20.00     0.143 C 
HETATM    6  C6  UNL     1     -34.067  14.724  -3.655  1.00 20.00     0.022 C 
HETATM    7  C7  UNL     1     -32.743  14.618  -4.412  1.00 20.00     0.016 C 
HETATM    8  N8  UNL     1     -38.693  14.119  -4.446  1.00 20.00    -0.172 NA
HETATM    9  N9  UNL     1     -36.487  15.187  -3.910  1.00 20.00    -0.316 N 
ENDROOT
TORSDOF 0
ENDMDL
MODEL 4
REMARK VINA RESULT:      -4.1     14.709     15.211
REMARK  0 active torsions:
REMARK  status: ('A' for Active; 'I' for Inactive)
ROOT
HETATM    1  C1  UNL     1     -31.622  18.173  -0.850  1.00 20.00     0.179 C 
HETATM    2  C2  UNL     1     -34.143  16.160  -2.697  1.00 20.00    -0.010 C 
HETATM    3  C3  UNL     1     -35.130  16.208  -1.790  1.00 20.00    -0.023 C 
HETATM    4  C4  UNL     1     -32.930  17.039  -2.644  1.00 20.00     0.161 C 
HETATM    5  C5  UNL     1     -34.110  18.314  -0.873  1.00 20.00     0.143 C 
HETATM    6  C6  UNL     1     -35.130  17.188  -0.648  1.00 20.00     0.022 C 
HETATM    7  C7  UNL     1     -36.524  17.778  -0.438  1.00 20.00     0.016 C 
HETATM    8  N8  UNL     1     -30.604  18.555  -0.449  1.00 20.00    -0.172 NA
HETATM    9  N9  UNL     1     -32.807  17.729  -1.319  1.00 20.00    -0.316 N 
ENDROOT
TORSDOF 0
ENDMDL
MODEL 5
REMARK VINA RESULT:      -4.1     17.380     18.016
REMARK  0 active torsions:
REMARK  status: ('A' for Active; 'I' for Inactive)
ROOT
HETATM    1  C1  UNL     1     -35.740  13.857  -4.201  1.00 20.00     0.179 C 
HETATM    2  C2  UNL     1     -36.496  17.186  -2.731  1.00 20.00    -0.010 C 
HETATM    3  C3  UNL     1     -35.388  17.326  -1.989  1.00 20.00    -0.023 C 
HETATM    4  C4  UNL     1     -36.652  16.142  -3.794  1.00 20.00     0.161 C 
HETATM    5  C5  UNL     1     -34.222  15.716  -3.527  1.00 20.00     0.143 C 
HETATM    6  C6  UNL     1     -34.171  16.464  -2.187  1.00 20.00     0.022 C 
HETATM    7  C7  UNL     1     -32.893  17.299  -2.102  1.00 20.00     0.016 C 
HETATM    8  N8  UNL     1     -35.882  12.788  -4.627  1.00 20.00    -0.172 NA
HETATM    9  N9  UNL     1     -35.575  15.102  -3.706  1.00 20.00    -0.316 N 
ENDROOT
TORSDOF 0
ENDMDL
MODEL 6
REMARK VINA RESULT:      -4.1     22.432     23.028
REMARK  0 active torsions:
REMARK  status: ('A' for Active; 'I' for Inactive)
ROOT
HETATM    1  C1  UNL     1     -41.401   9.483   0.341  1.00 20.00     0.179 C 
HETATM    2  C2  UNL     1     -41.171   6.099  -1.178  1.00 20.00    -0.010 C 
HETATM    3  C3  UNL     1     -41.570   5.383  -0.117  1.00 20.00    -0.023 C 
HETATM    4  C4  UNL     1     -41.322   7.586  -1.275  1.00 20.00     0.161 C 
HETATM    5  C5  UNL     1     -42.749   7.427   0.748  1.00 20.00     0.143 C 
HETATM    6  C6  UNL     1     -42.251   6.010   1.069  1.00 20.00     0.022 C 
HETATM    7  C7  UNL     1     -43.415   5.143   1.550  1.00 20.00     0.016 C 
HETATM    8  N8  UNL     1     -41.171  10.592   0.589  1.00 20.00    -0.172 NA
HETATM    9  N9  UNL     1     -41.668   8.192   0.052  1.00 20.00    -0.316 N 
ENDROOT
TORSDOF 0
ENDMDL
MODEL 7
REMARK VINA RESULT:      -4.0     15.337     16.094
REMARK  0 active torsions:
REMARK  status: ('A' for Active; 'I' for Inactive)
ROOT
HETATM    1  C1  UNL     1     -32.516   7.730   1.554  1.00 20.00     0.179 C 
HETATM    2  C2  UNL     1     -32.983   7.425   5.229  1.00 20.00    -0.010 C 
HETATM    3  C3  UNL     1     -34.008   6.560   5.222  1.00 20.00    -0.023 C 
HETATM    4  C4  UNL     1     -32.151   7.729   4.021  1.00 20.00     0.161 C 
HETATM    5  C5  UNL     1     -33.281   5.804   2.938  1.00 20.00     0.143 C 
HETATM    6  C6  UNL     1     -34.393   5.775   3.997  1.00 20.00     0.022 C 
HETATM    7  C7  UNL     1     -34.731   4.329   4.361  1.00 20.00     0.016 C 
HETATM    8  N8  UNL     1     -32.282   8.181   0.512  1.00 20.00    -0.172 NA
HETATM    9  N9  UNL     1     -32.788   7.206   2.768  1.00 20.00    -0.316 N 
ENDROOT
TORSDOF 0
ENDMDL
MODEL 8
REMARK VINA RESULT:      -4.0     17.748     18.248
REMARK  0 active torsions:
REMARK  status: ('A' for Active; 'I' for Inactive)
ROOT
HETATM    1  C1  UNL     1     -35.651  14.708  -5.828  1.00 20.00     0.179 C 
HETATM    2  C2  UNL     1     -32.735  15.531  -3.675  1.00 20.00    -0.010 C 
HETATM    3  C3  UNL     1     -33.345  16.386  -2.842  1.00 20.00    -0.023 C 
HETATM    4  C4  UNL     1     -33.471  14.630  -4.619  1.00 20.00     0.161 C 
HETATM    5  C5  UNL     1     -35.534  15.287  -3.407  1.00 20.00     0.143 C 
HETATM    6  C6  UNL     1     -34.843  16.490  -2.748  1.00 20.00     0.022 C 
HETATM    7  C7  UNL     1     -35.290  16.618  -1.292  1.00 20.00     0.016 C 
HETATM    8  N8  UNL     1     -36.284  14.437  -6.761  1.00 20.00    -0.172 NA
HETATM    9  N9  UNL     1     -34.914  15.023  -4.742  1.00 20.00    -0.316 N 
ENDROOT
TORSDOF 0
ENDMDL
MODEL 9
REMARK VINA RESULT:      -4.0     16.939     17.559
REMARK  0 active torsions:
REMARK  status: ('A' for Active; 'I' for Inactive)
ROOT
HETATM    1  C1  UNL     1     -35.176  16.710  -1.037  1.00 20.00     0.179 C 
HETATM    2  C2  UNL     1     -33.043  15.443  -3.804  1.00 20.00    -0.010 C 
HETATM    3  C3  UNL     1     -33.827  14.432  -4.205  1.00 20.00    -0.023 C 
HETATM    4  C4  UNL     1     -33.501  16.525  -2.875  1.00 20.00     0.161 C 
HETATM    5  C5  UNL     1     -35.793  15.631  -3.197  1.00 20.00     0.143 C 
HETATM    6  C6  UNL     1     -35.268  14.314  -3.787  1.00 20.00     0.022 C 
HETATM    7  C7  UNL     1     -36.143  13.882  -4.963  1.00 20.00     0.016 C 
HETATM    8  N8  UNL     1     -35.498  17.174  -0.024  1.00 20.00    -0.172 NA
HETATM    9  N9  UNL     1     -34.801  16.171  -2.216  1.00 20.00    -0.316 N 
ENDROOT
TORSDOF 0
ENDMDL
