MODEL 1
REMARK VINA RESULT:      -4.8      0.000      0.000
REMARK  0 active torsions:
REMARK  status: ('A' for Active; 'I' for Inactive)
ROOT
HETATM    1  C1  UNL     1     -33.051  16.588  -3.363  1.00 20.00     0.001 C 
HETATM    2  C2  UNL     1     -35.748  14.737  -6.344  1.00 20.00     0.001 C 
HETATM    3  C3  UNL     1     -32.824  15.192  -3.922  1.00 20.00     0.005 C 
HETATM    4  C4  UNL     1     -34.322  15.197  -6.039  1.00 20.00     0.005 C 
HETATM    5  C5  UNL     1     -33.953  16.607  -2.141  1.00 20.00     0.005 C 
HETATM    6  C6  UNL     1     -36.152  13.816  -5.192  1.00 20.00     0.005 C 
HETATM    7  C7  UNL     1     -36.114  16.803  -3.637  1.00 20.00     0.010 A 
HETATM    8  C8  UNL     1     -33.967  14.551  -4.696  1.00 20.00    -0.010 C 
HETATM    9  C9  UNL     1     -35.412  16.407  -2.362  1.00 20.00    -0.010 A 
HETATM   10  C10 UNL     1     -35.298  14.279  -3.996  1.00 20.00    -0.006 C 
HETATM   11  C11 UNL     1     -36.029  15.348  -3.241  1.00 20.00    -0.006 A 
ENDROOT
TORSDOF 0
ENDMDL
MODEL 2
REMARK VINA RESULT:      -4.8     17.205     18.883
REMARK  0 active torsions:
REMARK  status: ('A' for Active; 'I' for Inactive)
ROOT
HETATM    1  C1  UNL     1     -22.847  18.882   9.343  1.00 20.00     0.001 C 
HETATM    2  C2  UNL     1     -26.071  18.215  12.300  1.00 20.00     0.001 C 
HETATM    3  C3  UNL     1     -24.163  18.211   8.986  1.00 20.00     0.005 C 
HETATM    4  C4  UNL     1     -25.681  18.881  10.979  1.00 20.00     0.005 C 
HETATM    5  C5  UNL     1     -21.795  17.911   9.850  1.00 20.00     0.005 C 
HETATM    6  C6  UNL     1     -25.698  16.739  12.157  1.00 20.00     0.005 C 
HETATM    7  C7  UNL     1     -22.647  18.155  12.332  1.00 20.00     0.010 A 
HETATM    8  C8  UNL     1     -25.059  17.765  10.133  1.00 20.00    -0.010 C 
HETATM    9  C9  UNL     1     -21.956  17.385  11.234  1.00 20.00    -0.010 A 
HETATM   10  C10 UNL     1     -24.555  16.717  11.125  1.00 20.00    -0.006 C 
HETATM   11  C11 UNL     1     -23.239  16.860  11.829  1.00 20.00    -0.006 A 
ENDROOT
TORSDOF 0
ENDMDL
MODEL 3
REMARK VINA RESULT:      -4.7      1.074      3.688
REMARK  0 active torsions:
REMARK  status: ('A' for Active; 'I' for Inactive)
ROOT
HETATM    1  C1  UNL     1     -36.336  14.340  -4.897  1.00 20.00     0.001 C 
HETATM    2  C2  UNL     1     -34.324  17.106  -2.089  1.00 20.00     0.001 C 
HETATM    3  C3  UNL     1     -35.228  13.894  -3.957  1.00 20.00     0.005 C 
HETATM    4  C4  UNL     1     -35.156  15.831  -2.233  1.00 20.00     0.005 C 
HETATM    5  C5  UNL     1     -35.821  14.866  -6.226  1.00 20.00     0.005 C 
HETATM    6  C6  UNL     1     -33.116  16.930  -3.010  1.00 20.00     0.005 C 
HETATM    7  C7  UNL     1     -35.588  17.308  -5.265  1.00 20.00     0.010 A 
HETATM    8  C8  UNL     1     -34.413  14.978  -3.267  1.00 20.00    -0.010 C 
HETATM    9  C9  UNL     1     -35.202  16.220  -6.236  1.00 20.00    -0.010 A 
HETATM   10  C10 UNL     1     -33.590  15.956  -4.105  1.00 20.00    -0.006 C 
HETATM   11  C11 UNL     1     -34.193  16.730  -5.239  1.00 20.00    -0.006 A 
ENDROOT
TORSDOF 0
ENDMDL
MODEL 4
REMARK VINA RESULT:      -4.6      1.399      2.137
REMARK  0 active torsions:
REMARK  status: ('A' for Active; 'I' for Inactive)
ROOT
HETATM    1  C1  UNL     1     -34.468  17.936  -4.524  1.00 20.00     0.001 C 
HETATM    2  C2  UNL     1     -37.346  14.578  -4.353  1.00 20.00     0.001 C 
HETATM    3  C3  UNL     1     -34.791  17.068  -5.730  1.00 20.00     0.005 C 
HETATM    4  C4  UNL     1     -36.999  15.918  -5.004  1.00 20.00     0.005 C 
HETATM    5  C5  UNL     1     -33.340  17.383  -3.670  1.00 20.00     0.005 C 
HETATM    6  C6  UNL     1     -36.105  13.698  -4.508  1.00 20.00     0.005 C 
HETATM    7  C7  UNL     1     -35.018  15.938  -2.241  1.00 20.00     0.010 A 
HETATM    8  C8  UNL     1     -35.550  15.773  -5.480  1.00 20.00    -0.010 C 
HETATM    9  C9  UNL     1     -33.645  16.211  -2.804  1.00 20.00    -0.010 A 
HETATM   10  C10 UNL     1     -34.928  14.686  -4.605  1.00 20.00    -0.006 C 
HETATM   11  C11 UNL     1     -34.403  14.978  -3.231  1.00 20.00    -0.006 A 
ENDROOT
TORSDOF 0
ENDMDL
MODEL 5
REMARK VINA RESULT:      -4.6      1.836      2.886
REMARK  0 active torsions:
REMARK  status: ('A' for Active; 'I' for Inactive)
ROOT
HETATM    1  C1  UNL     1     -33.463  18.812  -0.861  1.00 20.00     0.001 C 
HETATM    2  C2  UNL     1     -34.345  16.960  -4.782  1.00 20.00     0.001 C 
HETATM    3  C3  UNL     1     -32.419  18.055  -1.665  1.00 20.00     0.005 C 
HETATM    4  C4  UNL     1     -33.491  17.979  -4.025  1.00 20.00     0.005 C 
HETATM    5  C5  UNL     1     -34.276  17.919   0.061  1.00 20.00     0.005 C 
HETATM    6  C6  UNL     1     -34.196  15.638  -4.028  1.00 20.00     0.005 C 
HETATM    7  C7  UNL     1     -36.033  17.419  -1.838  1.00 20.00     0.010 A 
HETATM    8  C8  UNL     1     -32.908  17.212  -2.834  1.00 20.00    -0.010 C 
HETATM    9  C9  UNL     1     -35.315  17.054  -0.562  1.00 20.00    -0.010 A 
HETATM   10  C10 UNL     1     -33.860  16.043  -2.580  1.00 20.00    -0.006 C 
HETATM   11  C11 UNL     1     -35.128  16.210  -1.798  1.00 20.00    -0.006 A 
ENDROOT
TORSDOF 0
ENDMDL
MODEL 6
REMARK VINA RESULT:      -4.5     16.846     18.827
REMARK  0 active torsions:
REMARK  status: ('A' for Active; 'I' for Inactive)
ROOT
HETATM    1  C1  UNL     1     -21.764  17.693  10.008  1.00 20.00     0.001 C 
HETATM    2  C2  UNL     1     -25.466  16.274  11.974  1.00 20.00     0.001 C 
HETATM    3  C3  UNL     1     -21.986  17.789  11.509  1.00 20.00     0.005 C 
HETATM    4  C4  UNL     1     -23.946  16.132  11.882  1.00 20.00     0.005 C 
HETATM    5  C5  UNL     1     -22.295  18.894   9.244  1.00 20.00     0.005 C 
HETATM    6  C6  UNL     1     -25.740  17.760  12.205  1.00 20.00     0.005 C 
HETATM    7  C7  UNL     1     -24.679  17.797   9.009  1.00 20.00     0.010 A 
HETATM    8  C8  UNL     1     -23.398  17.555  12.027  1.00 20.00    -0.010 C 
HETATM    9  C9  UNL     1     -23.769  18.999   9.067  1.00 20.00    -0.010 A 
HETATM   10  C10 UNL     1     -24.529  18.487  11.591  1.00 20.00    -0.006 C 
HETATM   11  C11 UNL     1     -24.800  18.783  10.147  1.00 20.00    -0.006 A 
ENDROOT
TORSDOF 0
ENDMDL
MODEL 7
REMARK VINA RESULT:      -4.5      1.248      2.229
REMARK  0 active torsions:
REMARK  status: ('A' for Active; 'I' for Inactive)
ROOT
HETATM    1  C1  UNL     1     -33.137  16.769  -3.419  1.00 20.00     0.001 C 
HETATM    2  C2  UNL     1     -36.103  13.736  -4.677  1.00 20.00     0.001 C 
HETATM    3  C3  UNL     1     -34.061  16.067  -2.437  1.00 20.00     0.005 C 
HETATM    4  C4  UNL     1     -34.875  14.024  -3.812  1.00 20.00     0.005 C 
HETATM    5  C5  UNL     1     -33.744  18.023  -4.024  1.00 20.00     0.005 C 
HETATM    6  C6  UNL     1     -37.134  14.807  -4.320  1.00 20.00     0.005 C 
HETATM    7  C7  UNL     1     -34.851  16.645  -5.978  1.00 20.00     0.010 A 
HETATM    8  C8  UNL     1     -35.231  15.281  -3.012  1.00 20.00    -0.010 C 
HETATM    9  C9  UNL     1     -34.793  17.845  -5.065  1.00 20.00    -0.010 A 
HETATM   10  C10 UNL     1     -36.305  16.006  -3.823  1.00 20.00    -0.006 C 
HETATM   11  C11 UNL     1     -35.959  16.892  -4.982  1.00 20.00    -0.006 A 
ENDROOT
TORSDOF 0
ENDMDL
MODEL 8
REMARK VINA RESULT:      -4.4      1.370      2.769
REMARK  0 active torsions:
REMARK  status: ('A' for Active; 'I' for Inactive)
ROOT
HETATM    1  C1  UNL     1     -35.731  18.220  -2.194  1.00 20.00     0.001 C 
HETATM    2  C2  UNL     1     -33.205  15.167  -4.164  1.00 20.00     0.001 C 
HETATM    3  C3  UNL     1     -35.173  17.014  -1.456  1.00 20.00     0.005 C 
HETATM    4  C4  UNL     1     -33.293  16.212  -3.051  1.00 20.00     0.005 C 
HETATM    5  C5  UNL     1     -37.068  17.952  -2.862  1.00 20.00     0.005 C 
HETATM    6  C6  UNL     1     -34.421  14.257  -3.987  1.00 20.00     0.005 C 
HETATM    7  C7  UNL     1     -35.894  17.090  -5.058  1.00 20.00     0.010 A 
HETATM    8  C8  UNL     1     -34.584  15.888  -2.293  1.00 20.00    -0.010 C 
HETATM    9  C9  UNL     1     -37.063  17.133  -4.105  1.00 20.00    -0.010 A 
HETATM   10  C10 UNL     1     -35.472  15.133  -3.281  1.00 20.00    -0.006 C 
HETATM   11  C11 UNL     1     -36.303  15.846  -4.305  1.00 20.00    -0.006 A 
ENDROOT
TORSDOF 0
ENDMDL
MODEL 9
REMARK VINA RESULT:      -4.4      0.860      3.451
REMARK  0 active torsions:
REMARK  status: ('A' for Active; 'I' for Inactive)
ROOT
HETATM    1  C1  UNL     1     -34.652  14.826  -5.159  1.00 20.00     0.001 C 
HETATM    2  C2  UNL     1     -36.422  17.994  -2.626  1.00 20.00     0.001 C 
HETATM    3  C3  UNL     1     -35.817  14.570  -4.216  1.00 20.00     0.005 C 
HETATM    4  C4  UNL     1     -36.674  16.969  -3.733  1.00 20.00     0.005 C 
HETATM    5  C5  UNL     1     -33.295  14.663  -4.497  1.00 20.00     0.005 C 
HETATM    6  C6  UNL     1     -35.788  17.221  -1.469  1.00 20.00     0.005 C 
HETATM    7  C7  UNL     1     -33.280  17.180  -3.716  1.00 20.00     0.010 A 
HETATM    8  C8  UNL     1     -36.137  15.643  -3.185  1.00 20.00    -0.010 C 
HETATM    9  C9  UNL     1     -32.847  15.741  -3.574  1.00 20.00    -0.010 A 
HETATM   10  C10 UNL     1     -35.095  16.015  -2.131  1.00 20.00    -0.006 C 
HETATM   11  C11 UNL     1     -33.689  16.384  -2.500  1.00 20.00    -0.006 A 
ENDROOT
TORSDOF 0
ENDMDL
