MODEL 1
REMARK VINA RESULT:      -4.5      0.000      0.000
REMARK  1 active torsions:
REMARK  status: ('A' for Active; 'I' for Inactive)
REMARK    1  A    between atoms: C6_6  and  C10_10 
ROOT
HETATM    1  C1  UNL     1     -33.439  17.766  -3.545  1.00 20.00     0.142 A 
HETATM    2  C2  UNL     1     -35.334  15.704  -2.784  1.00 20.00     0.006 C 
HETATM    3  C3  UNL     1     -35.004  16.769  -1.725  1.00 20.00     0.019 C 
HETATM    4  C4  UNL     1     -33.067  16.420  -3.165  1.00 20.00     0.076 A 
HETATM    5  C5  UNL     1     -33.961  15.214  -3.282  1.00 20.00    -0.006 C 
HETATM    6  C6  UNL     1     -33.682  17.369  -2.164  1.00 20.00     0.034 A 
HETATM    7  C7  UNL     1     -34.013  14.658  -4.694  1.00 20.00     0.011 C 
HETATM    8  O11 UNL     1     -34.149  18.223  -4.417  1.00 20.00    -0.297 OA
ENDROOT
BRANCH   6   9
HETATM    9  C10 UNL     1     -32.835  17.941  -1.067  1.00 20.00    -0.006 C 
HETATM   10  C8  UNL     1     -32.177  19.263  -1.493  1.00 20.00     0.011 C 
HETATM   11  C9  UNL     1     -33.650  18.164   0.217  1.00 20.00     0.011 C 
ENDBRANCH   6   9
TORSDOF 1
ENDMDL
MODEL 2
REMARK VINA RESULT:      -4.4      1.207      4.056
REMARK  1 active torsions:
REMARK  status: ('A' for Active; 'I' for Inactive)
REMARK    1  A    between atoms: C6_6  and  C10_10 
ROOT
HETATM    1  C1  UNL     1     -35.729  16.748  -3.131  1.00 20.00     0.142 A 
HETATM    2  C2  UNL     1     -33.289  17.853  -2.015  1.00 20.00     0.006 C 
HETATM    3  C3  UNL     1     -33.131  16.787  -3.110  1.00 20.00     0.019 C 
HETATM    4  C4  UNL     1     -35.175  16.365  -1.849  1.00 20.00     0.076 A 
HETATM    5  C5  UNL     1     -34.276  17.232  -1.008  1.00 20.00    -0.006 C 
HETATM    6  C6  UNL     1     -34.453  16.045  -3.136  1.00 20.00     0.034 A 
HETATM    7  C7  UNL     1     -35.042  18.276  -0.215  1.00 20.00     0.011 C 
HETATM    8  O11 UNL     1     -36.100  17.804  -3.601  1.00 20.00    -0.297 OA
ENDROOT
BRANCH   6   9
HETATM    9  C10 UNL     1     -34.390  14.625  -3.617  1.00 20.00    -0.006 C 
HETATM   10  C8  UNL     1     -35.626  14.257  -4.452  1.00 20.00     0.011 C 
HETATM   11  C9  UNL     1     -33.118  14.365  -4.439  1.00 20.00     0.011 C 
ENDBRANCH   6   9
TORSDOF 1
ENDMDL
MODEL 3
REMARK VINA RESULT:      -4.3      2.645      4.202
REMARK  1 active torsions:
REMARK  status: ('A' for Active; 'I' for Inactive)
REMARK    1  A    between atoms: C6_6  and  C10_10 
ROOT
HETATM    1  C1  UNL     1     -35.859  14.079  -5.111  1.00 20.00     0.142 A 
HETATM    2  C2  UNL     1     -37.175  16.661  -4.957  1.00 20.00     0.006 C 
HETATM    3  C3  UNL     1     -35.655  16.642  -4.730  1.00 20.00     0.019 C 
HETATM    4  C4  UNL     1     -36.621  14.536  -3.969  1.00 20.00     0.076 A 
HETATM    5  C5  UNL     1     -37.720  15.564  -4.024  1.00 20.00    -0.006 C 
HETATM    6  C6  UNL     1     -35.326  15.208  -4.360  1.00 20.00     0.034 A 
HETATM    7  C7  UNL     1     -39.040  14.986  -4.505  1.00 20.00     0.011 C 
HETATM    8  O11 UNL     1     -36.127  13.911  -6.283  1.00 20.00    -0.297 OA
ENDROOT
BRANCH   6   9
HETATM    9  C10 UNL     1     -34.108  15.023  -3.506  1.00 20.00    -0.006 C 
HETATM   10  C8  UNL     1     -32.891  14.600  -4.343  1.00 20.00     0.011 C 
HETATM   11  C9  UNL     1     -33.771  16.299  -2.719  1.00 20.00     0.011 C 
ENDBRANCH   6   9
TORSDOF 1
ENDMDL
MODEL 4
REMARK VINA RESULT:      -4.3      1.535      4.252
REMARK  1 active torsions:
REMARK  status: ('A' for Active; 'I' for Inactive)
REMARK    1  A    between atoms: C6_6  and  C10_10 
ROOT
HETATM    1  C1  UNL     1     -34.660  15.933  -2.294  1.00 20.00     0.142 A 
HETATM    2  C2  UNL     1     -34.025  18.378  -3.722  1.00 20.00     0.006 C 
HETATM    3  C3  UNL     1     -34.703  17.259  -4.529  1.00 20.00     0.019 C 
HETATM    4  C4  UNL     1     -33.335  16.280  -2.763  1.00 20.00     0.076 A 
HETATM    5  C5  UNL     1     -32.849  17.684  -3.008  1.00 20.00    -0.006 C 
HETATM    6  C6  UNL     1     -34.454  15.990  -3.735  1.00 20.00     0.034 A 
HETATM    7  C7  UNL     1     -32.437  18.393  -1.730  1.00 20.00     0.011 C 
HETATM    8  O11 UNL     1     -35.449  16.469  -1.543  1.00 20.00    -0.297 OA
ENDROOT
BRANCH   6   9
HETATM    9  C10 UNL     1     -34.433  14.721  -4.533  1.00 20.00    -0.006 C 
HETATM   10  C8  UNL     1     -35.690  13.874  -4.279  1.00 20.00     0.011 C 
HETATM   11  C9  UNL     1     -34.300  15.003  -6.038  1.00 20.00     0.011 C 
ENDBRANCH   6   9
TORSDOF 1
ENDMDL
MODEL 5
REMARK VINA RESULT:      -4.3      1.952      3.174
REMARK  1 active torsions:
REMARK  status: ('A' for Active; 'I' for Inactive)
REMARK    1  A    between atoms: C6_6  and  C10_10 
ROOT
HETATM    1  C1  UNL     1     -36.043  15.419  -3.735  1.00 20.00     0.142 A 
HETATM    2  C2  UNL     1     -33.721  14.656  -5.300  1.00 20.00     0.006 C 
HETATM    3  C3  UNL     1     -33.462  15.146  -3.867  1.00 20.00     0.019 C 
HETATM    4  C4  UNL     1     -35.445  16.248  -4.760  1.00 20.00     0.076 A 
HETATM    5  C5  UNL     1     -34.633  15.733  -5.918  1.00 20.00    -0.006 C 
HETATM    6  C6  UNL     1     -34.702  15.931  -3.484  1.00 20.00     0.034 A 
HETATM    7  C7  UNL     1     -35.498  15.194  -7.045  1.00 20.00     0.011 C 
HETATM    8  O11 UNL     1     -36.522  14.303  -3.734  1.00 20.00    -0.297 OA
ENDROOT
BRANCH   6   9
HETATM    9  C10 UNL     1     -34.497  17.005  -2.458  1.00 20.00    -0.006 C 
HETATM   10  C8  UNL     1     -35.201  16.664  -1.135  1.00 20.00     0.011 C 
HETATM   11  C9  UNL     1     -33.004  17.257  -2.195  1.00 20.00     0.011 C 
ENDBRANCH   6   9
TORSDOF 1
ENDMDL
MODEL 6
REMARK VINA RESULT:      -4.3     14.437     16.374
REMARK  1 active torsions:
REMARK  status: ('A' for Active; 'I' for Inactive)
REMARK    1  A    between atoms: C6_6  and  C10_10 
ROOT
HETATM    1  C1  UNL     1     -22.805  17.622   9.012  1.00 20.00     0.142 A 
HETATM    2  C2  UNL     1     -23.744  16.820  11.637  1.00 20.00     0.006 C 
HETATM    3  C3  UNL     1     -24.809  17.292  10.634  1.00 20.00     0.019 C 
HETATM    4  C4  UNL     1     -22.705  18.446  10.197  1.00 20.00     0.076 A 
HETATM    5  C5  UNL     1     -22.668  17.922  11.609  1.00 20.00    -0.006 C 
HETATM    6  C6  UNL     1     -24.049  18.101   9.600  1.00 20.00     0.034 A 
HETATM    7  C7  UNL     1     -21.295  17.412  12.009  1.00 20.00     0.011 C 
HETATM    8  O11 UNL     1     -22.392  16.517   8.722  1.00 20.00    -0.297 OA
ENDROOT
BRANCH   6   9
HETATM    9  C10 UNL     1     -24.842  19.163   8.897  1.00 20.00    -0.006 C 
HETATM   10  C8  UNL     1     -24.901  18.913   7.383  1.00 20.00     0.011 C 
HETATM   11  C9  UNL     1     -26.270  19.263   9.458  1.00 20.00     0.011 C 
ENDBRANCH   6   9
TORSDOF 1
ENDMDL
MODEL 7
REMARK VINA RESULT:      -4.3      3.180      4.792
REMARK  1 active torsions:
REMARK  status: ('A' for Active; 'I' for Inactive)
REMARK    1  A    between atoms: C6_6  and  C10_10 
ROOT
HETATM    1  C1  UNL     1     -36.099  13.831  -4.959  1.00 20.00     0.142 A 
HETATM    2  C2  UNL     1     -34.637  15.320  -2.942  1.00 20.00     0.006 C 
HETATM    3  C3  UNL     1     -36.121  15.676  -3.128  1.00 20.00     0.019 C 
HETATM    4  C4  UNL     1     -35.189  14.918  -5.251  1.00 20.00     0.076 A 
HETATM    5  C5  UNL     1     -34.050  15.348  -4.366  1.00 20.00    -0.006 C 
HETATM    6  C6  UNL     1     -36.482  15.163  -4.509  1.00 20.00     0.034 A 
HETATM    7  C7  UNL     1     -32.826  14.461  -4.514  1.00 20.00     0.011 C 
HETATM    8  O11 UNL     1     -35.974  12.764  -4.392  1.00 20.00    -0.297 OA
ENDROOT
BRANCH   6   9
HETATM    9  C10 UNL     1     -37.605  15.883  -5.195  1.00 20.00    -0.006 C 
HETATM   10  C8  UNL     1     -38.974  15.429  -4.664  1.00 20.00     0.011 C 
HETATM   11  C9  UNL     1     -37.474  17.407  -5.041  1.00 20.00     0.011 C 
ENDBRANCH   6   9
TORSDOF 1
ENDMDL
MODEL 8
REMARK VINA RESULT:      -4.2      1.605      4.285
REMARK  1 active torsions:
REMARK  status: ('A' for Active; 'I' for Inactive)
REMARK    1  A    between atoms: C6_6  and  C10_10 
ROOT
HETATM    1  C1  UNL     1     -35.870  17.179  -3.679  1.00 20.00     0.142 A 
HETATM    2  C2  UNL     1     -33.187  16.173  -3.219  1.00 20.00     0.006 C 
HETATM    3  C3  UNL     1     -34.123  15.295  -4.066  1.00 20.00     0.019 C 
HETATM    4  C4  UNL     1     -35.434  16.560  -2.445  1.00 20.00     0.076 A 
HETATM    5  C5  UNL     1     -34.009  16.514  -1.962  1.00 20.00    -0.006 C 
HETATM    6  C6  UNL     1     -35.524  15.765  -3.727  1.00 20.00     0.034 A 
HETATM    7  C7  UNL     1     -33.570  17.813  -1.309  1.00 20.00     0.011 C 
HETATM    8  O11 UNL     1     -35.496  18.150  -4.306  1.00 20.00    -0.297 OA
ENDROOT
BRANCH   6   9
HETATM    9  C10 UNL     1     -36.608  14.741  -3.889  1.00 20.00    -0.006 C 
HETATM   10  C8  UNL     1     -37.794  15.297  -4.691  1.00 20.00     0.011 C 
HETATM   11  C9  UNL     1     -36.081  13.466  -4.568  1.00 20.00     0.011 C 
ENDBRANCH   6   9
TORSDOF 1
ENDMDL
MODEL 9
REMARK VINA RESULT:      -4.1      1.623      4.362
REMARK  1 active torsions:
REMARK  status: ('A' for Active; 'I' for Inactive)
REMARK    1  A    between atoms: C6_6  and  C10_10 
ROOT
HETATM    1  C1  UNL     1     -35.799  17.192  -4.195  1.00 20.00     0.142 A 
HETATM    2  C2  UNL     1     -33.512  16.119  -2.768  1.00 20.00     0.006 C 
HETATM    3  C3  UNL     1     -33.893  15.429  -4.088  1.00 20.00     0.019 C 
HETATM    4  C4  UNL     1     -35.896  16.336  -3.032  1.00 20.00     0.076 A 
HETATM    5  C5  UNL     1     -34.831  16.196  -1.976  1.00 20.00    -0.006 C 
HETATM    6  C6  UNL     1     -35.338  15.818  -4.337  1.00 20.00     0.034 A 
HETATM    7  C7  UNL     1     -34.849  17.336  -0.973  1.00 20.00     0.011 C 
HETATM    8  O11 UNL     1     -35.279  18.271  -4.400  1.00 20.00    -0.297 OA
ENDROOT
BRANCH   6   9
HETATM    9  C10 UNL     1     -36.138  14.846  -5.152  1.00 20.00    -0.006 C 
HETATM   10  C8  UNL     1     -35.680  14.827  -6.618  1.00 20.00     0.011 C 
HETATM   11  C9  UNL     1     -36.060  13.425  -4.571  1.00 20.00     0.011 C 
ENDBRANCH   6   9
TORSDOF 1
ENDMDL
