MODEL 1
REMARK VINA RESULT:      -4.7      0.000      0.000
REMARK  1 active torsions:
REMARK  status: ('A' for Active; 'I' for Inactive)
REMARK    1  A    between atoms: C8_8  and  N9_9 
ROOT
HETATM    1  C1  UNL     1     -33.327   7.049   4.539  1.00 20.00     0.050 C 
HETATM    2  C2  UNL     1     -33.867   6.750   5.725  1.00 20.00     0.136 C 
HETATM    3  C3  UNL     1     -33.533   6.086   3.435  1.00 20.00     0.033 C 
HETATM    4  C4  UNL     1     -34.213   4.785   3.784  1.00 20.00     0.085 C 
HETATM    5  C7  UNL     1     -35.247   5.059   4.863  1.00 20.00     0.180 C 
HETATM    6  N9  UNL     1     -33.124   6.289   2.227  1.00 20.00    -0.289 NA
HETATM    7  O10 UNL     1     -34.673   5.679   6.019  1.00 20.00    -0.363 OA
ENDROOT
BRANCH   6   8
HETATM    8  C8  UNL     1     -32.434   7.554   2.032  1.00 20.00     0.108 A 
HETATM    9  C5  UNL     1     -31.902   7.860   0.660  1.00 20.00     0.029 A 
HETATM   10  C6  UNL     1     -33.104   8.593   1.179  1.00 20.00     0.029 A 
ENDBRANCH   6   8
TORSDOF 1
ENDMDL
MODEL 2
REMARK VINA RESULT:      -4.2     11.380     12.242
REMARK  1 active torsions:
REMARK  status: ('A' for Active; 'I' for Inactive)
REMARK    1  A    between atoms: C8_8  and  N9_9 
ROOT
HETATM    1  C1  UNL     1     -35.232  14.481  -3.824  1.00 20.00     0.050 C 
HETATM    2  C2  UNL     1     -36.015  13.655  -4.526  1.00 20.00     0.136 C 
HETATM    3  C3  UNL     1     -34.295  15.339  -4.582  1.00 20.00     0.033 C 
HETATM    4  C4  UNL     1     -34.206  15.102  -6.069  1.00 20.00     0.085 C 
HETATM    5  C7  UNL     1     -35.583  14.711  -6.576  1.00 20.00     0.180 C 
HETATM    6  N9  UNL     1     -33.537  16.227  -4.031  1.00 20.00    -0.289 NA
HETATM    7  O10 UNL     1     -36.109  13.569  -5.892  1.00 20.00    -0.363 OA
ENDROOT
BRANCH   6   8
HETATM    8  C8  UNL     1     -33.676  16.320  -2.586  1.00 20.00     0.108 A 
HETATM    9  C5  UNL     1     -32.951  17.431  -1.880  1.00 20.00     0.029 A 
HETATM   10  C6  UNL     1     -34.443  17.485  -2.030  1.00 20.00     0.029 A 
ENDBRANCH   6   8
TORSDOF 1
ENDMDL
MODEL 3
REMARK VINA RESULT:      -4.0     15.091     15.735
REMARK  1 active torsions:
REMARK  status: ('A' for Active; 'I' for Inactive)
REMARK    1  A    between atoms: C8_8  and  N9_9 
ROOT
HETATM    1  C1  UNL     1     -25.246  18.842   9.993  1.00 20.00     0.050 C 
HETATM    2  C2  UNL     1     -25.415  18.517  11.279  1.00 20.00     0.136 C 
HETATM    3  C3  UNL     1     -24.240  18.077   9.224  1.00 20.00     0.033 C 
HETATM    4  C4  UNL     1     -23.395  17.094   9.996  1.00 20.00     0.085 C 
HETATM    5  C7  UNL     1     -24.250  16.488  11.097  1.00 20.00     0.180 C 
HETATM    6  N9  UNL     1     -24.030  18.245   7.961  1.00 20.00    -0.289 NA
HETATM    7  O10 UNL     1     -24.815  17.485  11.955  1.00 20.00    -0.363 OA
ENDROOT
BRANCH   6   8
HETATM    8  C8  UNL     1     -24.869  19.260   7.343  1.00 20.00     0.108 A 
HETATM    9  C5  UNL     1     -25.023  19.230   5.849  1.00 20.00     0.029 A 
HETATM   10  C6  UNL     1     -26.166  18.817   6.729  1.00 20.00     0.029 A 
ENDBRANCH   6   8
TORSDOF 1
ENDMDL
MODEL 4
REMARK VINA RESULT:      -3.9     16.047     16.973
REMARK  1 active torsions:
REMARK  status: ('A' for Active; 'I' for Inactive)
REMARK    1  A    between atoms: C8_8  and  N9_9 
ROOT
HETATM    1  C1  UNL     1     -22.813  17.930  10.789  1.00 20.00     0.050 C 
HETATM    2  C2  UNL     1     -21.636  17.720  10.191  1.00 20.00     0.136 C 
HETATM    3  C3  UNL     1     -23.948  18.340   9.933  1.00 20.00     0.033 C 
HETATM    4  C4  UNL     1     -23.640  18.624   8.483  1.00 20.00     0.085 C 
HETATM    5  C7  UNL     1     -22.547  17.670   8.030  1.00 20.00     0.180 C 
HETATM    6  N9  UNL     1     -25.150  18.506  10.374  1.00 20.00    -0.289 NA
HETATM    7  O10 UNL     1     -21.374  17.762   8.845  1.00 20.00    -0.363 OA
ENDROOT
BRANCH   6   8
HETATM    8  C8  UNL     1     -25.306  18.256  11.798  1.00 20.00     0.108 A 
HETATM    9  C5  UNL     1     -26.699  18.071  12.330  1.00 20.00     0.029 A 
HETATM   10  C6  UNL     1     -25.775  16.894  12.222  1.00 20.00     0.029 A 
ENDBRANCH   6   8
TORSDOF 1
ENDMDL
MODEL 5
REMARK VINA RESULT:      -3.9     11.414     11.989
REMARK  1 active torsions:
REMARK  status: ('A' for Active; 'I' for Inactive)
REMARK    1  A    between atoms: C8_8  and  N9_9 
ROOT
HETATM    1  C1  UNL     1     -35.791  15.008  -3.499  1.00 20.00     0.050 C 
HETATM    2  C2  UNL     1     -35.979  14.293  -4.613  1.00 20.00     0.136 C 
HETATM    3  C3  UNL     1     -34.418  15.482  -3.218  1.00 20.00     0.033 C 
HETATM    4  C4  UNL     1     -33.327  14.995  -4.140  1.00 20.00     0.085 C 
HETATM    5  C7  UNL     1     -33.903  14.871  -5.540  1.00 20.00     0.180 C 
HETATM    6  N9  UNL     1     -34.116  16.237  -2.216  1.00 20.00    -0.289 NA
HETATM    7  O10 UNL     1     -35.049  14.015  -5.582  1.00 20.00    -0.363 OA
ENDROOT
BRANCH   6   8
HETATM    8  C8  UNL     1     -35.245  16.592  -1.370  1.00 20.00     0.108 A 
HETATM    9  C5  UNL     1     -34.968  17.384  -0.123  1.00 20.00     0.029 A 
HETATM   10  C6  UNL     1     -35.636  18.040  -1.295  1.00 20.00     0.029 A 
ENDBRANCH   6   8
TORSDOF 1
ENDMDL
MODEL 6
REMARK VINA RESULT:      -3.8     11.304     12.262
REMARK  1 active torsions:
REMARK  status: ('A' for Active; 'I' for Inactive)
REMARK    1  A    between atoms: C8_8  and  N9_9 
ROOT
HETATM    1  C1  UNL     1     -35.218  14.563  -4.163  1.00 20.00     0.050 C 
HETATM    2  C2  UNL     1     -36.045  13.534  -4.376  1.00 20.00     0.136 C 
HETATM    3  C3  UNL     1     -35.784  15.925  -4.267  1.00 20.00     0.033 C 
HETATM    4  C4  UNL     1     -37.212  16.035  -4.743  1.00 20.00     0.085 C 
HETATM    5  C7  UNL     1     -37.987  14.841  -4.213  1.00 20.00     0.180 C 
HETATM    6  N9  UNL     1     -35.111  16.998  -4.017  1.00 20.00    -0.289 NA
HETATM    7  O10 UNL     1     -37.397  13.595  -4.600  1.00 20.00    -0.363 OA
ENDROOT
BRANCH   6   8
HETATM    8  C8  UNL     1     -33.731  16.762  -3.621  1.00 20.00     0.108 A 
HETATM    9  C5  UNL     1     -32.885  17.955  -3.277  1.00 20.00     0.029 A 
HETATM   10  C6  UNL     1     -33.356  17.031  -2.192  1.00 20.00     0.029 A 
ENDBRANCH   6   8
TORSDOF 1
ENDMDL
MODEL 7
REMARK VINA RESULT:      -3.8     10.766     11.773
REMARK  1 active torsions:
REMARK  status: ('A' for Active; 'I' for Inactive)
REMARK    1  A    between atoms: C8_8  and  N9_9 
ROOT
HETATM    1  C1  UNL     1     -36.272  15.793  -3.449  1.00 20.00     0.050 C 
HETATM    2  C2  UNL     1     -37.349  15.150  -3.910  1.00 20.00     0.136 C 
HETATM    3  C3  UNL     1     -34.981  15.071  -3.485  1.00 20.00     0.033 C 
HETATM    4  C4  UNL     1     -35.022  13.623  -3.906  1.00 20.00     0.085 C 
HETATM    5  C7  UNL     1     -36.105  13.460  -4.959  1.00 20.00     0.180 C 
HETATM    6  N9  UNL     1     -33.857  15.602  -3.136  1.00 20.00    -0.289 NA
HETATM    7  O10 UNL     1     -37.383  13.911  -4.497  1.00 20.00    -0.363 OA
ENDROOT
BRANCH   6   8
HETATM    8  C8  UNL     1     -33.958  16.984  -2.696  1.00 20.00     0.108 A 
HETATM    9  C5  UNL     1     -32.818  17.554  -1.900  1.00 20.00     0.029 A 
HETATM   10  C6  UNL     1     -33.030  17.987  -3.321  1.00 20.00     0.029 A 
ENDBRANCH   6   8
TORSDOF 1
ENDMDL
MODEL 8
REMARK VINA RESULT:      -3.8     10.926     11.827
REMARK  1 active torsions:
REMARK  status: ('A' for Active; 'I' for Inactive)
REMARK    1  A    between atoms: C8_8  and  N9_9 
ROOT
HETATM    1  C1  UNL     1     -33.404  15.941  -3.157  1.00 20.00     0.050 C 
HETATM    2  C2  UNL     1     -33.038  15.107  -4.136  1.00 20.00     0.136 C 
HETATM    3  C3  UNL     1     -34.813  15.888  -2.709  1.00 20.00     0.033 C 
HETATM    4  C4  UNL     1     -35.745  14.999  -3.495  1.00 20.00     0.085 C 
HETATM    5  C7  UNL     1     -34.966  13.781  -3.960  1.00 20.00     0.180 C 
HETATM    6  N9  UNL     1     -35.276  16.589  -1.729  1.00 20.00    -0.289 NA
HETATM    7  O10 UNL     1     -33.808  14.136  -4.724  1.00 20.00    -0.363 OA
ENDROOT
BRANCH   6   8
HETATM    8  C8  UNL     1     -34.292  17.448  -1.089  1.00 20.00     0.108 A 
HETATM    9  C5  UNL     1     -34.707  18.848  -0.734  1.00 20.00     0.029 A 
HETATM   10  C6  UNL     1     -34.520  17.825   0.347  1.00 20.00     0.029 A 
ENDBRANCH   6   8
TORSDOF 1
ENDMDL
MODEL 9
REMARK VINA RESULT:      -3.7     16.116     16.609
REMARK  1 active torsions:
REMARK  status: ('A' for Active; 'I' for Inactive)
REMARK    1  A    between atoms: C8_8  and  N9_9 
ROOT
HETATM    1  C1  UNL     1     -25.260  18.984   9.859  1.00 20.00     0.050 C 
HETATM    2  C2  UNL     1     -26.544  19.232  10.133  1.00 20.00     0.136 C 
HETATM    3  C3  UNL     1     -24.414  18.474  10.961  1.00 20.00     0.033 C 
HETATM    4  C4  UNL     1     -25.043  18.415  12.331  1.00 20.00     0.085 C 
HETATM    5  C7  UNL     1     -26.513  18.066  12.169  1.00 20.00     0.180 C 
HETATM    6  N9  UNL     1     -23.179  18.130  10.810  1.00 20.00    -0.289 NA
HETATM    7  O10 UNL     1     -27.199  18.986  11.314  1.00 20.00    -0.363 OA
ENDROOT
BRANCH   6   8
HETATM    8  C8  UNL     1     -22.673  18.286   9.456  1.00 20.00     0.108 A 
HETATM    9  C5  UNL     1     -21.316  17.722   9.143  1.00 20.00     0.029 A 
HETATM   10  C6  UNL     1     -22.548  17.052   8.609  1.00 20.00     0.029 A 
ENDBRANCH   6   8
TORSDOF 1
ENDMDL
