MODEL 1
REMARK VINA RESULT:      -5.9      0.000      0.000
REMARK  0 active torsions:
REMARK  status: ('A' for Active; 'I' for Inactive)
ROOT
HETATM    1  C1  UNL     1     -33.259   7.342   4.131  1.00 20.00     0.022 A 
HETATM    2  C2  UNL     1     -33.042   5.478   2.455  1.00 20.00     0.022 A 
HETATM    3  C3  UNL     1     -34.186   6.635   4.794  1.00 20.00     0.054 A 
HETATM    4  C4  UNL     1     -33.969   4.774   3.121  1.00 20.00     0.054 A 
HETATM    5  C5  UNL     1     -32.590   6.856   2.870  1.00 20.00     0.135 A 
HETATM    6  C6  UNL     1     -34.656   5.280   4.355  1.00 20.00     0.280 A 
HETATM    7  C7  UNL     1     -32.844   7.847   1.734  1.00 20.00     0.061 C 
HETATM    8  F8  UNL     1     -31.240   6.827   3.077  1.00 20.00    -0.234 F 
HETATM    9  F9  UNL     1     -36.002   5.315   4.140  1.00 20.00    -0.197 F 
HETATM   10  F10 UNL     1     -34.473   4.389   5.370  1.00 20.00    -0.197 F 
ENDROOT
TORSDOF 0
ENDMDL
MODEL 2
REMARK VINA RESULT:      -5.5      0.879      3.647
REMARK  0 active torsions:
REMARK  status: ('A' for Active; 'I' for Inactive)
ROOT
HETATM    1  C1  UNL     1     -34.336   6.869   4.693  1.00 20.00     0.022 A 
HETATM    2  C2  UNL     1     -34.058   4.802   3.284  1.00 20.00     0.022 A 
HETATM    3  C3  UNL     1     -33.392   7.487   3.967  1.00 20.00     0.054 A 
HETATM    4  C4  UNL     1     -33.115   5.425   2.562  1.00 20.00     0.054 A 
HETATM    5  C5  UNL     1     -34.768   5.445   4.450  1.00 20.00     0.135 A 
HETATM    6  C6  UNL     1     -32.666   6.830   2.833  1.00 20.00     0.280 A 
HETATM    7  C7  UNL     1     -34.544   4.614   5.713  1.00 20.00     0.061 C 
HETATM    8  F8  UNL     1     -36.111   5.434   4.201  1.00 20.00    -0.234 F 
HETATM    9  F9  UNL     1     -31.326   6.834   3.089  1.00 20.00    -0.197 F 
HETATM   10  F10 UNL     1     -32.822   7.579   1.703  1.00 20.00    -0.197 F 
ENDROOT
TORSDOF 0
ENDMDL
MODEL 3
REMARK VINA RESULT:      -4.9      0.921      3.715
REMARK  0 active torsions:
REMARK  status: ('A' for Active; 'I' for Inactive)
ROOT
HETATM    1  C1  UNL     1     -33.802   4.893   3.031  1.00 20.00     0.022 A 
HETATM    2  C2  UNL     1     -34.027   6.553   4.910  1.00 20.00     0.022 A 
HETATM    3  C3  UNL     1     -32.931   5.710   2.418  1.00 20.00     0.054 A 
HETATM    4  C4  UNL     1     -33.156   7.365   4.293  1.00 20.00     0.054 A 
HETATM    5  C5  UNL     1     -34.470   5.227   4.342  1.00 20.00     0.135 A 
HETATM    6  C6  UNL     1     -32.524   7.042   2.972  1.00 20.00     0.280 A 
HETATM    7  C7  UNL     1     -35.988   5.221   4.166  1.00 20.00     0.061 C 
HETATM    8  F8  UNL     1     -34.170   4.246   5.245  1.00 20.00    -0.234 F 
HETATM    9  F9  UNL     1     -32.832   8.019   2.072  1.00 20.00    -0.197 F 
HETATM   10  F10 UNL     1     -31.166   7.080   3.099  1.00 20.00    -0.197 F 
ENDROOT
TORSDOF 0
ENDMDL
MODEL 4
REMARK VINA RESULT:      -4.8      0.992      2.157
REMARK  0 active torsions:
REMARK  status: ('A' for Active; 'I' for Inactive)
ROOT
HETATM    1  C1  UNL     1     -33.095   5.591   2.531  1.00 20.00     0.022 A 
HETATM    2  C2  UNL     1     -33.653   7.280   4.312  1.00 20.00     0.022 A 
HETATM    3  C3  UNL     1     -33.866   4.686   3.152  1.00 20.00     0.054 A 
HETATM    4  C4  UNL     1     -34.424   6.371   4.928  1.00 20.00     0.054 A 
HETATM    5  C5  UNL     1     -32.880   6.991   3.049  1.00 20.00     0.135 A 
HETATM    6  C6  UNL     1     -34.603   4.969   4.426  1.00 20.00     0.280 A 
HETATM    7  C7  UNL     1     -31.390   7.232   3.288  1.00 20.00     0.061 C 
HETATM    8  F8  UNL     1     -33.275   7.876   2.085  1.00 20.00    -0.234 F 
HETATM    9  F9  UNL     1     -34.200   4.090   5.388  1.00 20.00    -0.197 F 
HETATM   10  F10 UNL     1     -35.932   4.723   4.243  1.00 20.00    -0.197 F 
ENDROOT
TORSDOF 0
ENDMDL
MODEL 5
REMARK VINA RESULT:      -4.7      8.932      9.572
REMARK  0 active torsions:
REMARK  status: ('A' for Active; 'I' for Inactive)
ROOT
HETATM    1  C1  UNL     1     -41.356   6.950  -1.652  1.00 20.00     0.022 A 
HETATM    2  C2  UNL     1     -42.004   5.772   0.476  1.00 20.00     0.022 A 
HETATM    3  C3  UNL     1     -41.626   8.131  -1.076  1.00 20.00     0.054 A 
HETATM    4  C4  UNL     1     -42.273   6.955   1.046  1.00 20.00     0.054 A 
HETATM    5  C5  UNL     1     -41.532   5.626  -0.950  1.00 20.00     0.135 A 
HETATM    6  C6  UNL     1     -42.129   8.265   0.330  1.00 20.00     0.280 A 
HETATM    7  C7  UNL     1     -42.511   4.752  -1.732  1.00 20.00     0.061 C 
HETATM    8  F8  UNL     1     -40.332   4.973  -0.946  1.00 20.00    -0.234 F 
HETATM    9  F9  UNL     1     -43.331   8.909   0.321  1.00 20.00    -0.197 F 
HETATM   10  F10 UNL     1     -41.288   9.075   1.034  1.00 20.00    -0.197 F 
ENDROOT
TORSDOF 0
ENDMDL
MODEL 6
REMARK VINA RESULT:      -4.7     16.342     17.466
REMARK  0 active torsions:
REMARK  status: ('A' for Active; 'I' for Inactive)
ROOT
HETATM    1  C1  UNL     1     -23.193  17.717  12.077  1.00 20.00     0.022 A 
HETATM    2  C2  UNL     1     -24.804  18.132  10.188  1.00 20.00     0.022 A 
HETATM    3  C3  UNL     1     -22.176  17.704  11.202  1.00 20.00     0.054 A 
HETATM    4  C4  UNL     1     -23.784  18.119   9.318  1.00 20.00     0.054 A 
HETATM    5  C5  UNL     1     -24.633  17.913  11.671  1.00 20.00     0.135 A 
HETATM    6  C6  UNL     1     -22.359  17.887   9.726  1.00 20.00     0.280 A 
HETATM    7  C7  UNL     1     -25.464  16.710  12.116  1.00 20.00     0.061 C 
HETATM    8  F8  UNL     1     -25.126  19.003  12.332  1.00 20.00    -0.234 F 
HETATM    9  F9  UNL     1     -21.874  16.795   9.070  1.00 20.00    -0.197 F 
HETATM   10  F10 UNL     1     -21.594  18.934   9.303  1.00 20.00    -0.197 F 
ENDROOT
TORSDOF 0
ENDMDL
MODEL 7
REMARK VINA RESULT:      -4.6     11.262     12.101
REMARK  0 active torsions:
REMARK  status: ('A' for Active; 'I' for Inactive)
ROOT
HETATM    1  C1  UNL     1     -35.623  14.910  -3.210  1.00 20.00     0.022 A 
HETATM    2  C2  UNL     1     -33.669  16.448  -2.825  1.00 20.00     0.022 A 
HETATM    3  C3  UNL     1     -34.892  14.205  -4.086  1.00 20.00     0.054 A 
HETATM    4  C4  UNL     1     -32.942  15.740  -3.701  1.00 20.00     0.054 A 
HETATM    5  C5  UNL     1     -35.105  16.129  -2.489  1.00 20.00     0.135 A 
HETATM    6  C6  UNL     1     -33.477  14.550  -4.441  1.00 20.00     0.280 A 
HETATM    7  C7  UNL     1     -35.991  17.333  -2.806  1.00 20.00     0.061 C 
HETATM    8  F8  UNL     1     -35.199  15.911  -1.143  1.00 20.00    -0.234 F 
HETATM    9  F9  UNL     1     -33.389  14.776  -5.783  1.00 20.00    -0.197 F 
HETATM   10  F10 UNL     1     -32.676  13.473  -4.201  1.00 20.00    -0.197 F 
ENDROOT
TORSDOF 0
ENDMDL
MODEL 8
REMARK VINA RESULT:      -4.6      8.929      9.428
REMARK  0 active torsions:
REMARK  status: ('A' for Active; 'I' for Inactive)
ROOT
HETATM    1  C1  UNL     1     -42.290   6.731   0.992  1.00 20.00     0.022 A 
HETATM    2  C2  UNL     1     -41.501   7.988  -1.041  1.00 20.00     0.022 A 
HETATM    3  C3  UNL     1     -42.008   5.571   0.380  1.00 20.00     0.054 A 
HETATM    4  C4  UNL     1     -41.221   6.826  -1.648  1.00 20.00     0.054 A 
HETATM    5  C5  UNL     1     -42.089   8.079   0.346  1.00 20.00     0.135 A 
HETATM    6  C6  UNL     1     -41.458   5.488  -1.012  1.00 20.00     0.280 A 
HETATM    7  C7  UNL     1     -43.417   8.833   0.297  1.00 20.00     0.061 C 
HETATM    8  F8  UNL     1     -41.243   8.814   1.129  1.00 20.00    -0.234 F 
HETATM    9  F9  UNL     1     -42.308   4.761  -1.792  1.00 20.00    -0.197 F 
HETATM   10  F10 UNL     1     -40.290   4.784  -0.994  1.00 20.00    -0.197 F 
ENDROOT
TORSDOF 0
ENDMDL
MODEL 9
REMARK VINA RESULT:      -4.4     11.190     12.052
REMARK  0 active torsions:
REMARK  status: ('A' for Active; 'I' for Inactive)
ROOT
HETATM    1  C1  UNL     1     -35.435  16.208  -2.626  1.00 20.00     0.022 A 
HETATM    2  C2  UNL     1     -33.047  16.105  -3.413  1.00 20.00     0.022 A 
HETATM    3  C3  UNL     1     -35.707  15.089  -3.313  1.00 20.00     0.054 A 
HETATM    4  C4  UNL     1     -33.324  14.986  -4.098  1.00 20.00     0.054 A 
HETATM    5  C5  UNL     1     -34.076  16.862  -2.610  1.00 20.00     0.135 A 
HETATM    6  C6  UNL     1     -34.687  14.362  -4.137  1.00 20.00     0.280 A 
HETATM    7  C7  UNL     1     -34.185  18.296  -3.129  1.00 20.00     0.061 C 
HETATM    8  F8  UNL     1     -33.646  16.940  -1.315  1.00 20.00    -0.234 F 
HETATM    9  F9  UNL     1     -35.115  14.294  -5.430  1.00 20.00    -0.197 F 
HETATM   10  F10 UNL     1     -34.604  13.068  -3.713  1.00 20.00    -0.197 F 
ENDROOT
TORSDOF 0
ENDMDL
