MODEL 1
REMARK VINA RESULT:      -4.4      0.000      0.000
REMARK  1 active torsions:
REMARK  status: ('A' for Active; 'I' for Inactive)
REMARK    1  A    between atoms: C7_7  and  C11_11 
ROOT
HETATM    1  C1  UNL     1     -33.800  16.380  -2.973  1.00 20.00    -0.084 C 
HETATM    2  C2  UNL     1     -32.918  17.056  -2.229  1.00 20.00     0.014 C 
HETATM    3  C3  UNL     1     -33.533  15.866  -4.371  1.00 20.00     0.044 C 
HETATM    4  C4  UNL     1     -34.843  13.672  -3.839  1.00 20.00     0.016 A 
HETATM    5  C5  UNL     1     -35.175  15.919  -2.517  1.00 20.00     0.014 C 
HETATM    6  C6  UNL     1     -35.638  14.922  -3.562  1.00 20.00     0.003 A 
HETATM    7  C7  UNL     1     -34.657  14.902  -4.698  1.00 20.00    -0.029 A 
HETATM    8  C8  UNL     1     -36.150  17.088  -2.408  1.00 20.00     0.015 C 
ENDROOT
BRANCH   7   9
HETATM    9  C11 UNL     1     -35.146  14.879  -6.111  1.00 20.00    -0.014 C 
HETATM   10  C9  UNL     1     -36.302  15.870  -6.328  1.00 20.00     0.010 C 
HETATM   11  C10 UNL     1     -34.016  15.186  -7.108  1.00 20.00     0.010 C 
ENDBRANCH   7   9
TORSDOF 1
ENDMDL
MODEL 2
REMARK VINA RESULT:      -4.3      1.232      3.768
REMARK  1 active torsions:
REMARK  status: ('A' for Active; 'I' for Inactive)
REMARK    1  A    between atoms: C7_7  and  C11_11 
ROOT
HETATM    1  C1  UNL     1     -36.184  14.903  -4.330  1.00 20.00    -0.084 C 
HETATM    2  C2  UNL     1     -37.392  14.332  -4.282  1.00 20.00     0.014 C 
HETATM    3  C3  UNL     1     -35.375  15.310  -3.117  1.00 20.00     0.044 C 
HETATM    4  C4  UNL     1     -33.183  14.500  -4.280  1.00 20.00     0.016 A 
HETATM    5  C5  UNL     1     -35.367  15.147  -5.589  1.00 20.00     0.014 C 
HETATM    6  C6  UNL     1     -33.968  15.483  -5.110  1.00 20.00     0.003 A 
HETATM    7  C7  UNL     1     -33.972  15.604  -3.614  1.00 20.00    -0.029 A 
HETATM    8  C8  UNL     1     -35.948  16.288  -6.420  1.00 20.00     0.015 C 
ENDROOT
BRANCH   7   9
HETATM    9  C11 UNL     1     -33.235  16.722  -2.949  1.00 20.00    -0.014 C 
HETATM   10  C9  UNL     1     -33.168  17.970  -3.846  1.00 20.00     0.010 C 
HETATM   11  C10 UNL     1     -33.869  17.097  -1.599  1.00 20.00     0.010 C 
ENDBRANCH   7   9
TORSDOF 1
ENDMDL
MODEL 3
REMARK VINA RESULT:      -4.3      1.597      3.087
REMARK  1 active torsions:
REMARK  status: ('A' for Active; 'I' for Inactive)
REMARK    1  A    between atoms: C7_7  and  C11_11 
ROOT
HETATM    1  C1  UNL     1     -34.714  17.036  -1.307  1.00 20.00    -0.084 C 
HETATM    2  C2  UNL     1     -35.160  17.276  -0.069  1.00 20.00     0.014 C 
HETATM    3  C3  UNL     1     -35.156  15.875  -2.171  1.00 20.00     0.044 C 
HETATM    4  C4  UNL     1     -35.151  17.413  -4.280  1.00 20.00     0.016 A 
HETATM    5  C5  UNL     1     -33.777  17.931  -2.101  1.00 20.00     0.014 C 
HETATM    6  C6  UNL     1     -33.845  17.428  -3.530  1.00 20.00     0.003 A 
HETATM    7  C7  UNL     1     -34.661  16.169  -3.574  1.00 20.00    -0.029 A 
HETATM    8  C8  UNL     1     -32.349  17.862  -1.565  1.00 20.00     0.015 C 
ENDROOT
BRANCH   7   9
HETATM    9  C11 UNL     1     -34.203  15.005  -4.393  1.00 20.00    -0.014 C 
HETATM   10  C9  UNL     1     -32.693  14.759  -4.234  1.00 20.00     0.010 C 
HETATM   11  C10 UNL     1     -34.971  13.721  -4.035  1.00 20.00     0.010 C 
ENDBRANCH   7   9
TORSDOF 1
ENDMDL
MODEL 4
REMARK VINA RESULT:      -4.2      0.879      3.992
REMARK  1 active torsions:
REMARK  status: ('A' for Active; 'I' for Inactive)
REMARK    1  A    between atoms: C7_7  and  C11_11 
ROOT
HETATM    1  C1  UNL     1     -36.284  16.004  -5.987  1.00 20.00    -0.084 C 
HETATM    2  C2  UNL     1     -37.179  16.576  -6.800  1.00 20.00     0.014 C 
HETATM    3  C3  UNL     1     -36.209  16.231  -4.493  1.00 20.00     0.044 C 
HETATM    4  C4  UNL     1     -35.659  13.708  -4.115  1.00 20.00     0.016 A 
HETATM    5  C5  UNL     1     -35.261  14.955  -6.392  1.00 20.00     0.014 C 
HETATM    6  C6  UNL     1     -34.731  14.379  -5.094  1.00 20.00     0.003 A 
HETATM    7  C7  UNL     1     -35.286  15.163  -3.941  1.00 20.00    -0.029 A 
HETATM    8  C8  UNL     1     -34.132  15.565  -7.220  1.00 20.00     0.015 C 
ENDROOT
BRANCH   7   9
HETATM    9  C11 UNL     1     -34.399  15.551  -2.801  1.00 20.00    -0.014 C 
HETATM   10  C9  UNL     1     -33.131  16.273  -3.289  1.00 20.00     0.010 C 
HETATM   11  C10 UNL     1     -35.135  16.443  -1.787  1.00 20.00     0.010 C 
ENDBRANCH   7   9
TORSDOF 1
ENDMDL
MODEL 5
REMARK VINA RESULT:      -4.1      1.618      3.802
REMARK  1 active torsions:
REMARK  status: ('A' for Active; 'I' for Inactive)
REMARK    1  A    between atoms: C7_7  and  C11_11 
ROOT
HETATM    1  C1  UNL     1     -35.670  14.779  -4.044  1.00 20.00    -0.084 C 
HETATM    2  C2  UNL     1     -36.324  13.735  -4.565  1.00 20.00     0.014 C 
HETATM    3  C3  UNL     1     -36.250  16.167  -3.885  1.00 20.00     0.044 C 
HETATM    4  C4  UNL     1     -35.069  16.421  -1.571  1.00 20.00     0.016 A 
HETATM    5  C5  UNL     1     -34.281  14.737  -3.427  1.00 20.00     0.014 C 
HETATM    6  C6  UNL     1     -34.124  16.049  -2.684  1.00 20.00     0.003 A 
HETATM    7  C7  UNL     1     -35.305  16.928  -2.976  1.00 20.00    -0.029 A 
HETATM    8  C8  UNL     1     -33.200  14.581  -4.494  1.00 20.00     0.015 C 
ENDROOT
BRANCH   7   9
HETATM    9  C11 UNL     1     -35.106  18.382  -3.263  1.00 20.00    -0.014 C 
HETATM   10  C9  UNL     1     -33.958  18.611  -4.261  1.00 20.00     0.010 C 
HETATM   11  C10 UNL     1     -36.390  19.035  -3.803  1.00 20.00     0.010 C 
ENDBRANCH   7   9
TORSDOF 1
ENDMDL
MODEL 6
REMARK VINA RESULT:      -4.1      1.246      2.080
REMARK  1 active torsions:
REMARK  status: ('A' for Active; 'I' for Inactive)
REMARK    1  A    between atoms: C7_7  and  C11_11 
ROOT
HETATM    1  C1  UNL     1     -33.836  14.868  -4.380  1.00 20.00    -0.084 C 
HETATM    2  C2  UNL     1     -32.551  14.497  -4.348  1.00 20.00     0.014 C 
HETATM    3  C3  UNL     1     -34.640  15.083  -5.644  1.00 20.00     0.044 C 
HETATM    4  C4  UNL     1     -36.730  13.987  -4.528  1.00 20.00     0.016 A 
HETATM    5  C5  UNL     1     -34.740  15.035  -3.169  1.00 20.00     0.014 C 
HETATM    6  C6  UNL     1     -36.150  15.120  -3.721  1.00 20.00     0.003 A 
HETATM    7  C7  UNL     1     -36.093  15.171  -5.220  1.00 20.00    -0.029 A 
HETATM    8  C8  UNL     1     -34.388  16.292  -2.377  1.00 20.00     0.015 C 
ENDROOT
BRANCH   7   9
HETATM    9  C11 UNL     1     -36.966  16.125  -5.972  1.00 20.00    -0.014 C 
HETATM   10  C9  UNL     1     -36.904  17.541  -5.375  1.00 20.00     0.010 C 
HETATM   11  C10 UNL     1     -36.592  16.182  -7.463  1.00 20.00     0.010 C 
ENDBRANCH   7   9
TORSDOF 1
ENDMDL
MODEL 7
REMARK VINA RESULT:      -4.1      1.299      4.044
REMARK  1 active torsions:
REMARK  status: ('A' for Active; 'I' for Inactive)
REMARK    1  A    between atoms: C7_7  and  C11_11 
ROOT
HETATM    1  C1  UNL     1     -35.537  14.823  -4.218  1.00 20.00    -0.084 C 
HETATM    2  C2  UNL     1     -36.186  13.721  -4.608  1.00 20.00     0.014 C 
HETATM    3  C3  UNL     1     -35.326  15.233  -2.777  1.00 20.00     0.044 C 
HETATM    4  C4  UNL     1     -32.909  16.044  -3.339  1.00 20.00     0.016 A 
HETATM    5  C5  UNL     1     -34.811  15.796  -5.133  1.00 20.00     0.014 C 
HETATM    6  C6  UNL     1     -33.963  16.660  -4.221  1.00 20.00     0.003 A 
HETATM    7  C7  UNL     1     -34.287  16.338  -2.791  1.00 20.00    -0.029 A 
HETATM    8  C8  UNL     1     -35.792  16.648  -5.935  1.00 20.00     0.015 C 
ENDROOT
BRANCH   7   9
HETATM    9  C11 UNL     1     -34.449  17.439  -1.792  1.00 20.00    -0.014 C 
HETATM   10  C9  UNL     1     -35.102  18.682  -2.419  1.00 20.00     0.010 C 
HETATM   11  C10 UNL     1     -35.275  16.986  -0.577  1.00 20.00     0.010 C 
ENDBRANCH   7   9
TORSDOF 1
ENDMDL
MODEL 8
REMARK VINA RESULT:      -4.0      1.635      4.139
REMARK  1 active torsions:
REMARK  status: ('A' for Active; 'I' for Inactive)
REMARK    1  A    between atoms: C7_7  and  C11_11 
ROOT
HETATM    1  C1  UNL     1     -33.703  15.421  -3.838  1.00 20.00    -0.084 C 
HETATM    2  C2  UNL     1     -32.964  14.475  -4.429  1.00 20.00     0.014 C 
HETATM    3  C3  UNL     1     -33.198  16.366  -2.769  1.00 20.00     0.044 C 
HETATM    4  C4  UNL     1     -34.569  18.323  -3.820  1.00 20.00     0.016 A 
HETATM    5  C5  UNL     1     -35.133  15.785  -4.202  1.00 20.00     0.014 C 
HETATM    6  C6  UNL     1     -35.406  17.108  -3.512  1.00 20.00     0.003 A 
HETATM    7  C7  UNL     1     -34.245  17.453  -2.626  1.00 20.00    -0.029 A 
HETATM    8  C8  UNL     1     -36.118  14.715  -3.738  1.00 20.00     0.015 C 
ENDROOT
BRANCH   7   9
HETATM    9  C11 UNL     1     -34.484  17.992  -1.252  1.00 20.00    -0.014 C 
HETATM   10  C9  UNL     1     -35.372  17.052  -0.420  1.00 20.00     0.010 C 
HETATM   11  C10 UNL     1     -33.164  18.243  -0.502  1.00 20.00     0.010 C 
ENDBRANCH   7   9
TORSDOF 1
ENDMDL
MODEL 9
REMARK VINA RESULT:      -4.0      1.550      2.519
REMARK  1 active torsions:
REMARK  status: ('A' for Active; 'I' for Inactive)
REMARK    1  A    between atoms: C7_7  and  C11_11 
ROOT
HETATM    1  C1  UNL     1     -33.292  18.280  -2.835  1.00 20.00    -0.084 C 
HETATM    2  C2  UNL     1     -32.396  19.253  -2.638  1.00 20.00     0.014 C 
HETATM    3  C3  UNL     1     -32.963  16.805  -2.901  1.00 20.00     0.044 C 
HETATM    4  C4  UNL     1     -35.138  16.236  -1.575  1.00 20.00     0.016 A 
HETATM    5  C5  UNL     1     -34.799  18.467  -2.920  1.00 20.00     0.014 C 
HETATM    6  C6  UNL     1     -35.391  17.077  -2.800  1.00 20.00     0.003 A 
HETATM    7  C7  UNL     1     -34.283  16.064  -2.810  1.00 20.00    -0.029 A 
HETATM    8  C8  UNL     1     -35.207  19.122  -4.237  1.00 20.00     0.015 C 
ENDROOT
BRANCH   7   9
HETATM    9  C11 UNL     1     -34.418  14.811  -3.615  1.00 20.00    -0.014 C 
HETATM   10  C9  UNL     1     -35.579  14.905  -4.620  1.00 20.00     0.010 C 
HETATM   11  C10 UNL     1     -33.118  14.476  -4.366  1.00 20.00     0.010 C 
ENDBRANCH   7   9
TORSDOF 1
ENDMDL
