MODEL 1
REMARK VINA RESULT:      -4.8      0.000      0.000
REMARK  0 active torsions:
REMARK  status: ('A' for Active; 'I' for Inactive)
ROOT
HETATM    1  C1  UNL     1     -24.707  18.510   9.451  1.00 20.00     0.129 C 
HETATM    2  C2  UNL     1     -23.898  17.664  10.104  1.00 20.00     0.136 C 
HETATM    3  C3  UNL     1     -25.821  19.263  10.106  1.00 20.00     0.073 C 
HETATM    4  C4  UNL     1     -26.168  18.732  11.498  1.00 20.00     0.008 C 
HETATM    5  C5  UNL     1     -24.904  18.422  12.300  1.00 20.00     0.016 C 
HETATM    6  C6  UNL     1     -23.992  17.387  11.591  1.00 20.00     0.009 C 
HETATM    7  C7  UNL     1     -24.548  15.964  11.783  1.00 20.00     0.022 C 
HETATM    8  C8  UNL     1     -22.589  17.457  12.218  1.00 20.00     0.022 C 
HETATM    9  F9  UNL     1     -24.518  18.678   8.122  1.00 20.00    -0.208 F 
HETATM   10  F10 UNL     1     -22.940  17.026   9.390  1.00 20.00    -0.207 F 
ENDROOT
TORSDOF 0
ENDMDL
MODEL 2
REMARK VINA RESULT:      -4.4      1.692      2.659
REMARK  0 active torsions:
REMARK  status: ('A' for Active; 'I' for Inactive)
ROOT
HETATM    1  C1  UNL     1     -25.011  18.632   9.397  1.00 20.00     0.129 C 
HETATM    2  C2  UNL     1     -24.988  18.038  10.598  1.00 20.00     0.136 C 
HETATM    3  C3  UNL     1     -23.843  18.656   8.462  1.00 20.00     0.073 C 
HETATM    4  C4  UNL     1     -22.531  18.242   9.129  1.00 20.00     0.008 C 
HETATM    5  C5  UNL     1     -22.733  17.032  10.040  1.00 20.00     0.016 C 
HETATM    6  C6  UNL     1     -23.788  17.292  11.146  1.00 20.00     0.009 C 
HETATM    7  C7  UNL     1     -23.175  18.132  12.282  1.00 20.00     0.022 C 
HETATM    8  C8  UNL     1     -24.241  15.940  11.722  1.00 20.00     0.022 C 
HETATM    9  F9  UNL     1     -26.146  19.260   9.016  1.00 20.00    -0.208 F 
HETATM   10  F10 UNL     1     -26.106  18.107  11.359  1.00 20.00    -0.207 F 
ENDROOT
TORSDOF 0
ENDMDL
MODEL 3
REMARK VINA RESULT:      -4.4     22.559     23.250
REMARK  0 active torsions:
REMARK  status: ('A' for Active; 'I' for Inactive)
ROOT
HETATM    1  C1  UNL     1     -41.821   8.660   0.263  1.00 20.00     0.129 C 
HETATM    2  C2  UNL     1     -41.418   7.413   0.540  1.00 20.00     0.136 C 
HETATM    3  C3  UNL     1     -42.941   8.979  -0.676  1.00 20.00     0.073 C 
HETATM    4  C4  UNL     1     -43.358   7.789  -1.541  1.00 20.00     0.008 C 
HETATM    5  C5  UNL     1     -43.417   6.503  -0.717  1.00 20.00     0.016 C 
HETATM    6  C6  UNL     1     -42.063   6.170  -0.039  1.00 20.00     0.009 C 
HETATM    7  C7  UNL     1     -41.091   5.552  -1.061  1.00 20.00     0.022 C 
HETATM    8  C8  UNL     1     -42.313   5.149   1.083  1.00 20.00     0.022 C 
HETATM    9  F9  UNL     1     -41.168   9.689   0.849  1.00 20.00    -0.208 F 
HETATM   10  F10 UNL     1     -40.375   7.260   1.391  1.00 20.00    -0.207 F 
ENDROOT
TORSDOF 0
ENDMDL
MODEL 4
REMARK VINA RESULT:      -4.3     15.693     16.580
REMARK  0 active torsions:
REMARK  status: ('A' for Active; 'I' for Inactive)
ROOT
HETATM    1  C1  UNL     1     -32.841   7.014   3.733  1.00 20.00     0.129 C 
HETATM    2  C2  UNL     1     -33.561   5.947   3.361  1.00 20.00     0.136 C 
HETATM    3  C3  UNL     1     -32.860   7.584   5.116  1.00 20.00     0.073 C 
HETATM    4  C4  UNL     1     -34.015   7.057   5.968  1.00 20.00     0.008 C 
HETATM    5  C5  UNL     1     -34.197   5.551   5.778  1.00 20.00     0.016 C 
HETATM    6  C6  UNL     1     -34.459   5.167   4.299  1.00 20.00     0.009 C 
HETATM    7  C7  UNL     1     -35.923   5.462   3.922  1.00 20.00     0.022 C 
HETATM    8  C8  UNL     1     -34.200   3.661   4.129  1.00 20.00     0.022 C 
HETATM    9  F9  UNL     1     -32.069   7.621   2.804  1.00 20.00    -0.208 F 
HETATM   10  F10 UNL     1     -33.472   5.543   2.071  1.00 20.00    -0.207 F 
ENDROOT
TORSDOF 0
ENDMDL
MODEL 5
REMARK VINA RESULT:      -4.3     16.523     17.350
REMARK  0 active torsions:
REMARK  status: ('A' for Active; 'I' for Inactive)
ROOT
HETATM    1  C1  UNL     1     -33.026   4.915   2.634  1.00 20.00     0.129 C 
HETATM    2  C2  UNL     1     -33.948   4.599   3.553  1.00 20.00     0.136 C 
HETATM    3  C3  UNL     1     -32.490   6.299   2.441  1.00 20.00     0.073 C 
HETATM    4  C4  UNL     1     -33.324   7.370   3.144  1.00 20.00     0.008 C 
HETATM    5  C5  UNL     1     -33.733   6.917   4.545  1.00 20.00     0.016 C 
HETATM    6  C6  UNL     1     -34.542   5.595   4.528  1.00 20.00     0.009 C 
HETATM    7  C7  UNL     1     -36.001   5.865   4.114  1.00 20.00     0.022 C 
HETATM    8  C8  UNL     1     -34.536   4.996   5.945  1.00 20.00     0.022 C 
HETATM    9  F9  UNL     1     -32.566   3.934   1.825  1.00 20.00    -0.208 F 
HETATM   10  F10 UNL     1     -34.367   3.312   3.611  1.00 20.00    -0.207 F 
ENDROOT
TORSDOF 0
ENDMDL
MODEL 6
REMARK VINA RESULT:      -4.1     17.795     19.152
REMARK  0 active torsions:
REMARK  status: ('A' for Active; 'I' for Inactive)
ROOT
HETATM    1  C1  UNL     1     -33.966  14.920  -5.475  1.00 20.00     0.129 C 
HETATM    2  C2  UNL     1     -35.293  15.099  -5.516  1.00 20.00     0.136 C 
HETATM    3  C3  UNL     1     -33.150  15.052  -4.228  1.00 20.00     0.073 C 
HETATM    4  C4  UNL     1     -33.904  15.733  -3.086  1.00 20.00     0.008 C 
HETATM    5  C5  UNL     1     -35.339  15.216  -2.988  1.00 20.00     0.016 C 
HETATM    6  C6  UNL     1     -36.136  15.428  -4.301  1.00 20.00     0.009 C 
HETATM    7  C7  UNL     1     -36.598  16.892  -4.415  1.00 20.00     0.022 C 
HETATM    8  C8  UNL     1     -37.378  14.520  -4.274  1.00 20.00     0.022 C 
HETATM    9  F9  UNL     1     -33.324  14.622  -6.628  1.00 20.00    -0.208 F 
HETATM   10  F10 UNL     1     -35.912  14.972  -6.714  1.00 20.00    -0.207 F 
ENDROOT
TORSDOF 0
ENDMDL
MODEL 7
REMARK VINA RESULT:      -4.1     22.785     23.570
REMARK  0 active torsions:
REMARK  status: ('A' for Active; 'I' for Inactive)
ROOT
HETATM    1  C1  UNL     1     -41.306   5.812  -0.548  1.00 20.00     0.129 C 
HETATM    2  C2  UNL     1     -41.462   7.064  -1.001  1.00 20.00     0.136 C 
HETATM    3  C3  UNL     1     -42.045   5.259   0.629  1.00 20.00     0.073 C 
HETATM    4  C4  UNL     1     -42.734   6.336   1.467  1.00 20.00     0.008 C 
HETATM    5  C5  UNL     1     -43.417   7.374   0.577  1.00 20.00     0.016 C 
HETATM    6  C6  UNL     1     -42.427   8.064  -0.396  1.00 20.00     0.009 C 
HETATM    7  C7  UNL     1     -41.609   9.137   0.345  1.00 20.00     0.022 C 
HETATM    8  C8  UNL     1     -43.232   8.745  -1.516  1.00 20.00     0.022 C 
HETATM    9  F9  UNL     1     -40.417   5.011  -1.178  1.00 20.00    -0.208 F 
HETATM   10  F10 UNL     1     -40.716   7.450  -2.062  1.00 20.00    -0.207 F 
ENDROOT
TORSDOF 0
ENDMDL
MODEL 8
REMARK VINA RESULT:      -4.0     17.359     18.580
REMARK  0 active torsions:
REMARK  status: ('A' for Active; 'I' for Inactive)
ROOT
HETATM    1  C1  UNL     1     -36.027  14.594  -4.872  1.00 20.00     0.129 C 
HETATM    2  C2  UNL     1     -35.049  14.700  -3.961  1.00 20.00     0.136 C 
HETATM    3  C3  UNL     1     -36.804  15.761  -5.393  1.00 20.00     0.073 C 
HETATM    4  C4  UNL     1     -36.619  17.028  -4.557  1.00 20.00     0.008 C 
HETATM    5  C5  UNL     1     -35.154  17.221  -4.167  1.00 20.00     0.016 C 
HETATM    6  C6  UNL     1     -34.589  16.017  -3.369  1.00 20.00     0.009 C 
HETATM    7  C7  UNL     1     -35.060  16.078  -1.904  1.00 20.00     0.022 C 
HETATM    8  C8  UNL     1     -33.053  16.085  -3.396  1.00 20.00     0.022 C 
HETATM    9  F9  UNL     1     -36.342  13.362  -5.331  1.00 20.00    -0.208 F 
HETATM   10  F10 UNL     1     -34.438  13.563  -3.555  1.00 20.00    -0.207 F 
ENDROOT
TORSDOF 0
ENDMDL
MODEL 9
REMARK VINA RESULT:      -4.0     16.009     17.343
REMARK  0 active torsions:
REMARK  status: ('A' for Active; 'I' for Inactive)
ROOT
HETATM    1  C1  UNL     1     -33.501  15.177  -3.805  1.00 20.00     0.129 C 
HETATM    2  C2  UNL     1     -33.607  16.265  -3.031  1.00 20.00     0.136 C 
HETATM    3  C3  UNL     1     -34.677  14.444  -4.369  1.00 20.00     0.073 C 
HETATM    4  C4  UNL     1     -36.001  14.839  -3.715  1.00 20.00     0.008 C 
HETATM    5  C5  UNL     1     -36.089  16.352  -3.519  1.00 20.00     0.016 C 
HETATM    6  C6  UNL     1     -34.927  16.906  -2.655  1.00 20.00     0.009 C 
HETATM    7  C7  UNL     1     -35.191  16.628  -1.163  1.00 20.00     0.022 C 
HETATM    8  C8  UNL     1     -34.841  18.427  -2.864  1.00 20.00     0.022 C 
HETATM    9  F9  UNL     1     -32.264  14.703  -4.078  1.00 20.00    -0.208 F 
HETATM   10  F10 UNL     1     -32.465  16.824  -2.565  1.00 20.00    -0.207 F 
ENDROOT
TORSDOF 0
ENDMDL
