MODEL 1
REMARK VINA RESULT:      -4.5      0.000      0.000
REMARK  1 active torsions:
REMARK  status: ('A' for Active; 'I' for Inactive)
REMARK    1  A    between atoms: C8_8  and  C11_11 
ROOT
HETATM    1  C1  UNL     1     -34.336  18.185  -2.991  1.00 20.00    -0.081 C 
HETATM    2  C2  UNL     1     -34.724  19.046  -3.930  1.00 20.00     0.015 C 
HETATM    3  C3  UNL     1     -33.827  18.113  -0.734  1.00 20.00     0.010 C 
HETATM    4  C4  UNL     1     -32.563  17.802  -1.563  1.00 20.00     0.010 C 
HETATM    5  C5  UNL     1     -35.073  16.277  -1.907  1.00 20.00     0.014 C 
HETATM    6  C6  UNL     1     -34.979  17.797  -1.697  1.00 20.00     0.014 C 
HETATM    7  C7  UNL     1     -33.122  17.311  -2.908  1.00 20.00     0.018 C 
HETATM    8  C8  UNL     1     -33.786  15.932  -2.701  1.00 20.00    -0.002 C 
ENDROOT
BRANCH   8   9
HETATM    9  C11 UNL     1     -34.102  15.226  -4.017  1.00 20.00    -0.018 C 
HETATM   10  C9  UNL     1     -32.897  14.419  -4.497  1.00 20.00     0.010 C 
HETATM   11  C10 UNL     1     -35.324  14.323  -3.862  1.00 20.00     0.010 C 
ENDBRANCH   8   9
TORSDOF 1
ENDMDL
MODEL 2
REMARK VINA RESULT:      -4.4     11.124     13.775
REMARK  1 active torsions:
REMARK  status: ('A' for Active; 'I' for Inactive)
REMARK    1  A    between atoms: C8_8  and  C11_11 
ROOT
HETATM    1  C1  UNL     1     -42.654   5.393   0.281  1.00 20.00    -0.081 C 
HETATM    2  C2  UNL     1     -43.194   4.935   1.409  1.00 20.00     0.015 C 
HETATM    3  C3  UNL     1     -42.042   4.665  -1.830  1.00 20.00     0.010 C 
HETATM    4  C4  UNL     1     -40.786   5.087  -1.039  1.00 20.00     0.010 C 
HETATM    5  C5  UNL     1     -43.083   6.911  -1.413  1.00 20.00     0.014 C 
HETATM    6  C6  UNL     1     -43.183   5.406  -1.119  1.00 20.00     0.014 C 
HETATM    7  C7  UNL     1     -41.333   6.050   0.027  1.00 20.00     0.018 C 
HETATM    8  C8  UNL     1     -41.797   7.351  -0.664  1.00 20.00    -0.002 C 
ENDROOT
BRANCH   8   9
HETATM    9  C11 UNL     1     -42.073   8.479   0.326  1.00 20.00    -0.018 C 
HETATM   10  C9  UNL     1     -40.949   9.513   0.291  1.00 20.00     0.010 C 
HETATM   11  C10 UNL     1     -43.417   9.139   0.026  1.00 20.00     0.010 C 
ENDBRANCH   8   9
TORSDOF 1
ENDMDL
MODEL 3
REMARK VINA RESULT:      -4.4      1.258      3.763
REMARK  1 active torsions:
REMARK  status: ('A' for Active; 'I' for Inactive)
REMARK    1  A    between atoms: C8_8  and  C11_11 
ROOT
HETATM    1  C1  UNL     1     -34.973  16.623  -4.184  1.00 20.00    -0.081 C 
HETATM    2  C2  UNL     1     -35.598  17.461  -5.010  1.00 20.00     0.015 C 
HETATM    3  C3  UNL     1     -33.678  14.705  -4.230  1.00 20.00     0.010 C 
HETATM    4  C4  UNL     1     -35.025  14.408  -3.539  1.00 20.00     0.010 C 
HETATM    5  C5  UNL     1     -33.253  16.597  -2.636  1.00 20.00     0.014 C 
HETATM    6  C6  UNL     1     -33.533  16.228  -4.101  1.00 20.00     0.014 C 
HETATM    7  C7  UNL     1     -35.500  15.789  -3.058  1.00 20.00     0.018 C 
HETATM    8  C8  UNL     1     -34.582  16.262  -1.909  1.00 20.00    -0.002 C 
ENDROOT
BRANCH   8   9
HETATM    9  C11 UNL     1     -35.144  17.471  -1.165  1.00 20.00    -0.018 C 
HETATM   10  C9  UNL     1     -35.515  17.095   0.268  1.00 20.00     0.010 C 
HETATM   11  C10 UNL     1     -34.139  18.621  -1.174  1.00 20.00     0.010 C 
ENDBRANCH   8   9
TORSDOF 1
ENDMDL
MODEL 4
REMARK VINA RESULT:      -4.4      1.631      4.150
REMARK  1 active torsions:
REMARK  status: ('A' for Active; 'I' for Inactive)
REMARK    1  A    between atoms: C8_8  and  C11_11 
ROOT
HETATM    1  C1  UNL     1     -35.687  16.017  -5.099  1.00 20.00    -0.081 C 
HETATM    2  C2  UNL     1     -35.640  17.006  -5.990  1.00 20.00     0.015 C 
HETATM    3  C3  UNL     1     -36.192  13.763  -4.959  1.00 20.00     0.010 C 
HETATM    4  C4  UNL     1     -37.210  14.577  -4.133  1.00 20.00     0.010 C 
HETATM    5  C5  UNL     1     -34.296  14.815  -3.695  1.00 20.00     0.014 C 
HETATM    6  C6  UNL     1     -34.981  14.699  -5.066  1.00 20.00     0.014 C 
HETATM    7  C7  UNL     1     -36.466  15.887  -3.827  1.00 20.00     0.018 C 
HETATM    8  C8  UNL     1     -35.323  15.592  -2.830  1.00 20.00    -0.002 C 
ENDROOT
BRANCH   8   9
HETATM    9  C11 UNL     1     -34.719  16.860  -2.233  1.00 20.00    -0.018 C 
HETATM   10  C9  UNL     1     -35.104  16.996  -0.761  1.00 20.00     0.010 C 
HETATM   11  C10 UNL     1     -33.200  16.858  -2.392  1.00 20.00     0.010 C 
ENDBRANCH   8   9
TORSDOF 1
ENDMDL
MODEL 5
REMARK VINA RESULT:      -4.3      1.524      2.933
REMARK  1 active torsions:
REMARK  status: ('A' for Active; 'I' for Inactive)
REMARK    1  A    between atoms: C8_8  and  C11_11 
ROOT
HETATM    1  C1  UNL     1     -33.651  15.485  -3.827  1.00 20.00    -0.081 C 
HETATM    2  C2  UNL     1     -32.765  14.582  -4.244  1.00 20.00     0.015 C 
HETATM    3  C3  UNL     1     -33.786  17.367  -2.486  1.00 20.00     0.010 C 
HETATM    4  C4  UNL     1     -34.632  16.230  -1.875  1.00 20.00     0.010 C 
HETATM    5  C5  UNL     1     -35.026  17.150  -4.658  1.00 20.00     0.014 C 
HETATM    6  C6  UNL     1     -33.665  16.974  -3.965  1.00 20.00     0.014 C 
HETATM    7  C7  UNL     1     -34.935  15.317  -3.074  1.00 20.00     0.018 C 
HETATM    8  C8  UNL     1     -35.911  16.045  -4.025  1.00 20.00    -0.002 C 
ENDROOT
BRANCH   8   9
HETATM    9  C11 UNL     1     -36.507  15.119  -5.081  1.00 20.00    -0.018 C 
HETATM   10  C9  UNL     1     -35.846  15.356  -6.438  1.00 20.00     0.010 C 
HETATM   11  C10 UNL     1     -36.358  13.658  -4.660  1.00 20.00     0.010 C 
ENDBRANCH   8   9
TORSDOF 1
ENDMDL
MODEL 6
REMARK VINA RESULT:      -4.3      1.723      4.245
REMARK  1 active torsions:
REMARK  status: ('A' for Active; 'I' for Inactive)
REMARK    1  A    between atoms: C8_8  and  C11_11 
ROOT
HETATM    1  C1  UNL     1     -35.510  14.484  -4.979  1.00 20.00    -0.081 C 
HETATM    2  C2  UNL     1     -36.099  13.393  -4.493  1.00 20.00     0.015 C 
HETATM    3  C3  UNL     1     -35.364  15.715  -6.933  1.00 20.00     0.010 C 
HETATM    4  C4  UNL     1     -33.988  15.101  -6.601  1.00 20.00     0.010 C 
HETATM    5  C5  UNL     1     -35.463  16.776  -4.661  1.00 20.00     0.014 C 
HETATM    6  C6  UNL     1     -36.094  15.721  -5.583  1.00 20.00     0.014 C 
HETATM    7  C7  UNL     1     -34.060  14.845  -5.086  1.00 20.00     0.018 C 
HETATM    8  C8  UNL     1     -34.056  16.202  -4.348  1.00 20.00    -0.002 C 
ENDROOT
BRANCH   8   9
HETATM    9  C11 UNL     1     -33.822  16.056  -2.847  1.00 20.00    -0.018 C 
HETATM   10  C9  UNL     1     -32.850  17.124  -2.348  1.00 20.00     0.010 C 
HETATM   11  C10 UNL     1     -35.144  16.138  -2.087  1.00 20.00     0.010 C 
ENDBRANCH   8   9
TORSDOF 1
ENDMDL
MODEL 7
REMARK VINA RESULT:      -4.2      1.323      3.950
REMARK  1 active torsions:
REMARK  status: ('A' for Active; 'I' for Inactive)
REMARK    1  A    between atoms: C8_8  and  C11_11 
ROOT
HETATM    1  C1  UNL     1     -33.734  14.911  -4.478  1.00 20.00    -0.081 C 
HETATM    2  C2  UNL     1     -32.573  14.259  -4.445  1.00 20.00     0.015 C 
HETATM    3  C3  UNL     1     -35.577  15.210  -5.846  1.00 20.00     0.010 C 
HETATM    4  C4  UNL     1     -34.813  16.543  -5.702  1.00 20.00     0.010 C 
HETATM    5  C5  UNL     1     -35.752  15.016  -3.349  1.00 20.00     0.014 C 
HETATM    6  C6  UNL     1     -35.134  14.404  -4.617  1.00 20.00     0.014 C 
HETATM    7  C7  UNL     1     -34.034  16.375  -4.387  1.00 20.00     0.018 C 
HETATM    8  C8  UNL     1     -35.031  16.383  -3.208  1.00 20.00    -0.002 C 
ENDROOT
BRANCH   8   9
HETATM    9  C11 UNL     1     -34.343  16.526  -1.853  1.00 20.00    -0.018 C 
HETATM   10  C9  UNL     1     -33.165  17.494  -1.948  1.00 20.00     0.010 C 
HETATM   11  C10 UNL     1     -35.337  16.993  -0.793  1.00 20.00     0.010 C 
ENDBRANCH   8   9
TORSDOF 1
ENDMDL
MODEL 8
REMARK VINA RESULT:      -4.2      1.294      2.798
REMARK  1 active torsions:
REMARK  status: ('A' for Active; 'I' for Inactive)
REMARK    1  A    between atoms: C8_8  and  C11_11 
ROOT
HETATM    1  C1  UNL     1     -34.784  16.823  -2.049  1.00 20.00    -0.081 C 
HETATM    2  C2  UNL     1     -35.236  16.889  -0.798  1.00 20.00     0.015 C 
HETATM    3  C3  UNL     1     -33.086  17.661  -3.380  1.00 20.00     0.010 C 
HETATM    4  C4  UNL     1     -34.447  18.185  -3.882  1.00 20.00     0.010 C 
HETATM    5  C5  UNL     1     -33.909  15.296  -3.551  1.00 20.00     0.014 C 
HETATM    6  C6  UNL     1     -33.453  16.401  -2.585  1.00 20.00     0.014 C 
HETATM    7  C7  UNL     1     -35.454  17.153  -3.347  1.00 20.00     0.018 C 
HETATM    8  C8  UNL     1     -35.258  15.822  -4.107  1.00 20.00    -0.002 C 
ENDROOT
BRANCH   8   9
HETATM    9  C11 UNL     1     -36.396  14.833  -3.867  1.00 20.00    -0.018 C 
HETATM   10  C9  UNL     1     -37.731  15.434  -4.303  1.00 20.00     0.010 C 
HETATM   11  C10 UNL     1     -36.132  13.522  -4.604  1.00 20.00     0.010 C 
ENDBRANCH   8   9
TORSDOF 1
ENDMDL
MODEL 9
REMARK VINA RESULT:      -4.1      1.550      2.325
REMARK  1 active torsions:
REMARK  status: ('A' for Active; 'I' for Inactive)
REMARK    1  A    between atoms: C8_8  and  C11_11 
ROOT
HETATM    1  C1  UNL     1     -35.463  16.998  -2.916  1.00 20.00    -0.081 C 
HETATM    2  C2  UNL     1     -36.584  17.521  -2.423  1.00 20.00     0.015 C 
HETATM    3  C3  UNL     1     -33.187  16.936  -2.500  1.00 20.00     0.010 C 
HETATM    4  C4  UNL     1     -33.452  17.665  -3.833  1.00 20.00     0.010 C 
HETATM    5  C5  UNL     1     -34.478  14.941  -3.310  1.00 20.00     0.014 C 
HETATM    6  C6  UNL     1     -34.451  16.091  -2.290  1.00 20.00     0.014 C 
HETATM    7  C7  UNL     1     -34.831  17.140  -4.267  1.00 20.00     0.018 C 
HETATM    8  C8  UNL     1     -34.698  15.655  -4.669  1.00 20.00    -0.002 C 
ENDROOT
BRANCH   8   9
HETATM    9  C11 UNL     1     -35.933  15.128  -5.395  1.00 20.00    -0.018 C 
HETATM   10  C9  UNL     1     -35.614  14.843  -6.862  1.00 20.00     0.010 C 
HETATM   11  C10 UNL     1     -36.463  13.871  -4.708  1.00 20.00     0.010 C 
ENDBRANCH   8   9
TORSDOF 1
ENDMDL
