MODEL 1
REMARK VINA RESULT:      -4.9      0.000      0.000
REMARK  1 active torsions:
REMARK  status: ('A' for Active; 'I' for Inactive)
REMARK    1  A    between atoms: C4_4  and  C7_7 
ROOT
HETATM    1  C1  UNL     1     -32.851   8.500   0.486  1.00 20.00     0.014 C 
HETATM    2  C2  UNL     1     -32.766   7.851   1.492  1.00 20.00    -0.091 C 
HETATM    3  C3  UNL     1     -32.976   5.598   2.623  1.00 20.00     0.046 A 
HETATM    4  C4  UNL     1     -33.939   6.530   3.304  1.00 20.00     0.024 A 
HETATM    5  C5  UNL     1     -32.664   7.076   2.694  1.00 20.00     0.103 A 
HETATM    6 CL8  UNL     1     -31.332   7.573   3.740  1.00 20.00    -0.105 Cl
ENDROOT
BRANCH   4   7
HETATM    7  C7  UNL     1     -34.156   6.431   4.776  1.00 20.00     0.003 C 
HETATM    8  C6  UNL     1     -34.867   5.165   5.182  1.00 20.00     0.005 C 
ENDBRANCH   4   7
TORSDOF 1
ENDMDL
MODEL 2
REMARK VINA RESULT:      -4.4      1.488      3.948
REMARK  1 active torsions:
REMARK  status: ('A' for Active; 'I' for Inactive)
REMARK    1  A    between atoms: C4_4  and  C7_7 
ROOT
HETATM    1  C1  UNL     1     -34.364   6.507   5.498  1.00 20.00     0.014 C 
HETATM    2  C2  UNL     1     -33.737   6.512   4.474  1.00 20.00    -0.091 C 
HETATM    3  C3  UNL     1     -31.665   7.248   3.223  1.00 20.00     0.046 A 
HETATM    4  C4  UNL     1     -32.850   7.828   2.503  1.00 20.00     0.024 A 
HETATM    5  C5  UNL     1     -32.989   6.518   3.252  1.00 20.00     0.103 A 
HETATM    6 CL8  UNL     1     -33.097   5.001   2.355  1.00 20.00    -0.105 Cl
ENDROOT
BRANCH   4   7
HETATM    7  C7  UNL     1     -32.847   7.915   1.015  1.00 20.00     0.003 C 
HETATM    8  C6  UNL     1     -32.932   9.333   0.509  1.00 20.00     0.005 C 
ENDBRANCH   4   7
TORSDOF 1
ENDMDL
MODEL 3
REMARK VINA RESULT:      -3.9     15.821     16.653
REMARK  1 active torsions:
REMARK  status: ('A' for Active; 'I' for Inactive)
REMARK    1  A    between atoms: C4_4  and  C7_7 
ROOT
HETATM    1  C1  UNL     1     -24.967  15.672  11.986  1.00 20.00     0.014 C 
HETATM    2  C2  UNL     1     -24.150  16.404  11.498  1.00 20.00    -0.091 C 
HETATM    3  C3  UNL     1     -23.636  18.279   9.880  1.00 20.00     0.046 A 
HETATM    4  C4  UNL     1     -22.825  17.087   9.453  1.00 20.00     0.024 A 
HETATM    5  C5  UNL     1     -23.175  17.278  10.915  1.00 20.00     0.103 A 
HETATM    6 CL8  UNL     1     -21.933  17.804  12.054  1.00 20.00    -0.105 Cl
ENDROOT
BRANCH   4   7
HETATM    7  C7  UNL     1     -21.447  17.277   8.918  1.00 20.00     0.003 C 
HETATM    8  C6  UNL     1     -21.386  17.206   7.413  1.00 20.00     0.005 C 
ENDBRANCH   4   7
TORSDOF 1
ENDMDL
MODEL 4
REMARK VINA RESULT:      -3.8      9.706     10.076
REMARK  1 active torsions:
REMARK  status: ('A' for Active; 'I' for Inactive)
REMARK    1  A    between atoms: C4_4  and  C7_7 
ROOT
HETATM    1  C1  UNL     1     -41.630   8.791   0.348  1.00 20.00     0.014 C 
HETATM    2  C2  UNL     1     -41.776   7.613   0.168  1.00 20.00    -0.091 C 
HETATM    3  C3  UNL     1     -40.930   5.477  -0.890  1.00 20.00     0.046 A 
HETATM    4  C4  UNL     1     -42.304   5.734  -1.443  1.00 20.00     0.024 A 
HETATM    5  C5  UNL     1     -41.950   6.207  -0.047  1.00 20.00     0.103 A 
HETATM    6 CL8  UNL     1     -42.597   5.356   1.358  1.00 20.00    -0.105 Cl
ENDROOT
BRANCH   4   7
HETATM    7  C7  UNL     1     -43.226   4.593  -1.703  1.00 20.00     0.003 C 
HETATM    8  C6  UNL     1     -42.630   3.549  -2.613  1.00 20.00     0.005 C 
ENDBRANCH   4   7
TORSDOF 1
ENDMDL
MODEL 5
REMARK VINA RESULT:      -3.8     10.978     11.841
REMARK  1 active torsions:
REMARK  status: ('A' for Active; 'I' for Inactive)
REMARK    1  A    between atoms: C4_4  and  C7_7 
ROOT
HETATM    1  C1  UNL     1     -33.117  14.782  -4.264  1.00 20.00     0.014 C 
HETATM    2  C2  UNL     1     -33.398  15.664  -3.499  1.00 20.00    -0.091 C 
HETATM    3  C3  UNL     1     -33.655  18.145  -3.077  1.00 20.00     0.046 A 
HETATM    4  C4  UNL     1     -32.622  17.633  -2.112  1.00 20.00     0.024 A 
HETATM    5  C5  UNL     1     -33.732  16.716  -2.586  1.00 20.00     0.103 A 
HETATM    6 CL8  UNL     1     -35.058  16.306  -1.495  1.00 20.00    -0.105 Cl
ENDROOT
BRANCH   4   7
HETATM    7  C7  UNL     1     -32.560  18.183  -0.728  1.00 20.00     0.003 C 
HETATM    8  C6  UNL     1     -31.149  18.391  -0.240  1.00 20.00     0.005 C 
ENDBRANCH   4   7
TORSDOF 1
ENDMDL
MODEL 6
REMARK VINA RESULT:      -3.7     10.735     11.966
REMARK  1 active torsions:
REMARK  status: ('A' for Active; 'I' for Inactive)
REMARK    1  A    between atoms: C4_4  and  C7_7 
ROOT
HETATM    1  C1  UNL     1     -34.990  16.203  -1.860  1.00 20.00     0.014 C 
HETATM    2  C2  UNL     1     -34.803  15.536  -2.841  1.00 20.00    -0.091 C 
HETATM    3  C3  UNL     1     -33.154  14.479  -4.442  1.00 20.00     0.046 A 
HETATM    4  C4  UNL     1     -34.014  15.418  -5.242  1.00 20.00     0.024 A 
HETATM    5  C5  UNL     1     -34.580  14.739  -4.011  1.00 20.00     0.103 A 
HETATM    6 CL8  UNL     1     -35.734  13.415  -4.191  1.00 20.00    -0.105 Cl
ENDROOT
BRANCH   4   7
HETATM    7  C7  UNL     1     -34.422  15.054  -6.629  1.00 20.00     0.003 C 
HETATM    8  C6  UNL     1     -34.103  16.128  -7.637  1.00 20.00     0.005 C 
ENDBRANCH   4   7
TORSDOF 1
ENDMDL
MODEL 7
REMARK VINA RESULT:      -3.7     10.472     11.297
REMARK  1 active torsions:
REMARK  status: ('A' for Active; 'I' for Inactive)
REMARK    1  A    between atoms: C4_4  and  C7_7 
ROOT
HETATM    1  C1  UNL     1     -34.217  15.236  -7.314  1.00 20.00     0.014 C 
HETATM    2  C2  UNL     1     -34.044  15.041  -6.142  1.00 20.00    -0.091 C 
HETATM    3  C3  UNL     1     -34.961  14.191  -3.943  1.00 20.00     0.046 A 
HETATM    4  C4  UNL     1     -34.626  15.644  -3.754  1.00 20.00     0.024 A 
HETATM    5  C5  UNL     1     -33.837  14.809  -4.742  1.00 20.00     0.103 A 
HETATM    6 CL8  UNL     1     -32.191  14.305  -4.349  1.00 20.00    -0.105 Cl
ENDROOT
BRANCH   4   7
HETATM    7  C7  UNL     1     -34.062  16.115  -2.457  1.00 20.00     0.003 C 
HETATM    8  C6  UNL     1     -35.123  16.513  -1.464  1.00 20.00     0.005 C 
ENDBRANCH   4   7
TORSDOF 1
ENDMDL
MODEL 8
REMARK VINA RESULT:      -3.6     10.952     12.014
REMARK  1 active torsions:
REMARK  status: ('A' for Active; 'I' for Inactive)
REMARK    1  A    between atoms: C4_4  and  C7_7 
ROOT
HETATM    1  C1  UNL     1     -31.419  18.429  -0.580  1.00 20.00     0.014 C 
HETATM    2  C2  UNL     1     -32.167  18.094  -1.458  1.00 20.00    -0.091 C 
HETATM    3  C3  UNL     1     -34.458  17.260  -2.131  1.00 20.00     0.046 A 
HETATM    4  C4  UNL     1     -33.459  16.234  -2.587  1.00 20.00     0.024 A 
HETATM    5  C5  UNL     1     -33.059  17.694  -2.506  1.00 20.00     0.103 A 
HETATM    6 CL8  UNL     1     -32.873  18.637  -3.986  1.00 20.00    -0.105 Cl
ENDROOT
BRANCH   4   7
HETATM    7  C7  UNL     1     -33.663  15.520  -3.880  1.00 20.00     0.003 C 
HETATM    8  C6  UNL     1     -34.722  14.451  -3.800  1.00 20.00     0.005 C 
ENDBRANCH   4   7
TORSDOF 1
ENDMDL
MODEL 9
REMARK VINA RESULT:      -3.6     11.104     11.631
REMARK  1 active torsions:
REMARK  status: ('A' for Active; 'I' for Inactive)
REMARK    1  A    between atoms: C4_4  and  C7_7 
ROOT
HETATM    1  C1  UNL     1     -36.234  13.640  -4.523  1.00 20.00     0.014 C 
HETATM    2  C2  UNL     1     -35.594  14.614  -4.236  1.00 20.00    -0.091 C 
HETATM    3  C3  UNL     1     -33.349  15.615  -3.638  1.00 20.00     0.046 A 
HETATM    4  C4  UNL     1     -34.278  15.882  -2.486  1.00 20.00     0.024 A 
HETATM    5  C5  UNL     1     -34.831  15.778  -3.893  1.00 20.00     0.103 A 
HETATM    6 CL8  UNL     1     -35.351  17.235  -4.743  1.00 20.00    -0.105 Cl
ENDROOT
BRANCH   4   7
HETATM    7  C7  UNL     1     -34.189  17.172  -1.744  1.00 20.00     0.003 C 
HETATM    8  C6  UNL     1     -32.785  17.715  -1.673  1.00 20.00     0.005 C 
ENDBRANCH   4   7
TORSDOF 1
ENDMDL
