MODEL 1
REMARK VINA RESULT:      -5.9      0.000      0.000
REMARK  1 active torsions:
REMARK  status: ('A' for Active; 'I' for Inactive)
REMARK    1  A    between atoms: C9_9  and  C10_10 
ROOT
HETATM    1  C1  UNL     1     -33.048  17.961  -1.075  1.00 20.00     0.001 A 
HETATM    2  C2  UNL     1     -34.320  17.640  -0.416  1.00 20.00     0.001 A 
HETATM    3  C3  UNL     1     -32.704  17.429  -2.267  1.00 20.00     0.012 A 
HETATM    4  C4  UNL     1     -35.219  16.796  -0.961  1.00 20.00     0.012 A 
HETATM    5  C5  UNL     1     -33.550  15.854  -4.055  1.00 20.00     0.009 A 
HETATM    6  C6  UNL     1     -35.593  15.340  -2.994  1.00 20.00     0.009 A 
HETATM    7  C7  UNL     1     -33.634  16.520  -2.894  1.00 20.00    -0.028 A 
HETATM    8  C8  UNL     1     -34.898  16.201  -2.238  1.00 20.00    -0.028 A 
HETATM    9  C10 UNL     1     -34.806  15.039  -4.247  1.00 20.00     0.082 A 
HETATM   10  C11 UNL     1     -35.556  15.392  -5.521  1.00 20.00     0.035 C 
ENDROOT
BRANCH   9  11
HETATM   11  C9  UNL     1     -34.429  13.574  -4.232  1.00 20.00     0.189 C 
HETATM   12  O12 UNL     1     -33.190  13.336  -4.245  1.00 20.00    -0.647 OA
HETATM   13  O13 UNL     1     -35.407  12.776  -4.208  1.00 20.00    -0.647 OA
ENDBRANCH   9  11
TORSDOF 1
ENDMDL
MODEL 2
REMARK VINA RESULT:      -5.8      1.378      1.925
REMARK  1 active torsions:
REMARK  status: ('A' for Active; 'I' for Inactive)
REMARK    1  A    between atoms: C9_9  and  C10_10 
ROOT
HETATM    1  C1  UNL     1     -33.176  17.347  -2.149  1.00 20.00     0.001 A 
HETATM    2  C2  UNL     1     -34.426  18.115  -2.093  1.00 20.00     0.001 A 
HETATM    3  C3  UNL     1     -33.045  16.244  -2.917  1.00 20.00     0.012 A 
HETATM    4  C4  UNL     1     -35.517  17.764  -2.804  1.00 20.00     0.012 A 
HETATM    5  C5  UNL     1     -34.334  14.787  -4.532  1.00 20.00     0.009 A 
HETATM    6  C6  UNL     1     -36.342  16.022  -4.441  1.00 20.00     0.009 A 
HETATM    7  C7  UNL     1     -34.185  15.828  -3.699  1.00 20.00    -0.028 A 
HETATM    8  C8  UNL     1     -35.427  16.592  -3.644  1.00 20.00    -0.028 A 
HETATM    9  C10 UNL     1     -35.730  14.812  -5.106  1.00 20.00     0.082 A 
HETATM   10  C11 UNL     1     -35.749  14.894  -6.624  1.00 20.00     0.035 C 
ENDROOT
BRANCH   9  11
HETATM   11  C9  UNL     1     -36.465  13.582  -4.624  1.00 20.00     0.189 C 
HETATM   12  O12 UNL     1     -37.708  13.725  -4.460  1.00 20.00    -0.647 OA
HETATM   13  O13 UNL     1     -35.737  12.565  -4.446  1.00 20.00    -0.647 OA
ENDBRANCH   9  11
TORSDOF 1
ENDMDL
MODEL 3
REMARK VINA RESULT:      -5.7      1.554      2.164
REMARK  1 active torsions:
REMARK  status: ('A' for Active; 'I' for Inactive)
REMARK    1  A    between atoms: C9_9  and  C10_10 
ROOT
HETATM    1  C1  UNL     1     -35.133  17.793  -1.053  1.00 20.00     0.001 A 
HETATM    2  C2  UNL     1     -36.260  18.442  -1.732  1.00 20.00     0.001 A 
HETATM    3  C3  UNL     1     -34.559  16.668  -1.529  1.00 20.00     0.012 A 
HETATM    4  C4  UNL     1     -36.790  17.954  -2.872  1.00 20.00     0.012 A 
HETATM    5  C5  UNL     1     -34.721  15.012  -3.434  1.00 20.00     0.009 A 
HETATM    6  C6  UNL     1     -36.533  16.058  -4.525  1.00 20.00     0.009 A 
HETATM    7  C7  UNL     1     -35.089  16.106  -2.750  1.00 20.00    -0.028 A 
HETATM    8  C8  UNL     1     -36.209  16.752  -3.425  1.00 20.00    -0.028 A 
HETATM    9  C10 UNL     1     -35.601  14.877  -4.654  1.00 20.00     0.082 A 
HETATM   10  C11 UNL     1     -34.817  14.875  -5.957  1.00 20.00     0.035 C 
ENDROOT
BRANCH   9  11
HETATM   11  C9  UNL     1     -36.415  13.610  -4.513  1.00 20.00     0.189 C 
HETATM   12  O12 UNL     1     -37.666  13.775  -4.471  1.00 20.00    -0.647 OA
HETATM   13  O13 UNL     1     -35.736  12.547  -4.456  1.00 20.00    -0.647 OA
ENDBRANCH   9  11
TORSDOF 1
ENDMDL
MODEL 4
REMARK VINA RESULT:      -5.4      1.616      2.673
REMARK  1 active torsions:
REMARK  status: ('A' for Active; 'I' for Inactive)
REMARK    1  A    between atoms: C9_9  and  C10_10 
ROOT
HETATM    1  C1  UNL     1     -34.098  18.078   0.172  1.00 20.00     0.001 A 
HETATM    2  C2  UNL     1     -32.792  18.384  -0.422  1.00 20.00     0.001 A 
HETATM    3  C3  UNL     1     -34.992  17.269  -0.436  1.00 20.00     0.012 A 
HETATM    4  C4  UNL     1     -32.406  17.875  -1.611  1.00 20.00     0.012 A 
HETATM    5  C5  UNL     1     -35.309  15.879  -2.524  1.00 20.00     0.009 A 
HETATM    6  C6  UNL     1     -33.208  16.371  -3.478  1.00 20.00     0.009 A 
HETATM    7  C7  UNL     1     -34.626  16.698  -1.711  1.00 20.00    -0.028 A 
HETATM    8  C8  UNL     1     -33.327  17.002  -2.301  1.00 20.00    -0.028 A 
HETATM    9  C10 UNL     1     -34.463  15.571  -3.736  1.00 20.00     0.082 A 
HETATM   10  C11 UNL     1     -34.197  14.085  -3.916  1.00 20.00     0.035 C 
ENDROOT
BRANCH   9  11
HETATM   11  C9  UNL     1     -35.152  16.146  -4.954  1.00 20.00     0.189 C 
HETATM   12  O12 UNL     1     -36.413  16.149  -4.910  1.00 20.00    -0.647 OA
HETATM   13  O13 UNL     1     -34.372  16.551  -5.861  1.00 20.00    -0.647 OA
ENDBRANCH   9  11
TORSDOF 1
ENDMDL
MODEL 5
REMARK VINA RESULT:      -5.4      1.570      2.243
REMARK  1 active torsions:
REMARK  status: ('A' for Active; 'I' for Inactive)
REMARK    1  A    between atoms: C9_9  and  C10_10 
ROOT
HETATM    1  C1  UNL     1     -33.113  18.298  -3.801  1.00 20.00     0.001 A 
HETATM    2  C2  UNL     1     -32.954  17.565  -2.540  1.00 20.00     0.001 A 
HETATM    3  C3  UNL     1     -34.017  17.932  -4.735  1.00 20.00     0.012 A 
HETATM    4  C4  UNL     1     -33.700  16.483  -2.238  1.00 20.00     0.012 A 
HETATM    5  C5  UNL     1     -35.803  16.202  -5.196  1.00 20.00     0.009 A 
HETATM    6  C6  UNL     1     -35.546  15.025  -3.167  1.00 20.00     0.009 A 
HETATM    7  C7  UNL     1     -34.843  16.780  -4.459  1.00 20.00    -0.028 A 
HETATM    8  C8  UNL     1     -34.685  16.052  -3.204  1.00 20.00    -0.028 A 
HETATM    9  C10 UNL     1     -36.364  15.024  -4.437  1.00 20.00     0.082 A 
HETATM   10  C11 UNL     1     -37.859  15.136  -4.183  1.00 20.00     0.035 C 
ENDROOT
BRANCH   9  11
HETATM   11  C9  UNL     1     -36.042  13.764  -5.209  1.00 20.00     0.189 C 
HETATM   12  O12 UNL     1     -35.915  12.721  -4.511  1.00 20.00    -0.647 OA
HETATM   13  O13 UNL     1     -35.943  13.920  -6.459  1.00 20.00    -0.647 OA
ENDBRANCH   9  11
TORSDOF 1
ENDMDL
MODEL 6
REMARK VINA RESULT:      -5.1      2.796      4.662
REMARK  1 active torsions:
REMARK  status: ('A' for Active; 'I' for Inactive)
REMARK    1  A    between atoms: C9_9  and  C10_10 
ROOT
HETATM    1  C1  UNL     1     -34.782  14.118  -4.090  1.00 20.00     0.001 A 
HETATM    2  C2  UNL     1     -33.377  14.498  -4.276  1.00 20.00     0.001 A 
HETATM    3  C3  UNL     1     -35.611  14.809  -3.279  1.00 20.00     0.012 A 
HETATM    4  C4  UNL     1     -32.830  15.559  -3.647  1.00 20.00     0.012 A 
HETATM    5  C5  UNL     1     -35.660  16.805  -1.728  1.00 20.00     0.009 A 
HETATM    6  C6  UNL     1     -33.401  17.415  -2.027  1.00 20.00     0.009 A 
HETATM    7  C7  UNL     1     -35.074  15.955  -2.584  1.00 20.00    -0.028 A 
HETATM    8  C8  UNL     1     -33.677  16.332  -2.769  1.00 20.00    -0.028 A 
HETATM    9  C10 UNL     1     -34.650  17.840  -1.293  1.00 20.00     0.082 A 
HETATM   10  C11 UNL     1     -35.077  19.263  -1.618  1.00 20.00     0.035 C 
ENDROOT
BRANCH   9  11
HETATM   11  C9  UNL     1     -34.409  17.675   0.191  1.00 20.00     0.189 C 
HETATM   12  O12 UNL     1     -33.334  18.175   0.622  1.00 20.00    -0.647 OA
HETATM   13  O13 UNL     1     -35.320  17.056   0.809  1.00 20.00    -0.647 OA
ENDBRANCH   9  11
TORSDOF 1
ENDMDL
MODEL 7
REMARK VINA RESULT:      -4.9      2.175      3.434
REMARK  1 active torsions:
REMARK  status: ('A' for Active; 'I' for Inactive)
REMARK    1  A    between atoms: C9_9  and  C10_10 
ROOT
HETATM    1  C1  UNL     1     -30.984  18.734   1.309  1.00 20.00     0.001 A 
HETATM    2  C2  UNL     1     -32.224  18.621   2.085  1.00 20.00     0.001 A 
HETATM    3  C3  UNL     1     -30.951  18.531  -0.026  1.00 20.00     0.012 A 
HETATM    4  C4  UNL     1     -33.405  18.308   1.513  1.00 20.00     0.012 A 
HETATM    5  C5  UNL     1     -32.445  17.940  -1.979  1.00 20.00     0.009 A 
HETATM    6  C6  UNL     1     -34.438  17.759  -0.729  1.00 20.00     0.009 A 
HETATM    7  C7  UNL     1     -32.190  18.195  -0.687  1.00 20.00    -0.028 A 
HETATM    8  C8  UNL     1     -33.423  18.083   0.085  1.00 20.00    -0.028 A 
HETATM    9  C10 UNL     1     -33.917  17.649  -2.143  1.00 20.00     0.082 A 
HETATM   10  C11 UNL     1     -34.608  18.598  -3.108  1.00 20.00     0.035 C 
ENDROOT
BRANCH   9  11
HETATM   11  C9  UNL     1     -34.070  16.214  -2.596  1.00 20.00     0.189 C 
HETATM   12  O12 UNL     1     -35.125  15.637  -2.212  1.00 20.00    -0.647 OA
HETATM   13  O13 UNL     1     -33.119  15.778  -3.302  1.00 20.00    -0.647 OA
ENDBRANCH   9  11
TORSDOF 1
ENDMDL
MODEL 8
REMARK VINA RESULT:      -4.7      2.496      4.410
REMARK  1 active torsions:
REMARK  status: ('A' for Active; 'I' for Inactive)
REMARK    1  A    between atoms: C9_9  and  C10_10 
ROOT
HETATM    1  C1  UNL     1     -35.652  13.659  -4.335  1.00 20.00     0.001 A 
HETATM    2  C2  UNL     1     -36.840  14.518  -4.269  1.00 20.00     0.001 A 
HETATM    3  C3  UNL     1     -34.432  14.089  -3.945  1.00 20.00     0.012 A 
HETATM    4  C4  UNL     1     -36.785  15.787  -3.815  1.00 20.00     0.012 A 
HETATM    5  C5  UNL     1     -33.251  16.118  -3.007  1.00 20.00     0.009 A 
HETATM    6  C6  UNL     1     -35.162  17.498  -2.900  1.00 20.00     0.009 A 
HETATM    7  C7  UNL     1     -34.321  15.440  -3.450  1.00 20.00    -0.028 A 
HETATM    8  C8  UNL     1     -35.502  16.294  -3.384  1.00 20.00    -0.028 A 
HETATM    9  C10 UNL     1     -33.684  17.505  -2.593  1.00 20.00     0.082 A 
HETATM   10  C11 UNL     1     -33.378  17.815  -1.137  1.00 20.00     0.035 C 
ENDROOT
BRANCH   9  11
HETATM   11  C9  UNL     1     -33.013  18.504  -3.509  1.00 20.00     0.189 C 
HETATM   12  O12 UNL     1     -33.457  18.537  -4.690  1.00 20.00    -0.647 OA
HETATM   13  O13 UNL     1     -32.090  19.179  -2.972  1.00 20.00    -0.647 OA
ENDBRANCH   9  11
TORSDOF 1
ENDMDL
MODEL 9
REMARK VINA RESULT:      -4.7      2.305      3.535
REMARK  1 active torsions:
REMARK  status: ('A' for Active; 'I' for Inactive)
REMARK    1  A    between atoms: C9_9  and  C10_10 
ROOT
HETATM    1  C1  UNL     1     -33.028  15.187  -4.028  1.00 20.00     0.001 A 
HETATM    2  C2  UNL     1     -33.302  16.067  -2.885  1.00 20.00     0.001 A 
HETATM    3  C3  UNL     1     -33.987  14.841  -4.913  1.00 20.00     0.012 A 
HETATM    4  C4  UNL     1     -34.526  16.583  -2.652  1.00 20.00     0.012 A 
HETATM    5  C5  UNL     1     -36.441  15.191  -5.417  1.00 20.00     0.009 A 
HETATM    6  C6  UNL     1     -36.878  16.607  -3.581  1.00 20.00     0.009 A 
HETATM    7  C7  UNL     1     -35.316  15.370  -4.708  1.00 20.00    -0.028 A 
HETATM    8  C8  UNL     1     -35.587  16.245  -3.573  1.00 20.00    -0.028 A 
HETATM    9  C10 UNL     1     -37.557  15.980  -4.775  1.00 20.00     0.082 A 
HETATM   10  C11 UNL     1     -38.180  17.002  -5.712  1.00 20.00     0.035 C 
ENDROOT
BRANCH   9  11
HETATM   11  C9  UNL     1     -38.599  15.005  -4.273  1.00 20.00     0.189 C 
HETATM   12  O12 UNL     1     -39.653  15.529  -3.819  1.00 20.00    -0.647 OA
HETATM   13  O13 UNL     1     -38.277  13.788  -4.373  1.00 20.00    -0.647 OA
ENDBRANCH   9  11
TORSDOF 1
ENDMDL
