MODEL 1
REMARK VINA RESULT:      -5.1      0.000      0.000
REMARK  0 active torsions:
REMARK  status: ('A' for Active; 'I' for Inactive)
ROOT
HETATM    1  C1  UNL     1     -24.238  18.450  12.332  1.00 20.00    -0.025 C 
HETATM    2  C2  UNL     1     -25.170  18.109  11.422  1.00 20.00    -0.025 C 
HETATM    3  C3  UNL     1     -21.293  17.839   9.906  1.00 20.00    -0.022 C 
HETATM    4  C4  UNL     1     -21.679  17.854   8.610  1.00 20.00     0.007 C 
HETATM    5  C5  UNL     1     -23.877  16.261  11.879  1.00 20.00     0.018 C 
HETATM    6  C6  UNL     1     -23.038  17.525  12.127  1.00 20.00     0.017 C 
HETATM    7  C7  UNL     1     -24.671  16.885  10.690  1.00 20.00     0.016 C 
HETATM    8  C8  UNL     1     -22.519  17.970  10.737  1.00 20.00     0.023 C 
HETATM    9  C9  UNL     1     -23.199  17.769   8.471  1.00 20.00     0.198 C 
HETATM   10  C10 UNL     1     -23.443  17.129   9.813  1.00 20.00     0.039 C 
HETATM   11  F11 UNL     1     -23.766  18.995   8.395  1.00 20.00    -0.245 F 
ENDROOT
TORSDOF 0
ENDMDL
MODEL 2
REMARK VINA RESULT:      -5.0      1.250      2.277
REMARK  0 active torsions:
REMARK  status: ('A' for Active; 'I' for Inactive)
ROOT
HETATM    1  C1  UNL     1     -25.231  16.584  11.847  1.00 20.00    -0.025 C 
HETATM    2  C2  UNL     1     -23.941  16.215  11.957  1.00 20.00    -0.025 C 
HETATM    3  C3  UNL     1     -24.583  18.826   8.768  1.00 20.00    -0.022 C 
HETATM    4  C4  UNL     1     -23.429  18.514   8.135  1.00 20.00     0.007 C 
HETATM    5  C5  UNL     1     -24.092  18.480  12.332  1.00 20.00     0.018 C 
HETATM    6  C6  UNL     1     -25.253  18.051  11.420  1.00 20.00     0.017 C 
HETATM    7  C7  UNL     1     -23.091  17.443  11.734  1.00 20.00     0.016 C 
HETATM    8  C8  UNL     1     -24.664  17.980   9.988  1.00 20.00     0.023 C 
HETATM    9  C9  UNL     1     -22.543  17.606   8.988  1.00 20.00     0.198 C 
HETATM   10  C10 UNL     1     -23.144  18.001  10.312  1.00 20.00     0.039 C 
HETATM   11  F11 UNL     1     -22.755  16.299   8.716  1.00 20.00    -0.245 F 
ENDROOT
TORSDOF 0
ENDMDL
MODEL 3
REMARK VINA RESULT:      -5.0     16.695     18.211
REMARK  0 active torsions:
REMARK  status: ('A' for Active; 'I' for Inactive)
ROOT
HETATM    1  C1  UNL     1     -35.681  15.022  -5.350  1.00 20.00    -0.025 C 
HETATM    2  C2  UNL     1     -34.382  15.130  -5.689  1.00 20.00    -0.025 C 
HETATM    3  C3  UNL     1     -35.122  16.429  -1.795  1.00 20.00    -0.022 C 
HETATM    4  C4  UNL     1     -33.972  17.134  -1.693  1.00 20.00     0.007 C 
HETATM    5  C5  UNL     1     -34.571  13.603  -3.979  1.00 20.00     0.018 C 
HETATM    6  C6  UNL     1     -35.737  14.600  -3.882  1.00 20.00     0.017 C 
HETATM    7  C7  UNL     1     -33.559  14.664  -4.511  1.00 20.00     0.016 C 
HETATM    8  C8  UNL     1     -35.168  15.850  -3.164  1.00 20.00     0.023 C 
HETATM    9  C9  UNL     1     -33.056  16.900  -2.894  1.00 20.00     0.198 C 
HETATM   10  C10 UNL     1     -33.644  15.569  -3.282  1.00 20.00     0.039 C 
HETATM   11  F11 UNL     1     -33.247  17.829  -3.859  1.00 20.00    -0.245 F 
ENDROOT
TORSDOF 0
ENDMDL
MODEL 4
REMARK VINA RESULT:      -4.9     15.937     17.069
REMARK  0 active torsions:
REMARK  status: ('A' for Active; 'I' for Inactive)
ROOT
HETATM    1  C1  UNL     1     -34.139   4.782   5.826  1.00 20.00    -0.025 C 
HETATM    2  C2  UNL     1     -34.182   6.115   6.006  1.00 20.00    -0.025 C 
HETATM    3  C3  UNL     1     -33.010   5.071   2.142  1.00 20.00    -0.022 C 
HETATM    4  C4  UNL     1     -32.466   6.277   1.861  1.00 20.00     0.007 C 
HETATM    5  C5  UNL     1     -35.762   5.534   4.438  1.00 20.00     0.018 C 
HETATM    6  C6  UNL     1     -34.629   4.496   4.406  1.00 20.00     0.017 C 
HETATM    7  C7  UNL     1     -34.813   6.725   4.777  1.00 20.00     0.016 C 
HETATM    8  C8  UNL     1     -33.504   5.121   3.543  1.00 20.00     0.023 C 
HETATM    9  C9  UNL     1     -32.752   7.297   2.963  1.00 20.00     0.198 C 
HETATM   10  C10 UNL     1     -33.973   6.603   3.506  1.00 20.00     0.039 C 
HETATM   11  F11 UNL     1     -31.756   7.340   3.877  1.00 20.00    -0.245 F 
ENDROOT
TORSDOF 0
ENDMDL
MODEL 5
REMARK VINA RESULT:      -4.7     16.303     17.788
REMARK  0 active torsions:
REMARK  status: ('A' for Active; 'I' for Inactive)
ROOT
HETATM    1  C1  UNL     1     -34.522  14.089  -3.965  1.00 20.00    -0.025 C 
HETATM    2  C2  UNL     1     -35.766  14.505  -3.662  1.00 20.00    -0.025 C 
HETATM    3  C3  UNL     1     -32.830  17.127  -2.280  1.00 20.00    -0.022 C 
HETATM    4  C4  UNL     1     -33.641  17.741  -1.388  1.00 20.00     0.007 C 
HETATM    5  C5  UNL     1     -34.810  16.028  -5.097  1.00 20.00     0.018 C 
HETATM    6  C6  UNL     1     -33.694  15.329  -4.305  1.00 20.00     0.017 C 
HETATM    7  C7  UNL     1     -35.827  15.993  -3.914  1.00 20.00     0.016 C 
HETATM    8  C8  UNL     1     -33.624  16.055  -2.938  1.00 20.00     0.023 C 
HETATM    9  C9  UNL     1     -35.093  17.285  -1.535  1.00 20.00     0.198 C 
HETATM   10  C10 UNL     1     -34.970  16.832  -2.967  1.00 20.00     0.039 C 
HETATM   11  F11 UNL     1     -35.380  16.253  -0.710  1.00 20.00    -0.245 F 
ENDROOT
TORSDOF 0
ENDMDL
MODEL 6
REMARK VINA RESULT:      -4.6     23.576     24.858
REMARK  0 active torsions:
REMARK  status: ('A' for Active; 'I' for Inactive)
ROOT
HETATM    1  C1  UNL     1     -41.172   8.327  -0.328  1.00 20.00    -0.025 C 
HETATM    2  C2  UNL     1     -41.677   8.016  -1.537  1.00 20.00    -0.025 C 
HETATM    3  C3  UNL     1     -43.024   5.445   1.459  1.00 20.00    -0.022 C 
HETATM    4  C4  UNL     1     -43.417   4.474   0.603  1.00 20.00     0.007 C 
HETATM    5  C5  UNL     1     -43.405   8.654  -0.159  1.00 20.00     0.018 C 
HETATM    6  C6  UNL     1     -42.271   8.080   0.705  1.00 20.00     0.017 C 
HETATM    7  C7  UNL     1     -43.139   7.685  -1.353  1.00 20.00     0.016 C 
HETATM    8  C8  UNL     1     -42.431   6.540   0.647  1.00 20.00     0.023 C 
HETATM    9  C9  UNL     1     -43.327   4.932  -0.853  1.00 20.00     0.198 C 
HETATM   10  C10 UNL     1     -43.404   6.407  -0.558  1.00 20.00     0.039 C 
HETATM   11  F11 UNL     1     -42.141   4.597  -1.411  1.00 20.00    -0.245 F 
ENDROOT
TORSDOF 0
ENDMDL
MODEL 7
REMARK VINA RESULT:      -4.5     17.297     18.689
REMARK  0 active torsions:
REMARK  status: ('A' for Active; 'I' for Inactive)
ROOT
HETATM    1  C1  UNL     1     -33.496  17.252  -3.772  1.00 20.00    -0.025 C 
HETATM    2  C2  UNL     1     -34.723  17.806  -3.813  1.00 20.00    -0.025 C 
HETATM    3  C3  UNL     1     -34.853  13.640  -3.975  1.00 20.00    -0.022 C 
HETATM    4  C4  UNL     1     -36.112  13.588  -4.469  1.00 20.00     0.007 C 
HETATM    5  C5  UNL     1     -34.540  16.570  -1.882  1.00 20.00     0.018 C 
HETATM    6  C6  UNL     1     -33.600  15.973  -2.941  1.00 20.00     0.017 C 
HETATM    7  C7  UNL     1     -35.626  16.991  -2.919  1.00 20.00     0.016 C 
HETATM    8  C8  UNL     1     -34.488  15.075  -3.839  1.00 20.00     0.023 C 
HETATM    9  C9  UNL     1     -36.769  14.968  -4.491  1.00 20.00     0.198 C 
HETATM   10  C10 UNL     1     -35.900  15.572  -3.420  1.00 20.00     0.039 C 
HETATM   11  F11 UNL     1     -36.594  15.587  -5.681  1.00 20.00    -0.245 F 
ENDROOT
TORSDOF 0
ENDMDL
MODEL 8
REMARK VINA RESULT:      -4.5     15.915     17.380
REMARK  0 active torsions:
REMARK  status: ('A' for Active; 'I' for Inactive)
ROOT
HETATM    1  C1  UNL     1     -33.428  17.637  -1.218  1.00 20.00    -0.025 C 
HETATM    2  C2  UNL     1     -32.607  17.890  -2.255  1.00 20.00    -0.025 C 
HETATM    3  C3  UNL     1     -35.318  14.830  -3.084  1.00 20.00    -0.022 C 
HETATM    4  C4  UNL     1     -34.611  14.335  -4.126  1.00 20.00     0.007 C 
HETATM    5  C5  UNL     1     -34.762  18.395  -2.882  1.00 20.00     0.018 C 
HETATM    6  C6  UNL     1     -34.806  17.311  -1.794  1.00 20.00     0.017 C 
HETATM    7  C7  UNL     1     -33.439  17.866  -3.516  1.00 20.00     0.016 C 
HETATM    8  C8  UNL     1     -34.544  15.968  -2.521  1.00 20.00     0.023 C 
HETATM    9  C9  UNL     1     -33.428  15.234  -4.485  1.00 20.00     0.198 C 
HETATM   10  C10 UNL     1     -33.997  16.490  -3.880  1.00 20.00     0.039 C 
HETATM   11  F11 UNL     1     -32.295  14.847  -3.855  1.00 20.00    -0.245 F 
ENDROOT
TORSDOF 0
ENDMDL
MODEL 9
REMARK VINA RESULT:      -4.5     16.241     17.646
REMARK  0 active torsions:
REMARK  status: ('A' for Active; 'I' for Inactive)
ROOT
HETATM    1  C1  UNL     1     -33.888  18.625  -3.374  1.00 20.00    -0.025 C 
HETATM    2  C2  UNL     1     -35.045  18.391  -2.727  1.00 20.00    -0.025 C 
HETATM    3  C3  UNL     1     -33.266  14.886  -4.122  1.00 20.00    -0.022 C 
HETATM    4  C4  UNL     1     -34.396  14.147  -4.039  1.00 20.00     0.007 C 
HETATM    5  C5  UNL     1     -33.331  17.416  -1.542  1.00 20.00     0.018 C 
HETATM    6  C6  UNL     1     -32.930  17.486  -3.025  1.00 20.00     0.017 C 
HETATM    7  C7  UNL     1     -34.843  17.181  -1.846  1.00 20.00     0.016 C 
HETATM    8  C8  UNL     1     -33.608  16.272  -3.706  1.00 20.00     0.023 C 
HETATM    9  C9  UNL     1     -35.525  14.915  -3.352  1.00 20.00     0.198 C 
HETATM   10  C10 UNL     1     -34.632  15.872  -2.607  1.00 20.00     0.039 C 
HETATM   11  F11 UNL     1     -36.309  15.560  -4.245  1.00 20.00    -0.245 F 
ENDROOT
TORSDOF 0
ENDMDL
