MODEL 1
REMARK VINA RESULT:      -4.4      0.000      0.000
REMARK  0 active torsions:
REMARK  status: ('A' for Active; 'I' for Inactive)
ROOT
HETATM    1  C1  UNL     1     -32.453   7.144   2.325  1.00 20.00     0.013 C 
HETATM    2  C2  UNL     1     -33.162   6.394   2.937  1.00 20.00    -0.104 C 
HETATM    3  C3  UNL     1     -35.408   5.981   4.006  1.00 20.00     0.069 A 
HETATM    4  C4  UNL     1     -34.015   5.491   3.673  1.00 20.00     0.057 A 
HETATM    5  C5  UNL     1     -34.390   5.850   5.109  1.00 20.00     0.133 A 
HETATM    6  C6  UNL     1     -33.865   4.048   3.264  1.00 20.00     0.032 C 
HETATM    7 CL7  UNL     1     -34.638   4.579   6.307  1.00 20.00    -0.100 Cl
HETATM    8 CL8  UNL     1     -33.793   7.347   5.839  1.00 20.00    -0.100 Cl
ENDROOT
TORSDOF 0
ENDMDL
MODEL 2
REMARK VINA RESULT:      -4.3     16.630     17.320
REMARK  0 active torsions:
REMARK  status: ('A' for Active; 'I' for Inactive)
ROOT
HETATM    1  C1  UNL     1     -26.109  18.865  11.956  1.00 20.00     0.013 C 
HETATM    2  C2  UNL     1     -25.307  18.517  11.134  1.00 20.00    -0.104 C 
HETATM    3  C3  UNL     1     -23.915  16.646  10.175  1.00 20.00     0.069 A 
HETATM    4  C4  UNL     1     -24.343  18.098  10.145  1.00 20.00     0.057 A 
HETATM    5  C5  UNL     1     -22.942  17.710  10.611  1.00 20.00     0.133 A 
HETATM    6  C6  UNL     1     -24.546  18.735   8.793  1.00 20.00     0.032 C 
HETATM    7 CL7  UNL     1     -21.544  18.016   9.577  1.00 20.00    -0.100 Cl
HETATM    8 CL8  UNL     1     -22.525  17.769  12.329  1.00 20.00    -0.100 Cl
ENDROOT
TORSDOF 0
ENDMDL
MODEL 3
REMARK VINA RESULT:      -4.2     16.213     17.290
REMARK  0 active torsions:
REMARK  status: ('A' for Active; 'I' for Inactive)
ROOT
HETATM    1  C1  UNL     1     -21.403  17.859   8.992  1.00 20.00     0.013 C 
HETATM    2  C2  UNL     1     -22.197  17.750   9.885  1.00 20.00    -0.104 C 
HETATM    3  C3  UNL     1     -24.282  16.632  10.756  1.00 20.00     0.069 A 
HETATM    4  C4  UNL     1     -23.154  17.620  10.958  1.00 20.00     0.057 A 
HETATM    5  C5  UNL     1     -24.581  18.108  10.726  1.00 20.00     0.133 A 
HETATM    6  C6  UNL     1     -22.536  17.699  12.332  1.00 20.00     0.032 C 
HETATM    7 CL7  UNL     1     -25.519  18.782  12.061  1.00 20.00    -0.100 Cl
HETATM    8 CL8  UNL     1     -25.043  18.808   9.168  1.00 20.00    -0.100 Cl
ENDROOT
TORSDOF 0
ENDMDL
MODEL 4
REMARK VINA RESULT:      -4.1     16.321     17.104
REMARK  0 active torsions:
REMARK  status: ('A' for Active; 'I' for Inactive)
ROOT
HETATM    1  C1  UNL     1     -25.334  19.263   8.259  1.00 20.00     0.013 C 
HETATM    2  C2  UNL     1     -24.513  18.684   8.915  1.00 20.00    -0.104 C 
HETATM    3  C3  UNL     1     -23.927  16.644  10.276  1.00 20.00     0.069 A 
HETATM    4  C4  UNL     1     -23.526  17.987   9.705  1.00 20.00     0.057 A 
HETATM    5  C5  UNL     1     -23.773  17.822  11.202  1.00 20.00     0.133 A 
HETATM    6  C6  UNL     1     -22.120  18.125   9.177  1.00 20.00     0.032 C 
HETATM    7 CL7  UNL     1     -22.417  17.806  12.331  1.00 20.00    -0.100 Cl
HETATM    8 CL8  UNL     1     -25.246  18.468  11.939  1.00 20.00    -0.100 Cl
ENDROOT
TORSDOF 0
ENDMDL
MODEL 5
REMARK VINA RESULT:      -3.8     12.394     13.122
REMARK  0 active torsions:
REMARK  status: ('A' for Active; 'I' for Inactive)
ROOT
HETATM    1  C1  UNL     1     -35.150  16.376  -1.534  1.00 20.00     0.013 C 
HETATM    2  C2  UNL     1     -34.849  15.773  -2.527  1.00 20.00    -0.104 C 
HETATM    3  C3  UNL     1     -33.033  15.099  -4.141  1.00 20.00     0.069 A 
HETATM    4  C4  UNL     1     -34.487  15.049  -3.722  1.00 20.00     0.057 A 
HETATM    5  C5  UNL     1     -34.061  15.842  -4.955  1.00 20.00     0.133 A 
HETATM    6  C6  UNL     1     -35.209  13.734  -3.876  1.00 20.00     0.032 C 
HETATM    7 CL7  UNL     1     -34.422  15.235  -6.572  1.00 20.00    -0.100 Cl
HETATM    8 CL8  UNL     1     -34.008  17.610  -4.904  1.00 20.00    -0.100 Cl
ENDROOT
TORSDOF 0
ENDMDL
MODEL 6
REMARK VINA RESULT:      -3.8     16.140     16.553
REMARK  0 active torsions:
REMARK  status: ('A' for Active; 'I' for Inactive)
ROOT
HETATM    1  C1  UNL     1     -22.762  17.073   9.105  1.00 20.00     0.013 C 
HETATM    2  C2  UNL     1     -23.597  17.528   9.838  1.00 20.00    -0.104 C 
HETATM    3  C3  UNL     1     -24.213  18.256  12.172  1.00 20.00     0.069 A 
HETATM    4  C4  UNL     1     -24.600  18.075  10.720  1.00 20.00     0.057 A 
HETATM    5  C5  UNL     1     -25.192  17.173  11.800  1.00 20.00     0.133 A 
HETATM    6  C6  UNL     1     -25.440  19.155  10.085  1.00 20.00     0.032 C 
HETATM    7 CL7  UNL     1     -26.871  17.376  12.306  1.00 20.00    -0.100 Cl
HETATM    8 CL8  UNL     1     -24.646  15.499  11.962  1.00 20.00    -0.100 Cl
ENDROOT
TORSDOF 0
ENDMDL
MODEL 7
REMARK VINA RESULT:      -3.6     12.000     12.964
REMARK  0 active torsions:
REMARK  status: ('A' for Active; 'I' for Inactive)
ROOT
HETATM    1  C1  UNL     1     -34.977  16.336  -1.610  1.00 20.00     0.013 C 
HETATM    2  C2  UNL     1     -35.263  15.896  -2.689  1.00 20.00    -0.104 C 
HETATM    3  C3  UNL     1     -35.498  13.868  -4.168  1.00 20.00     0.069 A 
HETATM    4  C4  UNL     1     -35.608  15.366  -3.987  1.00 20.00     0.057 A 
HETATM    5  C5  UNL     1     -34.499  14.768  -4.848  1.00 20.00     0.133 A 
HETATM    6  C6  UNL     1     -36.782  16.060  -4.632  1.00 20.00     0.032 C 
HETATM    7 CL7  UNL     1     -34.573  14.893  -6.607  1.00 20.00    -0.100 Cl
HETATM    8 CL8  UNL     1     -32.834  14.722  -4.253  1.00 20.00    -0.100 Cl
ENDROOT
TORSDOF 0
ENDMDL
MODEL 8
REMARK VINA RESULT:      -3.6     12.658     13.097
REMARK  0 active torsions:
REMARK  status: ('A' for Active; 'I' for Inactive)
ROOT
HETATM    1  C1  UNL     1     -36.252  13.645  -4.538  1.00 20.00     0.013 C 
HETATM    2  C2  UNL     1     -35.372  14.382  -4.191  1.00 20.00    -0.104 C 
HETATM    3  C3  UNL     1     -34.451  15.909  -2.407  1.00 20.00     0.069 A 
HETATM    4  C4  UNL     1     -34.313  15.270  -3.772  1.00 20.00     0.057 A 
HETATM    5  C5  UNL     1     -34.619  16.759  -3.640  1.00 20.00     0.133 A 
HETATM    6  C6  UNL     1     -32.938  14.809  -4.188  1.00 20.00     0.032 C 
HETATM    7 CL7  UNL     1     -33.371  17.958  -3.984  1.00 20.00    -0.100 Cl
HETATM    8 CL8  UNL     1     -36.243  17.370  -3.985  1.00 20.00    -0.100 Cl
ENDROOT
TORSDOF 0
ENDMDL
MODEL 9
REMARK VINA RESULT:      -3.6     12.256     13.109
REMARK  0 active torsions:
REMARK  status: ('A' for Active; 'I' for Inactive)
ROOT
HETATM    1  C1  UNL     1     -34.782  14.089  -3.894  1.00 20.00     0.013 C 
HETATM    2  C2  UNL     1     -34.615  15.122  -3.307  1.00 20.00    -0.104 C 
HETATM    3  C3  UNL     1     -35.183  16.554  -1.310  1.00 20.00     0.069 A 
HETATM    4  C4  UNL     1     -34.415  16.366  -2.601  1.00 20.00     0.057 A 
HETATM    5  C5  UNL     1     -35.573  17.356  -2.524  1.00 20.00     0.133 A 
HETATM    6  C6  UNL     1     -32.991  16.862  -2.641  1.00 20.00     0.032 C 
HETATM    7 CL7  UNL     1     -35.259  19.092  -2.496  1.00 20.00    -0.100 Cl
HETATM    8 CL8  UNL     1     -37.126  16.972  -3.281  1.00 20.00    -0.100 Cl
ENDROOT
TORSDOF 0
ENDMDL
