MODEL 1
REMARK VINA RESULT:      -5.8      0.000      0.000
REMARK  0 active torsions:
REMARK  status: ('A' for Active; 'I' for Inactive)
ROOT
HETATM    1  C1  UNL     1     -35.080   5.062   5.607  1.00 20.00     0.001 C 
HETATM    2  C2  UNL     1     -34.252   6.298   5.986  1.00 20.00     0.005 C 
HETATM    3  C3  UNL     1     -34.747   4.740   4.143  1.00 20.00     0.005 C 
HETATM    4  C4  UNL     1     -32.511   7.723   4.704  1.00 20.00     0.011 C 
HETATM    5  C5  UNL     1     -31.710   7.669   3.393  1.00 20.00     0.079 C 
HETATM    6  C6  UNL     1     -33.235   5.882   2.374  1.00 20.00     0.084 C 
HETATM    7  C7  UNL     1     -33.758   6.844   4.653  1.00 20.00    -0.010 C 
HETATM    8  C8  UNL     1     -33.509   5.576   3.844  1.00 20.00    -0.005 C 
HETATM    9  C9  UNL     1     -32.558   7.243   2.199  1.00 20.00     0.244 C 
HETATM   10  F10 UNL     1     -31.796   7.226   1.077  1.00 20.00    -0.206 F 
HETATM   11  F11 UNL     1     -33.514   8.189   1.990  1.00 20.00    -0.206 F 
ENDROOT
TORSDOF 0
ENDMDL
MODEL 2
REMARK VINA RESULT:      -5.1     15.917     16.698
REMARK  0 active torsions:
REMARK  status: ('A' for Active; 'I' for Inactive)
ROOT
HETATM    1  C1  UNL     1     -22.086  17.764   7.855  1.00 20.00     0.001 C 
HETATM    2  C2  UNL     1     -21.565  17.361   9.242  1.00 20.00     0.005 C 
HETATM    3  C3  UNL     1     -23.509  18.302   8.058  1.00 20.00     0.005 C 
HETATM    4  C4  UNL     1     -22.573  17.507  11.622  1.00 20.00     0.011 C 
HETATM    5  C5  UNL     1     -23.778  18.145  12.332  1.00 20.00     0.079 C 
HETATM    6  C6  UNL     1     -25.038  18.536  10.138  1.00 20.00     0.084 C 
HETATM    7  C7  UNL     1     -22.807  17.348  10.122  1.00 20.00    -0.010 C 
HETATM    8  C8  UNL     1     -23.625  18.507   9.563  1.00 20.00    -0.005 C 
HETATM    9  C9  UNL     1     -25.080  17.970  11.559  1.00 20.00     0.244 C 
HETATM   10  F10 UNL     1     -26.102  18.545  12.242  1.00 20.00    -0.206 F 
HETATM   11  F11 UNL     1     -25.370  16.642  11.497  1.00 20.00    -0.206 F 
ENDROOT
TORSDOF 0
ENDMDL
MODEL 3
REMARK VINA RESULT:      -5.0      2.282      4.229
REMARK  0 active torsions:
REMARK  status: ('A' for Active; 'I' for Inactive)
ROOT
HETATM    1  C1  UNL     1     -32.179   7.669   1.808  1.00 20.00     0.001 C 
HETATM    2  C2  UNL     1     -32.606   6.229   1.493  1.00 20.00     0.005 C 
HETATM    3  C3  UNL     1     -32.656   7.970   3.236  1.00 20.00     0.005 C 
HETATM    4  C4  UNL     1     -33.807   4.397   2.875  1.00 20.00     0.011 C 
HETATM    5  C5  UNL     1     -34.239   4.140   4.327  1.00 20.00     0.079 C 
HETATM    6  C6  UNL     1     -34.001   6.604   4.981  1.00 20.00     0.084 C 
HETATM    7  C7  UNL     1     -33.603   5.883   2.590  1.00 20.00    -0.010 C 
HETATM    8  C8  UNL     1     -33.029   6.607   3.804  1.00 20.00    -0.005 C 
HETATM    9  C9  UNL     1     -34.888   5.357   4.976  1.00 20.00     0.244 C 
HETATM   10  F10 UNL     1     -35.253   5.059   6.249  1.00 20.00    -0.206 F 
HETATM   11  F11 UNL     1     -36.041   5.637   4.310  1.00 20.00    -0.206 F 
ENDROOT
TORSDOF 0
ENDMDL
MODEL 4
REMARK VINA RESULT:      -5.0      2.643      4.002
REMARK  0 active torsions:
REMARK  status: ('A' for Active; 'I' for Inactive)
ROOT
HETATM    1  C1  UNL     1     -32.586   6.343   1.811  1.00 20.00     0.001 C 
HETATM    2  C2  UNL     1     -32.337   7.266   3.013  1.00 20.00     0.005 C 
HETATM    3  C3  UNL     1     -33.616   5.298   2.263  1.00 20.00     0.005 C 
HETATM    4  C4  UNL     1     -33.335   7.372   5.400  1.00 20.00     0.011 C 
HETATM    5  C5  UNL     1     -34.489   6.747   6.201  1.00 20.00     0.079 C 
HETATM    6  C6  UNL     1     -34.808   4.843   4.519  1.00 20.00     0.084 C 
HETATM    7  C7  UNL     1     -32.947   6.522   4.193  1.00 20.00    -0.010 C 
HETATM    8  C8  UNL     1     -34.168   5.852   3.571  1.00 20.00    -0.005 C 
HETATM    9  C9  UNL     1     -34.614   5.243   5.983  1.00 20.00     0.244 C 
HETATM   10  F10 UNL     1     -35.641   4.755   6.724  1.00 20.00    -0.206 F 
HETATM   11  F11 UNL     1     -33.489   4.644   6.459  1.00 20.00    -0.206 F 
ENDROOT
TORSDOF 0
ENDMDL
MODEL 5
REMARK VINA RESULT:      -5.0     11.290     11.911
REMARK  0 active torsions:
REMARK  status: ('A' for Active; 'I' for Inactive)
ROOT
HETATM    1  C1  UNL     1     -33.963  17.735  -1.106  1.00 20.00     0.001 C 
HETATM    2  C2  UNL     1     -32.888  17.230  -2.080  1.00 20.00     0.005 C 
HETATM    3  C3  UNL     1     -35.250  16.964  -1.432  1.00 20.00     0.005 C 
HETATM    4  C4  UNL     1     -32.888  15.421  -3.932  1.00 20.00     0.011 C 
HETATM    5  C5  UNL     1     -33.791  14.287  -4.444  1.00 20.00     0.079 C 
HETATM    6  C6  UNL     1     -35.853  15.197  -3.230  1.00 20.00     0.084 C 
HETATM    7  C7  UNL     1     -33.669  16.466  -3.140  1.00 20.00    -0.010 C 
HETATM    8  C8  UNL     1     -34.791  15.824  -2.332  1.00 20.00    -0.005 C 
HETATM    9  C9  UNL     1     -35.255  14.698  -4.547  1.00 20.00     0.244 C 
HETATM   10  F10 UNL     1     -35.993  13.658  -5.012  1.00 20.00    -0.206 F 
HETATM   11  F11 UNL     1     -35.362  15.682  -5.481  1.00 20.00    -0.206 F 
ENDROOT
TORSDOF 0
ENDMDL
MODEL 6
REMARK VINA RESULT:      -4.8     11.199     11.882
REMARK  0 active torsions:
REMARK  status: ('A' for Active; 'I' for Inactive)
ROOT
HETATM    1  C1  UNL     1     -34.019  17.621  -0.771  1.00 20.00     0.001 C 
HETATM    2  C2  UNL     1     -35.285  16.849  -1.169  1.00 20.00     0.005 C 
HETATM    3  C3  UNL     1     -32.988  17.383  -1.883  1.00 20.00     0.005 C 
HETATM    4  C4  UNL     1     -35.912  15.427  -3.240  1.00 20.00     0.011 C 
HETATM    5  C5  UNL     1     -35.357  15.111  -4.639  1.00 20.00     0.079 C 
HETATM    6  C6  UNL     1     -33.016  15.966  -4.054  1.00 20.00     0.084 C 
HETATM    7  C7  UNL     1     -34.827  15.926  -2.290  1.00 20.00    -0.010 C 
HETATM    8  C8  UNL     1     -33.796  16.778  -3.024  1.00 20.00    -0.005 C 
HETATM    9  C9  UNL     1     -33.860  14.827  -4.631  1.00 20.00     0.244 C 
HETATM   10  F10 UNL     1     -33.438  14.547  -5.890  1.00 20.00    -0.206 F 
HETATM   11  F11 UNL     1     -33.638  13.701  -3.900  1.00 20.00    -0.206 F 
ENDROOT
TORSDOF 0
ENDMDL
MODEL 7
REMARK VINA RESULT:      -4.6      0.966      2.204
REMARK  0 active torsions:
REMARK  status: ('A' for Active; 'I' for Inactive)
ROOT
HETATM    1  C1  UNL     1     -34.773   5.090   6.162  1.00 20.00     0.001 C 
HETATM    2  C2  UNL     1     -34.525   4.279   4.882  1.00 20.00     0.005 C 
HETATM    3  C3  UNL     1     -34.323   6.528   5.868  1.00 20.00     0.005 C 
HETATM    4  C4  UNL     1     -33.638   4.910   2.533  1.00 20.00     0.011 C 
HETATM    5  C5  UNL     1     -33.308   6.172   1.720  1.00 20.00     0.079 C 
HETATM    6  C6  UNL     1     -33.248   7.663   3.800  1.00 20.00     0.084 C 
HETATM    7  C7  UNL     1     -33.631   5.175   4.036  1.00 20.00    -0.010 C 
HETATM    8  C8  UNL     1     -34.158   6.570   4.355  1.00 20.00    -0.005 C 
HETATM    9  C9  UNL     1     -32.534   7.208   2.526  1.00 20.00     0.244 C 
HETATM   10  F10 UNL     1     -32.267   8.289   1.749  1.00 20.00    -0.206 F 
HETATM   11  F11 UNL     1     -31.326   6.679   2.862  1.00 20.00    -0.206 F 
ENDROOT
TORSDOF 0
ENDMDL
MODEL 8
REMARK VINA RESULT:      -4.5     11.477     12.095
REMARK  0 active torsions:
REMARK  status: ('A' for Active; 'I' for Inactive)
ROOT
HETATM    1  C1  UNL     1     -33.282  17.001  -2.109  1.00 20.00     0.001 C 
HETATM    2  C2  UNL     1     -34.800  16.886  -1.911  1.00 20.00     0.005 C 
HETATM    3  C3  UNL     1     -32.945  16.236  -3.397  1.00 20.00     0.005 C 
HETATM    4  C4  UNL     1     -36.688  15.792  -3.305  1.00 20.00     0.011 C 
HETATM    5  C5  UNL     1     -36.886  15.162  -4.693  1.00 20.00     0.079 C 
HETATM    6  C6  UNL     1     -34.372  14.859  -5.067  1.00 20.00     0.084 C 
HETATM    7  C7  UNL     1     -35.224  15.786  -2.874  1.00 20.00    -0.010 C 
HETATM    8  C8  UNL     1     -34.295  16.007  -4.064  1.00 20.00    -0.005 C 
HETATM    9  C9  UNL     1     -35.758  14.212  -5.078  1.00 20.00     0.244 C 
HETATM   10  F10 UNL     1     -35.999  13.686  -6.306  1.00 20.00    -0.206 F 
HETATM   11  F11 UNL     1     -35.763  13.163  -4.211  1.00 20.00    -0.206 F 
ENDROOT
TORSDOF 0
ENDMDL
MODEL 9
REMARK VINA RESULT:      -4.4     11.660     12.084
REMARK  0 active torsions:
REMARK  status: ('A' for Active; 'I' for Inactive)
ROOT
HETATM    1  C1  UNL     1     -35.716  14.229  -4.756  1.00 20.00     0.001 C 
HETATM    2  C2  UNL     1     -36.427  15.028  -3.654  1.00 20.00     0.005 C 
HETATM    3  C3  UNL     1     -34.229  14.606  -4.685  1.00 20.00     0.005 C 
HETATM    4  C4  UNL     1     -35.587  16.674  -1.840  1.00 20.00     0.011 C 
HETATM    5  C5  UNL     1     -34.256  17.157  -1.242  1.00 20.00     0.079 C 
HETATM    6  C6  UNL     1     -32.888  16.264  -3.213  1.00 20.00     0.084 C 
HETATM    7  C7  UNL     1     -35.409  16.079  -3.235  1.00 20.00    -0.010 C 
HETATM    8  C8  UNL     1     -34.086  15.330  -3.353  1.00 20.00    -0.005 C 
HETATM    9  C9  UNL     1     -33.204  17.454  -2.303  1.00 20.00     0.244 C 
HETATM   10  F10 UNL     1     -32.061  17.883  -1.711  1.00 20.00    -0.206 F 
HETATM   11  F11 UNL     1     -33.643  18.490  -3.068  1.00 20.00    -0.206 F 
ENDROOT
TORSDOF 0
ENDMDL
