MODEL 1
REMARK VINA RESULT:      -4.9      0.000      0.000
REMARK  0 active torsions:
REMARK  status: ('A' for Active; 'I' for Inactive)
ROOT
HETATM    1  C1  UNL     1     -26.365  19.239  11.790  1.00 20.00     0.013 C 
HETATM    2  C2  UNL     1     -25.399  18.578  11.524  1.00 20.00    -0.103 C 
HETATM    3  C3  UNL     1     -21.367  17.879  10.620  1.00 20.00    -0.004 C 
HETATM    4  C4  UNL     1     -22.328  18.199   9.596  1.00 20.00     0.004 C 
HETATM    5  C5  UNL     1     -21.732  17.778  11.904  1.00 20.00    -0.025 C 
HETATM    6  C6  UNL     1     -23.657  18.154   9.816  1.00 20.00    -0.063 C 
HETATM    7  C7  UNL     1     -23.158  17.978  12.332  1.00 20.00     0.054 C 
HETATM    8  C8  UNL     1     -24.207  17.763  11.195  1.00 20.00     0.045 C 
HETATM    9  C9  UNL     1     -24.619  18.437   8.692  1.00 20.00     0.045 C 
HETATM   10  C10 UNL     1     -24.621  16.277  11.158  1.00 20.00     0.034 C 
ENDROOT
TORSDOF 0
ENDMDL
MODEL 2
REMARK VINA RESULT:      -4.7     15.562     17.279
REMARK  0 active torsions:
REMARK  status: ('A' for Active; 'I' for Inactive)
ROOT
HETATM    1  C1  UNL     1     -35.444  17.136   0.285  1.00 20.00     0.013 C 
HETATM    2  C2  UNL     1     -35.192  16.948  -0.873  1.00 20.00    -0.103 C 
HETATM    3  C3  UNL     1     -33.490  14.965  -4.150  1.00 20.00    -0.004 C 
HETATM    4  C4  UNL     1     -32.760  15.957  -3.402  1.00 20.00     0.004 C 
HETATM    5  C5  UNL     1     -34.751  14.650  -3.832  1.00 20.00    -0.025 C 
HETATM    6  C6  UNL     1     -33.364  16.795  -2.536  1.00 20.00    -0.063 C 
HETATM    7  C7  UNL     1     -35.466  15.323  -2.696  1.00 20.00     0.054 C 
HETATM    8  C8  UNL     1     -34.879  16.717  -2.302  1.00 20.00     0.045 C 
HETATM    9  C9  UNL     1     -32.562  17.856  -1.828  1.00 20.00     0.045 C 
HETATM   10  C10 UNL     1     -35.566  17.814  -3.141  1.00 20.00     0.034 C 
ENDROOT
TORSDOF 0
ENDMDL
MODEL 3
REMARK VINA RESULT:      -4.6     13.807     16.049
REMARK  0 active torsions:
REMARK  status: ('A' for Active; 'I' for Inactive)
ROOT
HETATM    1  C1  UNL     1     -33.881  18.255   1.710  1.00 20.00     0.013 C 
HETATM    2  C2  UNL     1     -34.072  18.085   0.538  1.00 20.00    -0.103 C 
HETATM    3  C3  UNL     1     -33.987  15.994  -3.093  1.00 20.00    -0.004 C 
HETATM    4  C4  UNL     1     -32.870  16.787  -2.650  1.00 20.00     0.004 C 
HETATM    5  C5  UNL     1     -35.106  15.907  -2.364  1.00 20.00    -0.025 C 
HETATM    6  C6  UNL     1     -32.972  17.677  -1.643  1.00 20.00    -0.063 C 
HETATM    7  C7  UNL     1     -35.253  16.642  -1.063  1.00 20.00     0.054 C 
HETATM    8  C8  UNL     1     -34.306  17.875  -0.910  1.00 20.00     0.045 C 
HETATM    9  C9  UNL     1     -31.788  18.527  -1.262  1.00 20.00     0.045 C 
HETATM   10  C10 UNL     1     -35.003  19.127  -1.483  1.00 20.00     0.034 C 
ENDROOT
TORSDOF 0
ENDMDL
MODEL 4
REMARK VINA RESULT:      -4.4     15.441     17.423
REMARK  0 active torsions:
REMARK  status: ('A' for Active; 'I' for Inactive)
ROOT
HETATM    1  C1  UNL     1     -32.605  14.411  -4.434  1.00 20.00     0.013 C 
HETATM    2  C2  UNL     1     -33.109  15.363  -3.907  1.00 20.00    -0.103 C 
HETATM    3  C3  UNL     1     -34.548  17.655  -0.706  1.00 20.00    -0.004 C 
HETATM    4  C4  UNL     1     -35.371  16.674  -1.366  1.00 20.00     0.004 C 
HETATM    5  C5  UNL     1     -33.291  17.882  -1.104  1.00 20.00    -0.025 C 
HETATM    6  C6  UNL     1     -35.034  16.132  -2.553  1.00 20.00    -0.063 C 
HETATM    7  C7  UNL     1     -32.687  17.139  -2.261  1.00 20.00     0.054 C 
HETATM    8  C8  UNL     1     -33.732  16.539  -3.256  1.00 20.00     0.045 C 
HETATM    9  C9  UNL     1     -35.963  15.156  -3.229  1.00 20.00     0.045 C 
HETATM   10  C10 UNL     1     -34.063  17.585  -4.340  1.00 20.00     0.034 C 
ENDROOT
TORSDOF 0
ENDMDL
MODEL 5
REMARK VINA RESULT:      -4.4      1.437      2.625
REMARK  0 active torsions:
REMARK  status: ('A' for Active; 'I' for Inactive)
ROOT
HETATM    1  C1  UNL     1     -27.302  17.772  12.306  1.00 20.00     0.013 C 
HETATM    2  C2  UNL     1     -26.205  17.905  11.837  1.00 20.00    -0.103 C 
HETATM    3  C3  UNL     1     -23.260  17.705   8.862  1.00 20.00    -0.004 C 
HETATM    4  C4  UNL     1     -23.550  16.583   9.717  1.00 20.00     0.004 C 
HETATM    5  C5  UNL     1     -23.915  18.865   8.997  1.00 20.00    -0.025 C 
HETATM    6  C6  UNL     1     -24.281  16.705  10.843  1.00 20.00    -0.063 C 
HETATM    7  C7  UNL     1     -24.967  19.053  10.053  1.00 20.00     0.054 C 
HETATM    8  C8  UNL     1     -24.851  18.068  11.259  1.00 20.00     0.045 C 
HETATM    9  C9  UNL     1     -24.500  15.510  11.735  1.00 20.00     0.045 C 
HETATM   10  C10 UNL     1     -23.928  18.683  12.332  1.00 20.00     0.034 C 
ENDROOT
TORSDOF 0
ENDMDL
MODEL 6
REMARK VINA RESULT:      -4.3      0.931      3.747
REMARK  0 active torsions:
REMARK  status: ('A' for Active; 'I' for Inactive)
ROOT
HETATM    1  C1  UNL     1     -21.414  18.107   8.780  1.00 20.00     0.013 C 
HETATM    2  C2  UNL     1     -22.425  17.943   9.404  1.00 20.00    -0.103 C 
HETATM    3  C3  UNL     1     -25.711  19.084  11.742  1.00 20.00    -0.004 C 
HETATM    4  C4  UNL     1     -24.437  18.761  12.332  1.00 20.00     0.004 C 
HETATM    5  C5  UNL     1     -25.896  19.017  10.418  1.00 20.00    -0.025 C 
HETATM    6  C6  UNL     1     -23.463  18.133  11.644  1.00 20.00    -0.063 C 
HETATM    7  C7  UNL     1     -24.794  18.589   9.492  1.00 20.00     0.054 C 
HETATM    8  C8  UNL     1     -23.674  17.741  10.175  1.00 20.00     0.045 C 
HETATM    9  C9  UNL     1     -22.173  17.762  12.328  1.00 20.00     0.045 C 
HETATM   10  C10 UNL     1     -24.056  16.248  10.113  1.00 20.00     0.034 C 
ENDROOT
TORSDOF 0
ENDMDL
MODEL 7
REMARK VINA RESULT:      -4.3     13.328     15.559
REMARK  0 active torsions:
REMARK  status: ('A' for Active; 'I' for Inactive)
ROOT
HETATM    1  C1  UNL     1     -34.433  15.607  -2.726  1.00 20.00     0.013 C 
HETATM    2  C2  UNL     1     -34.119  16.610  -2.148  1.00 20.00    -0.103 C 
HETATM    3  C3  UNL     1     -32.182  18.897   0.783  1.00 20.00    -0.004 C 
HETATM    4  C4  UNL     1     -33.472  18.301   1.017  1.00 20.00     0.004 C 
HETATM    5  C5  UNL     1     -31.558  18.754  -0.393  1.00 20.00    -0.025 C 
HETATM    6  C6  UNL     1     -34.230  17.806   0.018  1.00 20.00    -0.063 C 
HETATM    7  C7  UNL     1     -32.178  17.981  -1.521  1.00 20.00     0.054 C 
HETATM    8  C8  UNL     1     -33.732  17.850  -1.433  1.00 20.00     0.045 C 
HETATM    9  C9  UNL     1     -35.599  17.250   0.312  1.00 20.00     0.045 C 
HETATM   10  C10 UNL     1     -34.387  19.053  -2.143  1.00 20.00     0.034 C 
ENDROOT
TORSDOF 0
ENDMDL
MODEL 8
REMARK VINA RESULT:      -4.3     16.573     18.572
REMARK  0 active torsions:
REMARK  status: ('A' for Active; 'I' for Inactive)
ROOT
HETATM    1  C1  UNL     1     -36.339  13.728  -4.521  1.00 20.00     0.013 C 
HETATM    2  C2  UNL     1     -35.405  14.451  -4.310  1.00 20.00    -0.103 C 
HETATM    3  C3  UNL     1     -33.490  18.004  -3.179  1.00 20.00    -0.004 C 
HETATM    4  C4  UNL     1     -33.944  17.785  -4.528  1.00 20.00     0.004 C 
HETATM    5  C5  UNL     1     -33.650  17.068  -2.235  1.00 20.00    -0.025 C 
HETATM    6  C6  UNL     1     -34.304  16.566  -4.978  1.00 20.00    -0.063 C 
HETATM    7  C7  UNL     1     -34.295  15.747  -2.541  1.00 20.00     0.054 C 
HETATM    8  C8  UNL     1     -34.252  15.345  -4.050  1.00 20.00     0.045 C 
HETATM    9  C9  UNL     1     -34.712  16.383  -6.417  1.00 20.00     0.045 C 
HETATM   10  C10 UNL     1     -32.951  14.565  -4.333  1.00 20.00     0.034 C 
ENDROOT
TORSDOF 0
ENDMDL
MODEL 9
REMARK VINA RESULT:      -4.2     17.389     19.411
REMARK  0 active torsions:
REMARK  status: ('A' for Active; 'I' for Inactive)
ROOT
HETATM    1  C1  UNL     1     -34.566  15.328  -7.424  1.00 20.00     0.013 C 
HETATM    2  C2  UNL     1     -34.900  15.224  -6.276  1.00 20.00    -0.103 C 
HETATM    3  C3  UNL     1     -35.311  16.427  -2.282  1.00 20.00    -0.004 C 
HETATM    4  C4  UNL     1     -34.126  15.759  -2.754  1.00 20.00     0.004 C 
HETATM    5  C5  UNL     1     -36.338  16.676  -3.105  1.00 20.00    -0.025 C 
HETATM    6  C6  UNL     1     -34.081  15.123  -3.942  1.00 20.00    -0.063 C 
HETATM    7  C7  UNL     1     -36.306  16.259  -4.547  1.00 20.00     0.054 C 
HETATM    8  C8  UNL     1     -35.311  15.096  -4.858  1.00 20.00     0.045 C 
HETATM    9  C9  UNL     1     -32.834  14.387  -4.358  1.00 20.00     0.045 C 
HETATM   10  C10 UNL     1     -36.033  13.745  -4.675  1.00 20.00     0.034 C 
ENDROOT
TORSDOF 0
ENDMDL
