MODEL 1
REMARK VINA RESULT:      -4.9      0.000      0.000
REMARK  1 active torsions:
REMARK  status: ('A' for Active; 'I' for Inactive)
REMARK    1  A    between atoms: C2_2  and  C4_4 
ROOT
HETATM    1  C1  UNL     1     -32.642   7.159   2.294  1.00 20.00     0.107 C 
HETATM    2  C2  UNL     1     -33.955   6.487   4.235  1.00 20.00     0.118 C 
HETATM    3  C3  UNL     1     -33.332   6.198   3.082  1.00 20.00     0.095 C 
HETATM    4  N5  UNL     1     -32.077   7.938   1.645  1.00 20.00    -0.191 NA
HETATM    5 BR9  UNL     1     -33.314   4.454   2.394  1.00 20.00    -0.039 Br
ENDROOT
BRANCH   2   6
HETATM    6  C4  UNL     1     -34.706   5.568   5.142  1.00 20.00     0.409 C 
HETATM    7  F6  UNL     1     -35.932   5.280   4.636  1.00 20.00    -0.167 F 
HETATM    8  F7  UNL     1     -34.093   4.381   5.373  1.00 20.00    -0.167 F 
HETATM    9  F8  UNL     1     -34.911   6.142   6.356  1.00 20.00    -0.167 F 
ENDBRANCH   2   6
TORSDOF 1
ENDMDL
MODEL 2
REMARK VINA RESULT:      -4.4     12.436     12.818
REMARK  1 active torsions:
REMARK  status: ('A' for Active; 'I' for Inactive)
REMARK    1  A    between atoms: C2_2  and  C4_4 
ROOT
HETATM    1  C1  UNL     1     -36.958  14.358  -4.407  1.00 20.00     0.107 C 
HETATM    2  C2  UNL     1     -34.948  15.342  -3.440  1.00 20.00     0.118 C 
HETATM    3  C3  UNL     1     -35.651  14.908  -4.498  1.00 20.00     0.095 C 
HETATM    4  N5  UNL     1     -38.026  13.908  -4.340  1.00 20.00    -0.191 NA
HETATM    5 BR9  UNL     1     -34.950  14.995  -6.234  1.00 20.00    -0.039 Br
ENDROOT
BRANCH   2   6
HETATM    6  C4  UNL     1     -33.578  15.934  -3.412  1.00 20.00     0.409 C 
HETATM    7  F6  UNL     1     -33.247  16.338  -2.159  1.00 20.00    -0.167 F 
HETATM    8  F7  UNL     1     -32.595  15.096  -3.823  1.00 20.00    -0.167 F 
HETATM    9  F8  UNL     1     -33.506  17.034  -4.206  1.00 20.00    -0.167 F 
ENDBRANCH   2   6
TORSDOF 1
ENDMDL
MODEL 3
REMARK VINA RESULT:      -4.4     12.452     12.831
REMARK  1 active torsions:
REMARK  status: ('A' for Active; 'I' for Inactive)
REMARK    1  A    between atoms: C2_2  and  C4_4 
ROOT
HETATM    1  C1  UNL     1     -36.797  14.330  -4.416  1.00 20.00     0.107 C 
HETATM    2  C2  UNL     1     -34.849  15.400  -3.415  1.00 20.00     0.118 C 
HETATM    3  C3  UNL     1     -35.513  14.935  -4.485  1.00 20.00     0.095 C 
HETATM    4  N5  UNL     1     -37.846  13.835  -4.368  1.00 20.00    -0.191 NA
HETATM    5 BR9  UNL     1     -34.786  15.050  -6.208  1.00 20.00    -0.039 Br
ENDROOT
BRANCH   2   6
HETATM    6  C4  UNL     1     -33.506  16.049  -3.364  1.00 20.00     0.409 C 
HETATM    7  F6  UNL     1     -32.532  15.186  -3.753  1.00 20.00    -0.167 F 
HETATM    8  F7  UNL     1     -33.383  17.151  -4.146  1.00 20.00    -0.167 F 
HETATM    9  F8  UNL     1     -33.199  16.436  -2.099  1.00 20.00    -0.167 F 
ENDBRANCH   2   6
TORSDOF 1
ENDMDL
MODEL 4
REMARK VINA RESULT:      -4.4     12.472     12.842
REMARK  1 active torsions:
REMARK  status: ('A' for Active; 'I' for Inactive)
REMARK    1  A    between atoms: C2_2  and  C4_4 
ROOT
HETATM    1  C1  UNL     1     -36.588  14.283  -4.450  1.00 20.00     0.107 C 
HETATM    2  C2  UNL     1     -34.696  15.419  -3.414  1.00 20.00     0.118 C 
HETATM    3  C3  UNL     1     -35.319  14.923  -4.494  1.00 20.00     0.095 C 
HETATM    4  N5  UNL     1     -37.623  13.759  -4.422  1.00 20.00    -0.191 NA
HETATM    5 BR9  UNL     1     -34.551  15.036  -6.200  1.00 20.00    -0.039 Br
ENDROOT
BRANCH   2   6
HETATM    6  C4  UNL     1     -33.373  16.106  -3.337  1.00 20.00     0.409 C 
HETATM    7  F6  UNL     1     -33.343  17.196  -4.147  1.00 20.00    -0.167 F 
HETATM    8  F7  UNL     1     -33.032  16.535  -2.097  1.00 20.00    -0.167 F 
HETATM    9  F8  UNL     1     -32.373  15.286  -3.753  1.00 20.00    -0.167 F 
ENDBRANCH   2   6
TORSDOF 1
ENDMDL
MODEL 5
REMARK VINA RESULT:      -4.2     16.255     16.711
REMARK  1 active torsions:
REMARK  status: ('A' for Active; 'I' for Inactive)
REMARK    1  A    between atoms: C2_2  and  C4_4 
ROOT
HETATM    1  C1  UNL     1     -24.193  18.777   7.755  1.00 20.00     0.107 C 
HETATM    2  C2  UNL     1     -25.064  18.783  10.031  1.00 20.00     0.118 C 
HETATM    3  C3  UNL     1     -24.209  18.326   9.102  1.00 20.00     0.095 C 
HETATM    4  N5  UNL     1     -24.173  19.140   6.652  1.00 20.00    -0.191 NA
HETATM    5 BR9  UNL     1     -22.929  17.020   9.514  1.00 20.00    -0.039 Br
ENDROOT
BRANCH   2   6
HETATM    6  C4  UNL     1     -25.175  18.388  11.467  1.00 20.00     0.409 C 
HETATM    7  F6  UNL     1     -25.611  17.108  11.587  1.00 20.00    -0.167 F 
HETATM    8  F7  UNL     1     -24.016  18.470  12.165  1.00 20.00    -0.167 F 
HETATM    9  F8  UNL     1     -26.076  19.168  12.119  1.00 20.00    -0.167 F 
ENDBRANCH   2   6
TORSDOF 1
ENDMDL
MODEL 6
REMARK VINA RESULT:      -4.1      8.977      9.311
REMARK  1 active torsions:
REMARK  status: ('A' for Active; 'I' for Inactive)
REMARK    1  A    between atoms: C2_2  and  C4_4 
ROOT
HETATM    1  C1  UNL     1     -41.510   9.146   0.241  1.00 20.00     0.107 C 
HETATM    2  C2  UNL     1     -41.145   6.888  -0.604  1.00 20.00     0.118 C 
HETATM    3  C3  UNL     1     -41.858   7.774   0.110  1.00 20.00     0.095 C 
HETATM    4  N5  UNL     1     -41.232  10.267   0.352  1.00 20.00    -0.191 NA
HETATM    5 BR9  UNL     1     -43.417   7.265   1.017  1.00 20.00    -0.039 Br
ENDROOT
BRANCH   2   6
HETATM    6  C4  UNL     1     -41.410   5.434  -0.813  1.00 20.00     0.409 C 
HETATM    7  F6  UNL     1     -42.532   5.245  -1.555  1.00 20.00    -0.167 F 
HETATM    8  F7  UNL     1     -40.412   4.765  -1.441  1.00 20.00    -0.167 F 
HETATM    9  F8  UNL     1     -41.617   4.801   0.371  1.00 20.00    -0.167 F 
ENDBRANCH   2   6
TORSDOF 1
ENDMDL
MODEL 7
REMARK VINA RESULT:      -4.1     11.782     12.257
REMARK  1 active torsions:
REMARK  status: ('A' for Active; 'I' for Inactive)
REMARK    1  A    between atoms: C2_2  and  C4_4 
ROOT
HETATM    1  C1  UNL     1     -35.514  13.723  -4.116  1.00 20.00     0.107 C 
HETATM    2  C2  UNL     1     -35.032  15.636  -2.684  1.00 20.00     0.118 C 
HETATM    3  C3  UNL     1     -34.668  14.756  -3.629  1.00 20.00     0.095 C 
HETATM    4  N5  UNL     1     -36.200  12.877  -4.518  1.00 20.00    -0.191 NA
HETATM    5 BR9  UNL     1     -32.966  14.816  -4.412  1.00 20.00    -0.039 Br
ENDROOT
BRANCH   2   6
HETATM    6  C4  UNL     1     -34.236  16.755  -2.098  1.00 20.00     0.409 C 
HETATM    7  F6  UNL     1     -34.575  16.966  -0.800  1.00 20.00    -0.167 F 
HETATM    8  F7  UNL     1     -32.894  16.564  -2.123  1.00 20.00    -0.167 F 
HETATM    9  F8  UNL     1     -34.474  17.919  -2.756  1.00 20.00    -0.167 F 
ENDBRANCH   2   6
TORSDOF 1
ENDMDL
MODEL 8
REMARK VINA RESULT:      -4.0      9.410      9.885
REMARK  1 active torsions:
REMARK  status: ('A' for Active; 'I' for Inactive)
REMARK    1  A    between atoms: C2_2  and  C4_4 
ROOT
HETATM    1  C1  UNL     1     -42.772   4.788  -1.506  1.00 20.00     0.107 C 
HETATM    2  C2  UNL     1     -41.893   6.951  -0.806  1.00 20.00     0.118 C 
HETATM    3  C3  UNL     1     -42.518   5.795  -0.536  1.00 20.00     0.095 C 
HETATM    4  N5  UNL     1     -42.983   3.961  -2.293  1.00 20.00    -0.191 NA
HETATM    5 BR9  UNL     1     -43.123   5.396   1.193  1.00 20.00    -0.039 Br
ENDROOT
BRANCH   2   6
HETATM    6  C4  UNL     1     -41.572   8.075   0.123  1.00 20.00     0.409 C 
HETATM    7  F6  UNL     1     -40.828   9.025  -0.499  1.00 20.00    -0.167 F 
HETATM    8  F7  UNL     1     -42.656   8.707   0.637  1.00 20.00    -0.167 F 
HETATM    9  F8  UNL     1     -40.840   7.639   1.181  1.00 20.00    -0.167 F 
ENDBRANCH   2   6
TORSDOF 1
ENDMDL
MODEL 9
REMARK VINA RESULT:      -3.9     12.180     12.811
REMARK  1 active torsions:
REMARK  status: ('A' for Active; 'I' for Inactive)
REMARK    1  A    between atoms: C2_2  and  C4_4 
ROOT
HETATM    1  C1  UNL     1     -32.426  17.817  -1.832  1.00 20.00     0.107 C 
HETATM    2  C2  UNL     1     -33.101  16.150  -3.479  1.00 20.00     0.118 C 
HETATM    3  C3  UNL     1     -33.356  16.901  -2.396  1.00 20.00     0.095 C 
HETATM    4  N5  UNL     1     -31.673  18.566  -1.365  1.00 20.00    -0.191 NA
HETATM    5 BR9  UNL     1     -35.006  16.807  -1.512  1.00 20.00    -0.039 Br
ENDROOT
BRANCH   2   6
HETATM    6  C4  UNL     1     -33.991  15.162  -4.157  1.00 20.00     0.409 C 
HETATM    7  F6  UNL     1     -33.335  14.523  -5.158  1.00 20.00    -0.167 F 
HETATM    8  F7  UNL     1     -34.487  14.199  -3.341  1.00 20.00    -0.167 F 
HETATM    9  F8  UNL     1     -35.060  15.779  -4.724  1.00 20.00    -0.167 F 
ENDBRANCH   2   6
TORSDOF 1
ENDMDL
