MODEL 1
REMARK VINA RESULT:      -4.2      0.000      0.000
REMARK  1 active torsions:
REMARK  status: ('A' for Active; 'I' for Inactive)
REMARK    1  A    between atoms: C1_1  and  C4_4 
ROOT
HETATM    1  C2  UNL     1     -34.236   6.432   5.391  1.00 20.00     0.054 A 
HETATM    2  C3  UNL     1     -34.753   5.173   6.023  1.00 20.00     0.054 A 
HETATM    3  C4  UNL     1     -34.846   5.357   4.533  1.00 20.00     0.156 A 
HETATM    4  F6  UNL     1     -36.119   5.634   4.043  1.00 20.00    -0.235 F 
ENDROOT
BRANCH   3   5
HETATM    5  C1  UNL     1     -33.993   4.561   3.645  1.00 20.00     0.274 C 
HETATM    6  O5  UNL     1     -33.564   4.972   2.574  1.00 20.00    -0.303 OA
ENDBRANCH   3   5
TORSDOF 1
ENDMDL
MODEL 2
REMARK VINA RESULT:      -4.1      1.729      2.532
REMARK  1 active torsions:
REMARK  status: ('A' for Active; 'I' for Inactive)
REMARK    1  A    between atoms: C1_1  and  C4_4 
ROOT
HETATM    1  C2  UNL     1     -34.190   4.132   3.799  1.00 20.00     0.054 A 
HETATM    2  C3  UNL     1     -33.848   5.533   3.386  1.00 20.00     0.054 A 
HETATM    3  C4  UNL     1     -34.898   5.297   4.436  1.00 20.00     0.156 A 
HETATM    4  F6  UNL     1     -36.213   5.496   4.022  1.00 20.00    -0.235 F 
ENDROOT
BRANCH   3   5
HETATM    5  C1  UNL     1     -34.624   5.642   5.834  1.00 20.00     0.274 C 
HETATM    6  O5  UNL     1     -34.127   6.707   6.182  1.00 20.00    -0.303 OA
ENDBRANCH   3   5
TORSDOF 1
ENDMDL
MODEL 3
REMARK VINA RESULT:      -3.8      1.712      1.910
REMARK  1 active torsions:
REMARK  status: ('A' for Active; 'I' for Inactive)
REMARK    1  A    between atoms: C1_1  and  C4_4 
ROOT
HETATM    1  C2  UNL     1     -35.640   5.405   4.249  1.00 20.00     0.054 A 
HETATM    2  C3  UNL     1     -34.671   5.085   5.349  1.00 20.00     0.054 A 
HETATM    3  C4  UNL     1     -34.166   5.331   3.954  1.00 20.00     0.156 A 
HETATM    4  F6  UNL     1     -33.752   4.197   3.259  1.00 20.00    -0.235 F 
ENDROOT
BRANCH   3   5
HETATM    5  C1  UNL     1     -33.420   6.556   3.653  1.00 20.00     0.274 C 
HETATM    6  O5  UNL     1     -32.651   6.663   2.705  1.00 20.00    -0.303 OA
ENDBRANCH   3   5
TORSDOF 1
ENDMDL
MODEL 4
REMARK VINA RESULT:      -3.7      1.871      2.142
REMARK  1 active torsions:
REMARK  status: ('A' for Active; 'I' for Inactive)
REMARK    1  A    between atoms: C1_1  and  C4_4 
ROOT
HETATM    1  C2  UNL     1     -34.449   4.624   4.712  1.00 20.00     0.054 A 
HETATM    2  C3  UNL     1     -35.533   5.516   4.186  1.00 20.00     0.054 A 
HETATM    3  C4  UNL     1     -34.143   6.058   4.375  1.00 20.00     0.156 A 
HETATM    4  F6  UNL     1     -33.975   6.905   5.467  1.00 20.00    -0.235 F 
ENDROOT
BRANCH   3   5
HETATM    5  C1  UNL     1     -33.317   6.372   3.206  1.00 20.00     0.274 C 
HETATM    6  O5  UNL     1     -32.319   7.082   3.255  1.00 20.00    -0.303 OA
ENDBRANCH   3   5
TORSDOF 1
ENDMDL
MODEL 5
REMARK VINA RESULT:      -3.5     12.279     12.553
REMARK  1 active torsions:
REMARK  status: ('A' for Active; 'I' for Inactive)
REMARK    1  A    between atoms: C1_1  and  C4_4 
ROOT
HETATM    1  C2  UNL     1     -34.130  15.691  -4.807  1.00 20.00     0.054 A 
HETATM    2  C3  UNL     1     -33.368  14.471  -4.382  1.00 20.00     0.054 A 
HETATM    3  C4  UNL     1     -34.769  14.692  -3.882  1.00 20.00     0.156 A 
HETATM    4  F6  UNL     1     -34.873  15.091  -2.552  1.00 20.00    -0.235 F 
ENDROOT
BRANCH   3   5
HETATM    5  C1  UNL     1     -35.860  13.842  -4.368  1.00 20.00     0.274 C 
HETATM    6  O5  UNL     1     -35.781  12.621  -4.448  1.00 20.00    -0.303 OA
ENDBRANCH   3   5
TORSDOF 1
ENDMDL
MODEL 6
REMARK VINA RESULT:      -3.5     12.182     12.458
REMARK  1 active torsions:
REMARK  status: ('A' for Active; 'I' for Inactive)
REMARK    1  A    between atoms: C1_1  and  C4_4 
ROOT
HETATM    1  C2  UNL     1     -34.756  15.232  -3.056  1.00 20.00     0.054 A 
HETATM    2  C3  UNL     1     -34.045  15.082  -4.368  1.00 20.00     0.054 A 
HETATM    3  C4  UNL     1     -35.188  14.167  -4.027  1.00 20.00     0.156 A 
HETATM    4  F6  UNL     1     -34.830  12.865  -3.684  1.00 20.00    -0.235 F 
ENDROOT
BRANCH   3   5
HETATM    5  C1  UNL     1     -36.465  14.299  -4.733  1.00 20.00     0.274 C 
HETATM    6  O5  UNL     1     -37.453  13.621  -4.476  1.00 20.00    -0.303 OA
ENDBRANCH   3   5
TORSDOF 1
ENDMDL
MODEL 7
REMARK VINA RESULT:      -3.4     16.996     17.252
REMARK  1 active torsions:
REMARK  status: ('A' for Active; 'I' for Inactive)
REMARK    1  A    between atoms: C1_1  and  C4_4 
ROOT
HETATM    1  C2  UNL     1     -23.147   9.812  -7.549  1.00 20.00     0.054 A 
HETATM    2  C3  UNL     1     -21.796  10.445  -7.707  1.00 20.00     0.054 A 
HETATM    3  C4  UNL     1     -22.052   9.499  -6.566  1.00 20.00     0.156 A 
HETATM    4  F6  UNL     1     -22.185  10.094  -5.314  1.00 20.00    -0.235 F 
ENDROOT
BRANCH   3   5
HETATM    5  C1  UNL     1     -21.431   8.172  -6.565  1.00 20.00     0.274 C 
HETATM    6  O5  UNL     1     -21.472   7.407  -5.609  1.00 20.00    -0.303 OA
ENDBRANCH   3   5
TORSDOF 1
ENDMDL
MODEL 8
REMARK VINA RESULT:      -3.4      8.310      8.655
REMARK  1 active torsions:
REMARK  status: ('A' for Active; 'I' for Inactive)
REMARK    1  A    between atoms: C1_1  and  C4_4 
ROOT
HETATM    1  C2  UNL     1     -42.730   8.419   0.418  1.00 20.00     0.054 A 
HETATM    2  C3  UNL     1     -41.532   9.266   0.106  1.00 20.00     0.054 A 
HETATM    3  C4  UNL     1     -41.414   7.767   0.092  1.00 20.00     0.156 A 
HETATM    4  F6  UNL     1     -40.739   7.210   1.175  1.00 20.00    -0.235 F 
ENDROOT
BRANCH   3   5
HETATM    5  C1  UNL     1     -41.246   7.060  -1.181  1.00 20.00     0.274 C 
HETATM    6  O5  UNL     1     -40.797   5.923  -1.269  1.00 20.00    -0.303 OA
ENDBRANCH   3   5
TORSDOF 1
ENDMDL
MODEL 9
REMARK VINA RESULT:      -3.4      2.889      3.329
REMARK  1 active torsions:
REMARK  status: ('A' for Active; 'I' for Inactive)
REMARK    1  A    between atoms: C1_1  and  C4_4 
ROOT
HETATM    1  C2  UNL     1     -31.824   7.281   3.078  1.00 20.00     0.054 A 
HETATM    2  C3  UNL     1     -32.826   7.467   1.977  1.00 20.00     0.054 A 
HETATM    3  C4  UNL     1     -32.984   6.331   2.951  1.00 20.00     0.156 A 
HETATM    4  F6  UNL     1     -32.670   5.069   2.453  1.00 20.00    -0.235 F 
ENDROOT
BRANCH   3   5
HETATM    5  C1  UNL     1     -34.065   6.363   3.940  1.00 20.00     0.274 C 
HETATM    6  O5  UNL     1     -34.815   5.417   4.151  1.00 20.00    -0.303 OA
ENDBRANCH   3   5
TORSDOF 1
ENDMDL
