MODEL 1
REMARK VINA RESULT:      -4.6      0.000      0.000
REMARK  2 active torsions:
REMARK  status: ('A' for Active; 'I' for Inactive)
REMARK    1  A    between atoms: C1_1  and  C4_4 
REMARK    2  A    between atoms: C1_1  and  C5_5 
ROOT
HETATM    1  C1  UNL     1     -33.707   5.757   3.511  1.00 20.00     0.159 C 
HETATM    2  O6  UNL     1     -33.756   4.666   2.957  1.00 20.00    -0.295 OA
ENDROOT
BRANCH   1   3
HETATM    3  C4  UNL     1     -34.639   6.085   4.595  1.00 20.00     0.058 A 
HETATM    4  C2  UNL     1     -34.691   5.206   5.815  1.00 20.00     0.013 A 
HETATM    5  C3  UNL     1     -34.097   6.579   5.908  1.00 20.00     0.013 A 
ENDBRANCH   1   3
BRANCH   1   6
HETATM    6  C5  UNL     1     -32.724   6.829   3.145  1.00 20.00     0.300 C 
HETATM    7  F7  UNL     1     -32.792   7.125   1.818  1.00 20.00    -0.248 F 
ENDBRANCH   1   6
TORSDOF 2
ENDMDL
MODEL 2
REMARK VINA RESULT:      -4.5      1.505      1.661
REMARK  2 active torsions:
REMARK  status: ('A' for Active; 'I' for Inactive)
REMARK    1  A    between atoms: C1_1  and  C4_4 
REMARK    2  A    between atoms: C1_1  and  C5_5 
ROOT
HETATM    1  C1  UNL     1     -33.598   6.125   3.598  1.00 20.00     0.159 C 
HETATM    2  O6  UNL     1     -32.684   6.930   3.466  1.00 20.00    -0.295 OA
ENDROOT
BRANCH   1   3
HETATM    3  C4  UNL     1     -34.590   6.292   4.665  1.00 20.00     0.058 A 
HETATM    4  C2  UNL     1     -34.689   5.254   5.750  1.00 20.00     0.013 A 
HETATM    5  C3  UNL     1     -34.125   6.608   6.060  1.00 20.00     0.013 A 
ENDBRANCH   1   3
BRANCH   1   6
HETATM    6  C5  UNL     1     -33.785   4.931   2.710  1.00 20.00     0.300 C 
HETATM    7  F7  UNL     1     -32.586   4.419   2.318  1.00 20.00    -0.248 F 
ENDBRANCH   1   6
TORSDOF 2
ENDMDL
MODEL 3
REMARK VINA RESULT:      -4.3      1.680      1.784
REMARK  2 active torsions:
REMARK  status: ('A' for Active; 'I' for Inactive)
REMARK    1  A    between atoms: C1_1  and  C4_4 
REMARK    2  A    between atoms: C1_1  and  C5_5 
ROOT
HETATM    1  C1  UNL     1     -33.466   6.705   4.232  1.00 20.00     0.159 C 
HETATM    2  O6  UNL     1     -33.006   7.260   5.222  1.00 20.00    -0.295 OA
ENDROOT
BRANCH   1   3
HETATM    3  C4  UNL     1     -34.679   5.886   4.333  1.00 20.00     0.058 A 
HETATM    4  C2  UNL     1     -34.554   4.389   4.416  1.00 20.00     0.013 A 
HETATM    5  C3  UNL     1     -34.979   5.170   5.622  1.00 20.00     0.013 A 
ENDBRANCH   1   3
BRANCH   1   6
HETATM    6  C5  UNL     1     -32.855   6.806   2.866  1.00 20.00     0.300 C 
HETATM    7  F7  UNL     1     -32.652   5.572   2.328  1.00 20.00    -0.248 F 
ENDBRANCH   1   6
TORSDOF 2
ENDMDL
MODEL 4
REMARK VINA RESULT:      -4.3      2.032      3.077
REMARK  2 active torsions:
REMARK  status: ('A' for Active; 'I' for Inactive)
REMARK    1  A    between atoms: C1_1  and  C4_4 
REMARK    2  A    between atoms: C1_1  and  C5_5 
ROOT
HETATM    1  C1  UNL     1     -34.455   4.997   4.555  1.00 20.00     0.159 C 
HETATM    2  O6  UNL     1     -34.385   3.842   4.155  1.00 20.00    -0.295 OA
ENDROOT
BRANCH   1   3
HETATM    3  C4  UNL     1     -34.175   6.117   3.650  1.00 20.00     0.058 A 
HETATM    4  C2  UNL     1     -32.812   6.755   3.665  1.00 20.00     0.013 A 
HETATM    5  C3  UNL     1     -33.230   5.913   2.497  1.00 20.00     0.013 A 
ENDBRANCH   1   3
BRANCH   1   6
HETATM    6  C5  UNL     1     -34.822   5.367   5.962  1.00 20.00     0.300 C 
HETATM    7  F7  UNL     1     -34.449   6.645   6.245  1.00 20.00    -0.248 F 
ENDBRANCH   1   6
TORSDOF 2
ENDMDL
MODEL 5
REMARK VINA RESULT:      -4.2      2.586      3.566
REMARK  2 active torsions:
REMARK  status: ('A' for Active; 'I' for Inactive)
REMARK    1  A    between atoms: C1_1  and  C4_4 
REMARK    2  A    between atoms: C1_1  and  C5_5 
ROOT
HETATM    1  C1  UNL     1     -34.058   6.384   4.882  1.00 20.00     0.159 C 
HETATM    2  O6  UNL     1     -33.588   7.162   5.703  1.00 20.00    -0.295 OA
ENDROOT
BRANCH   1   3
HETATM    3  C4  UNL     1     -33.870   6.613   3.446  1.00 20.00     0.058 A 
HETATM    4  C2  UNL     1     -32.483   6.844   2.910  1.00 20.00     0.013 A 
HETATM    5  C3  UNL     1     -33.194   5.558   2.614  1.00 20.00     0.013 A 
ENDBRANCH   1   3
BRANCH   1   6
HETATM    6  C5  UNL     1     -34.845   5.162   5.254  1.00 20.00     0.300 C 
HETATM    7  F7  UNL     1     -34.427   4.654   6.445  1.00 20.00    -0.248 F 
ENDBRANCH   1   6
TORSDOF 2
ENDMDL
MODEL 6
REMARK VINA RESULT:      -3.9      2.013      3.073
REMARK  2 active torsions:
REMARK  status: ('A' for Active; 'I' for Inactive)
REMARK    1  A    between atoms: C1_1  and  C4_4 
REMARK    2  A    between atoms: C1_1  and  C5_5 
ROOT
HETATM    1  C1  UNL     1     -33.719   5.371   3.187  1.00 20.00     0.159 C 
HETATM    2  O6  UNL     1     -33.159   4.579   2.439  1.00 20.00    -0.295 OA
ENDROOT
BRANCH   1   3
HETATM    3  C4  UNL     1     -33.420   6.805   3.112  1.00 20.00     0.058 A 
HETATM    4  C2  UNL     1     -32.032   7.288   3.433  1.00 20.00     0.013 A 
HETATM    5  C3  UNL     1     -32.522   7.314   2.017  1.00 20.00     0.013 A 
ENDBRANCH   1   3
BRANCH   1   6
HETATM    6  C5  UNL     1     -34.728   4.965   4.220  1.00 20.00     0.300 C 
HETATM    7  F7  UNL     1     -34.814   5.892   5.212  1.00 20.00    -0.248 F 
ENDBRANCH   1   6
TORSDOF 2
ENDMDL
MODEL 7
REMARK VINA RESULT:      -3.8      2.475      3.166
REMARK  2 active torsions:
REMARK  status: ('A' for Active; 'I' for Inactive)
REMARK    1  A    between atoms: C1_1  and  C4_4 
REMARK    2  A    between atoms: C1_1  and  C5_5 
ROOT
HETATM    1  C1  UNL     1     -33.643   6.552   4.577  1.00 20.00     0.159 C 
HETATM    2  O6  UNL     1     -32.754   7.251   4.107  1.00 20.00    -0.295 OA
ENDROOT
BRANCH   1   3
HETATM    3  C4  UNL     1     -34.372   5.603   3.729  1.00 20.00     0.058 A 
HETATM    4  C2  UNL     1     -33.630   4.842   2.665  1.00 20.00     0.013 A 
HETATM    5  C3  UNL     1     -34.120   4.128   3.889  1.00 20.00     0.013 A 
ENDBRANCH   1   3
BRANCH   1   6
HETATM    6  C5  UNL     1     -34.058   6.597   6.018  1.00 20.00     0.300 C 
HETATM    7  F7  UNL     1     -35.045   5.696   6.272  1.00 20.00    -0.248 F 
ENDBRANCH   1   6
TORSDOF 2
ENDMDL
MODEL 8
REMARK VINA RESULT:      -3.6     11.580     11.854
REMARK  2 active torsions:
REMARK  status: ('A' for Active; 'I' for Inactive)
REMARK    1  A    between atoms: C1_1  and  C4_4 
REMARK    2  A    between atoms: C1_1  and  C5_5 
ROOT
HETATM    1  C1  UNL     1     -34.960  14.046  -4.138  1.00 20.00     0.159 C 
HETATM    2  O6  UNL     1     -34.023  13.261  -4.067  1.00 20.00    -0.295 OA
ENDROOT
BRANCH   1   3
HETATM    3  C4  UNL     1     -34.778  15.457  -3.781  1.00 20.00     0.058 A 
HETATM    4  C2  UNL     1     -34.733  15.851  -2.330  1.00 20.00     0.013 A 
HETATM    5  C3  UNL     1     -33.483  15.898  -3.155  1.00 20.00     0.013 A 
ENDBRANCH   1   3
BRANCH   1   6
HETATM    6  C5  UNL     1     -36.338  13.654  -4.583  1.00 20.00     0.300 C 
HETATM    7  F7  UNL     1     -37.288  14.352  -3.904  1.00 20.00    -0.248 F 
ENDBRANCH   1   6
TORSDOF 2
ENDMDL
MODEL 9
REMARK VINA RESULT:      -3.5     11.545     12.082
REMARK  2 active torsions:
REMARK  status: ('A' for Active; 'I' for Inactive)
REMARK    1  A    between atoms: C1_1  and  C4_4 
REMARK    2  A    between atoms: C1_1  and  C5_5 
ROOT
HETATM    1  C1  UNL     1     -35.818  13.781  -4.251  1.00 20.00     0.159 C 
HETATM    2  O6  UNL     1     -35.928  12.638  -4.677  1.00 20.00    -0.295 OA
ENDROOT
BRANCH   1   3
HETATM    3  C4  UNL     1     -34.539  14.256  -3.713  1.00 20.00     0.058 A 
HETATM    4  C2  UNL     1     -33.562  14.943  -4.627  1.00 20.00     0.013 A 
HETATM    5  C3  UNL     1     -34.295  15.735  -3.588  1.00 20.00     0.013 A 
ENDBRANCH   1   3
BRANCH   1   6
HETATM    6  C5  UNL     1     -36.943  14.773  -4.238  1.00 20.00     0.300 C 
HETATM    7  F7  UNL     1     -38.148  14.147  -4.330  1.00 20.00    -0.248 F 
ENDBRANCH   1   6
TORSDOF 2
ENDMDL
