MODEL 1
REMARK VINA RESULT:      -4.1      0.000      0.000
REMARK  0 active torsions:
REMARK  status: ('A' for Active; 'I' for Inactive)
ROOT
HETATM    1  C1  UNL     1     -21.361  17.769   8.906  1.00 20.00     0.029 C 
HETATM    2  C2  UNL     1     -22.309  18.863   9.331  1.00 20.00     0.042 C 
HETATM    3  C3  UNL     1     -23.024  17.837  11.577  1.00 20.00     0.070 C 
HETATM    4  C4  UNL     1     -24.325  18.107  12.332  1.00 20.00     0.275 C 
HETATM    5  C5  UNL     1     -24.736  18.751  10.132  1.00 20.00     0.309 C 
HETATM    6  C6  UNL     1     -22.314  16.636   8.593  1.00 20.00     0.169 C 
HETATM    7  C7  UNL     1     -23.365  18.087  10.100  1.00 20.00     0.089 C 
HETATM    8  C8  UNL     1     -26.576  18.776  11.718  1.00 20.00     0.310 C 
HETATM    9  N9  UNL     1     -25.355  18.107  11.294  1.00 20.00     0.087 N 
HETATM   10  O10 UNL     1     -23.463  16.808   9.436  1.00 20.00    -0.378 OA
ENDROOT
TORSDOF 0
ENDMDL
MODEL 2
REMARK VINA RESULT:      -3.9      1.710      2.571
REMARK  0 active torsions:
REMARK  status: ('A' for Active; 'I' for Inactive)
ROOT
HETATM    1  C1  UNL     1     -22.414  17.390  10.538  1.00 20.00     0.029 C 
HETATM    2  C2  UNL     1     -23.777  16.768  10.364  1.00 20.00     0.042 C 
HETATM    3  C3  UNL     1     -25.156  18.933  10.501  1.00 20.00     0.070 C 
HETATM    4  C4  UNL     1     -26.623  19.059  10.913  1.00 20.00     0.275 C 
HETATM    5  C5  UNL     1     -25.912  17.007  11.754  1.00 20.00     0.309 C 
HETATM    6  C6  UNL     1     -22.445  17.804  11.993  1.00 20.00     0.169 C 
HETATM    7  C7  UNL     1     -24.651  17.672  11.218  1.00 20.00     0.089 C 
HETATM    8  C8  UNL     1     -28.137  17.795  12.326  1.00 20.00     0.310 C 
HETATM    9  N9  UNL     1     -26.755  18.166  12.063  1.00 20.00     0.087 N 
HETATM   10  O10 UNL     1     -23.815  18.084  12.321  1.00 20.00    -0.378 OA
ENDROOT
TORSDOF 0
ENDMDL
MODEL 3
REMARK VINA RESULT:      -3.8     17.080     17.820
REMARK  0 active torsions:
REMARK  status: ('A' for Active; 'I' for Inactive)
ROOT
HETATM    1  C1  UNL     1     -35.833  13.834  -4.530  1.00 20.00     0.029 C 
HETATM    2  C2  UNL     1     -34.512  14.068  -3.841  1.00 20.00     0.042 C 
HETATM    3  C3  UNL     1     -35.307  15.871  -2.190  1.00 20.00     0.070 C 
HETATM    4  C4  UNL     1     -34.446  16.943  -1.522  1.00 20.00     0.275 C 
HETATM    5  C5  UNL     1     -33.231  16.234  -3.378  1.00 20.00     0.309 C 
HETATM    6  C6  UNL     1     -36.002  15.114  -5.319  1.00 20.00     0.169 C 
HETATM    7  C7  UNL     1     -34.585  15.549  -3.507  1.00 20.00     0.089 C 
HETATM    8  C8  UNL     1     -32.390  18.106  -2.078  1.00 20.00     0.310 C 
HETATM    9  N9  UNL     1     -33.569  17.422  -2.589  1.00 20.00     0.087 N 
HETATM   10  O10 UNL     1     -35.329  16.151  -4.589  1.00 20.00    -0.378 OA
ENDROOT
TORSDOF 0
ENDMDL
MODEL 4
REMARK VINA RESULT:      -3.8     18.020     18.696
REMARK  0 active torsions:
REMARK  status: ('A' for Active; 'I' for Inactive)
ROOT
HETATM    1  C1  UNL     1     -33.111  16.614  -2.815  1.00 20.00     0.029 C 
HETATM    2  C2  UNL     1     -34.429  16.154  -2.245  1.00 20.00     0.042 C 
HETATM    3  C3  UNL     1     -34.966  14.378  -4.025  1.00 20.00     0.070 C 
HETATM    4  C4  UNL     1     -36.350  13.855  -4.407  1.00 20.00     0.275 C 
HETATM    5  C5  UNL     1     -36.724  15.895  -3.346  1.00 20.00     0.309 C 
HETATM    6  C6  UNL     1     -33.550  17.352  -4.060  1.00 20.00     0.169 C 
HETATM    7  C7  UNL     1     -35.212  15.801  -3.499  1.00 20.00     0.089 C 
HETATM    8  C8  UNL     1     -38.609  14.740  -4.352  1.00 20.00     0.310 C 
HETATM    9  N9  UNL     1     -37.191  15.051  -4.450  1.00 20.00     0.087 N 
HETATM   10  O10 UNL     1     -34.769  16.737  -4.506  1.00 20.00    -0.378 OA
ENDROOT
TORSDOF 0
ENDMDL
MODEL 5
REMARK VINA RESULT:      -3.7     17.340     18.185
REMARK  0 active torsions:
REMARK  status: ('A' for Active; 'I' for Inactive)
ROOT
HETATM    1  C1  UNL     1     -33.969  17.412  -1.384  1.00 20.00     0.029 C 
HETATM    2  C2  UNL     1     -34.846  16.307  -1.920  1.00 20.00     0.042 C 
HETATM    3  C3  UNL     1     -33.256  15.477  -3.761  1.00 20.00     0.070 C 
HETATM    4  C4  UNL     1     -33.645  14.731  -5.037  1.00 20.00     0.275 C 
HETATM    5  C5  UNL     1     -35.593  15.779  -4.309  1.00 20.00     0.309 C 
HETATM    6  C6  UNL     1     -34.024  18.424  -2.507  1.00 20.00     0.169 C 
HETATM    7  C7  UNL     1     -34.494  16.311  -3.398  1.00 20.00     0.089 C 
HETATM    8  C8  UNL     1     -35.619  14.622  -6.445  1.00 20.00     0.310 C 
HETATM    9  N9  UNL     1     -34.839  15.426  -5.515  1.00 20.00     0.087 N 
HETATM   10  O10 UNL     1     -34.221  17.691  -3.726  1.00 20.00    -0.378 OA
ENDROOT
TORSDOF 0
ENDMDL
MODEL 6
REMARK VINA RESULT:      -3.5     24.253     25.285
REMARK  0 active torsions:
REMARK  status: ('A' for Active; 'I' for Inactive)
ROOT
HETATM    1  C1  UNL     1     -41.996   8.104   0.477  1.00 20.00     0.029 C 
HETATM    2  C2  UNL     1     -42.439   6.682   0.717  1.00 20.00     0.042 C 
HETATM    3  C3  UNL     1     -41.089   5.584  -1.175  1.00 20.00     0.070 C 
HETATM    4  C4  UNL     1     -41.406   4.264  -1.878  1.00 20.00     0.275 C 
HETATM    5  C5  UNL     1     -43.404   4.940  -0.889  1.00 20.00     0.309 C 
HETATM    6  C6  UNL     1     -42.701   8.434  -0.820  1.00 20.00     0.169 C 
HETATM    7  C7  UNL     1     -42.449   6.110  -0.691  1.00 20.00     0.089 C 
HETATM    8  C8  UNL     1     -43.417   2.983  -2.327  1.00 20.00     0.310 C 
HETATM    9  N9  UNL     1     -42.853   4.302  -2.088  1.00 20.00     0.087 N 
HETATM   10  O10 UNL     1     -42.841   7.205  -1.548  1.00 20.00    -0.378 OA
ENDROOT
TORSDOF 0
ENDMDL
MODEL 7
REMARK VINA RESULT:      -3.5     16.308     17.106
REMARK  0 active torsions:
REMARK  status: ('A' for Active; 'I' for Inactive)
ROOT
HETATM    1  C1  UNL     1     -34.971  14.520  -4.022  1.00 20.00     0.029 C 
HETATM    2  C2  UNL     1     -35.026  15.527  -2.901  1.00 20.00     0.042 C 
HETATM    3  C3  UNL     1     -34.151  17.551  -4.222  1.00 20.00     0.070 C 
HETATM    4  C4  UNL     1     -33.457  18.787  -3.650  1.00 20.00     0.275 C 
HETATM    5  C5  UNL     1     -33.248  17.140  -2.016  1.00 20.00     0.309 C 
HETATM    6  C6  UNL     1     -33.480  14.327  -4.193  1.00 20.00     0.169 C 
HETATM    7  C7  UNL     1     -33.844  16.426  -3.223  1.00 20.00     0.089 C 
HETATM    8  C8  UNL     1     -32.112  19.261  -1.686  1.00 20.00     0.310 C 
HETATM    9  N9  UNL     1     -32.535  18.254  -2.648  1.00 20.00     0.087 N 
HETATM   10  O10 UNL     1     -32.850  15.559  -3.811  1.00 20.00    -0.378 OA
ENDROOT
TORSDOF 0
ENDMDL
MODEL 8
REMARK VINA RESULT:      -3.5     17.687     18.370
REMARK  0 active torsions:
REMARK  status: ('A' for Active; 'I' for Inactive)
ROOT
HETATM    1  C1  UNL     1     -35.828  14.561  -6.028  1.00 20.00     0.029 C 
HETATM    2  C2  UNL     1     -35.866  15.928  -5.391  1.00 20.00     0.042 C 
HETATM    3  C3  UNL     1     -33.796  15.659  -3.891  1.00 20.00     0.070 C 
HETATM    4  C4  UNL     1     -33.499  16.416  -2.597  1.00 20.00     0.275 C 
HETATM    5  C5  UNL     1     -35.795  16.625  -2.931  1.00 20.00     0.309 C 
HETATM    6  C6  UNL     1     -36.230  13.669  -4.874  1.00 20.00     0.169 C 
HETATM    7  C7  UNL     1     -35.328  15.644  -3.998  1.00 20.00     0.089 C 
HETATM    8  C8  UNL     1     -34.833  17.480  -0.871  1.00 20.00     0.310 C 
HETATM    9  N9  UNL     1     -34.779  16.443  -1.890  1.00 20.00     0.087 N 
HETATM   10  O10 UNL     1     -35.792  14.316  -3.670  1.00 20.00    -0.378 OA
ENDROOT
TORSDOF 0
ENDMDL
MODEL 9
REMARK VINA RESULT:      -3.5     17.826     18.587
REMARK  0 active torsions:
REMARK  status: ('A' for Active; 'I' for Inactive)
ROOT
HETATM    1  C1  UNL     1     -36.269  13.780  -4.574  1.00 20.00     0.029 C 
HETATM    2  C2  UNL     1     -35.088  14.515  -5.157  1.00 20.00     0.042 C 
HETATM    3  C3  UNL     1     -34.188  15.502  -2.960  1.00 20.00     0.070 C 
HETATM    4  C4  UNL     1     -33.328  16.756  -2.805  1.00 20.00     0.275 C 
HETATM    5  C5  UNL     1     -34.342  16.949  -4.893  1.00 20.00     0.309 C 
HETATM    6  C6  UNL     1     -37.187  14.920  -4.191  1.00 20.00     0.169 C 
HETATM    7  C7  UNL     1     -34.992  15.731  -4.249  1.00 20.00     0.089 C 
HETATM    8  C8  UNL     1     -33.021  18.810  -4.061  1.00 20.00     0.310 C 
HETATM    9  N9  UNL     1     -33.929  17.725  -3.720  1.00 20.00     0.087 N 
HETATM   10  O10 UNL     1     -36.353  16.047  -3.883  1.00 20.00    -0.378 OA
ENDROOT
TORSDOF 0
ENDMDL
