MODEL 1
REMARK VINA RESULT:      -4.3      0.000      0.000
REMARK  1 active torsions:
REMARK  status: ('A' for Active; 'I' for Inactive)
REMARK    1  A    between atoms: C3_3  and  C6_6 
ROOT
HETATM    1  C1  UNL     1     -35.096  16.138  -1.885  1.00 20.00     0.013 C 
HETATM    2  C2  UNL     1     -35.002  15.579  -2.943  1.00 20.00    -0.099 C 
HETATM    3  C4  UNL     1     -33.491  14.241  -4.330  1.00 20.00     0.038 C 
HETATM    4  C5  UNL     1     -35.041  15.940  -5.365  1.00 20.00     0.038 C 
HETATM    5  C6  UNL     1     -34.882  14.891  -4.254  1.00 20.00     0.091 C 
ENDROOT
BRANCH   5   6
HETATM    6  C3  UNL     1     -35.984  13.815  -4.369  1.00 20.00     0.238 C 
HETATM    7  O7  UNL     1     -35.721  12.618  -4.474  1.00 20.00    -0.278 OA
HETATM    8 CL8  UNL     1     -37.613  14.450  -4.335  1.00 20.00    -0.042 Cl
ENDBRANCH   5   6
TORSDOF 1
ENDMDL
MODEL 2
REMARK VINA RESULT:      -3.9      0.441      2.055
REMARK  1 active torsions:
REMARK  status: ('A' for Active; 'I' for Inactive)
REMARK    1  A    between atoms: C3_3  and  C6_6 
ROOT
HETATM    1  C1  UNL     1     -35.349  16.937  -5.864  1.00 20.00     0.013 C 
HETATM    2  C2  UNL     1     -35.167  16.041  -5.086  1.00 20.00    -0.099 C 
HETATM    3  C4  UNL     1     -35.028  15.511  -2.700  1.00 20.00     0.038 C 
HETATM    4  C5  UNL     1     -33.537  14.357  -4.375  1.00 20.00     0.038 C 
HETATM    5  C6  UNL     1     -34.938  14.935  -4.121  1.00 20.00     0.091 C 
ENDROOT
BRANCH   5   6
HETATM    6  C3  UNL     1     -36.014  13.846  -4.328  1.00 20.00     0.238 C 
HETATM    7  O7  UNL     1     -35.724  12.660  -4.481  1.00 20.00    -0.278 OA
HETATM    8 CL8  UNL     1     -37.656  14.450  -4.324  1.00 20.00    -0.042 Cl
ENDBRANCH   5   6
TORSDOF 1
ENDMDL
MODEL 3
REMARK VINA RESULT:      -3.9     18.448     19.035
REMARK  1 active torsions:
REMARK  status: ('A' for Active; 'I' for Inactive)
REMARK    1  A    between atoms: C3_3  and  C6_6 
ROOT
HETATM    1  C1  UNL     1     -22.460  16.992   8.954  1.00 20.00     0.013 C 
HETATM    2  C2  UNL     1     -23.124  17.133   9.945  1.00 20.00    -0.099 C 
HETATM    3  C4  UNL     1     -23.018  17.770  12.306  1.00 20.00     0.038 C 
HETATM    4  C5  UNL     1     -24.574  15.948  11.522  1.00 20.00     0.038 C 
HETATM    5  C6  UNL     1     -23.944  17.304  11.171  1.00 20.00     0.091 C 
ENDROOT
BRANCH   5   6
HETATM    6  C3  UNL     1     -25.044  18.356  10.908  1.00 20.00     0.238 C 
HETATM    7  O7  UNL     1     -25.098  18.996   9.859  1.00 20.00    -0.278 OA
HETATM    8 CL8  UNL     1     -26.183  18.547  12.221  1.00 20.00    -0.042 Cl
ENDBRANCH   5   6
TORSDOF 1
ENDMDL
MODEL 4
REMARK VINA RESULT:      -3.9      1.860      2.265
REMARK  1 active torsions:
REMARK  status: ('A' for Active; 'I' for Inactive)
REMARK    1  A    between atoms: C3_3  and  C6_6 
ROOT
HETATM    1  C1  UNL     1     -35.086  16.346  -1.614  1.00 20.00     0.013 C 
HETATM    2  C2  UNL     1     -35.246  15.796  -2.669  1.00 20.00    -0.099 C 
HETATM    3  C4  UNL     1     -35.168  16.136  -5.092  1.00 20.00     0.038 C 
HETATM    4  C5  UNL     1     -36.904  14.635  -4.047  1.00 20.00     0.038 C 
HETATM    5  C6  UNL     1     -35.448  15.118  -3.975  1.00 20.00     0.091 C 
ENDROOT
BRANCH   5   6
HETATM    6  C3  UNL     1     -34.478  13.921  -4.084  1.00 20.00     0.238 C 
HETATM    7  O7  UNL     1     -34.858  12.758  -3.960  1.00 20.00    -0.278 OA
HETATM    8 CL8  UNL     1     -32.816  14.369  -4.397  1.00 20.00    -0.042 Cl
ENDBRANCH   5   6
TORSDOF 1
ENDMDL
MODEL 5
REMARK VINA RESULT:      -3.8      1.077      2.597
REMARK  1 active torsions:
REMARK  status: ('A' for Active; 'I' for Inactive)
REMARK    1  A    between atoms: C3_3  and  C6_6 
ROOT
HETATM    1  C1  UNL     1     -33.990  15.025  -6.889  1.00 20.00     0.013 C 
HETATM    2  C2  UNL     1     -34.593  15.065  -5.851  1.00 20.00    -0.099 C 
HETATM    3  C4  UNL     1     -36.109  16.445  -4.513  1.00 20.00     0.038 C 
HETATM    4  C5  UNL     1     -34.320  15.046  -3.418  1.00 20.00     0.038 C 
HETATM    5  C6  UNL     1     -35.337  15.118  -4.567  1.00 20.00     0.091 C 
ENDROOT
BRANCH   5   6
HETATM    6  C3  UNL     1     -36.316  13.924  -4.494  1.00 20.00     0.238 C 
HETATM    7  O7  UNL     1     -35.930  12.758  -4.560  1.00 20.00    -0.278 OA
HETATM    8 CL8  UNL     1     -37.993  14.383  -4.310  1.00 20.00    -0.042 Cl
ENDBRANCH   5   6
TORSDOF 1
ENDMDL
MODEL 6
REMARK VINA RESULT:      -3.7     12.221     12.686
REMARK  1 active torsions:
REMARK  status: ('A' for Active; 'I' for Inactive)
REMARK    1  A    between atoms: C3_3  and  C6_6 
ROOT
HETATM    1  C1  UNL     1     -32.682   6.938   2.804  1.00 20.00     0.013 C 
HETATM    2  C2  UNL     1     -33.469   6.258   3.404  1.00 20.00    -0.099 C 
HETATM    3  C4  UNL     1     -34.145   3.943   3.824  1.00 20.00     0.038 C 
HETATM    4  C5  UNL     1     -35.857   5.787   3.668  1.00 20.00     0.038 C 
HETATM    5  C6  UNL     1     -34.444   5.416   4.143  1.00 20.00     0.091 C 
ENDROOT
BRANCH   5   6
HETATM    6  C3  UNL     1     -34.301   5.678   5.659  1.00 20.00     0.238 C 
HETATM    7  O7  UNL     1     -34.575   4.822   6.499  1.00 20.00    -0.278 OA
HETATM    8 CL8  UNL     1     -33.719   7.278   6.058  1.00 20.00    -0.042 Cl
ENDBRANCH   5   6
TORSDOF 1
ENDMDL
MODEL 7
REMARK VINA RESULT:      -3.7     11.851     12.342
REMARK  1 active torsions:
REMARK  status: ('A' for Active; 'I' for Inactive)
REMARK    1  A    between atoms: C3_3  and  C6_6 
ROOT
HETATM    1  C1  UNL     1     -33.644   7.207   6.082  1.00 20.00     0.013 C 
HETATM    2  C2  UNL     1     -33.962   6.418   5.235  1.00 20.00    -0.099 C 
HETATM    3  C4  UNL     1     -35.801   5.753   3.761  1.00 20.00     0.038 C 
HETATM    4  C5  UNL     1     -34.277   4.030   4.794  1.00 20.00     0.038 C 
HETATM    5  C6  UNL     1     -34.359   5.440   4.190  1.00 20.00     0.091 C 
ENDROOT
BRANCH   5   6
HETATM    6  C3  UNL     1     -33.401   5.564   2.984  1.00 20.00     0.238 C 
HETATM    7  O7  UNL     1     -33.135   4.607   2.259  1.00 20.00    -0.278 OA
HETATM    8 CL8  UNL     1     -32.744   7.168   2.752  1.00 20.00    -0.042 Cl
ENDBRANCH   5   6
TORSDOF 1
ENDMDL
MODEL 8
REMARK VINA RESULT:      -3.6     18.566     19.000
REMARK  1 active torsions:
REMARK  status: ('A' for Active; 'I' for Inactive)
REMARK    1  A    between atoms: C3_3  and  C6_6 
ROOT
HETATM    1  C1  UNL     1     -26.005  19.190  11.453  1.00 20.00     0.013 C 
HETATM    2  C2  UNL     1     -25.067  18.451  11.322  1.00 20.00    -0.099 C 
HETATM    3  C4  UNL     1     -24.430  16.090  11.201  1.00 20.00     0.038 C 
HETATM    4  C5  UNL     1     -22.938  17.782  12.329  1.00 20.00     0.038 C 
HETATM    5  C6  UNL     1     -23.909  17.535  11.164  1.00 20.00     0.091 C 
ENDROOT
BRANCH   5   6
HETATM    6  C3  UNL     1     -23.212  17.821   9.815  1.00 20.00     0.238 C 
HETATM    7  O7  UNL     1     -22.004  17.653   9.654  1.00 20.00    -0.278 OA
HETATM    8 CL8  UNL     1     -24.287  18.393   8.560  1.00 20.00    -0.042 Cl
ENDBRANCH   5   6
TORSDOF 1
ENDMDL
MODEL 9
REMARK VINA RESULT:      -3.6      2.201      2.641
REMARK  1 active torsions:
REMARK  status: ('A' for Active; 'I' for Inactive)
REMARK    1  A    between atoms: C3_3  and  C6_6 
ROOT
HETATM    1  C1  UNL     1     -34.794  16.244  -1.916  1.00 20.00     0.013 C 
HETATM    2  C2  UNL     1     -34.658  15.643  -2.947  1.00 20.00    -0.099 C 
HETATM    3  C4  UNL     1     -35.413  13.668  -4.182  1.00 20.00     0.038 C 
HETATM    4  C5  UNL     1     -33.020  14.453  -4.325  1.00 20.00     0.038 C 
HETATM    5  C6  UNL     1     -34.487  14.895  -4.219  1.00 20.00     0.091 C 
ENDROOT
BRANCH   5   6
HETATM    6  C3  UNL     1     -34.859  15.813  -5.405  1.00 20.00     0.238 C 
HETATM    7  O7  UNL     1     -35.608  16.780  -5.273  1.00 20.00    -0.278 OA
HETATM    8 CL8  UNL     1     -34.126  15.354  -6.925  1.00 20.00    -0.042 Cl
ENDBRANCH   5   6
TORSDOF 1
ENDMDL
