MODEL 1
REMARK VINA RESULT:      -4.1      0.000      0.000
REMARK  0 active torsions:
REMARK  status: ('A' for Active; 'I' for Inactive)
ROOT
HETATM    1  C1  UNL     1     -35.434   5.951   4.034  1.00 20.00     0.036 A 
HETATM    2  C2  UNL     1     -34.446   5.825   5.173  1.00 20.00    -0.025 A 
HETATM    3  C3  UNL     1     -34.065   5.375   3.755  1.00 20.00     0.041 A 
HETATM    4  C4  UNL     1     -34.710   4.782   6.231  1.00 20.00     0.016 C 
HETATM    5  C5  UNL     1     -33.868   7.101   5.740  1.00 20.00     0.016 C 
HETATM    6  C6  UNL     1     -33.955   3.917   3.405  1.00 20.00     0.033 C 
HETATM    7 CL7  UNL     1     -32.946   6.396   2.811  1.00 20.00    -0.119 Cl
ENDROOT
TORSDOF 0
ENDMDL
MODEL 2
REMARK VINA RESULT:      -3.8     16.747     17.674
REMARK  0 active torsions:
REMARK  status: ('A' for Active; 'I' for Inactive)
ROOT
HETATM    1  C1  UNL     1     -23.915  16.735  10.399  1.00 20.00     0.036 A 
HETATM    2  C2  UNL     1     -23.666  18.160   9.958  1.00 20.00    -0.025 A 
HETATM    3  C3  UNL     1     -23.687  17.796  11.450  1.00 20.00     0.041 A 
HETATM    4  C4  UNL     1     -24.822  18.935   9.372  1.00 20.00     0.016 C 
HETATM    5  C5  UNL     1     -22.353  18.461   9.274  1.00 20.00     0.016 C 
HETATM    6  C6  UNL     1     -24.838  18.195  12.332  1.00 20.00     0.033 C 
HETATM    7 CL7  UNL     1     -22.136  17.730  12.331  1.00 20.00    -0.119 Cl
ENDROOT
TORSDOF 0
ENDMDL
MODEL 3
REMARK VINA RESULT:      -3.7      1.867      3.225
REMARK  0 active torsions:
REMARK  status: ('A' for Active; 'I' for Inactive)
ROOT
HETATM    1  C1  UNL     1     -34.796   6.708   3.528  1.00 20.00     0.036 A 
HETATM    2  C2  UNL     1     -33.411   6.130   3.338  1.00 20.00    -0.025 A 
HETATM    3  C3  UNL     1     -34.074   6.132   4.724  1.00 20.00     0.041 A 
HETATM    4  C4  UNL     1     -32.274   7.085   3.064  1.00 20.00     0.016 C 
HETATM    5  C5  UNL     1     -33.293   4.840   2.561  1.00 20.00     0.016 C 
HETATM    6  C6  UNL     1     -33.612   7.069   5.805  1.00 20.00     0.033 C 
HETATM    7 CL7  UNL     1     -34.700   4.590   5.369  1.00 20.00    -0.119 Cl
ENDROOT
TORSDOF 0
ENDMDL
MODEL 4
REMARK VINA RESULT:      -3.5      1.486      2.224
REMARK  0 active torsions:
REMARK  status: ('A' for Active; 'I' for Inactive)
ROOT
HETATM    1  C1  UNL     1     -35.317   6.203   4.014  1.00 20.00     0.036 A 
HETATM    2  C2  UNL     1     -34.462   5.094   4.585  1.00 20.00    -0.025 A 
HETATM    3  C3  UNL     1     -33.849   6.464   4.264  1.00 20.00     0.041 A 
HETATM    4  C4  UNL     1     -34.140   3.916   3.697  1.00 20.00     0.016 C 
HETATM    5  C5  UNL     1     -34.705   4.694   6.022  1.00 20.00     0.016 C 
HETATM    6  C6  UNL     1     -32.940   6.652   3.081  1.00 20.00     0.033 C 
HETATM    7 CL7  UNL     1     -33.450   7.556   5.618  1.00 20.00    -0.119 Cl
ENDROOT
TORSDOF 0
ENDMDL
MODEL 5
REMARK VINA RESULT:      -3.5     16.012     17.133
REMARK  0 active torsions:
REMARK  status: ('A' for Active; 'I' for Inactive)
ROOT
HETATM    1  C1  UNL     1     -23.019  17.986  11.456  1.00 20.00     0.036 A 
HETATM    2  C2  UNL     1     -23.481  17.816  10.026  1.00 20.00    -0.025 A 
HETATM    3  C3  UNL     1     -24.376  17.376  11.193  1.00 20.00     0.041 A 
HETATM    4  C4  UNL     1     -22.803  16.764   9.180  1.00 20.00     0.016 C 
HETATM    5  C5  UNL     1     -23.818  19.066   9.247  1.00 20.00     0.016 C 
HETATM    6  C6  UNL     1     -24.584  15.920  11.509  1.00 20.00     0.033 C 
HETATM    7 CL7  UNL     1     -25.796  18.378  11.600  1.00 20.00    -0.119 Cl
ENDROOT
TORSDOF 0
ENDMDL
MODEL 6
REMARK VINA RESULT:      -3.5      8.063      9.228
REMARK  0 active torsions:
REMARK  status: ('A' for Active; 'I' for Inactive)
ROOT
HETATM    1  C1  UNL     1     -40.929   7.020   0.842  1.00 20.00     0.036 A 
HETATM    2  C2  UNL     1     -42.389   6.655   0.690  1.00 20.00    -0.025 A 
HETATM    3  C3  UNL     1     -41.457   6.675  -0.531  1.00 20.00     0.041 A 
HETATM    4  C4  UNL     1     -43.416   7.749   0.852  1.00 20.00     0.016 C 
HETATM    5  C5  UNL     1     -42.843   5.336   1.271  1.00 20.00     0.016 C 
HETATM    6  C6  UNL     1     -41.550   7.765  -1.562  1.00 20.00     0.033 C 
HETATM    7 CL7  UNL     1     -40.929   5.117  -1.223  1.00 20.00    -0.119 Cl
ENDROOT
TORSDOF 0
ENDMDL
MODEL 7
REMARK VINA RESULT:      -3.4     12.121     12.736
REMARK  0 active torsions:
REMARK  status: ('A' for Active; 'I' for Inactive)
ROOT
HETATM    1  C1  UNL     1     -34.527  16.347  -4.381  1.00 20.00     0.036 A 
HETATM    2  C2  UNL     1     -34.167  16.200  -2.920  1.00 20.00    -0.025 A 
HETATM    3  C3  UNL     1     -34.037  15.008  -3.879  1.00 20.00     0.041 A 
HETATM    4  C4  UNL     1     -35.288  16.213  -1.908  1.00 20.00     0.016 C 
HETATM    5  C5  UNL     1     -32.928  16.913  -2.430  1.00 20.00     0.016 C 
HETATM    6  C6  UNL     1     -35.006  13.860  -3.829  1.00 20.00     0.033 C 
HETATM    7 CL7  UNL     1     -32.404  14.509  -4.397  1.00 20.00    -0.119 Cl
ENDROOT
TORSDOF 0
ENDMDL
MODEL 8
REMARK VINA RESULT:      -3.4     15.910     16.975
REMARK  0 active torsions:
REMARK  status: ('A' for Active; 'I' for Inactive)
ROOT
HETATM    1  C1  UNL     1     -23.194  18.015  11.580  1.00 20.00     0.036 A 
HETATM    2  C2  UNL     1     -24.518  17.317  11.364  1.00 20.00    -0.025 A 
HETATM    3  C3  UNL     1     -23.700  17.827  10.169  1.00 20.00     0.041 A 
HETATM    4  C4  UNL     1     -25.779  18.047  11.760  1.00 20.00     0.016 C 
HETATM    5  C5  UNL     1     -24.583  15.836  11.656  1.00 20.00     0.016 C 
HETATM    6  C6  UNL     1     -24.133  19.040   9.392  1.00 20.00     0.033 C 
HETATM    7 CL7  UNL     1     -22.835  16.636   9.160  1.00 20.00    -0.119 Cl
ENDROOT
TORSDOF 0
ENDMDL
MODEL 9
REMARK VINA RESULT:      -3.4      8.379      9.432
REMARK  0 active torsions:
REMARK  status: ('A' for Active; 'I' for Inactive)
ROOT
HETATM    1  C1  UNL     1     -40.909   6.895   0.745  1.00 20.00     0.036 A 
HETATM    2  C2  UNL     1     -41.469   6.562  -0.620  1.00 20.00    -0.025 A 
HETATM    3  C3  UNL     1     -42.400   6.697   0.594  1.00 20.00     0.041 A 
HETATM    4  C4  UNL     1     -41.192   5.190  -1.187  1.00 20.00     0.016 C 
HETATM    5  C5  UNL     1     -41.439   7.647  -1.671  1.00 20.00     0.016 C 
HETATM    6  C6  UNL     1     -43.033   5.489   1.227  1.00 20.00     0.033 C 
HETATM    7 CL7  UNL     1     -43.417   8.157   0.727  1.00 20.00    -0.119 Cl
ENDROOT
TORSDOF 0
ENDMDL
