MODEL 1
REMARK VINA RESULT:      -5.2      0.000      0.000
REMARK  4 active torsions:
REMARK  status: ('A' for Active; 'I' for Inactive)
REMARK    1  A    between atoms: C1_1  and  C6_6 
REMARK    2  A    between atoms: C2_2  and  C7_7 
REMARK    3  A    between atoms: C6_6  and  C8_8 
REMARK    4  A    between atoms: C7_7  and  C9_9 
ROOT
HETATM    1  C1  UNL     1     -32.692   7.029   2.223  1.00 20.00    -0.107 C 
HETATM    2  C2  UNL     1     -33.311   6.255   2.901  1.00 20.00    -0.106 C 
ENDROOT
BRANCH   2   3
HETATM    3  C7  UNL     1     -34.074   5.302   3.720  1.00 20.00     0.097 C 
BRANCH   3   4
HETATM    4  C9  UNL     1     -34.598   5.901   5.037  1.00 20.00    -0.012 C 
HETATM    5  C4  UNL     1     -33.677   6.994   5.585  1.00 20.00     0.010 C 
HETATM    6  C5  UNL     1     -34.857   4.832   6.100  1.00 20.00     0.010 C 
ENDBRANCH   3   4
ENDBRANCH   2   3
BRANCH   1   7
HETATM    7  C6  UNL     1     -31.938   7.968   1.381  1.00 20.00     0.093 C 
BRANCH   7   8
HETATM    8  C8  UNL     1     -32.826   9.079   0.820  1.00 20.00     0.007 C 
HETATM    9  C3  UNL     1     -33.506   8.695  -0.488  1.00 20.00     0.006 C 
ENDBRANCH   7   8
ENDBRANCH   1   7
TORSDOF 4
ENDMDL
MODEL 2
REMARK VINA RESULT:      -4.9      0.895      5.212
REMARK  4 active torsions:
REMARK  status: ('A' for Active; 'I' for Inactive)
REMARK    1  A    between atoms: C1_1  and  C6_6 
REMARK    2  A    between atoms: C2_2  and  C7_7 
REMARK    3  A    between atoms: C6_6  and  C8_8 
REMARK    4  A    between atoms: C7_7  and  C9_9 
ROOT
HETATM    1  C1  UNL     1     -33.542   5.588   3.140  1.00 20.00    -0.107 C 
HETATM    2  C2  UNL     1     -32.954   6.462   2.562  1.00 20.00    -0.106 C 
ENDROOT
BRANCH   2   3
HETATM    3  C7  UNL     1     -32.245   7.533   1.847  1.00 20.00     0.097 C 
BRANCH   3   4
HETATM    4  C9  UNL     1     -33.167   8.416   0.987  1.00 20.00    -0.012 C 
HETATM    5  C4  UNL     1     -33.100   8.052  -0.498  1.00 20.00     0.010 C 
HETATM    6  C5  UNL     1     -32.896   9.908   1.188  1.00 20.00     0.010 C 
ENDBRANCH   3   4
ENDBRANCH   2   3
BRANCH   1   7
HETATM    7  C6  UNL     1     -34.273   4.524   3.839  1.00 20.00     0.093 C 
BRANCH   7   8
HETATM    8  C8  UNL     1     -35.179   5.076   4.941  1.00 20.00     0.007 C 
HETATM    9  C3  UNL     1     -34.433   5.941   5.948  1.00 20.00     0.006 C 
ENDBRANCH   7   8
ENDBRANCH   1   7
TORSDOF 4
ENDMDL
MODEL 3
REMARK VINA RESULT:      -4.6      0.900      5.117
REMARK  4 active torsions:
REMARK  status: ('A' for Active; 'I' for Inactive)
REMARK    1  A    between atoms: C1_1  and  C6_6 
REMARK    2  A    between atoms: C2_2  and  C7_7 
REMARK    3  A    between atoms: C6_6  and  C8_8 
REMARK    4  A    between atoms: C7_7  and  C9_9 
ROOT
HETATM    1  C1  UNL     1     -33.345   6.956   4.322  1.00 20.00    -0.107 C 
HETATM    2  C2  UNL     1     -32.903   7.131   3.219  1.00 20.00    -0.106 C 
ENDROOT
BRANCH   2   3
HETATM    3  C7  UNL     1     -32.373   7.347   1.864  1.00 20.00     0.097 C 
BRANCH   3   4
HETATM    4  C9  UNL     1     -33.216   8.319   1.020  1.00 20.00    -0.012 C 
HETATM    5  C4  UNL     1     -33.088   8.047  -0.480  1.00 20.00     0.010 C 
HETATM    6  C5  UNL     1     -32.900   9.783   1.331  1.00 20.00     0.010 C 
ENDBRANCH   3   4
ENDBRANCH   2   3
BRANCH   1   7
HETATM    7  C6  UNL     1     -33.900   6.746   5.665  1.00 20.00     0.093 C 
BRANCH   7   8
HETATM    8  C8  UNL     1     -34.714   5.455   5.757  1.00 20.00     0.007 C 
HETATM    9  C3  UNL     1     -34.915   4.780   4.406  1.00 20.00     0.006 C 
ENDBRANCH   7   8
ENDBRANCH   1   7
TORSDOF 4
ENDMDL
MODEL 4
REMARK VINA RESULT:      -4.0     10.605     11.763
REMARK  4 active torsions:
REMARK  status: ('A' for Active; 'I' for Inactive)
REMARK    1  A    between atoms: C1_1  and  C6_6 
REMARK    2  A    between atoms: C2_2  and  C7_7 
REMARK    3  A    between atoms: C6_6  and  C8_8 
REMARK    4  A    between atoms: C7_7  and  C9_9 
ROOT
HETATM    1  C1  UNL     1     -33.037  17.620  -1.824  1.00 20.00    -0.107 C 
HETATM    2  C2  UNL     1     -33.822  16.761  -2.121  1.00 20.00    -0.106 C 
ENDROOT
BRANCH   2   3
HETATM    3  C7  UNL     1     -34.783  15.705  -2.472  1.00 20.00     0.097 C 
BRANCH   3   4
HETATM    4  C9  UNL     1     -34.602  15.154  -3.897  1.00 20.00    -0.012 C 
HETATM    5  C4  UNL     1     -35.505  13.951  -4.175  1.00 20.00     0.010 C 
HETATM    6  C5  UNL     1     -33.143  14.817  -4.208  1.00 20.00     0.010 C 
ENDBRANCH   3   4
ENDBRANCH   2   3
BRANCH   1   7
HETATM    7  C6  UNL     1     -32.080  18.668  -1.447  1.00 20.00     0.093 C 
BRANCH   7   8
HETATM    8  C8  UNL     1     -31.103  18.195  -0.370  1.00 20.00     0.007 C 
HETATM    9  C3  UNL     1     -31.578  18.505   1.044  1.00 20.00     0.006 C 
ENDBRANCH   7   8
ENDBRANCH   1   7
TORSDOF 4
ENDMDL
MODEL 5
REMARK VINA RESULT:      -3.9     10.627     11.861
REMARK  4 active torsions:
REMARK  status: ('A' for Active; 'I' for Inactive)
REMARK    1  A    between atoms: C1_1  and  C6_6 
REMARK    2  A    between atoms: C2_2  and  C7_7 
REMARK    3  A    between atoms: C6_6  and  C8_8 
REMARK    4  A    between atoms: C7_7  and  C9_9 
ROOT
HETATM    1  C1  UNL     1     -32.547  17.779  -1.806  1.00 20.00    -0.107 C 
HETATM    2  C2  UNL     1     -32.908  16.919  -2.562  1.00 20.00    -0.106 C 
ENDROOT
BRANCH   2   3
HETATM    3  C7  UNL     1     -33.344  15.872  -3.498  1.00 20.00     0.097 C 
BRANCH   3   4
HETATM    4  C9  UNL     1     -34.676  15.208  -3.104  1.00 20.00    -0.012 C 
HETATM    5  C4  UNL     1     -35.110  14.137  -4.106  1.00 20.00     0.010 C 
HETATM    6  C5  UNL     1     -35.793  16.231  -2.890  1.00 20.00     0.010 C 
ENDBRANCH   3   4
ENDBRANCH   2   3
BRANCH   1   7
HETATM    7  C6  UNL     1     -32.095  18.836  -0.891  1.00 20.00     0.093 C 
BRANCH   7   8
HETATM    8  C8  UNL     1     -30.955  18.367   0.013  1.00 20.00     0.007 C 
HETATM    9  C3  UNL     1     -31.346  18.313   1.485  1.00 20.00     0.006 C 
ENDBRANCH   7   8
ENDBRANCH   1   7
TORSDOF 4
ENDMDL
MODEL 6
REMARK VINA RESULT:      -3.9     10.312     11.617
REMARK  4 active torsions:
REMARK  status: ('A' for Active; 'I' for Inactive)
REMARK    1  A    between atoms: C1_1  and  C6_6 
REMARK    2  A    between atoms: C2_2  and  C7_7 
REMARK    3  A    between atoms: C6_6  and  C8_8 
REMARK    4  A    between atoms: C7_7  and  C9_9 
ROOT
HETATM    1  C1  UNL     1     -34.340  16.016  -2.568  1.00 20.00    -0.107 C 
HETATM    2  C2  UNL     1     -34.593  15.031  -3.207  1.00 20.00    -0.106 C 
ENDROOT
BRANCH   2   3
HETATM    3  C7  UNL     1     -34.895  13.819  -3.982  1.00 20.00     0.097 C 
BRANCH   3   4
HETATM    4  C9  UNL     1     -36.091  13.979  -4.937  1.00 20.00    -0.012 C 
HETATM    5  C4  UNL     1     -35.717  14.730  -6.216  1.00 20.00     0.010 C 
HETATM    6  C5  UNL     1     -37.293  14.637  -4.257  1.00 20.00     0.010 C 
ENDBRANCH   3   4
ENDBRANCH   2   3
BRANCH   1   7
HETATM    7  C6  UNL     1     -34.021  17.212  -1.777  1.00 20.00     0.093 C 
BRANCH   7   8
HETATM    8  C8  UNL     1     -32.689  17.838  -2.191  1.00 20.00     0.007 C 
HETATM    9  C3  UNL     1     -31.831  18.253  -1.003  1.00 20.00     0.006 C 
ENDBRANCH   7   8
ENDBRANCH   1   7
TORSDOF 4
ENDMDL
MODEL 7
REMARK VINA RESULT:      -3.8     14.888     15.922
REMARK  4 active torsions:
REMARK  status: ('A' for Active; 'I' for Inactive)
REMARK    1  A    between atoms: C1_1  and  C6_6 
REMARK    2  A    between atoms: C2_2  and  C7_7 
REMARK    3  A    between atoms: C6_6  and  C8_8 
REMARK    4  A    between atoms: C7_7  and  C9_9 
ROOT
HETATM    1  C1  UNL     1     -23.889  18.671   8.747  1.00 20.00    -0.107 C 
HETATM    2  C2  UNL     1     -23.445  18.266   9.787  1.00 20.00    -0.106 C 
ENDROOT
BRANCH   2   3
HETATM    3  C7  UNL     1     -22.899  17.759  11.054  1.00 20.00     0.097 C 
BRANCH   3   4
HETATM    4  C9  UNL     1     -23.974  17.248  12.029  1.00 20.00    -0.012 C 
HETATM    5  C4  UNL     1     -24.630  15.953  11.544  1.00 20.00     0.010 C 
HETATM    6  C5  UNL     1     -25.034  18.309  12.332  1.00 20.00     0.010 C 
ENDBRANCH   3   4
ENDBRANCH   2   3
BRANCH   1   7
HETATM    7  C6  UNL     1     -24.426  19.154   7.468  1.00 20.00     0.093 C 
BRANCH   7   8
HETATM    8  C8  UNL     1     -25.941  18.968   7.373  1.00 20.00     0.007 C 
HETATM    9  C3  UNL     1     -26.417  18.668   5.957  1.00 20.00     0.006 C 
ENDBRANCH   7   8
ENDBRANCH   1   7
TORSDOF 4
ENDMDL
MODEL 8
REMARK VINA RESULT:      -3.8     14.284     15.508
REMARK  4 active torsions:
REMARK  status: ('A' for Active; 'I' for Inactive)
REMARK    1  A    between atoms: C1_1  and  C6_6 
REMARK    2  A    between atoms: C2_2  and  C7_7 
REMARK    3  A    between atoms: C6_6  and  C8_8 
REMARK    4  A    between atoms: C7_7  and  C9_9 
ROOT
HETATM    1  C1  UNL     1     -25.352  18.917   7.182  1.00 20.00    -0.107 C 
HETATM    2  C2  UNL     1     -24.491  19.050   8.009  1.00 20.00    -0.106 C 
ENDROOT
BRANCH   2   3
HETATM    3  C7  UNL     1     -23.431  19.202   9.016  1.00 20.00     0.097 C 
BRANCH   3   4
HETATM    4  C9  UNL     1     -22.632  17.912   9.271  1.00 20.00    -0.012 C 
HETATM    5  C4  UNL     1     -21.951  17.390   8.004  1.00 20.00     0.010 C 
HETATM    6  C5  UNL     1     -23.486  16.817   9.914  1.00 20.00     0.010 C 
ENDBRANCH   3   4
ENDBRANCH   2   3
BRANCH   1   7
HETATM    7  C6  UNL     1     -26.397  18.745   6.164  1.00 20.00     0.093 C 
BRANCH   7   8
HETATM    8  C8  UNL     1     -25.928  19.190   4.778  1.00 20.00     0.007 C 
HETATM    9  C3  UNL     1     -26.892  18.794   3.667  1.00 20.00     0.006 C 
ENDBRANCH   7   8
ENDBRANCH   1   7
TORSDOF 4
ENDMDL
MODEL 9
REMARK VINA RESULT:      -3.8     10.700     11.737
REMARK  4 active torsions:
REMARK  status: ('A' for Active; 'I' for Inactive)
REMARK    1  A    between atoms: C1_1  and  C6_6 
REMARK    2  A    between atoms: C2_2  and  C7_7 
REMARK    3  A    between atoms: C6_6  and  C8_8 
REMARK    4  A    between atoms: C7_7  and  C9_9 
ROOT
HETATM    1  C1  UNL     1     -33.885  16.549  -2.298  1.00 20.00    -0.107 C 
HETATM    2  C2  UNL     1     -33.102  17.418  -2.029  1.00 20.00    -0.106 C 
ENDROOT
BRANCH   2   3
HETATM    3  C7  UNL     1     -32.149  18.491  -1.708  1.00 20.00     0.097 C 
BRANCH   3   4
HETATM    4  C9  UNL     1     -32.087  18.833  -0.208  1.00 20.00    -0.012 C 
HETATM    5  C4  UNL     1     -30.863  18.222   0.477  1.00 20.00     0.010 C 
HETATM    6  C5  UNL     1     -33.369  18.442   0.530  1.00 20.00     0.010 C 
ENDBRANCH   3   4
ENDBRANCH   2   3
BRANCH   1   7
HETATM    7  C6  UNL     1     -34.852  15.495  -2.635  1.00 20.00     0.093 C 
BRANCH   7   8
HETATM    8  C8  UNL     1     -34.592  14.896  -4.018  1.00 20.00     0.007 C 
HETATM    9  C3  UNL     1     -33.115  14.639  -4.288  1.00 20.00     0.006 C 
ENDBRANCH   7   8
ENDBRANCH   1   7
TORSDOF 4
ENDMDL
