MODEL 1
REMARK VINA RESULT:      -4.1      0.000      0.000
REMARK  1 active torsions:
REMARK  status: ('A' for Active; 'I' for Inactive)
REMARK    1  A    between atoms: C2_2  and  C4_4 
ROOT
HETATM    1  C1  UNL     1     -33.312   6.742   3.545  1.00 20.00    -0.010 C 
HETATM    2  C2  UNL     1     -33.839   5.506   3.524  1.00 20.00     0.021 C 
HETATM    3  C3  UNL     1     -32.211   7.264   2.680  1.00 20.00     0.037 C 
HETATM    4 CL5  UNL     1     -33.249   4.369   2.344  1.00 20.00    -0.088 Cl
ENDROOT
BRANCH   2   5
HETATM    5  C4  UNL     1     -34.941   4.985   4.390  1.00 20.00     0.165 C 
HETATM    6 CL6  UNL     1     -34.681   5.464   6.082  1.00 20.00    -0.125 Cl
ENDBRANCH   2   5
TORSDOF 1
ENDMDL
MODEL 2
REMARK VINA RESULT:      -4.1      1.714      3.336
REMARK  1 active torsions:
REMARK  status: ('A' for Active; 'I' for Inactive)
REMARK    1  A    between atoms: C2_2  and  C4_4 
ROOT
HETATM    1  C1  UNL     1     -34.129   6.358   4.378  1.00 20.00    -0.010 C 
HETATM    2  C2  UNL     1     -33.255   6.257   3.362  1.00 20.00     0.021 C 
HETATM    3  C3  UNL     1     -35.136   5.339   4.802  1.00 20.00     0.037 C 
HETATM    4 CL5  UNL     1     -33.214   4.777   2.445  1.00 20.00    -0.088 Cl
ENDROOT
BRANCH   2   5
HETATM    5  C4  UNL     1     -32.247   7.277   2.939  1.00 20.00     0.165 C 
HETATM    6 CL6  UNL     1     -32.642   7.906   1.324  1.00 20.00    -0.125 Cl
ENDBRANCH   2   5
TORSDOF 1
ENDMDL
MODEL 3
REMARK VINA RESULT:      -4.0      1.751      1.751
REMARK  1 active torsions:
REMARK  status: ('A' for Active; 'I' for Inactive)
REMARK    1  A    between atoms: C2_2  and  C4_4 
ROOT
HETATM    1  C1  UNL     1     -33.293   6.227   2.763  1.00 20.00    -0.010 C 
HETATM    2  C2  UNL     1     -33.863   6.117   3.975  1.00 20.00     0.021 C 
HETATM    3  C3  UNL     1     -32.298   7.254   2.328  1.00 20.00     0.037 C 
HETATM    4 CL5  UNL     1     -33.384   7.230   5.225  1.00 20.00    -0.088 Cl
ENDROOT
BRANCH   2   5
HETATM    5  C4  UNL     1     -34.858   5.088   4.409  1.00 20.00     0.165 C 
HETATM    6 CL6  UNL     1     -34.930   5.004   6.183  1.00 20.00    -0.125 Cl
ENDBRANCH   2   5
TORSDOF 1
ENDMDL
MODEL 4
REMARK VINA RESULT:      -3.7      1.954      3.046
REMARK  1 active torsions:
REMARK  status: ('A' for Active; 'I' for Inactive)
REMARK    1  A    between atoms: C2_2  and  C4_4 
ROOT
HETATM    1  C1  UNL     1     -34.095   6.365   4.997  1.00 20.00    -0.010 C 
HETATM    2  C2  UNL     1     -33.777   5.780   3.830  1.00 20.00     0.021 C 
HETATM    3  C3  UNL     1     -34.819   5.743   6.146  1.00 20.00     0.037 C 
HETATM    4 CL5  UNL     1     -34.182   4.102   3.603  1.00 20.00    -0.088 Cl
ENDROOT
BRANCH   2   5
HETATM    5  C4  UNL     1     -33.051   6.404   2.681  1.00 20.00     0.165 C 
HETATM    6 CL6  UNL     1     -31.767   7.482   3.270  1.00 20.00    -0.125 Cl
ENDBRANCH   2   5
TORSDOF 1
ENDMDL
MODEL 5
REMARK VINA RESULT:      -3.6      1.682      3.701
REMARK  1 active torsions:
REMARK  status: ('A' for Active; 'I' for Inactive)
REMARK    1  A    between atoms: C2_2  and  C4_4 
ROOT
HETATM    1  C1  UNL     1     -34.037   5.583   3.539  1.00 20.00    -0.010 C 
HETATM    2  C2  UNL     1     -33.261   6.582   3.989  1.00 20.00     0.021 C 
HETATM    3  C3  UNL     1     -35.125   4.883   4.287  1.00 20.00     0.037 C 
HETATM    4 CL5  UNL     1     -33.548   7.203   5.590  1.00 20.00    -0.088 Cl
ENDROOT
BRANCH   2   5
HETATM    5  C4  UNL     1     -32.173   7.282   3.239  1.00 20.00     0.165 C 
HETATM    6 CL6  UNL     1     -32.710   7.675   1.590  1.00 20.00    -0.125 Cl
ENDBRANCH   2   5
TORSDOF 1
ENDMDL
MODEL 6
REMARK VINA RESULT:      -3.6      1.943      3.554
REMARK  1 active torsions:
REMARK  status: ('A' for Active; 'I' for Inactive)
REMARK    1  A    between atoms: C2_2  and  C4_4 
ROOT
HETATM    1  C1  UNL     1     -34.587   5.200   4.559  1.00 20.00    -0.010 C 
HETATM    2  C2  UNL     1     -33.688   5.995   3.955  1.00 20.00     0.021 C 
HETATM    3  C3  UNL     1     -35.049   5.281   5.977  1.00 20.00     0.037 C 
HETATM    4 CL5  UNL     1     -32.998   7.311   4.863  1.00 20.00    -0.088 Cl
ENDROOT
BRANCH   2   5
HETATM    5  C4  UNL     1     -33.227   5.913   2.535  1.00 20.00     0.165 C 
HETATM    6 CL6  UNL     1     -32.466   7.441   2.040  1.00 20.00    -0.125 Cl
ENDBRANCH   2   5
TORSDOF 1
ENDMDL
MODEL 7
REMARK VINA RESULT:      -3.5      1.716      2.157
REMARK  1 active torsions:
REMARK  status: ('A' for Active; 'I' for Inactive)
REMARK    1  A    between atoms: C2_2  and  C4_4 
ROOT
HETATM    1  C1  UNL     1     -33.850   5.196   3.407  1.00 20.00    -0.010 C 
HETATM    2  C2  UNL     1     -33.480   6.332   4.021  1.00 20.00     0.021 C 
HETATM    3  C3  UNL     1     -33.293   4.638   2.137  1.00 20.00     0.037 C 
HETATM    4 CL5  UNL     1     -32.178   7.263   3.336  1.00 20.00    -0.088 Cl
ENDROOT
BRANCH   2   5
HETATM    5  C4  UNL     1     -34.038   6.888   5.293  1.00 20.00     0.165 C 
HETATM    6 CL6  UNL     1     -34.792   5.598   6.256  1.00 20.00    -0.125 Cl
ENDBRANCH   2   5
TORSDOF 1
ENDMDL
MODEL 8
REMARK VINA RESULT:      -3.2     16.295     17.416
REMARK  1 active torsions:
REMARK  status: ('A' for Active; 'I' for Inactive)
REMARK    1  A    between atoms: C2_2  and  C4_4 
ROOT
HETATM    1  C1  UNL     1     -23.974  16.640  10.519  1.00 20.00    -0.010 C 
HETATM    2  C2  UNL     1     -22.929  17.473  10.650  1.00 20.00     0.021 C 
HETATM    3  C3  UNL     1     -24.626  15.840  11.599  1.00 20.00     0.037 C 
HETATM    4 CL5  UNL     1     -22.261  17.728  12.238  1.00 20.00    -0.088 Cl
ENDROOT
BRANCH   2   5
HETATM    5  C4  UNL     1     -22.277  18.274   9.567  1.00 20.00     0.165 C 
HETATM    6 CL6  UNL     1     -22.146  17.312   8.078  1.00 20.00    -0.125 Cl
ENDBRANCH   2   5
TORSDOF 1
ENDMDL
MODEL 9
REMARK VINA RESULT:      -3.2      8.976      9.387
REMARK  1 active torsions:
REMARK  status: ('A' for Active; 'I' for Inactive)
REMARK    1  A    between atoms: C2_2  and  C4_4 
ROOT
HETATM    1  C1  UNL     1     -42.483   6.620   0.806  1.00 20.00    -0.010 C 
HETATM    2  C2  UNL     1     -41.649   6.832  -0.225  1.00 20.00     0.021 C 
HETATM    3  C3  UNL     1     -42.884   5.301   1.382  1.00 20.00     0.037 C 
HETATM    4 CL5  UNL     1     -40.881   5.458  -0.970  1.00 20.00    -0.088 Cl
ENDROOT
BRANCH   2   5
HETATM    5  C4  UNL     1     -41.249   8.153  -0.801  1.00 20.00     0.165 C 
HETATM    6 CL6  UNL     1     -41.437   9.440   0.411  1.00 20.00    -0.125 Cl
ENDBRANCH   2   5
TORSDOF 1
ENDMDL
