MODEL 1
REMARK VINA RESULT:      -3.7      0.000      0.000
REMARK  0 active torsions:
REMARK  status: ('A' for Active; 'I' for Inactive)
ROOT
HETATM    1  C1  UNL     1     -35.553  14.971  -3.527  1.00 20.00     0.177 A 
HETATM    2  C2  UNL     1     -35.460  15.167  -4.997  1.00 20.00     0.218 A 
HETATM    3  O3  UNL     1     -35.688  12.518  -4.388  1.00 20.00    -0.226 OA
HETATM    4  O4  UNL     1     -37.823  13.992  -4.357  1.00 20.00    -0.226 OA
HETATM    5  S5  UNL     1     -36.427  13.736  -4.609  1.00 20.00     0.165 S 
HETATM    6 CL6  UNL     1     -33.929  14.940  -5.801  1.00 20.00    -0.107 Cl
ENDROOT
TORSDOF 0
ENDMDL
MODEL 2
REMARK VINA RESULT:      -3.4     18.992     19.362
REMARK  0 active torsions:
REMARK  status: ('A' for Active; 'I' for Inactive)
ROOT
HETATM    1  C1  UNL     1     -24.266  18.357   8.972  1.00 20.00     0.177 A 
HETATM    2  C2  UNL     1     -23.757  17.777  10.242  1.00 20.00     0.218 A 
HETATM    3  O3  UNL     1     -22.397  16.767   8.104  1.00 20.00    -0.226 OA
HETATM    4  O4  UNL     1     -21.777  19.132   8.972  1.00 20.00    -0.226 OA
HETATM    5  S5  UNL     1     -22.472  17.871   9.028  1.00 20.00     0.165 S 
HETATM    6 CL6  UNL     1     -24.304  16.200  10.749  1.00 20.00    -0.107 Cl
ENDROOT
TORSDOF 0
ENDMDL
MODEL 3
REMARK VINA RESULT:      -3.3      1.964      1.972
REMARK  0 active torsions:
REMARK  status: ('A' for Active; 'I' for Inactive)
ROOT
HETATM    1  C1  UNL     1     -37.246  14.894  -4.235  1.00 20.00     0.177 A 
HETATM    2  C2  UNL     1     -35.863  15.434  -4.172  1.00 20.00     0.218 A 
HETATM    3  O3  UNL     1     -35.830  12.722  -4.465  1.00 20.00    -0.226 OA
HETATM    4  O4  UNL     1     -36.277  14.197  -6.553  1.00 20.00    -0.226 OA
HETATM    5  S5  UNL     1     -35.928  13.975  -5.172  1.00 20.00     0.165 S 
HETATM    6 CL6  UNL     1     -34.982  15.368  -2.667  1.00 20.00    -0.107 Cl
ENDROOT
TORSDOF 0
ENDMDL
MODEL 4
REMARK VINA RESULT:      -3.3      1.669      2.252
REMARK  0 active torsions:
REMARK  status: ('A' for Active; 'I' for Inactive)
ROOT
HETATM    1  C1  UNL     1     -34.587  14.804  -5.502  1.00 20.00     0.177 A 
HETATM    2  C2  UNL     1     -33.881  14.541  -4.221  1.00 20.00     0.218 A 
HETATM    3  O3  UNL     1     -36.524  15.056  -3.781  1.00 20.00    -0.226 OA
HETATM    4  O4  UNL     1     -35.835  12.696  -4.610  1.00 20.00    -0.226 OA
HETATM    5  S5  UNL     1     -35.574  14.029  -4.129  1.00 20.00     0.165 S 
HETATM    6 CL6  UNL     1     -33.367  15.882  -3.230  1.00 20.00    -0.107 Cl
ENDROOT
TORSDOF 0
ENDMDL
MODEL 5
REMARK VINA RESULT:      -3.3     10.046     10.276
REMARK  0 active torsions:
REMARK  status: ('A' for Active; 'I' for Inactive)
ROOT
HETATM    1  C1  UNL     1     -42.615   7.046   0.694  1.00 20.00     0.177 A 
HETATM    2  C2  UNL     1     -41.231   6.908   0.171  1.00 20.00     0.218 A 
HETATM    3  O3  UNL     1     -42.871   8.007  -1.712  1.00 20.00    -0.226 OA
HETATM    4  O4  UNL     1     -41.968   9.521   0.191  1.00 20.00    -0.226 OA
HETATM    5  S5  UNL     1     -42.050   8.295  -0.562  1.00 20.00     0.165 S 
HETATM    6 CL6  UNL     1     -40.828   5.550  -0.848  1.00 20.00    -0.107 Cl
ENDROOT
TORSDOF 0
ENDMDL
MODEL 6
REMARK VINA RESULT:      -3.3     19.067     19.458
REMARK  0 active torsions:
REMARK  status: ('A' for Active; 'I' for Inactive)
ROOT
HETATM    1  C1  UNL     1     -23.099  17.592  10.664  1.00 20.00     0.177 A 
HETATM    2  C2  UNL     1     -24.160  17.741   9.634  1.00 20.00     0.218 A 
HETATM    3  O3  UNL     1     -21.920  19.127   8.922  1.00 20.00    -0.226 OA
HETATM    4  O4  UNL     1     -21.967  16.558   8.556  1.00 20.00    -0.226 OA
HETATM    5  S5  UNL     1     -22.550  17.829   8.903  1.00 20.00     0.165 S 
HETATM    6 CL6  UNL     1     -25.155  19.174   9.624  1.00 20.00    -0.107 Cl
ENDROOT
TORSDOF 0
ENDMDL
MODEL 7
REMARK VINA RESULT:      -3.2     12.574     12.959
REMARK  0 active torsions:
REMARK  status: ('A' for Active; 'I' for Inactive)
ROOT
HETATM    1  C1  UNL     1     -35.591   5.551   4.039  1.00 20.00     0.177 A 
HETATM    2  C2  UNL     1     -34.402   4.674   3.880  1.00 20.00     0.218 A 
HETATM    3  O3  UNL     1     -33.739   6.972   5.192  1.00 20.00    -0.226 OA
HETATM    4  O4  UNL     1     -34.921   5.078   6.514  1.00 20.00    -0.226 OA
HETATM    5  S5  UNL     1     -34.280   5.645   5.355  1.00 20.00     0.165 S 
HETATM    6 CL6  UNL     1     -33.272   4.984   2.588  1.00 20.00    -0.107 Cl
ENDROOT
TORSDOF 0
ENDMDL
MODEL 8
REMARK VINA RESULT:      -3.2     19.440     19.766
REMARK  0 active torsions:
REMARK  status: ('A' for Active; 'I' for Inactive)
ROOT
HETATM    1  C1  UNL     1     -22.753  16.808   9.312  1.00 20.00     0.177 A 
HETATM    2  C2  UNL     1     -23.325  17.471  10.513  1.00 20.00     0.218 A 
HETATM    3  O3  UNL     1     -21.947  19.262   8.985  1.00 20.00    -0.226 OA
HETATM    4  O4  UNL     1     -24.343  18.583   8.255  1.00 20.00    -0.226 OA
HETATM    5  S5  UNL     1     -23.218  18.602   9.156  1.00 20.00     0.165 S 
HETATM    6 CL6  UNL     1     -22.313  17.750  11.906  1.00 20.00    -0.107 Cl
ENDROOT
TORSDOF 0
ENDMDL
MODEL 9
REMARK VINA RESULT:      -3.2     10.138     10.316
REMARK  0 active torsions:
REMARK  status: ('A' for Active; 'I' for Inactive)
ROOT
HETATM    1  C1  UNL     1     -42.493   7.378  -1.356  1.00 20.00     0.177 A 
HETATM    2  C2  UNL     1     -41.302   8.077  -0.806  1.00 20.00     0.218 A 
HETATM    3  O3  UNL     1     -42.116   6.087   0.874  1.00 20.00    -0.226 OA
HETATM    4  O4  UNL     1     -40.736   5.455  -1.231  1.00 20.00    -0.226 OA
HETATM    5  S5  UNL     1     -41.331   6.381  -0.300  1.00 20.00     0.165 S 
HETATM    6 CL6  UNL     1     -41.512   9.309   0.411  1.00 20.00    -0.107 Cl
ENDROOT
TORSDOF 0
ENDMDL
