MODEL 1
REMARK VINA RESULT:      -4.1      0.000      0.000
REMARK  0 active torsions:
REMARK  status: ('A' for Active; 'I' for Inactive)
ROOT
HETATM    1  C1  UNL     1     -22.433  17.273   8.508  1.00 20.00     0.128 A 
HETATM    2  C2  UNL     1     -23.290  16.537   9.563  1.00 20.00     0.089 A 
HETATM    3  C3  UNL     1     -22.541  18.617   9.262  1.00 20.00     0.089 A 
HETATM    4  C4  UNL     1     -24.752  18.416  10.612  1.00 20.00     0.085 C 
HETATM    5  C5  UNL     1     -22.852  17.897  11.738  1.00 20.00     0.085 C 
HETATM    6  C6  UNL     1     -23.364  17.872  10.304  1.00 20.00    -0.011 A 
HETATM    7  O7  UNL     1     -21.887  16.928   7.480  1.00 20.00    -0.298 OA
HETATM    8  S8  UNL     1     -24.585  17.794  12.327  1.00 20.00    -0.167 SA
ENDROOT
TORSDOF 0
ENDMDL
MODEL 2
REMARK VINA RESULT:      -4.0     17.757     18.257
REMARK  0 active torsions:
REMARK  status: ('A' for Active; 'I' for Inactive)
ROOT
HETATM    1  C1  UNL     1     -35.466  13.754  -4.187  1.00 20.00     0.128 A 
HETATM    2  C2  UNL     1     -34.038  14.321  -4.023  1.00 20.00     0.089 A 
HETATM    3  C3  UNL     1     -36.116  15.078  -3.725  1.00 20.00     0.089 A 
HETATM    4  C4  UNL     1     -34.304  16.193  -2.234  1.00 20.00     0.085 C 
HETATM    5  C5  UNL     1     -34.366  16.876  -4.397  1.00 20.00     0.085 C 
HETATM    6  C6  UNL     1     -34.703  15.629  -3.591  1.00 20.00    -0.011 A 
HETATM    7  O7  UNL     1     -35.908  12.680  -4.541  1.00 20.00    -0.298 OA
HETATM    8  S8  UNL     1     -33.186  17.370  -3.085  1.00 20.00    -0.167 SA
ENDROOT
TORSDOF 0
ENDMDL
MODEL 3
REMARK VINA RESULT:      -4.0     23.299     23.918
REMARK  0 active torsions:
REMARK  status: ('A' for Active; 'I' for Inactive)
ROOT
HETATM    1  C1  UNL     1     -41.629   8.981   0.109  1.00 20.00     0.128 A 
HETATM    2  C2  UNL     1     -42.366   8.223  -1.019  1.00 20.00     0.089 A 
HETATM    3  C3  UNL     1     -41.277   7.672   0.850  1.00 20.00     0.089 A 
HETATM    4  C4  UNL     1     -43.125   6.002   0.107  1.00 20.00     0.085 C 
HETATM    5  C5  UNL     1     -41.177   5.908  -1.055  1.00 20.00     0.085 C 
HETATM    6  C6  UNL     1     -41.987   6.939  -0.280  1.00 20.00    -0.011 A 
HETATM    7  O7  UNL     1     -41.410  10.155   0.328  1.00 20.00    -0.298 OA
HETATM    8  S8  UNL     1     -42.717   4.956  -1.342  1.00 20.00    -0.167 SA
ENDROOT
TORSDOF 0
ENDMDL
MODEL 4
REMARK VINA RESULT:      -3.8     17.876     18.344
REMARK  0 active torsions:
REMARK  status: ('A' for Active; 'I' for Inactive)
ROOT
HETATM    1  C1  UNL     1     -35.502  13.744  -4.193  1.00 20.00     0.128 A 
HETATM    2  C2  UNL     1     -36.223  15.044  -3.766  1.00 20.00     0.089 A 
HETATM    3  C3  UNL     1     -34.106  14.376  -3.995  1.00 20.00     0.089 A 
HETATM    4  C4  UNL     1     -34.506  16.924  -4.307  1.00 20.00     0.085 C 
HETATM    5  C5  UNL     1     -34.510  16.174  -2.165  1.00 20.00     0.085 C 
HETATM    6  C6  UNL     1     -34.830  15.640  -3.555  1.00 20.00    -0.011 A 
HETATM    7  O7  UNL     1     -35.887  12.649  -4.548  1.00 20.00    -0.298 OA
HETATM    8  S8  UNL     1     -34.837  17.872  -2.774  1.00 20.00    -0.167 SA
ENDROOT
TORSDOF 0
ENDMDL
MODEL 5
REMARK VINA RESULT:      -3.8     23.230     23.824
REMARK  0 active torsions:
REMARK  status: ('A' for Active; 'I' for Inactive)
ROOT
HETATM    1  C1  UNL     1     -41.702   9.167   0.331  1.00 20.00     0.128 A 
HETATM    2  C2  UNL     1     -41.223   7.744   0.700  1.00 20.00     0.089 A 
HETATM    3  C3  UNL     1     -43.115   8.667  -0.044  1.00 20.00     0.089 A 
HETATM    4  C4  UNL     1     -42.756   6.180  -0.706  1.00 20.00     0.085 C 
HETATM    5  C5  UNL     1     -43.417   6.552   1.433  1.00 20.00     0.085 C 
HETATM    6  C6  UNL     1     -42.635   7.275   0.345  1.00 20.00    -0.011 A 
HETATM    7  O7  UNL     1     -41.170  10.258   0.333  1.00 20.00    -0.298 OA
HETATM    8  S8  UNL     1     -42.991   4.956   0.639  1.00 20.00    -0.167 SA
ENDROOT
TORSDOF 0
ENDMDL
MODEL 6
REMARK VINA RESULT:      -3.7     18.327     18.821
REMARK  0 active torsions:
REMARK  status: ('A' for Active; 'I' for Inactive)
ROOT
HETATM    1  C1  UNL     1     -36.779  14.337  -4.209  1.00 20.00     0.128 A 
HETATM    2  C2  UNL     1     -36.496  15.844  -4.013  1.00 20.00     0.089 A 
HETATM    3  C3  UNL     1     -35.291  13.966  -4.015  1.00 20.00     0.089 A 
HETATM    4  C4  UNL     1     -34.002  16.113  -4.706  1.00 20.00     0.085 C 
HETATM    5  C5  UNL     1     -34.391  15.861  -2.484  1.00 20.00     0.085 C 
HETATM    6  C6  UNL     1     -35.034  15.451  -3.802  1.00 20.00    -0.011 A 
HETATM    7  O7  UNL     1     -37.783  13.693  -4.430  1.00 20.00    -0.298 OA
HETATM    8  S8  UNL     1     -33.595  17.271  -3.344  1.00 20.00    -0.167 SA
ENDROOT
TORSDOF 0
ENDMDL
MODEL 7
REMARK VINA RESULT:      -3.6     17.339     17.876
REMARK  0 active torsions:
REMARK  status: ('A' for Active; 'I' for Inactive)
ROOT
HETATM    1  C1  UNL     1     -33.671  16.696  -2.298  1.00 20.00     0.128 A 
HETATM    2  C2  UNL     1     -35.018  15.941  -2.224  1.00 20.00     0.089 A 
HETATM    3  C3  UNL     1     -33.375  16.164  -3.718  1.00 20.00     0.089 A 
HETATM    4  C4  UNL     1     -34.707  13.938  -3.856  1.00 20.00     0.085 C 
HETATM    5  C5  UNL     1     -35.739  15.766  -4.718  1.00 20.00     0.085 C 
HETATM    6  C6  UNL     1     -34.714  15.445  -3.638  1.00 20.00    -0.011 A 
HETATM    7  O7  UNL     1     -33.075  17.427  -1.534  1.00 20.00    -0.298 OA
HETATM    8  S8  UNL     1     -36.394  14.061  -4.563  1.00 20.00    -0.167 SA
ENDROOT
TORSDOF 0
ENDMDL
MODEL 8
REMARK VINA RESULT:      -3.6      2.985      3.710
REMARK  0 active torsions:
REMARK  status: ('A' for Active; 'I' for Inactive)
ROOT
HETATM    1  C1  UNL     1     -25.496  17.099  11.765  1.00 20.00     0.128 A 
HETATM    2  C2  UNL     1     -24.814  18.205  10.927  1.00 20.00     0.089 A 
HETATM    3  C3  UNL     1     -24.294  16.142  11.602  1.00 20.00     0.089 A 
HETATM    4  C4  UNL     1     -23.167  16.903   9.388  1.00 20.00     0.085 C 
HETATM    5  C5  UNL     1     -22.278  17.751  11.296  1.00 20.00     0.085 C 
HETATM    6  C6  UNL     1     -23.627  17.249  10.798  1.00 20.00    -0.011 A 
HETATM    7  O7  UNL     1     -26.566  17.016  12.332  1.00 20.00    -0.298 OA
HETATM    8  S8  UNL     1     -21.808  18.120   9.564  1.00 20.00    -0.167 SA
ENDROOT
TORSDOF 0
ENDMDL
MODEL 9
REMARK VINA RESULT:      -3.6     18.977     19.491
REMARK  0 active torsions:
REMARK  status: ('A' for Active; 'I' for Inactive)
ROOT
HETATM    1  C1  UNL     1     -37.346  14.342  -4.390  1.00 20.00     0.128 A 
HETATM    2  C2  UNL     1     -36.010  13.564  -4.357  1.00 20.00     0.089 A 
HETATM    3  C3  UNL     1     -36.625  15.709  -4.394  1.00 20.00     0.089 A 
HETATM    4  C4  UNL     1     -34.338  15.228  -3.259  1.00 20.00     0.085 C 
HETATM    5  C5  UNL     1     -34.347  15.187  -5.528  1.00 20.00     0.085 C 
HETATM    6  C6  UNL     1     -35.319  14.927  -4.385  1.00 20.00    -0.011 A 
HETATM    7  O7  UNL     1     -38.512  14.007  -4.406  1.00 20.00    -0.298 OA
HETATM    8  S8  UNL     1     -32.957  14.819  -4.392  1.00 20.00    -0.167 SA
ENDROOT
TORSDOF 0
ENDMDL
