MODEL 1
REMARK VINA RESULT:      -3.7      0.000      0.000
REMARK  2 active torsions:
REMARK  status: ('A' for Active; 'I' for Inactive)
REMARK    1  A    between atoms: C1_1  and  C2_2 
REMARK    2  A    between atoms: C2_2  and  C3_3 
ROOT
HETATM    1  C2  UNL     1     -34.804  15.024  -5.333  1.00 20.00     0.205 C 
HETATM    2 CL7  UNL     1     -35.251  16.773  -5.191  1.00 20.00    -0.092 Cl
HETATM    3 CL8  UNL     1     -33.693  14.906  -6.756  1.00 20.00    -0.092 Cl
ENDROOT
BRANCH   1   4
HETATM    4  C1  UNL     1     -36.091  14.238  -5.632  1.00 20.00     0.164 C 
HETATM    5 CL6  UNL     1     -37.332  14.363  -4.357  1.00 20.00    -0.127 Cl
ENDBRANCH   1   4
BRANCH   1   6
HETATM    6  C3  UNL     1     -34.032  14.594  -4.074  1.00 20.00     0.355 C 
HETATM    7  F4  UNL     1     -34.387  13.336  -3.706  1.00 20.00    -0.184 F 
HETATM    8  F5  UNL     1     -32.700  14.536  -4.349  1.00 20.00    -0.184 F 
HETATM    9 CL9  UNL     1     -34.273  15.675  -2.682  1.00 20.00    -0.045 Cl
ENDBRANCH   1   6
TORSDOF 2
ENDMDL
MODEL 2
REMARK VINA RESULT:      -3.6      1.576      3.525
REMARK  2 active torsions:
REMARK  status: ('A' for Active; 'I' for Inactive)
REMARK    1  A    between atoms: C1_1  and  C2_2 
REMARK    2  A    between atoms: C2_2  and  C3_3 
ROOT
HETATM    1  C2  UNL     1     -34.227  16.241  -3.761  1.00 20.00     0.205 C 
HETATM    2 CL7  UNL     1     -35.565  16.850  -4.817  1.00 20.00    -0.092 Cl
HETATM    3 CL8  UNL     1     -34.992  15.820  -2.176  1.00 20.00    -0.092 Cl
ENDROOT
BRANCH   1   4
HETATM    4  C1  UNL     1     -33.237  17.397  -3.552  1.00 20.00     0.164 C 
HETATM    5 CL6  UNL     1     -32.632  17.544  -1.881  1.00 20.00    -0.127 Cl
ENDBRANCH   1   4
BRANCH   1   6
HETATM    6  C3  UNL     1     -33.640  14.958  -4.374  1.00 20.00     0.355 C 
HETATM    7  F4  UNL     1     -32.321  14.847  -4.070  1.00 20.00    -0.184 F 
HETATM    8  F5  UNL     1     -34.239  13.868  -3.822  1.00 20.00    -0.184 F 
HETATM    9 CL9  UNL     1     -33.818  14.863  -6.142  1.00 20.00    -0.045 Cl
ENDBRANCH   1   6
TORSDOF 2
ENDMDL
MODEL 3
REMARK VINA RESULT:      -3.6      1.873      2.985
REMARK  2 active torsions:
REMARK  status: ('A' for Active; 'I' for Inactive)
REMARK    1  A    between atoms: C1_1  and  C2_2 
REMARK    2  A    between atoms: C2_2  and  C3_3 
ROOT
HETATM    1  C2  UNL     1     -34.150  16.064  -3.680  1.00 20.00     0.205 C 
HETATM    2 CL7  UNL     1     -32.841  16.814  -2.679  1.00 20.00    -0.092 Cl
HETATM    3 CL8  UNL     1     -34.599  17.300  -4.924  1.00 20.00    -0.092 Cl
ENDROOT
BRANCH   1   4
HETATM    4  C1  UNL     1     -35.355  15.815  -2.759  1.00 20.00     0.164 C 
HETATM    5 CL6  UNL     1     -35.202  16.555  -1.145  1.00 20.00    -0.127 Cl
ENDBRANCH   1   4
BRANCH   1   6
HETATM    6  C3  UNL     1     -33.591  14.827  -4.403  1.00 20.00     0.355 C 
HETATM    7  F4  UNL     1     -32.263  14.691  -4.152  1.00 20.00    -0.184 F 
HETATM    8  F5  UNL     1     -34.177  13.702  -3.910  1.00 20.00    -0.184 F 
HETATM    9 CL9  UNL     1     -33.829  14.859  -6.166  1.00 20.00    -0.045 Cl
ENDBRANCH   1   6
TORSDOF 2
ENDMDL
MODEL 4
REMARK VINA RESULT:      -3.6     11.245     12.426
REMARK  2 active torsions:
REMARK  status: ('A' for Active; 'I' for Inactive)
REMARK    1  A    between atoms: C1_1  and  C2_2 
REMARK    2  A    between atoms: C2_2  and  C3_3 
ROOT
HETATM    1  C2  UNL     1     -42.241   6.490  -0.788  1.00 20.00     0.205 C 
HETATM    2 CL7  UNL     1     -41.826   8.018  -1.665  1.00 20.00    -0.092 Cl
HETATM    3 CL8  UNL     1     -40.785   5.423  -0.925  1.00 20.00    -0.092 Cl
ENDROOT
BRANCH   1   4
HETATM    4  C1  UNL     1     -43.417   5.834  -1.528  1.00 20.00     0.164 C 
HETATM    5 CL6  UNL     1     -43.073   4.193  -2.132  1.00 20.00    -0.127 Cl
ENDBRANCH   1   4
BRANCH   1   6
HETATM    6  C3  UNL     1     -42.476   6.806   0.699  1.00 20.00     0.355 C 
HETATM    7  F4  UNL     1     -41.347   7.311   1.261  1.00 20.00    -0.184 F 
HETATM    8  F5  UNL     1     -43.416   7.782   0.819  1.00 20.00    -0.184 F 
HETATM    9 CL9  UNL     1     -42.998   5.400   1.656  1.00 20.00    -0.045 Cl
ENDBRANCH   1   6
TORSDOF 2
ENDMDL
MODEL 5
REMARK VINA RESULT:      -3.6      1.690      3.187
REMARK  2 active torsions:
REMARK  status: ('A' for Active; 'I' for Inactive)
REMARK    1  A    between atoms: C1_1  and  C2_2 
REMARK    2  A    between atoms: C2_2  and  C3_3 
ROOT
HETATM    1  C2  UNL     1     -35.012  15.054  -4.245  1.00 20.00     0.205 C 
HETATM    2 CL7  UNL     1     -33.352  14.344  -4.378  1.00 20.00    -0.092 Cl
HETATM    3 CL8  UNL     1     -35.049  16.459  -5.384  1.00 20.00    -0.092 Cl
ENDROOT
BRANCH   1   4
HETATM    4  C1  UNL     1     -35.185  15.566  -2.807  1.00 20.00     0.164 C 
HETATM    5 CL6  UNL     1     -33.806  16.523  -2.205  1.00 20.00    -0.127 Cl
ENDBRANCH   1   4
BRANCH   1   6
HETATM    6  C3  UNL     1     -36.046  14.017  -4.717  1.00 20.00     0.355 C 
HETATM    7  F4  UNL     1     -35.967  13.845  -6.062  1.00 20.00    -0.184 F 
HETATM    8  F5  UNL     1     -35.762  12.803  -4.173  1.00 20.00    -0.184 F 
HETATM    9 CL9  UNL     1     -37.724  14.440  -4.304  1.00 20.00    -0.045 Cl
ENDBRANCH   1   6
TORSDOF 2
ENDMDL
MODEL 6
REMARK VINA RESULT:      -3.6      1.927      2.868
REMARK  2 active torsions:
REMARK  status: ('A' for Active; 'I' for Inactive)
REMARK    1  A    between atoms: C1_1  and  C2_2 
REMARK    2  A    between atoms: C2_2  and  C3_3 
ROOT
HETATM    1  C2  UNL     1     -34.208  15.147  -4.300  1.00 20.00     0.205 C 
HETATM    2 CL7  UNL     1     -32.604  14.316  -4.411  1.00 20.00    -0.092 Cl
HETATM    3 CL8  UNL     1     -35.434  13.839  -4.051  1.00 20.00    -0.092 Cl
ENDROOT
BRANCH   1   4
HETATM    4  C1  UNL     1     -34.471  15.834  -5.649  1.00 20.00     0.164 C 
HETATM    5 CL6  UNL     1     -33.734  15.003  -7.044  1.00 20.00    -0.127 Cl
ENDBRANCH   1   4
BRANCH   1   6
HETATM    6  C3  UNL     1     -34.219  16.065  -3.065  1.00 20.00     0.355 C 
HETATM    7  F4  UNL     1     -34.914  15.488  -2.051  1.00 20.00    -0.184 F 
HETATM    8  F5  UNL     1     -32.951  16.225  -2.599  1.00 20.00    -0.184 F 
HETATM    9 CL9  UNL     1     -34.911  17.674  -3.376  1.00 20.00    -0.045 Cl
ENDBRANCH   1   6
TORSDOF 2
ENDMDL
MODEL 7
REMARK VINA RESULT:      -3.5      1.595      2.992
REMARK  2 active torsions:
REMARK  status: ('A' for Active; 'I' for Inactive)
REMARK    1  A    between atoms: C1_1  and  C2_2 
REMARK    2  A    between atoms: C2_2  and  C3_3 
ROOT
HETATM    1  C2  UNL     1     -34.043  15.172  -4.641  1.00 20.00     0.205 C 
HETATM    2 CL7  UNL     1     -32.428  14.408  -4.350  1.00 20.00    -0.092 Cl
HETATM    3 CL8  UNL     1     -34.318  15.094  -6.428  1.00 20.00    -0.092 Cl
ENDROOT
BRANCH   1   4
HETATM    4  C1  UNL     1     -33.946  16.643  -4.210  1.00 20.00     0.164 C 
HETATM    5 CL6  UNL     1     -32.980  16.907  -2.734  1.00 20.00    -0.127 Cl
ENDBRANCH   1   4
BRANCH   1   6
HETATM    6  C3  UNL     1     -35.132  14.338  -3.943  1.00 20.00     0.355 C 
HETATM    7  F4  UNL     1     -34.674  13.087  -3.677  1.00 20.00    -0.184 F 
HETATM    8  F5  UNL     1     -35.428  14.888  -2.734  1.00 20.00    -0.184 F 
HETATM    9 CL9  UNL     1     -36.636  14.197  -4.882  1.00 20.00    -0.045 Cl
ENDBRANCH   1   6
TORSDOF 2
ENDMDL
MODEL 8
REMARK VINA RESULT:      -3.5      0.983      1.853
REMARK  2 active torsions:
REMARK  status: ('A' for Active; 'I' for Inactive)
REMARK    1  A    between atoms: C1_1  and  C2_2 
REMARK    2  A    between atoms: C2_2  and  C3_3 
ROOT
HETATM    1  C2  UNL     1     -34.661  15.178  -5.372  1.00 20.00     0.205 C 
HETATM    2 CL7  UNL     1     -33.647  14.923  -6.850  1.00 20.00    -0.092 Cl
HETATM    3 CL8  UNL     1     -36.131  14.146  -5.589  1.00 20.00    -0.092 Cl
ENDROOT
BRANCH   1   4
HETATM    4  C1  UNL     1     -35.081  16.656  -5.346  1.00 20.00     0.164 C 
HETATM    5 CL6  UNL     1     -36.739  16.930  -4.749  1.00 20.00    -0.127 Cl
ENDBRANCH   1   4
BRANCH   1   6
HETATM    6  C3  UNL     1     -33.892  14.678  -4.137  1.00 20.00     0.355 C 
HETATM    7  F4  UNL     1     -34.370  13.470  -3.738  1.00 20.00    -0.184 F 
HETATM    8  F5  UNL     1     -32.587  14.469  -4.460  1.00 20.00    -0.184 F 
HETATM    9 CL9  UNL     1     -33.958  15.793  -2.752  1.00 20.00    -0.045 Cl
ENDBRANCH   1   6
TORSDOF 2
ENDMDL
MODEL 9
REMARK VINA RESULT:      -3.5      1.414      2.733
REMARK  2 active torsions:
REMARK  status: ('A' for Active; 'I' for Inactive)
REMARK    1  A    between atoms: C1_1  and  C2_2 
REMARK    2  A    between atoms: C2_2  and  C3_3 
ROOT
HETATM    1  C2  UNL     1     -35.428  15.500  -4.677  1.00 20.00     0.205 C 
HETATM    2 CL7  UNL     1     -36.301  14.042  -5.302  1.00 20.00    -0.092 Cl
HETATM    3 CL8  UNL     1     -36.706  16.622  -4.059  1.00 20.00    -0.092 Cl
ENDROOT
BRANCH   1   4
HETATM    4  C1  UNL     1     -34.712  16.158  -5.867  1.00 20.00     0.164 C 
HETATM    5 CL6  UNL     1     -33.836  15.011  -6.914  1.00 20.00    -0.127 Cl
ENDBRANCH   1   4
BRANCH   1   6
HETATM    6  C3  UNL     1     -34.530  15.087  -3.498  1.00 20.00     0.355 C 
HETATM    7  F4  UNL     1     -35.164  15.311  -2.318  1.00 20.00    -0.184 F 
HETATM    8  F5  UNL     1     -34.298  13.747  -3.543  1.00 20.00    -0.184 F 
HETATM    9 CL9  UNL     1     -32.963  15.929  -3.463  1.00 20.00    -0.045 Cl
ENDBRANCH   1   6
TORSDOF 2
ENDMDL
