MODEL 1
REMARK VINA RESULT:      -3.8      0.000      0.000
REMARK  0 active torsions:
REMARK  status: ('A' for Active; 'I' for Inactive)
ROOT
HETATM    1  C1  UNL     1     -22.220  18.093   8.896  1.00 20.00    -0.028 C 
HETATM    2  C2  UNL     1     -22.629  16.869   9.254  1.00 20.00    -0.014 C 
HETATM    3  C3  UNL     1     -23.253  19.130   9.210  1.00 20.00     0.043 C 
HETATM    4  C4  UNL     1     -25.262  17.411  12.331  1.00 20.00     0.084 C 
HETATM    5  C5  UNL     1     -25.391  18.874  11.952  1.00 20.00     0.084 C 
HETATM    6  C6  UNL     1     -23.992  16.897   9.894  1.00 20.00     0.083 C 
HETATM    7  C7  UNL     1     -24.500  18.253   9.375  1.00 20.00     0.068 C 
HETATM    8  S8  UNL     1     -23.730  16.690  11.690  1.00 20.00    -0.158 SA
HETATM    9  S9  UNL     1     -25.877  19.077  10.220  1.00 20.00    -0.162 SA
ENDROOT
TORSDOF 0
ENDMDL
MODEL 2
REMARK VINA RESULT:      -3.8     17.302     18.320
REMARK  0 active torsions:
REMARK  status: ('A' for Active; 'I' for Inactive)
ROOT
HETATM    1  C1  UNL     1     -33.045  15.942  -3.406  1.00 20.00    -0.028 C 
HETATM    2  C2  UNL     1     -33.866  16.321  -2.418  1.00 20.00    -0.014 C 
HETATM    3  C3  UNL     1     -33.748  15.073  -4.402  1.00 20.00     0.043 C 
HETATM    4  C4  UNL     1     -37.632  16.297  -4.005  1.00 20.00     0.084 C 
HETATM    5  C5  UNL     1     -37.130  15.453  -5.162  1.00 20.00     0.084 C 
HETATM    6  C6  UNL     1     -35.262  15.787  -2.612  1.00 20.00     0.083 C 
HETATM    7  C7  UNL     1     -34.970  14.632  -3.586  1.00 20.00     0.068 C 
HETATM    8  S8  UNL     1     -36.280  17.187  -3.195  1.00 20.00    -0.158 SA
HETATM    9  S9  UNL     1     -36.317  13.942  -4.585  1.00 20.00    -0.162 SA
ENDROOT
TORSDOF 0
ENDMDL
MODEL 3
REMARK VINA RESULT:      -3.7      1.683      2.083
REMARK  0 active torsions:
REMARK  status: ('A' for Active; 'I' for Inactive)
ROOT
HETATM    1  C1  UNL     1     -23.628  18.487   7.870  1.00 20.00    -0.028 C 
HETATM    2  C2  UNL     1     -22.570  17.705   8.120  1.00 20.00    -0.014 C 
HETATM    3  C3  UNL     1     -24.597  18.483   9.010  1.00 20.00     0.043 C 
HETATM    4  C4  UNL     1     -22.167  17.619  12.186  1.00 20.00     0.084 C 
HETATM    5  C5  UNL     1     -23.582  18.147  12.329  1.00 20.00     0.084 C 
HETATM    6  C6  UNL     1     -22.649  17.075   9.486  1.00 20.00     0.083 C 
HETATM    7  C7  UNL     1     -24.157  17.216   9.755  1.00 20.00     0.068 C 
HETATM    8  S8  UNL     1     -21.480  17.989  10.552  1.00 20.00    -0.158 SA
HETATM    9  S9  UNL     1     -24.778  17.105  11.456  1.00 20.00    -0.162 SA
ENDROOT
TORSDOF 0
ENDMDL
MODEL 4
REMARK VINA RESULT:      -3.7     17.173     18.277
REMARK  0 active torsions:
REMARK  status: ('A' for Active; 'I' for Inactive)
ROOT
HETATM    1  C1  UNL     1     -33.825  16.765  -2.001  1.00 20.00    -0.028 C 
HETATM    2  C2  UNL     1     -35.037  16.210  -1.875  1.00 20.00    -0.014 C 
HETATM    3  C3  UNL     1     -33.228  16.483  -3.344  1.00 20.00     0.043 C 
HETATM    4  C4  UNL     1     -36.559  15.953  -5.659  1.00 20.00     0.084 C 
HETATM    5  C5  UNL     1     -35.166  16.160  -6.225  1.00 20.00     0.084 C 
HETATM    6  C6  UNL     1     -35.459  15.492  -3.131  1.00 20.00     0.083 C 
HETATM    7  C7  UNL     1     -34.085  15.293  -3.795  1.00 20.00     0.068 C 
HETATM    8  S8  UNL     1     -36.685  16.562  -3.959  1.00 20.00    -0.158 SA
HETATM    9  S9  UNL     1     -33.992  14.946  -5.573  1.00 20.00    -0.162 SA
ENDROOT
TORSDOF 0
ENDMDL
MODEL 5
REMARK VINA RESULT:      -3.6     17.448     18.485
REMARK  0 active torsions:
REMARK  status: ('A' for Active; 'I' for Inactive)
ROOT
HETATM    1  C1  UNL     1     -33.662  16.474  -2.396  1.00 20.00    -0.028 C 
HETATM    2  C2  UNL     1     -33.387  16.827  -3.658  1.00 20.00    -0.014 C 
HETATM    3  C3  UNL     1     -35.042  15.911  -2.270  1.00 20.00     0.043 C 
HETATM    4  C4  UNL     1     -35.700  14.432  -6.027  1.00 20.00     0.084 C 
HETATM    5  C5  UNL     1     -36.561  14.088  -4.826  1.00 20.00     0.084 C 
HETATM    6  C6  UNL     1     -34.535  16.525  -4.587  1.00 20.00     0.083 C 
HETATM    7  C7  UNL     1     -35.681  16.425  -3.567  1.00 20.00     0.068 C 
HETATM    8  S8  UNL     1     -34.067  15.030  -5.527  1.00 20.00    -0.158 SA
HETATM    9  S9  UNL     1     -37.216  15.573  -4.024  1.00 20.00    -0.162 SA
ENDROOT
TORSDOF 0
ENDMDL
MODEL 6
REMARK VINA RESULT:      -3.5     16.651     17.721
REMARK  0 active torsions:
REMARK  status: ('A' for Active; 'I' for Inactive)
ROOT
HETATM    1  C1  UNL     1     -33.029  17.033  -2.390  1.00 20.00    -0.028 C 
HETATM    2  C2  UNL     1     -34.112  17.158  -1.611  1.00 20.00    -0.014 C 
HETATM    3  C3  UNL     1     -33.263  16.059  -3.502  1.00 20.00     0.043 C 
HETATM    4  C4  UNL     1     -37.319  16.277  -3.985  1.00 20.00     0.084 C 
HETATM    5  C5  UNL     1     -36.387  15.629  -4.991  1.00 20.00     0.084 C 
HETATM    6  C6  UNL     1     -35.256  16.308  -2.099  1.00 20.00     0.083 C 
HETATM    7  C7  UNL     1     -34.484  15.300  -2.967  1.00 20.00     0.068 C 
HETATM    8  S8  UNL     1     -36.438  17.439  -2.911  1.00 20.00    -0.158 SA
HETATM    9  S9  UNL     1     -35.369  14.341  -4.227  1.00 20.00    -0.162 SA
ENDROOT
TORSDOF 0
ENDMDL
MODEL 7
REMARK VINA RESULT:      -3.5     16.134     16.864
REMARK  0 active torsions:
REMARK  status: ('A' for Active; 'I' for Inactive)
ROOT
HETATM    1  C1  UNL     1     -34.324  14.822  -3.902  1.00 20.00    -0.028 C 
HETATM    2  C2  UNL     1     -33.156  15.449  -3.709  1.00 20.00    -0.014 C 
HETATM    3  C3  UNL     1     -35.413  15.420  -3.069  1.00 20.00     0.043 C 
HETATM    4  C4  UNL     1     -34.096  19.262  -2.579  1.00 20.00     0.084 C 
HETATM    5  C5  UNL     1     -35.511  18.813  -2.268  1.00 20.00     0.084 C 
HETATM    6  C6  UNL     1     -33.287  16.590  -2.734  1.00 20.00     0.083 C 
HETATM    7  C7  UNL     1     -34.589  16.183  -2.024  1.00 20.00     0.068 C 
HETATM    8  S8  UNL     1     -33.272  18.126  -3.723  1.00 20.00    -0.158 SA
HETATM    9  S9  UNL     1     -35.533  17.428  -1.102  1.00 20.00    -0.162 SA
ENDROOT
TORSDOF 0
ENDMDL
MODEL 8
REMARK VINA RESULT:      -3.4     17.327     18.403
REMARK  0 active torsions:
REMARK  status: ('A' for Active; 'I' for Inactive)
ROOT
HETATM    1  C1  UNL     1     -34.889  16.273  -1.918  1.00 20.00    -0.028 C 
HETATM    2  C2  UNL     1     -33.677  16.360  -2.482  1.00 20.00    -0.014 C 
HETATM    3  C3  UNL     1     -35.978  16.329  -2.943  1.00 20.00     0.043 C 
HETATM    4  C4  UNL     1     -34.088  14.884  -6.270  1.00 20.00     0.084 C 
HETATM    5  C5  UNL     1     -35.593  15.034  -6.157  1.00 20.00     0.084 C 
HETATM    6  C6  UNL     1     -33.763  16.458  -3.983  1.00 20.00     0.083 C 
HETATM    7  C7  UNL     1     -35.220  16.929  -4.134  1.00 20.00     0.068 C 
HETATM    8  S8  UNL     1     -33.301  14.818  -4.642  1.00 20.00    -0.158 SA
HETATM    9  S9  UNL     1     -36.066  16.728  -5.726  1.00 20.00    -0.162 SA
ENDROOT
TORSDOF 0
ENDMDL
MODEL 9
REMARK VINA RESULT:      -3.4     17.727     18.790
REMARK  0 active torsions:
REMARK  status: ('A' for Active; 'I' for Inactive)
ROOT
HETATM    1  C1  UNL     1     -33.589  16.061  -2.813  1.00 20.00    -0.028 C 
HETATM    2  C2  UNL     1     -34.795  16.071  -2.231  1.00 20.00    -0.014 C 
HETATM    3  C3  UNL     1     -33.664  15.564  -4.223  1.00 20.00     0.043 C 
HETATM    4  C4  UNL     1     -37.506  16.518  -5.257  1.00 20.00     0.084 C 
HETATM    5  C5  UNL     1     -36.439  16.119  -6.260  1.00 20.00     0.084 C 
HETATM    6  C6  UNL     1     -35.877  15.611  -3.173  1.00 20.00     0.083 C 
HETATM    7  C7  UNL     1     -35.024  14.854  -4.206  1.00 20.00     0.068 C 
HETATM    8  S8  UNL     1     -36.776  17.108  -3.709  1.00 20.00    -0.158 SA
HETATM    9  S9  UNL     1     -35.703  14.516  -5.853  1.00 20.00    -0.162 SA
ENDROOT
TORSDOF 0
ENDMDL
