MODEL 1
REMARK VINA RESULT:      -3.9      0.000      0.000
REMARK  0 active torsions:
REMARK  status: ('A' for Active; 'I' for Inactive)
ROOT
HETATM    1  C1  UNL     1     -35.557   5.528   4.120  1.00 20.00     0.080 A 
HETATM    2  C2  UNL     1     -34.552   4.521   4.581  1.00 20.00     0.207 A 
HETATM    3  C3  UNL     1     -34.132   5.949   4.384  1.00 20.00     0.128 A 
HETATM    4  F4  UNL     1     -34.133   3.576   3.659  1.00 20.00    -0.246 F 
HETATM    5 CL5  UNL     1     -33.121   6.343   2.998  1.00 20.00    -0.103 Cl
HETATM    6 BR6  UNL     1     -33.785   6.999   5.944  1.00 20.00    -0.065 Br
ENDROOT
TORSDOF 0
ENDMDL
MODEL 2
REMARK VINA RESULT:      -3.4      2.216      2.250
REMARK  0 active torsions:
REMARK  status: ('A' for Active; 'I' for Inactive)
ROOT
HETATM    1  C1  UNL     1     -35.538   5.800   4.224  1.00 20.00     0.080 A 
HETATM    2  C2  UNL     1     -34.507   5.820   5.308  1.00 20.00     0.207 A 
HETATM    3  C3  UNL     1     -34.125   5.355   3.932  1.00 20.00     0.128 A 
HETATM    4  F4  UNL     1     -34.628   4.876   6.314  1.00 20.00    -0.246 F 
HETATM    5 CL5  UNL     1     -33.840   3.638   3.675  1.00 20.00    -0.103 Cl
HETATM    6 BR6  UNL     1     -33.026   6.510   2.875  1.00 20.00    -0.065 Br
ENDROOT
TORSDOF 0
ENDMDL
MODEL 3
REMARK VINA RESULT:      -3.2     17.126     17.495
REMARK  0 active torsions:
REMARK  status: ('A' for Active; 'I' for Inactive)
ROOT
HETATM    1  C1  UNL     1     -22.926  17.794  12.325  1.00 20.00     0.080 A 
HETATM    2  C2  UNL     1     -23.135  17.924  10.849  1.00 20.00     0.207 A 
HETATM    3  C3  UNL     1     -24.253  17.415  11.713  1.00 20.00     0.128 A 
HETATM    4  F4  UNL     1     -22.469  17.025  10.034  1.00 20.00    -0.246 F 
HETATM    5 CL5  UNL     1     -24.665  15.706  11.634  1.00 20.00    -0.103 Cl
HETATM    6 BR6  UNL     1     -25.741  18.578  12.020  1.00 20.00    -0.065 Br
ENDROOT
TORSDOF 0
ENDMDL
MODEL 4
REMARK VINA RESULT:      -3.2      2.204      2.367
REMARK  0 active torsions:
REMARK  status: ('A' for Active; 'I' for Inactive)
ROOT
HETATM    1  C1  UNL     1     -33.962   4.615   3.987  1.00 20.00     0.080 A 
HETATM    2  C2  UNL     1     -35.056   5.525   3.527  1.00 20.00     0.207 A 
HETATM    3  C3  UNL     1     -33.792   6.112   4.086  1.00 20.00     0.128 A 
HETATM    4  F4  UNL     1     -36.205   5.575   4.297  1.00 20.00    -0.246 F 
HETATM    5 CL5  UNL     1     -33.843   6.842   5.686  1.00 20.00    -0.103 Cl
HETATM    6 BR6  UNL     1     -32.585   6.955   2.865  1.00 20.00    -0.065 Br
ENDROOT
TORSDOF 0
ENDMDL
MODEL 5
REMARK VINA RESULT:      -3.2      9.044      9.356
REMARK  0 active torsions:
REMARK  status: ('A' for Active; 'I' for Inactive)
ROOT
HETATM    1  C1  UNL     1     -41.320   7.629   0.501  1.00 20.00     0.080 A 
HETATM    2  C2  UNL     1     -42.387   7.601  -0.547  1.00 20.00     0.207 A 
HETATM    3  C3  UNL     1     -41.855   6.309   0.003  1.00 20.00     0.128 A 
HETATM    4  F4  UNL     1     -42.024   7.972  -1.830  1.00 20.00    -0.246 F 
HETATM    5 CL5  UNL     1     -40.809   5.330  -1.019  1.00 20.00    -0.103 Cl
HETATM    6 BR6  UNL     1     -42.988   5.305   1.173  1.00 20.00    -0.065 Br
ENDROOT
TORSDOF 0
ENDMDL
MODEL 6
REMARK VINA RESULT:      -3.2     17.427     17.806
REMARK  0 active torsions:
REMARK  status: ('A' for Active; 'I' for Inactive)
ROOT
HETATM    1  C1  UNL     1     -24.104  16.714  10.415  1.00 20.00     0.080 A 
HETATM    2  C2  UNL     1     -24.447  18.169  10.456  1.00 20.00     0.207 A 
HETATM    3  C3  UNL     1     -23.029  17.737  10.695  1.00 20.00     0.128 A 
HETATM    4  F4  UNL     1     -25.193  18.614  11.534  1.00 20.00    -0.246 F 
HETATM    5 CL5  UNL     1     -22.388  17.830  12.331  1.00 20.00    -0.103 Cl
HETATM    6 BR6  UNL     1     -21.748  18.084   9.318  1.00 20.00    -0.065 Br
ENDROOT
TORSDOF 0
ENDMDL
MODEL 7
REMARK VINA RESULT:      -3.2     17.413     17.528
REMARK  0 active torsions:
REMARK  status: ('A' for Active; 'I' for Inactive)
ROOT
HETATM    1  C1  UNL     1     -23.732  18.141   9.978  1.00 20.00     0.080 A 
HETATM    2  C2  UNL     1     -22.892  16.964   9.596  1.00 20.00     0.207 A 
HETATM    3  C3  UNL     1     -23.298  17.148  11.030  1.00 20.00     0.128 A 
HETATM    4  F4  UNL     1     -21.576  17.212   9.245  1.00 20.00    -0.246 F 
HETATM    5 CL5  UNL     1     -22.076  17.659  12.189  1.00 20.00    -0.103 Cl
HETATM    6 BR6  UNL     1     -24.622  15.965  11.740  1.00 20.00    -0.065 Br
ENDROOT
TORSDOF 0
ENDMDL
MODEL 8
REMARK VINA RESULT:      -3.1      9.369      9.597
REMARK  0 active torsions:
REMARK  status: ('A' for Active; 'I' for Inactive)
ROOT
HETATM    1  C1  UNL     1     -42.484   8.052  -1.311  1.00 20.00     0.080 A 
HETATM    2  C2  UNL     1     -41.284   8.409  -0.491  1.00 20.00     0.207 A 
HETATM    3  C3  UNL     1     -41.949   7.078  -0.288  1.00 20.00     0.128 A 
HETATM    4  F4  UNL     1     -41.447   9.383   0.479  1.00 20.00    -0.246 F 
HETATM    5 CL5  UNL     1     -42.890   6.824   1.177  1.00 20.00    -0.103 Cl
HETATM    6 BR6  UNL     1     -41.041   5.521  -0.929  1.00 20.00    -0.065 Br
ENDROOT
TORSDOF 0
ENDMDL
MODEL 9
REMARK VINA RESULT:      -3.1      2.330      2.504
REMARK  0 active torsions:
REMARK  status: ('A' for Active; 'I' for Inactive)
ROOT
HETATM    1  C1  UNL     1     -34.186   7.041   5.787  1.00 20.00     0.080 A 
HETATM    2  C2  UNL     1     -33.627   5.656   5.847  1.00 20.00     0.207 A 
HETATM    3  C3  UNL     1     -34.190   6.170   4.554  1.00 20.00     0.128 A 
HETATM    4  F4  UNL     1     -34.350   4.711   6.554  1.00 20.00    -0.246 F 
HETATM    5 CL5  UNL     1     -35.735   5.534   4.000  1.00 20.00    -0.103 Cl
HETATM    6 BR6  UNL     1     -32.959   6.598   3.154  1.00 20.00    -0.065 Br
ENDROOT
TORSDOF 0
ENDMDL
