MODEL 1
REMARK VINA RESULT:      -5.1      0.000      0.000
REMARK  1 active torsions:
REMARK  status: ('A' for Active; 'I' for Inactive)
REMARK    1  A    between atoms: C1_1  and  C5_5 
ROOT
HETATM    1  C3  UNL     1     -22.507  17.845   9.989  1.00 20.00     0.207 C 
HETATM    2  C4  UNL     1     -23.534  17.963  12.148  1.00 20.00     0.208 C 
HETATM    3  C5  UNL     1     -23.851  18.453   9.571  1.00 20.00     0.267 C 
HETATM    4  C6  UNL     1     -24.773  17.286  11.534  1.00 20.00     0.172 C 
HETATM    5  C8  UNL     1     -24.635  15.755  11.590  1.00 20.00     0.051 C 
HETATM    6  C9  UNL     1     -26.021  17.702  12.329  1.00 20.00     0.051 C 
HETATM    7  N10 UNL     1     -24.952  17.652  10.116  1.00 20.00     0.104 N 
HETATM    8  O11 UNL     1     -22.350  17.697  11.400  1.00 20.00    -0.386 OA
HETATM    9  H28 UNL     1     -25.834  18.156  10.003  1.00 20.00     0.318 HD
ENDROOT
BRANCH   3  10
HETATM   10  C1  UNL     1     -23.946  18.537   8.078  1.00 20.00     0.006 C 
HETATM   11  C2  UNL     1     -24.927  19.178   7.428  1.00 20.00    -0.033 C 
HETATM   12  C7  UNL     1     -25.022  19.262   5.940  1.00 20.00     0.036 C 
ENDBRANCH   3  10
TORSDOF 1
ENDMDL
MODEL 2
REMARK VINA RESULT:      -4.5     15.781     18.324
REMARK  1 active torsions:
REMARK  status: ('A' for Active; 'I' for Inactive)
REMARK    1  A    between atoms: C1_1  and  C5_5 
ROOT
HETATM    1  C3  UNL     1     -34.331  14.843  -4.131  1.00 20.00     0.207 C 
HETATM    2  C4  UNL     1     -36.354  13.723  -4.749  1.00 20.00     0.208 C 
HETATM    3  C5  UNL     1     -35.210  15.292  -2.958  1.00 20.00     0.267 C 
HETATM    4  C6  UNL     1     -37.094  15.055  -4.525  1.00 20.00     0.172 C 
HETATM    5  C8  UNL     1     -37.074  15.905  -5.807  1.00 20.00     0.051 C 
HETATM    6  C9  UNL     1     -38.554  14.763  -4.145  1.00 20.00     0.051 C 
HETATM    7  N10 UNL     1     -36.464  15.861  -3.462  1.00 20.00     0.104 N 
HETATM    8  O11 UNL     1     -34.967  13.917  -5.012  1.00 20.00    -0.386 OA
HETATM    9  H28 UNL     1     -37.123  15.982  -2.690  1.00 20.00     0.318 HD
ENDROOT
BRANCH   3  10
HETATM   10  C1  UNL     1     -34.480  16.288  -2.109  1.00 20.00     0.006 C 
HETATM   11  C2  UNL     1     -33.308  16.842  -2.448  1.00 20.00    -0.033 C 
HETATM   12  C7  UNL     1     -32.582  17.835  -1.602  1.00 20.00     0.036 C 
ENDBRANCH   3  10
TORSDOF 1
ENDMDL
MODEL 3
REMARK VINA RESULT:      -4.5     15.883     16.668
REMARK  1 active torsions:
REMARK  status: ('A' for Active; 'I' for Inactive)
REMARK    1  A    between atoms: C1_1  and  C5_5 
ROOT
HETATM    1  C3  UNL     1     -33.235   5.240   2.142  1.00 20.00     0.207 C 
HETATM    2  C4  UNL     1     -33.854   4.257   4.235  1.00 20.00     0.208 C 
HETATM    3  C5  UNL     1     -32.808   6.384   3.069  1.00 20.00     0.267 C 
HETATM    4  C6  UNL     1     -34.579   5.572   4.575  1.00 20.00     0.172 C 
HETATM    5  C8  UNL     1     -36.022   5.547   4.041  1.00 20.00     0.051 C 
HETATM    6  C9  UNL     1     -34.618   5.747   6.101  1.00 20.00     0.051 C 
HETATM    7  N10 UNL     1     -33.913   6.739   3.966  1.00 20.00     0.104 N 
HETATM    8  O11 UNL     1     -33.697   4.077   2.831  1.00 20.00    -0.386 OA
HETATM    9  H28 UNL     1     -33.573   7.361   4.702  1.00 20.00     0.318 HD
ENDROOT
BRANCH   3  10
HETATM   10  C1  UNL     1     -32.375   7.573   2.267  1.00 20.00     0.006 C 
HETATM   11  C2  UNL     1     -33.059   8.058   1.221  1.00 20.00    -0.033 C 
HETATM   12  C7  UNL     1     -32.627   9.243   0.423  1.00 20.00     0.036 C 
ENDBRANCH   3  10
TORSDOF 1
ENDMDL
MODEL 4
REMARK VINA RESULT:      -4.3     15.781     18.415
REMARK  1 active torsions:
REMARK  status: ('A' for Active; 'I' for Inactive)
REMARK    1  A    between atoms: C1_1  and  C5_5 
ROOT
HETATM    1  C3  UNL     1     -34.350  13.959  -3.861  1.00 20.00     0.207 C 
HETATM    2  C4  UNL     1     -36.607  13.938  -4.660  1.00 20.00     0.208 C 
HETATM    3  C5  UNL     1     -34.733  15.401  -3.508  1.00 20.00     0.267 C 
HETATM    4  C6  UNL     1     -36.297  15.249  -5.405  1.00 20.00     0.172 C 
HETATM    5  C8  UNL     1     -35.712  14.955  -6.797  1.00 20.00     0.051 C 
HETATM    6  C9  UNL     1     -37.596  16.053  -5.572  1.00 20.00     0.051 C 
HETATM    7  N10 UNL     1     -35.304  16.068  -4.683  1.00 20.00     0.104 N 
HETATM    8  O11 UNL     1     -35.429  13.184  -4.386  1.00 20.00    -0.386 OA
HETATM    9  H28 UNL     1     -35.731  16.954  -4.404  1.00 20.00     0.318 HD
ENDROOT
BRANCH   3  10
HETATM   10  C1  UNL     1     -33.539  16.152  -3.002  1.00 20.00     0.006 C 
HETATM   11  C2  UNL     1     -33.600  17.110  -2.067  1.00 20.00    -0.033 C 
HETATM   12  C7  UNL     1     -32.410  17.856  -1.563  1.00 20.00     0.036 C 
ENDBRANCH   3  10
TORSDOF 1
ENDMDL
MODEL 5
REMARK VINA RESULT:      -4.2     15.726     18.504
REMARK  1 active torsions:
REMARK  status: ('A' for Active; 'I' for Inactive)
REMARK    1  A    between atoms: C1_1  and  C5_5 
ROOT
HETATM    1  C3  UNL     1     -34.655  14.098  -3.859  1.00 20.00     0.207 C 
HETATM    2  C4  UNL     1     -35.991  14.424  -5.819  1.00 20.00     0.208 C 
HETATM    3  C5  UNL     1     -34.872  15.611  -3.741  1.00 20.00     0.267 C 
HETATM    4  C6  UNL     1     -35.053  15.586  -6.196  1.00 20.00     0.172 C 
HETATM    5  C8  UNL     1     -33.849  15.068  -7.001  1.00 20.00     0.051 C 
HETATM    6  C9  UNL     1     -35.826  16.598  -7.056  1.00 20.00     0.051 C 
HETATM    7  N10 UNL     1     -34.516  16.267  -5.004  1.00 20.00     0.104 N 
HETATM    8  O11 UNL     1     -35.365  13.493  -4.940  1.00 20.00    -0.386 OA
HETATM    9  H28 UNL     1     -34.837  17.237  -4.991  1.00 20.00     0.318 HD
ENDROOT
BRANCH   3  10
HETATM   10  C1  UNL     1     -34.064  16.168  -2.609  1.00 20.00     0.006 C 
HETATM   11  C2  UNL     1     -33.254  17.231  -2.722  1.00 20.00    -0.033 C 
HETATM   12  C7  UNL     1     -32.449  17.786  -1.594  1.00 20.00     0.036 C 
ENDBRANCH   3  10
TORSDOF 1
ENDMDL
MODEL 6
REMARK VINA RESULT:      -4.2     14.976     17.249
REMARK  1 active torsions:
REMARK  status: ('A' for Active; 'I' for Inactive)
REMARK    1  A    between atoms: C1_1  and  C5_5 
ROOT
HETATM    1  C3  UNL     1     -33.519  16.366  -2.855  1.00 20.00     0.207 C 
HETATM    2  C4  UNL     1     -33.974  14.436  -4.196  1.00 20.00     0.208 C 
HETATM    3  C5  UNL     1     -34.784  15.880  -2.137  1.00 20.00     0.267 C 
HETATM    4  C6  UNL     1     -35.427  14.930  -4.316  1.00 20.00     0.172 C 
HETATM    5  C8  UNL     1     -35.573  15.894  -5.506  1.00 20.00     0.051 C 
HETATM    6  C9  UNL     1     -36.354  13.724  -4.538  1.00 20.00     0.051 C 
HETATM    7  N10 UNL     1     -35.859  15.663  -3.110  1.00 20.00     0.104 N 
HETATM    8  O11 UNL     1     -33.070  15.494  -3.893  1.00 20.00    -0.386 OA
HETATM    9  H28 UNL     1     -36.631  15.163  -2.665  1.00 20.00     0.318 HD
ENDROOT
BRANCH   3  10
HETATM   10  C1  UNL     1     -35.206  16.869  -1.094  1.00 20.00     0.006 C 
HETATM   11  C2  UNL     1     -34.361  17.700  -0.467  1.00 20.00    -0.033 C 
HETATM   12  C7  UNL     1     -34.783  18.685   0.572  1.00 20.00     0.036 C 
ENDBRANCH   3  10
TORSDOF 1
ENDMDL
MODEL 7
REMARK VINA RESULT:      -4.1     13.400     16.212
REMARK  1 active torsions:
REMARK  status: ('A' for Active; 'I' for Inactive)
REMARK    1  A    between atoms: C1_1  and  C5_5 
ROOT
HETATM    1  C3  UNL     1     -34.238  18.710  -3.181  1.00 20.00     0.207 C 
HETATM    2  C4  UNL     1     -34.333  16.905  -4.749  1.00 20.00     0.208 C 
HETATM    3  C5  UNL     1     -32.842  18.124  -2.941  1.00 20.00     0.267 C 
HETATM    4  C6  UNL     1     -33.834  15.977  -3.627  1.00 20.00     0.172 C 
HETATM    5  C8  UNL     1     -35.018  15.437  -2.806  1.00 20.00     0.051 C 
HETATM    6  C9  UNL     1     -33.081  14.791  -4.250  1.00 20.00     0.051 C 
HETATM    7  N10 UNL     1     -32.942  16.683  -2.687  1.00 20.00     0.104 N 
HETATM    8  O11 UNL     1     -34.960  18.078  -4.238  1.00 20.00    -0.386 OA
HETATM    9  H28 UNL     1     -32.012  16.261  -2.717  1.00 20.00     0.318 HD
ENDROOT
BRANCH   3  10
HETATM   10  C1  UNL     1     -32.172  18.818  -1.794  1.00 20.00     0.006 C 
HETATM   11  C2  UNL     1     -31.612  18.178  -0.758  1.00 20.00    -0.033 C 
HETATM   12  C7  UNL     1     -30.945  18.870   0.384  1.00 20.00     0.036 C 
ENDBRANCH   3  10
TORSDOF 1
ENDMDL
MODEL 8
REMARK VINA RESULT:      -4.0     16.621     19.129
REMARK  1 active torsions:
REMARK  status: ('A' for Active; 'I' for Inactive)
REMARK    1  A    between atoms: C1_1  and  C5_5 
ROOT
HETATM    1  C3  UNL     1     -36.325  14.095  -4.281  1.00 20.00     0.207 C 
HETATM    2  C4  UNL     1     -38.628  14.735  -4.156  1.00 20.00     0.208 C 
HETATM    3  C5  UNL     1     -36.182  15.282  -3.322  1.00 20.00     0.267 C 
HETATM    4  C6  UNL     1     -38.183  16.182  -4.439  1.00 20.00     0.172 C 
HETATM    5  C8  UNL     1     -38.108  16.437  -5.954  1.00 20.00     0.051 C 
HETATM    6  C9  UNL     1     -39.203  17.153  -3.822  1.00 20.00     0.051 C 
HETATM    7  N10 UNL     1     -36.845  16.463  -3.886  1.00 20.00     0.104 N 
HETATM    8  O11 UNL     1     -37.676  13.781  -4.618  1.00 20.00    -0.386 OA
HETATM    9  H28 UNL     1     -36.916  17.192  -3.173  1.00 20.00     0.318 HD
ENDROOT
BRANCH   3  10
HETATM   10  C1  UNL     1     -34.735  15.567  -3.053  1.00 20.00     0.006 C 
HETATM   11  C2  UNL     1     -34.276  16.743  -2.603  1.00 20.00    -0.033 C 
HETATM   12  C7  UNL     1     -32.835  17.025  -2.335  1.00 20.00     0.036 C 
ENDBRANCH   3  10
TORSDOF 1
ENDMDL
MODEL 9
REMARK VINA RESULT:      -4.0     13.841     16.637
REMARK  1 active torsions:
REMARK  status: ('A' for Active; 'I' for Inactive)
REMARK    1  A    between atoms: C1_1  and  C5_5 
ROOT
HETATM    1  C3  UNL     1     -34.364  16.603  -1.860  1.00 20.00     0.207 C 
HETATM    2  C4  UNL     1     -35.554  16.054  -3.863  1.00 20.00     0.208 C 
HETATM    3  C5  UNL     1     -33.645  17.555  -2.823  1.00 20.00     0.267 C 
HETATM    4  C6  UNL     1     -34.192  15.902  -4.564  1.00 20.00     0.172 C 
HETATM    5  C8  UNL     1     -33.652  14.471  -4.392  1.00 20.00     0.051 C 
HETATM    6  C9  UNL     1     -34.362  16.191  -6.064  1.00 20.00     0.051 C 
HETATM    7  N10 UNL     1     -33.180  16.816  -4.002  1.00 20.00     0.104 N 
HETATM    8  O11 UNL     1     -35.452  15.892  -2.450  1.00 20.00    -0.386 OA
HETATM    9  H28 UNL     1     -32.875  17.473  -4.723  1.00 20.00     0.318 HD
ENDROOT
BRANCH   3  10
HETATM   10  C1  UNL     1     -32.497  18.229  -2.135  1.00 20.00     0.006 C 
HETATM   11  C2  UNL     1     -32.255  18.132  -0.820  1.00 20.00    -0.033 C 
HETATM   12  C7  UNL     1     -31.111  18.803  -0.135  1.00 20.00     0.036 C 
ENDBRANCH   3  10
TORSDOF 1
ENDMDL
