MODEL 1
REMARK VINA RESULT:      -4.8      0.000      0.000
REMARK  1 active torsions:
REMARK  status: ('A' for Active; 'I' for Inactive)
REMARK    1  A    between atoms: C4_4  and  C9_9 
ROOT
HETATM    1  C1  UNL     1     -32.991  17.833  -1.671  1.00 20.00    -0.089 C 
HETATM    2  C2  UNL     1     -31.807  18.178  -1.145  1.00 20.00     0.014 C 
HETATM    3  C5  UNL     1     -34.300  18.286  -1.082  1.00 20.00     0.033 C 
HETATM    4  C6  UNL     1     -33.110  16.944  -2.883  1.00 20.00     0.042 C 
HETATM    5  C7  UNL     1     -35.208  17.090  -0.796  1.00 20.00     0.005 C 
HETATM    6  C8  UNL     1     -35.379  16.198  -2.029  1.00 20.00     0.009 C 
HETATM    7  C9  UNL     1     -34.021  15.741  -2.588  1.00 20.00     0.017 C 
ENDROOT
BRANCH   7   8
HETATM    8  C4  UNL     1     -34.217  14.904  -3.814  1.00 20.00    -0.089 C 
HETATM    9  C3  UNL     1     -33.211  14.640  -4.661  1.00 20.00     0.014 C 
HETATM   10  C10 UNL     1     -35.603  14.377  -4.041  1.00 20.00     0.043 C 
ENDBRANCH   7   8
TORSDOF 1
ENDMDL
MODEL 2
REMARK VINA RESULT:      -4.7      0.287      1.114
REMARK  1 active torsions:
REMARK  status: ('A' for Active; 'I' for Inactive)
REMARK    1  A    between atoms: C4_4  and  C9_9 
ROOT
HETATM    1  C1  UNL     1     -32.958  17.913  -1.527  1.00 20.00    -0.089 C 
HETATM    2  C2  UNL     1     -31.750  18.231  -1.041  1.00 20.00     0.014 C 
HETATM    3  C5  UNL     1     -34.237  18.322  -0.845  1.00 20.00     0.033 C 
HETATM    4  C6  UNL     1     -33.137  17.101  -2.784  1.00 20.00     0.042 C 
HETATM    5  C7  UNL     1     -35.126  17.105  -0.589  1.00 20.00     0.005 C 
HETATM    6  C8  UNL     1     -35.358  16.291  -1.864  1.00 20.00     0.009 C 
HETATM    7  C9  UNL     1     -34.030  15.877  -2.519  1.00 20.00     0.017 C 
ENDROOT
BRANCH   7   8
HETATM    8  C4  UNL     1     -34.286  15.116  -3.784  1.00 20.00    -0.089 C 
HETATM    9  C3  UNL     1     -35.519  14.986  -4.296  1.00 20.00     0.014 C 
HETATM   10  C10 UNL     1     -33.084  14.510  -4.445  1.00 20.00     0.043 C 
ENDBRANCH   7   8
TORSDOF 1
ENDMDL
MODEL 3
REMARK VINA RESULT:      -4.7      0.914      4.529
REMARK  1 active torsions:
REMARK  status: ('A' for Active; 'I' for Inactive)
REMARK    1  A    between atoms: C4_4  and  C9_9 
ROOT
HETATM    1  C1  UNL     1     -35.695  14.817  -4.347  1.00 20.00    -0.089 C 
HETATM    2  C2  UNL     1     -36.671  13.911  -4.498  1.00 20.00     0.014 C 
HETATM    3  C5  UNL     1     -34.464  14.832  -5.215  1.00 20.00     0.033 C 
HETATM    4  C6  UNL     1     -35.736  15.882  -3.280  1.00 20.00     0.042 C 
HETATM    5  C7  UNL     1     -33.198  14.799  -4.360  1.00 20.00     0.005 C 
HETATM    6  C8  UNL     1     -33.199  15.902  -3.298  1.00 20.00     0.009 C 
HETATM    7  C9  UNL     1     -34.461  15.841  -2.422  1.00 20.00     0.017 C 
ENDROOT
BRANCH   7   8
HETATM    8  C4  UNL     1     -34.454  16.954  -1.419  1.00 20.00    -0.089 C 
HETATM    9  C3  UNL     1     -35.466  17.140  -0.559  1.00 20.00     0.014 C 
HETATM   10  C10 UNL     1     -33.250  17.848  -1.433  1.00 20.00     0.043 C 
ENDBRANCH   7   8
TORSDOF 1
ENDMDL
MODEL 4
REMARK VINA RESULT:      -4.6     11.631     12.531
REMARK  1 active torsions:
REMARK  status: ('A' for Active; 'I' for Inactive)
REMARK    1  A    between atoms: C4_4  and  C9_9 
ROOT
HETATM    1  C1  UNL     1     -32.679   6.879   2.277  1.00 20.00    -0.089 C 
HETATM    2  C2  UNL     1     -32.569   7.944   1.471  1.00 20.00     0.014 C 
HETATM    3  C5  UNL     1     -32.617   5.465   1.762  1.00 20.00     0.033 C 
HETATM    4  C6  UNL     1     -32.896   7.007   3.764  1.00 20.00     0.042 C 
HETATM    5  C7  UNL     1     -33.847   4.674   2.206  1.00 20.00     0.005 C 
HETATM    6  C8  UNL     1     -34.059   4.753   3.720  1.00 20.00     0.009 C 
HETATM    7  C9  UNL     1     -34.136   6.211   4.203  1.00 20.00     0.017 C 
ENDROOT
BRANCH   7   8
HETATM    8  C4  UNL     1     -34.304   6.260   5.691  1.00 20.00    -0.089 C 
HETATM    9  C3  UNL     1     -33.884   7.304   6.418  1.00 20.00     0.014 C 
HETATM   10  C10 UNL     1     -34.971   5.072   6.319  1.00 20.00     0.043 C 
ENDBRANCH   7   8
TORSDOF 1
ENDMDL
MODEL 5
REMARK VINA RESULT:      -4.5      0.665      2.436
REMARK  1 active torsions:
REMARK  status: ('A' for Active; 'I' for Inactive)
REMARK    1  A    between atoms: C4_4  and  C9_9 
ROOT
HETATM    1  C1  UNL     1     -35.098  17.282  -1.073  1.00 20.00    -0.089 C 
HETATM    2  C2  UNL     1     -36.213  17.895  -0.652  1.00 20.00     0.014 C 
HETATM    3  C5  UNL     1     -33.723  17.839  -0.815  1.00 20.00     0.033 C 
HETATM    4  C6  UNL     1     -35.128  15.995  -1.858  1.00 20.00     0.042 C 
HETATM    5  C7  UNL     1     -32.942  17.977  -2.122  1.00 20.00     0.005 C 
HETATM    6  C8  UNL     1     -32.922  16.667  -2.914  1.00 20.00     0.009 C 
HETATM    7  C9  UNL     1     -34.343  16.142  -3.172  1.00 20.00     0.017 C 
ENDROOT
BRANCH   7   8
HETATM    8  C4  UNL     1     -34.293  14.841  -3.914  1.00 20.00    -0.089 C 
HETATM    9  C3  UNL     1     -35.389  14.095  -4.113  1.00 20.00     0.014 C 
HETATM   10  C10 UNL     1     -32.945  14.421  -4.420  1.00 20.00     0.043 C 
ENDBRANCH   7   8
TORSDOF 1
ENDMDL
MODEL 6
REMARK VINA RESULT:      -4.4     10.816     11.618
REMARK  1 active torsions:
REMARK  status: ('A' for Active; 'I' for Inactive)
REMARK    1  A    between atoms: C4_4  and  C9_9 
ROOT
HETATM    1  C1  UNL     1     -34.141   6.360   4.698  1.00 20.00    -0.089 C 
HETATM    2  C2  UNL     1     -34.006   6.610   6.007  1.00 20.00     0.014 C 
HETATM    3  C5  UNL     1     -34.606   5.027   4.173  1.00 20.00     0.033 C 
HETATM    4  C6  UNL     1     -33.816   7.384   3.640  1.00 20.00     0.042 C 
HETATM    5  C7  UNL     1     -33.610   4.468   3.157  1.00 20.00     0.005 C 
HETATM    6  C8  UNL     1     -33.301   5.478   2.048  1.00 20.00     0.009 C 
HETATM    7  C9  UNL     1     -32.812   6.817   2.623  1.00 20.00     0.017 C 
ENDROOT
BRANCH   7   8
HETATM    8  C4  UNL     1     -32.556   7.797   1.519  1.00 20.00    -0.089 C 
HETATM    9  C3  UNL     1     -31.821   7.478   0.444  1.00 20.00     0.014 C 
HETATM   10  C10 UNL     1     -33.170   9.155   1.686  1.00 20.00     0.043 C 
ENDBRANCH   7   8
TORSDOF 1
ENDMDL
MODEL 7
REMARK VINA RESULT:      -4.3      1.410      4.678
REMARK  1 active torsions:
REMARK  status: ('A' for Active; 'I' for Inactive)
REMARK    1  A    between atoms: C4_4  and  C9_9 
ROOT
HETATM    1  C1  UNL     1     -37.152  15.242  -4.291  1.00 20.00    -0.089 C 
HETATM    2  C2  UNL     1     -38.486  15.129  -4.226  1.00 20.00     0.014 C 
HETATM    3  C5  UNL     1     -36.304  14.336  -5.143  1.00 20.00     0.033 C 
HETATM    4  C6  UNL     1     -36.386  16.270  -3.497  1.00 20.00     0.042 C 
HETATM    5  C7  UNL     1     -35.207  13.677  -4.308  1.00 20.00     0.005 C 
HETATM    6  C8  UNL     1     -34.387  14.709  -3.529  1.00 20.00     0.009 C 
HETATM    7  C9  UNL     1     -35.286  15.601  -2.657  1.00 20.00     0.017 C 
ENDROOT
BRANCH   7   8
HETATM    8  C4  UNL     1     -34.464  16.626  -1.937  1.00 20.00    -0.089 C 
HETATM    9  C3  UNL     1     -34.898  17.227  -0.820  1.00 20.00     0.014 C 
HETATM   10  C10 UNL     1     -33.126  16.940  -2.538  1.00 20.00     0.043 C 
ENDBRANCH   7   8
TORSDOF 1
ENDMDL
MODEL 8
REMARK VINA RESULT:      -4.2      0.999      2.330
REMARK  1 active torsions:
REMARK  status: ('A' for Active; 'I' for Inactive)
REMARK    1  A    between atoms: C4_4  and  C9_9 
ROOT
HETATM    1  C1  UNL     1     -35.134  17.592  -0.298  1.00 20.00    -0.089 C 
HETATM    2  C2  UNL     1     -36.291  18.086   0.163  1.00 20.00     0.014 C 
HETATM    3  C5  UNL     1     -33.800  18.197   0.052  1.00 20.00     0.033 C 
HETATM    4  C6  UNL     1     -35.072  16.405  -1.226  1.00 20.00     0.042 C 
HETATM    5  C7  UNL     1     -33.008  18.530  -1.212  1.00 20.00     0.005 C 
HETATM    6  C8  UNL     1     -32.895  17.323  -2.148  1.00 20.00     0.009 C 
HETATM    7  C9  UNL     1     -34.277  16.748  -2.497  1.00 20.00     0.017 C 
ENDROOT
BRANCH   7   8
HETATM    8  C4  UNL     1     -34.134  15.546  -3.380  1.00 20.00    -0.089 C 
HETATM    9  C3  UNL     1     -32.974  15.237  -3.976  1.00 20.00     0.014 C 
HETATM   10  C10 UNL     1     -35.365  14.707  -3.557  1.00 20.00     0.043 C 
ENDBRANCH   7   8
TORSDOF 1
ENDMDL
MODEL 9
REMARK VINA RESULT:      -4.2      1.007      2.162
REMARK  1 active torsions:
REMARK  status: ('A' for Active; 'I' for Inactive)
REMARK    1  A    between atoms: C4_4  and  C9_9 
ROOT
HETATM    1  C1  UNL     1     -34.428  17.476  -1.101  1.00 20.00    -0.089 C 
HETATM    2  C2  UNL     1     -35.122  18.330  -0.336  1.00 20.00     0.014 C 
HETATM    3  C5  UNL     1     -32.992  17.720  -1.487  1.00 20.00     0.033 C 
HETATM    4  C6  UNL     1     -35.032  16.213  -1.659  1.00 20.00     0.042 C 
HETATM    5  C7  UNL     1     -32.821  17.654  -3.004  1.00 20.00     0.005 C 
HETATM    6  C8  UNL     1     -33.389  16.356  -3.585  1.00 20.00     0.009 C 
HETATM    7  C9  UNL     1     -34.859  16.154  -3.185  1.00 20.00     0.017 C 
ENDROOT
BRANCH   7   8
HETATM    8  C4  UNL     1     -35.376  14.859  -3.734  1.00 20.00    -0.089 C 
HETATM    9  C3  UNL     1     -34.571  13.810  -3.953  1.00 20.00     0.014 C 
HETATM   10  C10 UNL     1     -36.847  14.805  -4.022  1.00 20.00     0.043 C 
ENDBRANCH   7   8
TORSDOF 1
ENDMDL
