MODEL 1
REMARK VINA RESULT:      -4.8      0.000      0.000
REMARK  0 active torsions:
REMARK  status: ('A' for Active; 'I' for Inactive)
ROOT
HETATM    1  C1  UNL     1     -33.274  17.842  -1.383  1.00 20.00    -0.064 A 
HETATM    2  C2  UNL     1     -32.581  18.196  -0.323  1.00 20.00    -0.084 C 
HETATM    3  C3  UNL     1     -34.459  15.452  -3.062  1.00 20.00     0.002 C 
HETATM    4  C4  UNL     1     -35.125  16.170  -1.879  1.00 20.00     0.010 C 
HETATM    5  C5  UNL     1     -33.050  16.057  -3.168  1.00 20.00     0.014 C 
HETATM    6  C6  UNL     1     -34.546  17.552  -1.910  1.00 20.00     0.028 A 
HETATM    7  C7  UNL     1     -33.234  17.497  -2.756  1.00 20.00    -0.013 A 
HETATM    8  C8  UNL     1     -31.078  18.373  -0.347  1.00 20.00     0.043 C 
HETATM    9  C9  UNL     1     -33.221  18.458   1.024  1.00 20.00     0.043 C 
HETATM   10  C10 UNL     1     -32.983  18.548  -3.788  1.00 20.00     0.021 C 
ENDROOT
TORSDOF 0
ENDMDL
MODEL 2
REMARK VINA RESULT:      -4.6     14.144     16.053
REMARK  0 active torsions:
REMARK  status: ('A' for Active; 'I' for Inactive)
ROOT
HETATM    1  C1  UNL     1     -23.495  17.767  10.758  1.00 20.00    -0.064 A 
HETATM    2  C2  UNL     1     -22.188  17.881  10.847  1.00 20.00    -0.084 C 
HETATM    3  C3  UNL     1     -26.267  19.263  10.829  1.00 20.00     0.002 C 
HETATM    4  C4  UNL     1     -25.365  19.047   9.605  1.00 20.00     0.010 C 
HETATM    5  C5  UNL     1     -25.475  18.712  12.025  1.00 20.00     0.014 C 
HETATM    6  C6  UNL     1     -24.619  17.783   9.913  1.00 20.00     0.028 A 
HETATM    7  C7  UNL     1     -24.708  17.545  11.454  1.00 20.00    -0.013 A 
HETATM    8  C8  UNL     1     -21.441  17.757  12.157  1.00 20.00     0.043 C 
HETATM    9  C9  UNL     1     -21.306  18.148   9.645  1.00 20.00     0.043 C 
HETATM   10  C10 UNL     1     -25.042  16.181  11.966  1.00 20.00     0.021 C 
ENDROOT
TORSDOF 0
ENDMDL
MODEL 3
REMARK VINA RESULT:      -4.4      2.059      4.744
REMARK  0 active torsions:
REMARK  status: ('A' for Active; 'I' for Inactive)
ROOT
HETATM    1  C1  UNL     1     -35.321  15.406  -4.048  1.00 20.00    -0.064 A 
HETATM    2  C2  UNL     1     -36.330  15.398  -4.892  1.00 20.00    -0.084 C 
HETATM    3  C3  UNL     1     -33.554  17.130  -2.090  1.00 20.00     0.002 C 
HETATM    4  C4  UNL     1     -34.866  16.406  -1.755  1.00 20.00     0.010 C 
HETATM    5  C5  UNL     1     -33.357  16.943  -3.603  1.00 20.00     0.014 C 
HETATM    6  C6  UNL     1     -34.907  15.253  -2.713  1.00 20.00     0.028 A 
HETATM    7  C7  UNL     1     -33.925  15.574  -3.883  1.00 20.00    -0.013 A 
HETATM    8  C8  UNL     1     -36.162  15.655  -6.374  1.00 20.00     0.043 C 
HETATM    9  C9  UNL     1     -37.757  15.134  -4.459  1.00 20.00     0.043 C 
HETATM   10  C10 UNL     1     -32.979  14.517  -4.356  1.00 20.00     0.021 C 
ENDROOT
TORSDOF 0
ENDMDL
MODEL 4
REMARK VINA RESULT:      -4.3      1.040      3.910
REMARK  0 active torsions:
REMARK  status: ('A' for Active; 'I' for Inactive)
ROOT
HETATM    1  C1  UNL     1     -33.555  17.282  -2.164  1.00 20.00    -0.064 A 
HETATM    2  C2  UNL     1     -33.858  16.181  -2.816  1.00 20.00    -0.084 C 
HETATM    3  C3  UNL     1     -32.270  18.520   0.434  1.00 20.00     0.002 C 
HETATM    4  C4  UNL     1     -31.544  18.139  -0.865  1.00 20.00     0.010 C 
HETATM    5  C5  UNL     1     -33.722  18.053   0.245  1.00 20.00     0.014 C 
HETATM    6  C6  UNL     1     -32.591  18.279  -1.929  1.00 20.00     0.028 A 
HETATM    7  C7  UNL     1     -33.986  18.253  -1.227  1.00 20.00    -0.013 A 
HETATM    8  C8  UNL     1     -35.185  15.471  -2.654  1.00 20.00     0.043 C 
HETATM    9  C9  UNL     1     -32.907  15.519  -3.791  1.00 20.00     0.043 C 
HETATM   10  C10 UNL     1     -35.018  19.263  -1.613  1.00 20.00     0.021 C 
ENDROOT
TORSDOF 0
ENDMDL
MODEL 5
REMARK VINA RESULT:      -4.3     12.952     15.114
REMARK  0 active torsions:
REMARK  status: ('A' for Active; 'I' for Inactive)
ROOT
HETATM    1  C1  UNL     1     -24.638  17.870  10.229  1.00 20.00    -0.064 A 
HETATM    2  C2  UNL     1     -25.272  17.960  11.377  1.00 20.00    -0.084 C 
HETATM    3  C3  UNL     1     -21.882  18.152   8.727  1.00 20.00     0.002 C 
HETATM    4  C4  UNL     1     -22.425  16.902   9.435  1.00 20.00     0.010 C 
HETATM    5  C5  UNL     1     -22.903  19.263   9.015  1.00 20.00     0.014 C 
HETATM    6  C6  UNL     1     -23.914  17.045   9.349  1.00 20.00     0.028 A 
HETATM    7  C7  UNL     1     -24.230  18.545   9.052  1.00 20.00    -0.013 A 
HETATM    8  C8  UNL     1     -25.926  19.238  11.855  1.00 20.00     0.043 C 
HETATM    9  C9  UNL     1     -25.405  16.792  12.332  1.00 20.00     0.043 C 
HETATM   10  C10 UNL     1     -25.231  18.889   7.997  1.00 20.00     0.021 C 
ENDROOT
TORSDOF 0
ENDMDL
MODEL 6
REMARK VINA RESULT:      -4.3      2.500      5.156
REMARK  0 active torsions:
REMARK  status: ('A' for Active; 'I' for Inactive)
ROOT
HETATM    1  C1  UNL     1     -34.390  14.959  -5.072  1.00 20.00    -0.064 A 
HETATM    2  C2  UNL     1     -34.808  15.089  -6.312  1.00 20.00    -0.084 C 
HETATM    3  C3  UNL     1     -34.062  16.337  -2.257  1.00 20.00     0.002 C 
HETATM    4  C4  UNL     1     -35.285  15.562  -2.770  1.00 20.00     0.010 C 
HETATM    5  C5  UNL     1     -33.091  16.406  -3.447  1.00 20.00     0.014 C 
HETATM    6  C6  UNL     1     -34.718  14.586  -3.756  1.00 20.00     0.028 A 
HETATM    7  C7  UNL     1     -33.304  15.101  -4.174  1.00 20.00    -0.013 A 
HETATM    8  C8  UNL     1     -33.918  15.590  -7.429  1.00 20.00     0.043 C 
HETATM    9  C9  UNL     1     -36.221  14.752  -6.739  1.00 20.00     0.043 C 
HETATM   10  C10 UNL     1     -32.159  14.141  -4.220  1.00 20.00     0.021 C 
ENDROOT
TORSDOF 0
ENDMDL
MODEL 7
REMARK VINA RESULT:      -4.3      1.415      4.193
REMARK  0 active torsions:
REMARK  status: ('A' for Active; 'I' for Inactive)
ROOT
HETATM    1  C1  UNL     1     -34.290  16.041  -3.244  1.00 20.00    -0.064 A 
HETATM    2  C2  UNL     1     -34.089  14.870  -3.807  1.00 20.00    -0.084 C 
HETATM    3  C3  UNL     1     -34.104  17.743  -0.598  1.00 20.00     0.002 C 
HETATM    4  C4  UNL     1     -33.001  17.545  -1.648  1.00 20.00     0.010 C 
HETATM    5  C5  UNL     1     -35.263  16.838  -1.044  1.00 20.00     0.014 C 
HETATM    6  C6  UNL     1     -33.746  17.299  -2.926  1.00 20.00     0.028 A 
HETATM    7  C7  UNL     1     -35.202  16.874  -2.551  1.00 20.00    -0.013 A 
HETATM    8  C8  UNL     1     -35.148  13.790  -3.856  1.00 20.00     0.043 C 
HETATM    9  C9  UNL     1     -32.776  14.490  -4.460  1.00 20.00     0.043 C 
HETATM   10  C10 UNL     1     -36.354  17.492  -3.275  1.00 20.00     0.021 C 
ENDROOT
TORSDOF 0
ENDMDL
MODEL 8
REMARK VINA RESULT:      -4.3      1.211      1.789
REMARK  0 active torsions:
REMARK  status: ('A' for Active; 'I' for Inactive)
ROOT
HETATM    1  C1  UNL     1     -34.513  16.926  -2.124  1.00 20.00    -0.064 A 
HETATM    2  C2  UNL     1     -34.415  17.374  -0.892  1.00 20.00    -0.084 C 
HETATM    3  C3  UNL     1     -33.990  14.516  -4.086  1.00 20.00     0.002 C 
HETATM    4  C4  UNL     1     -35.239  14.751  -3.224  1.00 20.00     0.010 C 
HETATM    5  C5  UNL     1     -33.005  15.629  -3.694  1.00 20.00     0.014 C 
HETATM    6  C6  UNL     1     -35.303  16.240  -3.064  1.00 20.00     0.028 A 
HETATM    7  C7  UNL     1     -33.888  16.814  -3.390  1.00 20.00    -0.013 A 
HETATM    8  C8  UNL     1     -33.201  18.122  -0.385  1.00 20.00     0.043 C 
HETATM    9  C9  UNL     1     -35.509  17.182   0.138  1.00 20.00     0.043 C 
HETATM   10  C10 UNL     1     -33.769  18.010  -4.278  1.00 20.00     0.021 C 
ENDROOT
TORSDOF 0
ENDMDL
MODEL 9
REMARK VINA RESULT:      -4.2      2.488      4.504
REMARK  0 active torsions:
REMARK  status: ('A' for Active; 'I' for Inactive)
ROOT
HETATM    1  C1  UNL     1     -34.548  15.399  -4.097  1.00 20.00    -0.064 A 
HETATM    2  C2  UNL     1     -34.226  16.045  -2.998  1.00 20.00    -0.084 C 
HETATM    3  C3  UNL     1     -35.783  15.602  -6.989  1.00 20.00     0.002 C 
HETATM    4  C4  UNL     1     -34.314  15.816  -6.594  1.00 20.00     0.010 C 
HETATM    5  C5  UNL     1     -36.538  15.397  -5.666  1.00 20.00     0.014 C 
HETATM    6  C6  UNL     1     -34.133  14.970  -5.370  1.00 20.00     0.028 A 
HETATM    7  C7  UNL     1     -35.550  14.673  -4.785  1.00 20.00    -0.013 A 
HETATM    8  C8  UNL     1     -35.177  16.207  -1.832  1.00 20.00     0.043 C 
HETATM    9  C9  UNL     1     -32.870  16.689  -2.794  1.00 20.00     0.043 C 
HETATM   10  C10 UNL     1     -35.892  13.280  -4.365  1.00 20.00     0.021 C 
ENDROOT
TORSDOF 0
ENDMDL
