MODEL 1
REMARK VINA RESULT:      -4.3      0.000      0.000
REMARK  2 active torsions:
REMARK  status: ('A' for Active; 'I' for Inactive)
REMARK    1  A    between atoms: C6_6  and  C8_8 
REMARK    2  A    between atoms: C7_7  and  C9_9 
ROOT
HETATM    1  C1  UNL     1     -34.319   6.200   6.060  1.00 20.00     0.005 C 
HETATM    2  C2  UNL     1     -34.341   4.657   5.939  1.00 20.00     0.005 C 
HETATM    3  C5  UNL     1     -35.521   5.485   4.107  1.00 20.00     0.010 C 
HETATM    4  C6  UNL     1     -34.694   6.673   4.645  1.00 20.00    -0.010 C 
HETATM    5  C7  UNL     1     -34.420   4.462   4.404  1.00 20.00    -0.010 C 
ENDROOT
BRANCH   4   6
HETATM    6  C8  UNL     1     -33.543   6.563   3.649  1.00 20.00    -0.006 C 
HETATM    7  C3  UNL     1     -32.919   6.915   2.274  1.00 20.00     0.006 C 
HETATM    8  C4  UNL     1     -31.591   7.087   3.141  1.00 20.00     0.006 C 
HETATM    9  C9  UNL     1     -32.570   7.683   4.197  1.00 20.00    -0.006 C 
ENDBRANCH   4   6
TORSDOF 2
ENDMDL
MODEL 2
REMARK VINA RESULT:      -4.2     11.669     12.644
REMARK  2 active torsions:
REMARK  status: ('A' for Active; 'I' for Inactive)
REMARK    1  A    between atoms: C6_6  and  C8_8 
REMARK    2  A    between atoms: C7_7  and  C9_9 
ROOT
HETATM    1  C1  UNL     1     -33.648  14.671  -5.224  1.00 20.00     0.005 C 
HETATM    2  C2  UNL     1     -34.840  15.081  -6.123  1.00 20.00     0.005 C 
HETATM    3  C5  UNL     1     -35.740  13.917  -4.314  1.00 20.00     0.010 C 
HETATM    4  C6  UNL     1     -34.316  14.331  -3.881  1.00 20.00    -0.010 C 
HETATM    5  C7  UNL     1     -35.984  15.218  -5.086  1.00 20.00    -0.010 C 
ENDROOT
BRANCH   4   6
HETATM    6  C8  UNL     1     -34.718  15.565  -3.079  1.00 20.00    -0.006 C 
HETATM    7  C3  UNL     1     -35.050  16.234  -1.720  1.00 20.00     0.006 C 
HETATM    8  C4  UNL     1     -34.181  17.429  -2.319  1.00 20.00     0.006 C 
HETATM    9  C9  UNL     1     -33.315  16.272  -2.901  1.00 20.00    -0.006 C 
ENDBRANCH   4   6
TORSDOF 2
ENDMDL
MODEL 3
REMARK VINA RESULT:      -4.1     15.487     16.506
REMARK  2 active torsions:
REMARK  status: ('A' for Active; 'I' for Inactive)
REMARK    1  A    between atoms: C6_6  and  C8_8 
REMARK    2  A    between atoms: C7_7  and  C9_9 
ROOT
HETATM    1  C1  UNL     1     -24.302  15.884  11.680  1.00 20.00     0.005 C 
HETATM    2  C2  UNL     1     -25.595  16.671  12.005  1.00 20.00     0.005 C 
HETATM    3  C5  UNL     1     -23.818  18.145  12.331  1.00 20.00     0.010 C 
HETATM    4  C6  UNL     1     -23.254  16.991  11.475  1.00 20.00    -0.010 C 
HETATM    5  C7  UNL     1     -25.183  18.119  11.636  1.00 20.00    -0.010 C 
ENDROOT
BRANCH   4   6
HETATM    6  C8  UNL     1     -23.373  17.689  10.122  1.00 20.00    -0.006 C 
HETATM    7  C3  UNL     1     -23.077  18.907   9.209  1.00 20.00     0.006 C 
HETATM    8  C4  UNL     1     -22.795  17.775   8.123  1.00 20.00     0.006 C 
HETATM    9  C9  UNL     1     -22.180  17.013   9.335  1.00 20.00    -0.006 C 
ENDBRANCH   4   6
TORSDOF 2
ENDMDL
MODEL 4
REMARK VINA RESULT:      -3.9      8.428     10.158
REMARK  2 active torsions:
REMARK  status: ('A' for Active; 'I' for Inactive)
REMARK    1  A    between atoms: C6_6  and  C8_8 
REMARK    2  A    between atoms: C7_7  and  C9_9 
ROOT
HETATM    1  C1  UNL     1     -43.417   7.576   0.802  1.00 20.00     0.005 C 
HETATM    2  C2  UNL     1     -42.863   8.793   0.023  1.00 20.00     0.005 C 
HETATM    3  C5  UNL     1     -41.020   7.518   0.666  1.00 20.00     0.010 C 
HETATM    4  C6  UNL     1     -42.242   6.584   0.795  1.00 20.00    -0.010 C 
HETATM    5  C7  UNL     1     -41.563   8.210  -0.588  1.00 20.00    -0.010 C 
ENDROOT
BRANCH   4   6
HETATM    6  C8  UNL     1     -42.068   5.866  -0.541  1.00 20.00    -0.006 C 
HETATM    7  C3  UNL     1     -41.373   4.779  -1.400  1.00 20.00     0.006 C 
HETATM    8  C4  UNL     1     -42.851   4.550  -1.953  1.00 20.00     0.006 C 
HETATM    9  C9  UNL     1     -43.257   4.826  -0.474  1.00 20.00    -0.006 C 
ENDBRANCH   4   6
TORSDOF 2
ENDMDL
MODEL 5
REMARK VINA RESULT:      -3.8     11.700     13.185
REMARK  2 active torsions:
REMARK  status: ('A' for Active; 'I' for Inactive)
REMARK    1  A    between atoms: C6_6  and  C8_8 
REMARK    2  A    between atoms: C7_7  and  C9_9 
ROOT
HETATM    1  C1  UNL     1     -35.155  14.941  -3.127  1.00 20.00     0.005 C 
HETATM    2  C2  UNL     1     -34.637  16.340  -2.717  1.00 20.00     0.005 C 
HETATM    3  C5  UNL     1     -32.873  15.268  -3.801  1.00 20.00     0.010 C 
HETATM    4  C6  UNL     1     -34.145  14.486  -4.193  1.00 20.00    -0.010 C 
HETATM    5  C7  UNL     1     -33.586  16.623  -3.821  1.00 20.00    -0.010 C 
ENDROOT
BRANCH   4   6
HETATM    6  C8  UNL     1     -34.360  15.152  -5.550  1.00 20.00    -0.006 C 
HETATM    7  C3  UNL     1     -34.093  15.206  -7.076  1.00 20.00     0.006 C 
HETATM    8  C4  UNL     1     -35.649  15.549  -7.138  1.00 20.00     0.006 C 
HETATM    9  C9  UNL     1     -35.742  14.513  -5.977  1.00 20.00    -0.006 C 
ENDBRANCH   4   6
TORSDOF 2
ENDMDL
MODEL 6
REMARK VINA RESULT:      -3.7     14.933     16.165
REMARK  2 active torsions:
REMARK  status: ('A' for Active; 'I' for Inactive)
REMARK    1  A    between atoms: C6_6  and  C8_8 
REMARK    2  A    between atoms: C7_7  and  C9_9 
ROOT
HETATM    1  C1  UNL     1     -22.462  18.027   8.434  1.00 20.00     0.005 C 
HETATM    2  C2  UNL     1     -22.788  16.709   9.176  1.00 20.00     0.005 C 
HETATM    3  C5  UNL     1     -23.899  18.410  10.320  1.00 20.00     0.010 C 
HETATM    4  C6  UNL     1     -23.546  18.996   8.936  1.00 20.00    -0.010 C 
HETATM    5  C7  UNL     1     -24.191  17.015   9.759  1.00 20.00    -0.010 C 
ENDROOT
BRANCH   4   6
HETATM    6  C8  UNL     1     -24.908  18.765   8.285  1.00 20.00    -0.006 C 
HETATM    7  C3  UNL     1     -26.338  19.263   7.951  1.00 20.00     0.006 C 
HETATM    8  C4  UNL     1     -26.023  18.607   6.533  1.00 20.00     0.006 C 
HETATM    9  C9  UNL     1     -24.592  19.168   6.789  1.00 20.00    -0.006 C 
ENDBRANCH   4   6
TORSDOF 2
ENDMDL
MODEL 7
REMARK VINA RESULT:      -3.7     11.810     12.948
REMARK  2 active torsions:
REMARK  status: ('A' for Active; 'I' for Inactive)
REMARK    1  A    between atoms: C6_6  and  C8_8 
REMARK    2  A    between atoms: C7_7  and  C9_9 
ROOT
HETATM    1  C1  UNL     1     -35.098  16.185  -1.890  1.00 20.00     0.005 C 
HETATM    2  C2  UNL     1     -35.176  17.694  -2.222  1.00 20.00     0.005 C 
HETATM    3  C5  UNL     1     -33.126  16.938  -3.036  1.00 20.00     0.010 C 
HETATM    4  C6  UNL     1     -33.984  15.673  -2.819  1.00 20.00    -0.010 C 
HETATM    5  C7  UNL     1     -34.317  17.778  -3.510  1.00 20.00    -0.010 C 
ENDROOT
BRANCH   4   6
HETATM    6  C8  UNL     1     -34.437  15.506  -4.267  1.00 20.00    -0.006 C 
HETATM    7  C3  UNL     1     -34.163  15.012  -5.711  1.00 20.00     0.006 C 
HETATM    8  C4  UNL     1     -35.681  14.535  -5.626  1.00 20.00     0.006 C 
HETATM    9  C9  UNL     1     -35.305  14.189  -4.154  1.00 20.00    -0.006 C 
ENDBRANCH   4   6
TORSDOF 2
ENDMDL
MODEL 8
REMARK VINA RESULT:      -3.7      8.601      9.934
REMARK  2 active torsions:
REMARK  status: ('A' for Active; 'I' for Inactive)
REMARK    1  A    between atoms: C6_6  and  C8_8 
REMARK    2  A    between atoms: C7_7  and  C9_9 
ROOT
HETATM    1  C1  UNL     1     -41.087   5.063  -0.888  1.00 20.00     0.005 C 
HETATM    2  C2  UNL     1     -42.188   4.712  -1.919  1.00 20.00     0.005 C 
HETATM    3  C5  UNL     1     -43.264   5.017   0.127  1.00 20.00     0.010 C 
HETATM    4  C6  UNL     1     -41.876   5.678   0.280  1.00 20.00    -0.010 C 
HETATM    5  C7  UNL     1     -43.415   5.455  -1.333  1.00 20.00    -0.010 C 
ENDROOT
BRANCH   4   6
HETATM    6  C8  UNL     1     -42.325   7.112   0.014  1.00 20.00    -0.006 C 
HETATM    7  C3  UNL     1     -43.193   8.340   0.393  1.00 20.00     0.006 C 
HETATM    8  C4  UNL     1     -41.859   9.143   0.048  1.00 20.00     0.006 C 
HETATM    9  C9  UNL     1     -41.162   7.920   0.717  1.00 20.00    -0.006 C 
ENDBRANCH   4   6
TORSDOF 2
ENDMDL
MODEL 9
REMARK VINA RESULT:      -3.7     11.784     13.042
REMARK  2 active torsions:
REMARK  status: ('A' for Active; 'I' for Inactive)
REMARK    1  A    between atoms: C6_6  and  C8_8 
REMARK    2  A    between atoms: C7_7  and  C9_9 
ROOT
HETATM    1  C1  UNL     1     -34.952  15.933  -2.115  1.00 20.00     0.005 C 
HETATM    2  C2  UNL     1     -34.138  17.223  -2.371  1.00 20.00     0.005 C 
HETATM    3  C5  UNL     1     -33.149  15.547  -3.655  1.00 20.00     0.010 C 
HETATM    4  C6  UNL     1     -34.555  15.022  -3.289  1.00 20.00    -0.010 C 
HETATM    5  C7  UNL     1     -33.629  16.993  -3.817  1.00 20.00    -0.010 C 
ENDROOT
BRANCH   4   6
HETATM    6  C8  UNL     1     -35.239  15.398  -4.601  1.00 20.00    -0.006 C 
HETATM    7  C3  UNL     1     -35.673  15.029  -6.043  1.00 20.00     0.006 C 
HETATM    8  C4  UNL     1     -37.017  15.775  -5.620  1.00 20.00     0.006 C 
HETATM    9  C9  UNL     1     -36.750  15.097  -4.242  1.00 20.00    -0.006 C 
ENDBRANCH   4   6
TORSDOF 2
ENDMDL
