MODEL 1
REMARK VINA RESULT:      -4.5      0.000      0.000
REMARK  0 active torsions:
REMARK  status: ('A' for Active; 'I' for Inactive)
ROOT
HETATM    1  C1  UNL     1     -40.985   4.937  -1.259  1.00 20.00     0.010 A 
HETATM    2  C2  UNL     1     -42.448   5.242  -1.083  1.00 20.00     0.010 A 
HETATM    3  C3  UNL     1     -42.828   8.858   0.198  1.00 20.00     0.010 A 
HETATM    4  C4  UNL     1     -41.462   9.471   0.349  1.00 20.00     0.010 A 
HETATM    5  C5  UNL     1     -41.131   6.852   0.565  1.00 20.00     0.019 C 
HETATM    6  C6  UNL     1     -41.227   7.566  -1.476  1.00 20.00     0.019 C 
HETATM    7  C7  UNL     1     -41.416   6.281  -0.768  1.00 20.00    -0.038 A 
HETATM    8  C8  UNL     1     -41.604   8.064  -0.137  1.00 20.00    -0.038 A 
ENDROOT
TORSDOF 0
ENDMDL
MODEL 2
REMARK VINA RESULT:      -4.5      0.009      3.411
REMARK  0 active torsions:
REMARK  status: ('A' for Active; 'I' for Inactive)
ROOT
HETATM    1  C1  UNL     1     -41.472   9.468   0.343  1.00 20.00     0.010 A 
HETATM    2  C2  UNL     1     -42.836   8.850   0.197  1.00 20.00     0.010 A 
HETATM    3  C3  UNL     1     -42.444   5.232  -1.076  1.00 20.00     0.010 A 
HETATM    4  C4  UNL     1     -40.980   4.932  -1.256  1.00 20.00     0.010 A 
HETATM    5  C5  UNL     1     -41.234   7.559  -1.478  1.00 20.00     0.019 C 
HETATM    6  C6  UNL     1     -41.129   6.851   0.564  1.00 20.00     0.019 C 
HETATM    7  C7  UNL     1     -41.609   8.059  -0.139  1.00 20.00    -0.038 A 
HETATM    8  C8  UNL     1     -41.416   6.276  -0.767  1.00 20.00    -0.038 A 
ENDROOT
TORSDOF 0
ENDMDL
MODEL 3
REMARK VINA RESULT:      -4.3      8.221      9.328
REMARK  0 active torsions:
REMARK  status: ('A' for Active; 'I' for Inactive)
ROOT
HETATM    1  C1  UNL     1     -31.851   7.366   2.220  1.00 20.00     0.010 A 
HETATM    2  C2  UNL     1     -33.275   7.656   1.828  1.00 20.00     0.010 A 
HETATM    3  C3  UNL     1     -35.637   5.569   4.048  1.00 20.00     0.010 A 
HETATM    4  C4  UNL     1     -34.813   4.748   5.003  1.00 20.00     0.010 A 
HETATM    5  C5  UNL     1     -33.263   5.234   2.911  1.00 20.00     0.019 C 
HETATM    6  C6  UNL     1     -33.331   6.845   4.354  1.00 20.00     0.019 C 
HETATM    7  C7  UNL     1     -32.977   6.684   2.928  1.00 20.00    -0.038 A 
HETATM    8  C8  UNL     1     -34.142   5.655   4.022  1.00 20.00    -0.038 A 
ENDROOT
TORSDOF 0
ENDMDL
MODEL 4
REMARK VINA RESULT:      -4.3      8.214      9.158
REMARK  0 active torsions:
REMARK  status: ('A' for Active; 'I' for Inactive)
ROOT
HETATM    1  C1  UNL     1     -34.799   4.812   5.058  1.00 20.00     0.010 A 
HETATM    2  C2  UNL     1     -35.635   5.600   4.087  1.00 20.00     0.010 A 
HETATM    3  C3  UNL     1     -33.304   7.639   1.791  1.00 20.00     0.010 A 
HETATM    4  C4  UNL     1     -31.876   7.370   2.179  1.00 20.00     0.010 A 
HETATM    5  C5  UNL     1     -33.336   6.900   4.338  1.00 20.00     0.019 C 
HETATM    6  C6  UNL     1     -33.267   5.249   2.941  1.00 20.00     0.019 C 
HETATM    7  C7  UNL     1     -34.141   5.695   4.047  1.00 20.00    -0.038 A 
HETATM    8  C8  UNL     1     -32.992   6.701   2.915  1.00 20.00    -0.038 A 
ENDROOT
TORSDOF 0
ENDMDL
MODEL 5
REMARK VINA RESULT:      -4.1     22.568     23.673
REMARK  0 active torsions:
REMARK  status: ('A' for Active; 'I' for Inactive)
ROOT
HETATM    1  C1  UNL     1     -21.962  18.551   9.148  1.00 20.00     0.010 A 
HETATM    2  C2  UNL     1     -22.083  17.055   9.035  1.00 20.00     0.010 A 
HETATM    3  C3  UNL     1     -24.709  15.814  11.571  1.00 20.00     0.010 A 
HETATM    4  C4  UNL     1     -25.253  16.994  12.329  1.00 20.00     0.010 A 
HETATM    5  C5  UNL     1     -22.839  17.695  11.497  1.00 20.00     0.019 C 
HETATM    6  C6  UNL     1     -24.391  17.934  10.008  1.00 20.00     0.019 C 
HETATM    7  C7  UNL     1     -22.918  17.808  10.025  1.00 20.00    -0.038 A 
HETATM    8  C8  UNL     1     -24.212  17.196  11.275  1.00 20.00    -0.038 A 
ENDROOT
TORSDOF 0
ENDMDL
MODEL 6
REMARK VINA RESULT:      -4.1      8.195      9.487
REMARK  0 active torsions:
REMARK  status: ('A' for Active; 'I' for Inactive)
ROOT
HETATM    1  C1  UNL     1     -35.238   5.411   6.433  1.00 20.00     0.010 A 
HETATM    2  C2  UNL     1     -34.151   6.397   6.099  1.00 20.00     0.010 A 
HETATM    3  C3  UNL     1     -32.916   5.734   2.508  1.00 20.00     0.010 A 
HETATM    4  C4  UNL     1     -33.688   4.579   1.930  1.00 20.00     0.010 A 
HETATM    5  C5  UNL     1     -33.750   4.273   4.560  1.00 20.00     0.019 C 
HETATM    6  C6  UNL     1     -35.234   5.650   3.794  1.00 20.00     0.019 C 
HETATM    7  C7  UNL     1     -34.579   5.375   5.091  1.00 20.00    -0.038 A 
HETATM    8  C8  UNL     1     -33.970   5.048   3.320  1.00 20.00    -0.038 A 
ENDROOT
TORSDOF 0
ENDMDL
MODEL 7
REMARK VINA RESULT:      -4.1     10.604     12.364
REMARK  0 active torsions:
REMARK  status: ('A' for Active; 'I' for Inactive)
ROOT
HETATM    1  C1  UNL     1     -32.716  17.494  -1.922  1.00 20.00     0.010 A 
HETATM    2  C2  UNL     1     -33.516  18.075  -3.057  1.00 20.00     0.010 A 
HETATM    3  C3  UNL     1     -35.535  15.254  -4.740  1.00 20.00     0.010 A 
HETATM    4  C4  UNL     1     -35.247  13.957  -4.034  1.00 20.00     0.010 A 
HETATM    5  C5  UNL     1     -33.141  15.510  -3.626  1.00 20.00     0.019 C 
HETATM    6  C6  UNL     1     -34.789  15.882  -2.273  1.00 20.00     0.019 C 
HETATM    7  C7  UNL     1     -33.594  16.611  -2.750  1.00 20.00    -0.038 A 
HETATM    8  C8  UNL     1     -34.589  15.221  -3.579  1.00 20.00    -0.038 A 
ENDROOT
TORSDOF 0
ENDMDL
MODEL 8
REMARK VINA RESULT:      -4.0      8.199      9.246
REMARK  0 active torsions:
REMARK  status: ('A' for Active; 'I' for Inactive)
ROOT
HETATM    1  C1  UNL     1     -33.670   4.630   1.914  1.00 20.00     0.010 A 
HETATM    2  C2  UNL     1     -32.897   5.781   2.499  1.00 20.00     0.010 A 
HETATM    3  C3  UNL     1     -34.130   6.423   6.095  1.00 20.00     0.010 A 
HETATM    4  C4  UNL     1     -35.218   5.436   6.423  1.00 20.00     0.010 A 
HETATM    5  C5  UNL     1     -35.215   5.691   3.787  1.00 20.00     0.019 C 
HETATM    6  C6  UNL     1     -33.731   4.308   4.543  1.00 20.00     0.019 C 
HETATM    7  C7  UNL     1     -33.952   5.091   3.308  1.00 20.00    -0.038 A 
HETATM    8  C8  UNL     1     -34.560   5.408   5.081  1.00 20.00    -0.038 A 
ENDROOT
TORSDOF 0
ENDMDL
MODEL 9
REMARK VINA RESULT:      -4.0     10.581     11.989
REMARK  0 active torsions:
REMARK  status: ('A' for Active; 'I' for Inactive)
ROOT
HETATM    1  C1  UNL     1     -35.332  14.000  -4.085  1.00 20.00     0.010 A 
HETATM    2  C2  UNL     1     -35.601  15.313  -4.770  1.00 20.00     0.010 A 
HETATM    3  C3  UNL     1     -33.536  18.073  -3.042  1.00 20.00     0.010 A 
HETATM    4  C4  UNL     1     -32.744  17.461  -1.918  1.00 20.00     0.010 A 
HETATM    5  C5  UNL     1     -34.842  15.888  -2.293  1.00 20.00     0.019 C 
HETATM    6  C6  UNL     1     -33.201  15.513  -3.654  1.00 20.00     0.019 C 
HETATM    7  C7  UNL     1     -34.654  15.245  -3.610  1.00 20.00    -0.038 A 
HETATM    8  C8  UNL     1     -33.637  16.606  -2.759  1.00 20.00    -0.038 A 
ENDROOT
TORSDOF 0
ENDMDL
