MODEL 1
REMARK VINA RESULT:      -4.4      0.000      0.000
REMARK  2 active torsions:
REMARK  status: ('A' for Active; 'I' for Inactive)
REMARK    1  A    between atoms: C2_2  and  C5_5 
REMARK    2  A    between atoms: C5_5  and  C6_6 
ROOT
HETATM    1  C5  UNL     1     -32.536   6.956   3.343  1.00 20.00     0.042 C 
ENDROOT
BRANCH   1   2
HETATM    2  C2  UNL     1     -32.576   7.274   1.874  1.00 20.00    -0.030 C 
HETATM    3  C1  UNL     1     -32.919   8.473   1.378  1.00 20.00    -0.035 C 
HETATM    4  C3  UNL     1     -32.964   8.787  -0.080  1.00 20.00     0.036 C 
ENDBRANCH   1   2
BRANCH   1   5
HETATM    5  C6  UNL     1     -33.889   6.489   3.887  1.00 20.00     0.057 C 
HETATM    6  C4  UNL     1     -34.162   5.032   3.539  1.00 20.00     0.022 C 
HETATM    7 BR7  UNL     1     -33.918   6.659   5.843  1.00 20.00    -0.091 Br
ENDBRANCH   1   5
TORSDOF 2
ENDMDL
MODEL 2
REMARK VINA RESULT:      -3.9      2.495      4.238
REMARK  2 active torsions:
REMARK  status: ('A' for Active; 'I' for Inactive)
REMARK    1  A    between atoms: C2_2  and  C5_5 
REMARK    2  A    between atoms: C5_5  and  C6_6 
ROOT
HETATM    1  C5  UNL     1     -33.125   5.826   2.314  1.00 20.00     0.042 C 
ENDROOT
BRANCH   1   2
HETATM    2  C2  UNL     1     -33.847   5.177   3.462  1.00 20.00    -0.030 C 
HETATM    3  C1  UNL     1     -34.341   5.851   4.511  1.00 20.00    -0.035 C 
HETATM    4  C3  UNL     1     -35.053   5.206   5.653  1.00 20.00     0.036 C 
ENDBRANCH   1   2
BRANCH   1   5
HETATM    5  C6  UNL     1     -32.860   7.316   2.547  1.00 20.00     0.057 C 
HETATM    6  C4  UNL     1     -31.590   7.542   3.356  1.00 20.00     0.022 C 
HETATM    7 BR7  UNL     1     -32.650   8.234   0.823  1.00 20.00    -0.091 Br
ENDBRANCH   1   5
TORSDOF 2
ENDMDL
MODEL 3
REMARK VINA RESULT:      -3.7      2.578      4.259
REMARK  2 active torsions:
REMARK  status: ('A' for Active; 'I' for Inactive)
REMARK    1  A    between atoms: C2_2  and  C5_5 
REMARK    2  A    between atoms: C5_5  and  C6_6 
ROOT
HETATM    1  C5  UNL     1     -32.870   7.372   3.862  1.00 20.00     0.042 C 
ENDROOT
BRANCH   1   2
HETATM    2  C2  UNL     1     -33.958   6.515   4.449  1.00 20.00    -0.030 C 
HETATM    3  C1  UNL     1     -34.022   6.173   5.745  1.00 20.00    -0.035 C 
HETATM    4  C3  UNL     1     -35.098   5.319   6.326  1.00 20.00     0.036 C 
ENDBRANCH   1   2
BRANCH   1   5
HETATM    5  C6  UNL     1     -32.328   6.819   2.540  1.00 20.00     0.057 C 
HETATM    6  C4  UNL     1     -33.022   5.522   2.147  1.00 20.00     0.022 C 
HETATM    7 BR7  UNL     1     -32.623   8.123   1.102  1.00 20.00    -0.091 Br
ENDBRANCH   1   5
TORSDOF 2
ENDMDL
MODEL 4
REMARK VINA RESULT:      -3.6      1.650      1.695
REMARK  2 active torsions:
REMARK  status: ('A' for Active; 'I' for Inactive)
REMARK    1  A    between atoms: C2_2  and  C5_5 
REMARK    2  A    between atoms: C5_5  and  C6_6 
ROOT
HETATM    1  C5  UNL     1     -32.256   7.374   3.148  1.00 20.00     0.042 C 
ENDROOT
BRANCH   1   2
HETATM    2  C2  UNL     1     -32.561   7.493   1.680  1.00 20.00    -0.030 C 
HETATM    3  C1  UNL     1     -32.946   8.634   1.087  1.00 20.00    -0.035 C 
HETATM    4  C3  UNL     1     -33.255   8.751  -0.368  1.00 20.00     0.036 C 
ENDBRANCH   1   2
BRANCH   1   5
HETATM    5  C6  UNL     1     -32.965   6.187   3.806  1.00 20.00     0.057 C 
HETATM    6  C4  UNL     1     -34.243   6.618   4.513  1.00 20.00     0.022 C 
HETATM    7 BR7  UNL     1     -33.446   4.857   2.444  1.00 20.00    -0.091 Br
ENDBRANCH   1   5
TORSDOF 2
ENDMDL
MODEL 5
REMARK VINA RESULT:      -3.5     15.719     16.375
REMARK  2 active torsions:
REMARK  status: ('A' for Active; 'I' for Inactive)
REMARK    1  A    between atoms: C2_2  and  C5_5 
REMARK    2  A    between atoms: C5_5  and  C6_6 
ROOT
HETATM    1  C5  UNL     1     -23.944  18.102  12.278  1.00 20.00     0.042 C 
ENDROOT
BRANCH   1   2
HETATM    2  C2  UNL     1     -25.438  18.270  12.262  1.00 20.00    -0.030 C 
HETATM    3  C1  UNL     1     -26.088  19.092  11.425  1.00 20.00    -0.035 C 
HETATM    4  C3  UNL     1     -27.571  19.263  11.413  1.00 20.00     0.036 C 
ENDBRANCH   1   2
BRANCH   1   5
HETATM    5  C6  UNL     1     -23.489  16.779  11.655  1.00 20.00     0.057 C 
HETATM    6  C4  UNL     1     -24.559  15.703  11.776  1.00 20.00     0.022 C 
HETATM    7 BR7  UNL     1     -23.104  17.037   9.747  1.00 20.00    -0.091 Br
ENDBRANCH   1   5
TORSDOF 2
ENDMDL
MODEL 6
REMARK VINA RESULT:      -3.5     10.598     11.245
REMARK  2 active torsions:
REMARK  status: ('A' for Active; 'I' for Inactive)
REMARK    1  A    between atoms: C2_2  and  C5_5 
REMARK    2  A    between atoms: C5_5  and  C6_6 
ROOT
HETATM    1  C5  UNL     1     -33.702  15.035  -3.865  1.00 20.00     0.042 C 
ENDROOT
BRANCH   1   2
HETATM    2  C2  UNL     1     -33.866  16.008  -2.730  1.00 20.00    -0.030 C 
HETATM    3  C1  UNL     1     -34.971  16.094  -1.973  1.00 20.00    -0.035 C 
HETATM    4  C3  UNL     1     -35.136  17.063  -0.851  1.00 20.00     0.036 C 
ENDBRANCH   1   2
BRANCH   1   5
HETATM    5  C6  UNL     1     -34.775  15.197  -4.945  1.00 20.00     0.057 C 
HETATM    6  C4  UNL     1     -34.196  15.027  -6.343  1.00 20.00     0.022 C 
HETATM    7 BR7  UNL     1     -36.177  13.844  -4.701  1.00 20.00    -0.091 Br
ENDBRANCH   1   5
TORSDOF 2
ENDMDL
MODEL 7
REMARK VINA RESULT:      -3.4     10.508     11.163
REMARK  2 active torsions:
REMARK  status: ('A' for Active; 'I' for Inactive)
REMARK    1  A    between atoms: C2_2  and  C5_5 
REMARK    2  A    between atoms: C5_5  and  C6_6 
ROOT
HETATM    1  C5  UNL     1     -34.841  13.930  -3.934  1.00 20.00     0.042 C 
ENDROOT
BRANCH   1   2
HETATM    2  C2  UNL     1     -34.715  15.205  -3.147  1.00 20.00    -0.030 C 
HETATM    3  C1  UNL     1     -33.579  15.913  -3.047  1.00 20.00    -0.035 C 
HETATM    4  C3  UNL     1     -33.453  17.175  -2.262  1.00 20.00     0.036 C 
ENDBRANCH   1   2
BRANCH   1   5
HETATM    5  C6  UNL     1     -36.055  13.926  -4.867  1.00 20.00     0.057 C 
HETATM    6  C4  UNL     1     -37.253  14.622  -4.234  1.00 20.00     0.022 C 
HETATM    7 BR7  UNL     1     -35.619  14.868  -6.534  1.00 20.00    -0.091 Br
ENDBRANCH   1   5
TORSDOF 2
ENDMDL
MODEL 8
REMARK VINA RESULT:      -3.4     10.534     11.176
REMARK  2 active torsions:
REMARK  status: ('A' for Active; 'I' for Inactive)
REMARK    1  A    between atoms: C2_2  and  C5_5 
REMARK    2  A    between atoms: C5_5  and  C6_6 
ROOT
HETATM    1  C5  UNL     1     -33.526  15.793  -3.603  1.00 20.00     0.042 C 
ENDROOT
BRANCH   1   2
HETATM    2  C2  UNL     1     -34.451  15.919  -2.424  1.00 20.00    -0.030 C 
HETATM    3  C1  UNL     1     -34.439  16.955  -1.572  1.00 20.00    -0.035 C 
HETATM    4  C3  UNL     1     -35.353  17.077  -0.399  1.00 20.00     0.036 C 
ENDBRANCH   1   2
BRANCH   1   5
HETATM    5  C6  UNL     1     -33.858  14.590  -4.491  1.00 20.00     0.057 C 
HETATM    6  C4  UNL     1     -35.107  13.864  -4.010  1.00 20.00     0.022 C 
HETATM    7 BR7  UNL     1     -34.178  15.189  -6.333  1.00 20.00    -0.091 Br
ENDBRANCH   1   5
TORSDOF 2
ENDMDL
MODEL 9
REMARK VINA RESULT:      -3.3     10.440     11.075
REMARK  2 active torsions:
REMARK  status: ('A' for Active; 'I' for Inactive)
REMARK    1  A    between atoms: C2_2  and  C5_5 
REMARK    2  A    between atoms: C5_5  and  C6_6 
ROOT
HETATM    1  C5  UNL     1     -33.242  16.416  -2.761  1.00 20.00     0.042 C 
ENDROOT
BRANCH   1   2
HETATM    2  C2  UNL     1     -34.437  15.540  -3.015  1.00 20.00    -0.030 C 
HETATM    3  C1  UNL     1     -34.481  14.591  -3.962  1.00 20.00    -0.035 C 
HETATM    4  C3  UNL     1     -35.669  13.725  -4.218  1.00 20.00     0.036 C 
ENDBRANCH   1   2
BRANCH   1   5
HETATM    5  C6  UNL     1     -33.585  17.666  -1.946  1.00 20.00     0.057 C 
HETATM    6  C4  UNL     1     -34.638  17.374  -0.885  1.00 20.00     0.022 C 
HETATM    7 BR7  UNL     1     -31.978  18.332  -1.036  1.00 20.00    -0.091 Br
ENDBRANCH   1   5
TORSDOF 2
ENDMDL
