MODEL 1
REMARK VINA RESULT:      -4.4      0.000      0.000
REMARK  2 active torsions:
REMARK  status: ('A' for Active; 'I' for Inactive)
REMARK    1  A    between atoms: C7_7  and  C9_9 
REMARK    2  A    between atoms: C8_8  and  C10_10 
ROOT
HETATM    1  C1  UNL     1     -35.543  17.388   0.783  1.00 20.00     0.012 C 
HETATM    2  C2  UNL     1     -35.088  17.480  -0.324  1.00 20.00    -0.112 C 
HETATM    3  C6  UNL     1     -34.543  17.590  -1.647  1.00 20.00     0.074 A 
HETATM    4  C9  UNL     1     -34.031  16.330  -2.311  1.00 20.00     0.015 A 
HETATM    5  C10 UNL     1     -33.054  17.389  -1.821  1.00 20.00     0.015 A 
ENDROOT
BRANCH   4   6
HETATM    6  C7  UNL     1     -33.680  16.184  -3.799  1.00 20.00     0.014 C 
HETATM    7  C3  UNL     1     -33.303  14.762  -4.168  1.00 20.00    -0.025 C 
HETATM    8  C4  UNL     1     -34.411  14.012  -4.034  1.00 20.00    -0.025 C 
HETATM    9  C8  UNL     1     -35.522  14.937  -3.575  1.00 20.00     0.014 C 
HETATM   10  C5  UNL     1     -35.099  16.170  -4.406  1.00 20.00     0.018 C 
ENDBRANCH   4   6
TORSDOF 2
ENDMDL
MODEL 2
REMARK VINA RESULT:      -4.4     10.818     11.914
REMARK  2 active torsions:
REMARK  status: ('A' for Active; 'I' for Inactive)
REMARK    1  A    between atoms: C7_7  and  C9_9 
REMARK    2  A    between atoms: C8_8  and  C10_10 
ROOT
HETATM    1  C1  UNL     1     -33.167   8.905   0.528  1.00 20.00     0.012 C 
HETATM    2  C2  UNL     1     -32.815   8.073   1.318  1.00 20.00    -0.112 C 
HETATM    3  C6  UNL     1     -32.392   7.078   2.263  1.00 20.00     0.074 A 
HETATM    4  C9  UNL     1     -33.347   6.705   3.376  1.00 20.00     0.015 A 
HETATM    5  C10 UNL     1     -32.100   7.522   3.679  1.00 20.00     0.015 A 
ENDROOT
BRANCH   4   6
HETATM    6  C7  UNL     1     -33.209   5.487   4.301  1.00 20.00     0.014 C 
HETATM    7  C3  UNL     1     -33.886   5.699   5.643  1.00 20.00    -0.025 C 
HETATM    8  C4  UNL     1     -35.208   5.766   5.411  1.00 20.00    -0.025 C 
HETATM    9  C8  UNL     1     -35.408   5.599   3.917  1.00 20.00     0.014 C 
HETATM   10  C5  UNL     1     -34.283   4.564   3.688  1.00 20.00     0.018 C 
ENDBRANCH   4   6
TORSDOF 2
ENDMDL
MODEL 3
REMARK VINA RESULT:      -4.3      1.450      2.692
REMARK  2 active torsions:
REMARK  status: ('A' for Active; 'I' for Inactive)
REMARK    1  A    between atoms: C7_7  and  C9_9 
REMARK    2  A    between atoms: C8_8  and  C10_10 
ROOT
HETATM    1  C1  UNL     1     -32.583  19.145  -2.904  1.00 20.00     0.012 C 
HETATM    2  C2  UNL     1     -32.906  18.003  -2.725  1.00 20.00    -0.112 C 
HETATM    3  C6  UNL     1     -33.293  16.638  -2.509  1.00 20.00     0.074 A 
HETATM    4  C9  UNL     1     -34.344  16.044  -3.422  1.00 20.00     0.015 A 
HETATM    5  C10 UNL     1     -34.682  16.369  -1.975  1.00 20.00     0.015 A 
ENDROOT
BRANCH   4   6
HETATM    6  C7  UNL     1     -34.685  14.552  -3.542  1.00 20.00     0.014 C 
HETATM    7  C3  UNL     1     -35.871  14.300  -4.453  1.00 20.00    -0.025 C 
HETATM    8  C4  UNL     1     -35.490  14.633  -5.699  1.00 20.00    -0.025 C 
HETATM    9  C8  UNL     1     -34.051  15.107  -5.613  1.00 20.00     0.014 C 
HETATM   10  C5  UNL     1     -33.585  14.107  -4.530  1.00 20.00     0.018 C 
ENDBRANCH   4   6
TORSDOF 2
ENDMDL
MODEL 4
REMARK VINA RESULT:      -4.3      1.380      4.550
REMARK  2 active torsions:
REMARK  status: ('A' for Active; 'I' for Inactive)
REMARK    1  A    between atoms: C7_7  and  C9_9 
REMARK    2  A    between atoms: C8_8  and  C10_10 
ROOT
HETATM    1  C1  UNL     1     -32.976  14.475  -4.390  1.00 20.00     0.012 C 
HETATM    2  C2  UNL     1     -33.554  15.377  -3.850  1.00 20.00    -0.112 C 
HETATM    3  C6  UNL     1     -34.247  16.456  -3.204  1.00 20.00     0.074 A 
HETATM    4  C9  UNL     1     -33.713  16.948  -1.876  1.00 20.00     0.015 A 
HETATM    5  C10 UNL     1     -35.007  16.151  -1.933  1.00 20.00     0.015 A 
ENDROOT
BRANCH   4   6
HETATM    6  C7  UNL     1     -34.126  18.250  -1.175  1.00 20.00     0.014 C 
HETATM    7  C3  UNL     1     -33.629  18.320   0.257  1.00 20.00    -0.025 C 
HETATM    8  C4  UNL     1     -32.288  18.406   0.205  1.00 20.00    -0.025 C 
HETATM    9  C8  UNL     1     -31.897  18.393  -1.260  1.00 20.00     0.014 C 
HETATM   10  C5  UNL     1     -33.092  19.220  -1.784  1.00 20.00     0.018 C 
ENDBRANCH   4   6
TORSDOF 2
ENDMDL
MODEL 5
REMARK VINA RESULT:      -4.3     15.703     17.168
REMARK  2 active torsions:
REMARK  status: ('A' for Active; 'I' for Inactive)
REMARK    1  A    between atoms: C7_7  and  C9_9 
REMARK    2  A    between atoms: C8_8  and  C10_10 
ROOT
HETATM    1  C1  UNL     1     -26.314  16.680  12.332  1.00 20.00     0.012 C 
HETATM    2  C2  UNL     1     -25.306  17.290  12.100  1.00 20.00    -0.112 C 
HETATM    3  C6  UNL     1     -24.101  18.020  11.825  1.00 20.00     0.074 A 
HETATM    4  C9  UNL     1     -23.231  17.548  10.680  1.00 20.00     0.015 A 
HETATM    5  C10 UNL     1     -22.780  17.346  12.119  1.00 20.00     0.015 A 
ENDROOT
BRANCH   4   6
HETATM    6  C7  UNL     1     -22.075  18.339  10.052  1.00 20.00     0.014 C 
HETATM    7  C3  UNL     1     -21.293  17.519   9.043  1.00 20.00    -0.025 C 
HETATM    8  C4  UNL     1     -22.112  17.287   8.003  1.00 20.00    -0.025 C 
HETATM    9  C8  UNL     1     -23.438  17.951   8.323  1.00 20.00     0.014 C 
HETATM   10  C5  UNL     1     -22.860  19.195   9.036  1.00 20.00     0.018 C 
ENDBRANCH   4   6
TORSDOF 2
ENDMDL
MODEL 6
REMARK VINA RESULT:      -4.2      1.561      1.856
REMARK  2 active torsions:
REMARK  status: ('A' for Active; 'I' for Inactive)
REMARK    1  A    between atoms: C7_7  and  C9_9 
REMARK    2  A    between atoms: C8_8  and  C10_10 
ROOT
HETATM    1  C1  UNL     1     -33.573  18.397   2.046  1.00 20.00     0.012 C 
HETATM    2  C2  UNL     1     -33.441  18.528   0.860  1.00 20.00    -0.112 C 
HETATM    3  C6  UNL     1     -33.282  18.686  -0.558  1.00 20.00     0.074 A 
HETATM    4  C9  UNL     1     -33.255  17.437  -1.412  1.00 20.00     0.015 A 
HETATM    5  C10 UNL     1     -31.980  18.235  -1.181  1.00 20.00     0.015 A 
ENDROOT
BRANCH   4   6
HETATM    6  C7  UNL     1     -33.379  17.398  -2.942  1.00 20.00     0.014 C 
HETATM    7  C3  UNL     1     -33.218  15.997  -3.501  1.00 20.00    -0.025 C 
HETATM    8  C4  UNL     1     -34.278  15.283  -3.085  1.00 20.00    -0.025 C 
HETATM    9  C8  UNL     1     -35.141  16.210  -2.249  1.00 20.00     0.014 C 
HETATM   10  C5  UNL     1     -34.913  17.489  -3.087  1.00 20.00     0.018 C 
ENDBRANCH   4   6
TORSDOF 2
ENDMDL
MODEL 7
REMARK VINA RESULT:      -4.2      2.172      4.749
REMARK  2 active torsions:
REMARK  status: ('A' for Active; 'I' for Inactive)
REMARK    1  A    between atoms: C7_7  and  C9_9 
REMARK    2  A    between atoms: C8_8  and  C10_10 
ROOT
HETATM    1  C1  UNL     1     -37.162  16.554  -7.885  1.00 20.00     0.012 C 
HETATM    2  C2  UNL     1     -36.357  15.826  -7.371  1.00 20.00    -0.112 C 
HETATM    3  C6  UNL     1     -35.394  14.956  -6.758  1.00 20.00     0.074 A 
HETATM    4  C9  UNL     1     -34.527  15.522  -5.654  1.00 20.00     0.015 A 
HETATM    5  C10 UNL     1     -33.929  15.221  -7.021  1.00 20.00     0.015 A 
ENDROOT
BRANCH   4   6
HETATM    6  C7  UNL     1     -33.653  14.702  -4.694  1.00 20.00     0.014 C 
HETATM    7  C3  UNL     1     -33.058  15.549  -3.585  1.00 20.00    -0.025 C 
HETATM    8  C4  UNL     1     -34.077  15.955  -2.809  1.00 20.00    -0.025 C 
HETATM    9  C8  UNL     1     -35.348  15.379  -3.403  1.00 20.00     0.014 C 
HETATM   10  C5  UNL     1     -34.753  14.024  -3.849  1.00 20.00     0.018 C 
ENDBRANCH   4   6
TORSDOF 2
ENDMDL
MODEL 8
REMARK VINA RESULT:      -4.2     11.980     13.967
REMARK  2 active torsions:
REMARK  status: ('A' for Active; 'I' for Inactive)
REMARK    1  A    between atoms: C7_7  and  C9_9 
REMARK    2  A    between atoms: C8_8  and  C10_10 
ROOT
HETATM    1  C1  UNL     1     -41.965   2.739  -3.440  1.00 20.00     0.012 C 
HETATM    2  C2  UNL     1     -42.603   3.534  -2.807  1.00 20.00    -0.112 C 
HETATM    3  C6  UNL     1     -43.367   4.484  -2.049  1.00 20.00     0.074 A 
HETATM    4  C9  UNL     1     -42.615   5.455  -1.164  1.00 20.00     0.015 A 
HETATM    5  C10 UNL     1     -43.416   4.319  -0.546  1.00 20.00     0.015 A 
ENDROOT
BRANCH   4   6
HETATM    6  C7  UNL     1     -43.210   6.709  -0.507  1.00 20.00     0.014 C 
HETATM    7  C3  UNL     1     -42.464   7.113   0.751  1.00 20.00    -0.025 C 
HETATM    8  C4  UNL     1     -41.238   7.513   0.371  1.00 20.00    -0.025 C 
HETATM    9  C8  UNL     1     -41.170   7.372  -1.138  1.00 20.00     0.014 C 
HETATM   10  C5  UNL     1     -42.627   7.797  -1.434  1.00 20.00     0.018 C 
ENDBRANCH   4   6
TORSDOF 2
ENDMDL
MODEL 9
REMARK VINA RESULT:      -4.1      1.683      4.515
REMARK  2 active torsions:
REMARK  status: ('A' for Active; 'I' for Inactive)
REMARK    1  A    between atoms: C7_7  and  C9_9 
REMARK    2  A    between atoms: C8_8  and  C10_10 
ROOT
HETATM    1  C1  UNL     1     -33.981  15.326  -7.692  1.00 20.00     0.012 C 
HETATM    2  C2  UNL     1     -34.081  15.088  -6.519  1.00 20.00    -0.112 C 
HETATM    3  C6  UNL     1     -34.199  14.802  -5.118  1.00 20.00     0.074 A 
HETATM    4  C9  UNL     1     -33.768  15.870  -4.136  1.00 20.00     0.015 A 
HETATM    5  C10 UNL     1     -32.928  14.615  -4.321  1.00 20.00     0.015 A 
ENDROOT
BRANCH   4   6
HETATM    6  C7  UNL     1     -34.073  15.877  -2.631  1.00 20.00     0.014 C 
HETATM    7  C3  UNL     1     -33.539  17.115  -1.937  1.00 20.00    -0.025 C 
HETATM    8  C4  UNL     1     -34.243  18.162  -2.402  1.00 20.00    -0.025 C 
HETATM    9  C8  UNL     1     -35.242  17.618  -3.405  1.00 20.00     0.014 C 
HETATM   10  C5  UNL     1     -35.558  16.299  -2.663  1.00 20.00     0.018 C 
ENDBRANCH   4   6
TORSDOF 2
ENDMDL
