MODEL 1
REMARK VINA RESULT:      -4.8      0.000      0.000
REMARK  2 active torsions:
REMARK  status: ('A' for Active; 'I' for Inactive)
REMARK    1  A    between atoms: C4_4  and  C8_8 
REMARK    2  A    between atoms: C9_9  and  O11_11 
ROOT
HETATM    1  C1  UNL     1     -33.850   5.368   3.363  1.00 20.00    -0.079 C 
HETATM    2  C2  UNL     1     -33.225   4.558   2.492  1.00 20.00     0.015 C 
HETATM    3  C5  UNL     1     -34.907   4.816   4.291  1.00 20.00     0.065 C 
HETATM    4  C6  UNL     1     -33.214   7.122   5.026  1.00 20.00     0.016 C 
HETATM    5  C7  UNL     1     -34.271   6.577   5.989  1.00 20.00     0.033 C 
HETATM    6  C8  UNL     1     -33.586   6.856   3.555  1.00 20.00     0.041 C 
HETATM    7  C9  UNL     1     -34.545   5.092   5.750  1.00 20.00     0.122 C 
ENDROOT
BRANCH   6   8
HETATM    8  C4  UNL     1     -32.553   7.449   2.640  1.00 20.00    -0.085 C 
HETATM    9  C3  UNL     1     -32.855   7.847   1.395  1.00 20.00     0.014 C 
HETATM   10  C10 UNL     1     -31.166   7.568   3.197  1.00 20.00     0.043 C 
ENDBRANCH   6   8
BRANCH   7  11
HETATM   11  O11 UNL     1     -35.627   4.670   6.574  1.00 20.00    -0.395 OA
HETATM   12  H27 UNL     1     -36.146   4.039   6.050  1.00 20.00     0.210 HD
ENDBRANCH   7  11
TORSDOF 2
ENDMDL
MODEL 2
REMARK VINA RESULT:      -4.7     11.502     12.497
REMARK  2 active torsions:
REMARK  status: ('A' for Active; 'I' for Inactive)
REMARK    1  A    between atoms: C4_4  and  C8_8 
REMARK    2  A    between atoms: C9_9  and  O11_11 
ROOT
HETATM    1  C1  UNL     1     -35.600  16.205  -3.072  1.00 20.00    -0.079 C 
HETATM    2  C2  UNL     1     -36.326  17.329  -3.188  1.00 20.00     0.015 C 
HETATM    3  C5  UNL     1     -36.212  14.866  -3.419  1.00 20.00     0.065 C 
HETATM    4  C6  UNL     1     -33.325  15.407  -3.726  1.00 20.00     0.016 C 
HETATM    5  C7  UNL     1     -33.918  14.046  -4.094  1.00 20.00     0.033 C 
HETATM    6  C8  UNL     1     -34.145  16.114  -2.631  1.00 20.00     0.041 C 
HETATM    7  C9  UNL     1     -35.389  14.158  -4.495  1.00 20.00     0.122 C 
ENDROOT
BRANCH   6   8
HETATM    8  C4  UNL     1     -33.505  17.421  -2.261  1.00 20.00    -0.085 C 
HETATM    9  C3  UNL     1     -32.814  18.149  -3.150  1.00 20.00     0.014 C 
HETATM   10  C10 UNL     1     -33.680  17.865  -0.839  1.00 20.00     0.043 C 
ENDBRANCH   6   8
BRANCH   7  11
HETATM   11  O11 UNL     1     -35.929  12.855  -4.695  1.00 20.00    -0.395 OA
HETATM   12  H27 UNL     1     -35.235  12.330  -5.124  1.00 20.00     0.210 HD
ENDBRANCH   7  11
TORSDOF 2
ENDMDL
MODEL 3
REMARK VINA RESULT:      -4.7     11.526     12.538
REMARK  2 active torsions:
REMARK  status: ('A' for Active; 'I' for Inactive)
REMARK    1  A    between atoms: C4_4  and  C8_8 
REMARK    2  A    between atoms: C9_9  and  O11_11 
ROOT
HETATM    1  C1  UNL     1     -35.559  16.203  -3.058  1.00 20.00    -0.079 C 
HETATM    2  C2  UNL     1     -36.292  17.325  -3.155  1.00 20.00     0.015 C 
HETATM    3  C5  UNL     1     -36.172  14.863  -3.396  1.00 20.00     0.065 C 
HETATM    4  C6  UNL     1     -33.295  15.417  -3.766  1.00 20.00     0.016 C 
HETATM    5  C7  UNL     1     -33.891  14.055  -4.125  1.00 20.00     0.033 C 
HETATM    6  C8  UNL     1     -34.094  16.118  -2.651  1.00 20.00     0.041 C 
HETATM    7  C9  UNL     1     -35.371  14.163  -4.493  1.00 20.00     0.122 C 
ENDROOT
BRANCH   6   8
HETATM    8  C4  UNL     1     -33.451  17.426  -2.290  1.00 20.00    -0.085 C 
HETATM    9  C3  UNL     1     -33.434  17.883  -1.029  1.00 20.00     0.014 C 
HETATM   10  C10 UNL     1     -32.832  18.193  -3.420  1.00 20.00     0.043 C 
ENDBRANCH   6   8
BRANCH   7  11
HETATM   11  O11 UNL     1     -35.909  12.858  -4.685  1.00 20.00    -0.395 OA
HETATM   12  H27 UNL     1     -35.714  12.355  -3.878  1.00 20.00     0.210 HD
ENDBRANCH   7  11
TORSDOF 2
ENDMDL
MODEL 4
REMARK VINA RESULT:      -4.6     11.904     12.819
REMARK  2 active torsions:
REMARK  status: ('A' for Active; 'I' for Inactive)
REMARK    1  A    between atoms: C4_4  and  C8_8 
REMARK    2  A    between atoms: C9_9  and  O11_11 
ROOT
HETATM    1  C1  UNL     1     -36.150  16.401  -3.552  1.00 20.00    -0.079 C 
HETATM    2  C2  UNL     1     -36.621  17.658  -3.590  1.00 20.00     0.015 C 
HETATM    3  C5  UNL     1     -36.602  15.389  -4.579  1.00 20.00     0.065 C 
HETATM    4  C6  UNL     1     -33.932  15.273  -3.323  1.00 20.00     0.016 C 
HETATM    5  C7  UNL     1     -34.360  14.240  -4.367  1.00 20.00     0.033 C 
HETATM    6  C8  UNL     1     -35.138  15.849  -2.556  1.00 20.00     0.041 C 
HETATM    7  C9  UNL     1     -35.404  14.807  -5.330  1.00 20.00     0.122 C 
ENDROOT
BRANCH   6   8
HETATM    8  C4  UNL     1     -34.675  16.819  -1.508  1.00 20.00    -0.085 C 
HETATM    9  C3  UNL     1     -35.387  17.051  -0.394  1.00 20.00     0.014 C 
HETATM   10  C10 UNL     1     -33.373  17.514  -1.776  1.00 20.00     0.043 C 
ENDBRANCH   6   8
BRANCH   7  11
HETATM   11  O11 UNL     1     -35.868  13.771  -6.191  1.00 20.00    -0.395 OA
HETATM   12  H27 UNL     1     -35.194  13.661  -6.881  1.00 20.00     0.210 HD
ENDBRANCH   7  11
TORSDOF 2
ENDMDL
MODEL 5
REMARK VINA RESULT:      -4.4     12.105     13.332
REMARK  2 active torsions:
REMARK  status: ('A' for Active; 'I' for Inactive)
REMARK    1  A    between atoms: C4_4  and  C8_8 
REMARK    2  A    between atoms: C9_9  and  O11_11 
ROOT
HETATM    1  C1  UNL     1     -33.759  15.148  -4.930  1.00 20.00    -0.079 C 
HETATM    2  C2  UNL     1     -32.809  14.401  -4.343  1.00 20.00     0.015 C 
HETATM    3  C5  UNL     1     -34.183  14.859  -6.352  1.00 20.00     0.065 C 
HETATM    4  C6  UNL     1     -36.033  16.013  -4.360  1.00 20.00     0.016 C 
HETATM    5  C7  UNL     1     -36.491  15.722  -5.790  1.00 20.00     0.033 C 
HETATM    6  C8  UNL     1     -34.522  16.300  -4.288  1.00 20.00     0.041 C 
HETATM    7  C9  UNL     1     -35.686  14.588  -6.424  1.00 20.00     0.122 C 
ENDROOT
BRANCH   6   8
HETATM    8  C4  UNL     1     -34.119  16.631  -2.880  1.00 20.00    -0.085 C 
HETATM    9  C3  UNL     1     -33.008  17.331  -2.607  1.00 20.00     0.014 C 
HETATM   10  C10 UNL     1     -35.029  16.132  -1.797  1.00 20.00     0.043 C 
ENDBRANCH   6   8
BRANCH   7  11
HETATM   11  O11 UNL     1     -36.056  14.449  -7.793  1.00 20.00    -0.395 OA
HETATM   12  H27 UNL     1     -35.748  15.249  -8.247  1.00 20.00     0.210 HD
ENDBRANCH   7  11
TORSDOF 2
ENDMDL
MODEL 6
REMARK VINA RESULT:      -4.3     11.467     13.307
REMARK  2 active torsions:
REMARK  status: ('A' for Active; 'I' for Inactive)
REMARK    1  A    between atoms: C4_4  and  C8_8 
REMARK    2  A    between atoms: C9_9  and  O11_11 
ROOT
HETATM    1  C1  UNL     1     -34.432  15.856  -3.469  1.00 20.00    -0.079 C 
HETATM    2  C2  UNL     1     -34.190  16.345  -2.242  1.00 20.00     0.015 C 
HETATM    3  C5  UNL     1     -34.521  14.362  -3.688  1.00 20.00     0.065 C 
HETATM    4  C6  UNL     1     -36.028  16.289  -5.342  1.00 20.00     0.016 C 
HETATM    5  C7  UNL     1     -36.144  14.783  -5.579  1.00 20.00     0.033 C 
HETATM    6  C8  UNL     1     -34.666  16.672  -4.733  1.00 20.00     0.041 C 
HETATM    7  C9  UNL     1     -35.867  13.985  -4.305  1.00 20.00     0.122 C 
ENDROOT
BRANCH   6   8
HETATM    8  C4  UNL     1     -34.570  18.161  -4.563  1.00 20.00    -0.085 C 
HETATM    9  C3  UNL     1     -33.404  18.814  -4.684  1.00 20.00     0.014 C 
HETATM   10  C10 UNL     1     -35.850  18.875  -4.247  1.00 20.00     0.043 C 
ENDBRANCH   6   8
BRANCH   7  11
HETATM   11  O11 UNL     1     -35.853  12.593  -4.609  1.00 20.00    -0.395 OA
HETATM   12  H27 UNL     1     -35.703  12.127  -3.771  1.00 20.00     0.210 HD
ENDBRANCH   7  11
TORSDOF 2
ENDMDL
MODEL 7
REMARK VINA RESULT:      -4.3     11.952     13.303
REMARK  2 active torsions:
REMARK  status: ('A' for Active; 'I' for Inactive)
REMARK    1  A    between atoms: C4_4  and  C8_8 
REMARK    2  A    between atoms: C9_9  and  O11_11 
ROOT
HETATM    1  C1  UNL     1     -34.684  16.206  -3.056  1.00 20.00    -0.079 C 
HETATM    2  C2  UNL     1     -35.151  16.215  -1.797  1.00 20.00     0.015 C 
HETATM    3  C5  UNL     1     -33.251  15.815  -3.333  1.00 20.00     0.065 C 
HETATM    4  C6  UNL     1     -35.416  15.343  -5.284  1.00 20.00     0.016 C 
HETATM    5  C7  UNL     1     -33.975  14.929  -5.586  1.00 20.00     0.033 C 
HETATM    6  C8  UNL     1     -35.480  16.537  -4.313  1.00 20.00     0.041 C 
HETATM    7  C9  UNL     1     -33.188  14.640  -4.308  1.00 20.00     0.122 C 
ENDROOT
BRANCH   6   8
HETATM    8  C4  UNL     1     -36.905  16.947  -4.080  1.00 20.00    -0.085 C 
HETATM    9  C3  UNL     1     -37.242  18.216  -3.806  1.00 20.00     0.014 C 
HETATM   10  C10 UNL     1     -37.931  15.856  -4.171  1.00 20.00     0.043 C 
ENDBRANCH   6   8
BRANCH   7  11
HETATM   11  O11 UNL     1     -31.824  14.393  -4.635  1.00 20.00    -0.395 OA
HETATM   12  H27 UNL     1     -31.617  13.503  -4.309  1.00 20.00     0.210 HD
ENDBRANCH   7  11
TORSDOF 2
ENDMDL
MODEL 8
REMARK VINA RESULT:      -4.2     11.842     12.942
REMARK  2 active torsions:
REMARK  status: ('A' for Active; 'I' for Inactive)
REMARK    1  A    between atoms: C4_4  and  C8_8 
REMARK    2  A    between atoms: C9_9  and  O11_11 
ROOT
HETATM    1  C1  UNL     1     -33.371  17.199  -2.573  1.00 20.00    -0.079 C 
HETATM    2  C2  UNL     1     -32.473  17.789  -1.766  1.00 20.00     0.015 C 
HETATM    3  C5  UNL     1     -32.921  16.541  -3.857  1.00 20.00     0.065 C 
HETATM    4  C6  UNL     1     -35.276  15.598  -2.345  1.00 20.00     0.016 C 
HETATM    5  C7  UNL     1     -34.838  14.908  -3.638  1.00 20.00     0.033 C 
HETATM    6  C8  UNL     1     -34.868  17.083  -2.320  1.00 20.00     0.041 C 
HETATM    7  C9  UNL     1     -33.339  15.071  -3.888  1.00 20.00     0.122 C 
ENDROOT
BRANCH   6   8
HETATM    8  C4  UNL     1     -35.359  17.739  -1.061  1.00 20.00    -0.085 C 
HETATM    9  C3  UNL     1     -35.429  17.075   0.102  1.00 20.00     0.014 C 
HETATM   10  C10 UNL     1     -35.767  19.177  -1.179  1.00 20.00     0.043 C 
ENDBRANCH   6   8
BRANCH   7  11
HETATM   11  O11 UNL     1     -33.008  14.532  -5.164  1.00 20.00    -0.395 OA
HETATM   12  H27 UNL     1     -33.292  15.184  -5.824  1.00 20.00     0.210 HD
ENDBRANCH   7  11
TORSDOF 2
ENDMDL
MODEL 9
REMARK VINA RESULT:      -4.2     11.920     12.774
REMARK  2 active torsions:
REMARK  status: ('A' for Active; 'I' for Inactive)
REMARK    1  A    between atoms: C4_4  and  C8_8 
REMARK    2  A    between atoms: C9_9  and  O11_11 
ROOT
HETATM    1  C1  UNL     1     -33.220  17.557  -2.321  1.00 20.00    -0.079 C 
HETATM    2  C2  UNL     1     -32.708  18.231  -3.364  1.00 20.00     0.015 C 
HETATM    3  C5  UNL     1     -33.118  18.127  -0.924  1.00 20.00     0.065 C 
HETATM    4  C6  UNL     1     -35.352  16.384  -1.756  1.00 20.00     0.016 C 
HETATM    5  C7  UNL     1     -35.279  16.954  -0.338  1.00 20.00     0.033 C 
HETATM    6  C8  UNL     1     -33.955  16.225  -2.384  1.00 20.00     0.041 C 
HETATM    7  C9  UNL     1     -34.504  18.272  -0.296  1.00 20.00     0.122 C 
ENDROOT
BRANCH   6   8
HETATM    8  C4  UNL     1     -34.063  15.616  -3.752  1.00 20.00    -0.085 C 
HETATM    9  C3  UNL     1     -33.129  14.782  -4.232  1.00 20.00     0.014 C 
HETATM   10  C10 UNL     1     -35.274  15.994  -4.551  1.00 20.00     0.043 C 
ENDBRANCH   6   8
BRANCH   7  11
HETATM   11  O11 UNL     1     -34.348  18.689   1.057  1.00 20.00    -0.395 OA
HETATM   12  H27 UNL     1     -35.221  18.610   1.474  1.00 20.00     0.210 HD
ENDBRANCH   7  11
TORSDOF 2
ENDMDL
