MODEL 1
REMARK VINA RESULT:      -4.4      0.000      0.000
REMARK  0 active torsions:
REMARK  status: ('A' for Active; 'I' for Inactive)
ROOT
HETATM    1  C1  UNL     1     -36.345  14.057  -4.559  1.00 20.00     0.411 C 
HETATM    2  C2  UNL     1     -34.185  14.459  -4.126  1.00 20.00     0.368 C 
HETATM    3  C3  UNL     1     -34.662  15.423  -5.177  1.00 20.00     0.199 C 
HETATM    4  C4  UNL     1     -34.247  15.031  -6.592  1.00 20.00     0.070 C 
HETATM    5  O5  UNL     1     -37.455  13.550  -4.503  1.00 20.00    -0.229 OA
HETATM    6  O6  UNL     1     -35.190  13.456  -4.133  1.00 20.00    -0.257 OA
HETATM    7  O7  UNL     1     -36.080  15.303  -5.061  1.00 20.00    -0.265 OA
HETATM    8  F8  UNL     1     -34.207  15.020  -2.891  1.00 20.00    -0.214 F 
HETATM    9 CL9  UNL     1     -34.169  17.094  -4.836  1.00 20.00    -0.082 Cl
ENDROOT
TORSDOF 0
ENDMDL
MODEL 2
REMARK VINA RESULT:      -4.4      1.812      2.454
REMARK  0 active torsions:
REMARK  status: ('A' for Active; 'I' for Inactive)
ROOT
HETATM    1  C1  UNL     1     -36.065  13.988  -4.669  1.00 20.00     0.411 C 
HETATM    2  C2  UNL     1     -34.505  15.371  -5.486  1.00 20.00     0.368 C 
HETATM    3  C3  UNL     1     -33.995  14.755  -4.212  1.00 20.00     0.199 C 
HETATM    4  C4  UNL     1     -34.104  15.682  -3.005  1.00 20.00     0.070 C 
HETATM    5  O5  UNL     1     -37.110  13.364  -4.567  1.00 20.00    -0.229 OA
HETATM    6  O6  UNL     1     -35.900  15.116  -5.428  1.00 20.00    -0.257 OA
HETATM    7  O7  UNL     1     -34.895  13.661  -4.037  1.00 20.00    -0.265 OA
HETATM    8  F8  UNL     1     -34.036  14.714  -6.576  1.00 20.00    -0.214 F 
HETATM    9 CL9  UNL     1     -32.334  14.150  -4.370  1.00 20.00    -0.082 Cl
ENDROOT
TORSDOF 0
ENDMDL
MODEL 3
REMARK VINA RESULT:      -4.4     19.029     19.608
REMARK  0 active torsions:
REMARK  status: ('A' for Active; 'I' for Inactive)
ROOT
HETATM    1  C1  UNL     1     -22.674  17.014   9.466  1.00 20.00     0.411 C 
HETATM    2  C2  UNL     1     -22.973  17.894  11.503  1.00 20.00     0.368 C 
HETATM    3  C3  UNL     1     -24.300  17.426  10.971  1.00 20.00     0.199 C 
HETATM    4  C4  UNL     1     -25.164  18.555  10.419  1.00 20.00     0.070 C 
HETATM    5  O5  UNL     1     -22.118  16.637   8.445  1.00 20.00    -0.229 OA
HETATM    6  O6  UNL     1     -22.159  17.935  10.340  1.00 20.00    -0.257 OA
HETATM    7  O7  UNL     1     -23.899  16.580   9.894  1.00 20.00    -0.265 OA
HETATM    8  F8  UNL     1     -22.418  16.974  12.332  1.00 20.00    -0.214 F 
HETATM    9 CL9  UNL     1     -25.214  16.485  12.168  1.00 20.00    -0.082 Cl
ENDROOT
TORSDOF 0
ENDMDL
MODEL 4
REMARK VINA RESULT:      -4.3      1.505      1.684
REMARK  0 active torsions:
REMARK  status: ('A' for Active; 'I' for Inactive)
ROOT
HETATM    1  C1  UNL     1     -36.768  14.199  -4.378  1.00 20.00     0.411 C 
HETATM    2  C2  UNL     1     -34.559  14.454  -4.642  1.00 20.00     0.368 C 
HETATM    3  C3  UNL     1     -35.097  15.620  -3.857  1.00 20.00     0.199 C 
HETATM    4  C4  UNL     1     -35.285  16.880  -4.696  1.00 20.00     0.070 C 
HETATM    5  O5  UNL     1     -37.887  13.715  -4.448  1.00 20.00    -0.229 OA
HETATM    6  O6  UNL     1     -35.728  13.887  -5.214  1.00 20.00    -0.257 OA
HETATM    7  O7  UNL     1     -36.378  15.134  -3.457  1.00 20.00    -0.265 OA
HETATM    8  F8  UNL     1     -34.029  13.509  -3.826  1.00 20.00    -0.214 F 
HETATM    9 CL9  UNL     1     -34.115  15.980  -2.423  1.00 20.00    -0.082 Cl
ENDROOT
TORSDOF 0
ENDMDL
MODEL 5
REMARK VINA RESULT:      -4.1      1.141      1.148
REMARK  0 active torsions:
REMARK  status: ('A' for Active; 'I' for Inactive)
ROOT
HETATM    1  C1  UNL     1     -35.383  13.739  -4.396  1.00 20.00     0.411 C 
HETATM    2  C2  UNL     1     -33.833  15.265  -3.865  1.00 20.00     0.368 C 
HETATM    3  C3  UNL     1     -34.923  15.930  -4.661  1.00 20.00     0.199 C 
HETATM    4  C4  UNL     1     -34.557  16.150  -6.125  1.00 20.00     0.070 C 
HETATM    5  O5  UNL     1     -35.966  12.668  -4.470  1.00 20.00    -0.229 OA
HETATM    6  O6  UNL     1     -34.050  13.885  -4.117  1.00 20.00    -0.257 OA
HETATM    7  O7  UNL     1     -35.970  14.962  -4.586  1.00 20.00    -0.265 OA
HETATM    8  F8  UNL     1     -34.009  15.448  -2.533  1.00 20.00    -0.214 F 
HETATM    9 CL9  UNL     1     -35.461  17.455  -3.928  1.00 20.00    -0.082 Cl
ENDROOT
TORSDOF 0
ENDMDL
MODEL 6
REMARK VINA RESULT:      -4.1      1.891      2.296
REMARK  0 active torsions:
REMARK  status: ('A' for Active; 'I' for Inactive)
ROOT
HETATM    1  C1  UNL     1     -36.630  14.302  -4.765  1.00 20.00     0.411 C 
HETATM    2  C2  UNL     1     -35.389  16.115  -5.198  1.00 20.00     0.368 C 
HETATM    3  C3  UNL     1     -34.568  14.883  -5.467  1.00 20.00     0.199 C 
HETATM    4  C4  UNL     1     -33.589  14.551  -4.345  1.00 20.00     0.070 C 
HETATM    5  O5  UNL     1     -37.584  13.611  -4.442  1.00 20.00    -0.229 OA
HETATM    6  O6  UNL     1     -36.467  15.617  -4.419  1.00 20.00    -0.257 OA
HETATM    7  O7  UNL     1     -35.573  13.870  -5.520  1.00 20.00    -0.265 OA
HETATM    8  F8  UNL     1     -35.932  16.607  -6.339  1.00 20.00    -0.214 F 
HETATM    9 CL9  UNL     1     -33.714  14.966  -7.020  1.00 20.00    -0.082 Cl
ENDROOT
TORSDOF 0
ENDMDL
MODEL 7
REMARK VINA RESULT:      -4.1      2.031      2.531
REMARK  0 active torsions:
REMARK  status: ('A' for Active; 'I' for Inactive)
ROOT
HETATM    1  C1  UNL     1     -35.946  13.721  -4.311  1.00 20.00     0.411 C 
HETATM    2  C2  UNL     1     -36.875  15.733  -3.990  1.00 20.00     0.368 C 
HETATM    3  C3  UNL     1     -35.385  15.846  -3.811  1.00 20.00     0.199 C 
HETATM    4  C4  UNL     1     -34.951  15.876  -2.348  1.00 20.00     0.070 C 
HETATM    5  O5  UNL     1     -35.838  12.529  -4.552  1.00 20.00    -0.229 OA
HETATM    6  O6  UNL     1     -37.101  14.334  -3.904  1.00 20.00    -0.257 OA
HETATM    7  O7  UNL     1     -34.928  14.631  -4.404  1.00 20.00    -0.265 OA
HETATM    8  F8  UNL     1     -37.254  16.111  -5.236  1.00 20.00    -0.214 F 
HETATM    9 CL9  UNL     1     -34.703  17.235  -4.680  1.00 20.00    -0.082 Cl
ENDROOT
TORSDOF 0
ENDMDL
MODEL 8
REMARK VINA RESULT:      -4.1     17.793     18.613
REMARK  0 active torsions:
REMARK  status: ('A' for Active; 'I' for Inactive)
ROOT
HETATM    1  C1  UNL     1     -23.699  18.576   8.036  1.00 20.00     0.411 C 
HETATM    2  C2  UNL     1     -22.817  18.314  10.078  1.00 20.00     0.368 C 
HETATM    3  C3  UNL     1     -24.227  17.787  10.080  1.00 20.00     0.199 C 
HETATM    4  C4  UNL     1     -25.233  18.751  10.701  1.00 20.00     0.070 C 
HETATM    5  O5  UNL     1     -23.800  18.875   6.856  1.00 20.00    -0.229 OA
HETATM    6  O6  UNL     1     -22.774  19.103   8.898  1.00 20.00    -0.257 OA
HETATM    7  O7  UNL     1     -24.496  17.671   8.683  1.00 20.00    -0.265 OA
HETATM    8  F8  UNL     1     -21.915  17.315   9.909  1.00 20.00    -0.214 F 
HETATM    9 CL9  UNL     1     -24.351  16.193  10.852  1.00 20.00    -0.082 Cl
ENDROOT
TORSDOF 0
ENDMDL
MODEL 9
REMARK VINA RESULT:      -4.0     11.165     12.040
REMARK  0 active torsions:
REMARK  status: ('A' for Active; 'I' for Inactive)
ROOT
HETATM    1  C1  UNL     1     -42.144   8.258   0.265  1.00 20.00     0.411 C 
HETATM    2  C2  UNL     1     -41.239   6.211   0.219  1.00 20.00     0.368 C 
HETATM    3  C3  UNL     1     -42.738   6.086   0.190  1.00 20.00     0.199 C 
HETATM    4  C4  UNL     1     -43.343   5.726   1.544  1.00 20.00     0.070 C 
HETATM    5  O5  UNL     1     -42.234   9.476   0.296  1.00 20.00    -0.229 OA
HETATM    6  O6  UNL     1     -41.039   7.548   0.653  1.00 20.00    -0.257 OA
HETATM    7  O7  UNL     1     -43.134   7.412  -0.156  1.00 20.00    -0.265 OA
HETATM    8  F8  UNL     1     -40.710   6.124  -1.027  1.00 20.00    -0.214 F 
HETATM    9 CL9  UNL     1     -43.298   4.947  -1.052  1.00 20.00    -0.082 Cl
ENDROOT
TORSDOF 0
ENDMDL
