MODEL 1
REMARK VINA RESULT:      -5.4      0.000      0.000
REMARK  0 active torsions:
REMARK  status: ('A' for Active; 'I' for Inactive)
ROOT
HETATM    1  C1  UNL     1     -34.469   4.945   3.728  1.00 20.00     0.023 C 
HETATM    2  C2  UNL     1     -32.578   7.359   1.777  1.00 20.00     0.017 A 
HETATM    3  C3  UNL     1     -32.310   7.748   4.256  1.00 20.00     0.012 C 
HETATM    4  C4  UNL     1     -35.192   4.919   5.019  1.00 20.00     0.110 C 
HETATM    5  C5  UNL     1     -32.734   6.310   2.555  1.00 20.00     0.010 A 
HETATM    6  C6  UNL     1     -31.876   7.472   3.011  1.00 20.00    -0.008 A 
HETATM    7  C7  UNL     1     -33.734   6.045   3.566  1.00 20.00    -0.061 C 
HETATM    8  C8  UNL     1     -33.718   6.471   5.984  1.00 20.00     0.158 C 
HETATM    9  C9  UNL     1     -33.626   7.119   4.603  1.00 20.00     0.040 C 
HETATM   10  N10 UNL     1     -34.905   5.596   6.081  1.00 20.00    -0.301 NA
ENDROOT
TORSDOF 0
ENDMDL
MODEL 2
REMARK VINA RESULT:      -5.1      1.746      3.847
REMARK  0 active torsions:
REMARK  status: ('A' for Active; 'I' for Inactive)
ROOT
HETATM    1  C1  UNL     1     -32.536   7.401   3.832  1.00 20.00     0.023 C 
HETATM    2  C2  UNL     1     -34.809   6.489   6.518  1.00 20.00     0.017 A 
HETATM    3  C3  UNL     1     -34.691   4.696   4.747  1.00 20.00     0.012 C 
HETATM    4  C4  UNL     1     -32.434   7.179   2.373  1.00 20.00     0.110 C 
HETATM    5  C5  UNL     1     -33.695   6.427   5.822  1.00 20.00     0.010 A 
HETATM    6  C6  UNL     1     -34.555   5.191   5.992  1.00 20.00    -0.008 A 
HETATM    7  C7  UNL     1     -33.470   6.646   4.409  1.00 20.00    -0.061 C 
HETATM    8  C8  UNL     1     -33.451   5.069   2.528  1.00 20.00     0.158 C 
HETATM    9  C9  UNL     1     -34.299   5.651   3.659  1.00 20.00     0.040 C 
HETATM   10  N10 UNL     1     -32.839   6.143   1.718  1.00 20.00    -0.301 NA
ENDROOT
TORSDOF 0
ENDMDL
MODEL 3
REMARK VINA RESULT:      -5.0     11.450     12.203
REMARK  0 active torsions:
REMARK  status: ('A' for Active; 'I' for Inactive)
ROOT
HETATM    1  C1  UNL     1     -36.938  16.140  -3.764  1.00 20.00     0.023 C 
HETATM    2  C2  UNL     1     -33.504  16.465  -2.622  1.00 20.00     0.017 A 
HETATM    3  C3  UNL     1     -33.823  14.404  -4.043  1.00 20.00     0.012 C 
HETATM    4  C4  UNL     1     -37.883  15.043  -4.068  1.00 20.00     0.110 C 
HETATM    5  C5  UNL     1     -34.480  16.507  -3.502  1.00 20.00     0.010 A 
HETATM    6  C6  UNL     1     -33.287  15.601  -3.732  1.00 20.00    -0.008 A 
HETATM    7  C7  UNL     1     -35.688  15.716  -3.586  1.00 20.00    -0.061 C 
HETATM    8  C8  UNL     1     -36.155  13.628  -4.792  1.00 20.00     0.158 C 
HETATM    9  C9  UNL     1     -35.282  14.281  -3.720  1.00 20.00     0.040 C 
HETATM   10  N10 UNL     1     -37.589  13.873  -4.530  1.00 20.00    -0.301 NA
ENDROOT
TORSDOF 0
ENDMDL
MODEL 4
REMARK VINA RESULT:      -4.9      0.836      2.002
REMARK  0 active torsions:
REMARK  status: ('A' for Active; 'I' for Inactive)
ROOT
HETATM    1  C1  UNL     1     -33.962   6.876   5.605  1.00 20.00     0.023 C 
HETATM    2  C2  UNL     1     -31.704   7.425   2.811  1.00 20.00     0.017 A 
HETATM    3  C3  UNL     1     -33.355   5.580   2.327  1.00 20.00     0.012 C 
HETATM    4  C4  UNL     1     -34.679   5.734   6.215  1.00 20.00     0.110 C 
HETATM    5  C5  UNL     1     -32.852   7.485   3.450  1.00 20.00     0.010 A 
HETATM    6  C6  UNL     1     -32.760   6.770   2.117  1.00 20.00    -0.008 A 
HETATM    7  C7  UNL     1     -33.419   6.579   4.425  1.00 20.00    -0.061 C 
HETATM    8  C8  UNL     1     -34.922   4.658   4.142  1.00 20.00     0.158 C 
HETATM    9  C9  UNL     1     -33.557   5.239   3.773  1.00 20.00     0.040 C 
HETATM   10  N10 UNL     1     -35.133   4.690   5.605  1.00 20.00    -0.301 NA
ENDROOT
TORSDOF 0
ENDMDL
MODEL 5
REMARK VINA RESULT:      -4.9     15.957     16.580
REMARK  0 active torsions:
REMARK  status: ('A' for Active; 'I' for Inactive)
ROOT
HETATM    1  C1  UNL     1     -25.112  19.065   9.008  1.00 20.00     0.023 C 
HETATM    2  C2  UNL     1     -25.369  17.618  12.332  1.00 20.00     0.017 A 
HETATM    3  C3  UNL     1     -23.052  17.343  11.372  1.00 20.00     0.012 C 
HETATM    4  C4  UNL     1     -24.370  18.791   7.758  1.00 20.00     0.110 C 
HETATM    5  C5  UNL     1     -24.994  18.512  11.443  1.00 20.00     0.010 A 
HETATM    6  C6  UNL     1     -23.957  17.780  12.269  1.00 20.00    -0.008 A 
HETATM    7  C7  UNL     1     -24.672  18.348  10.042  1.00 20.00    -0.061 C 
HETATM    8  C8  UNL     1     -22.522  17.940   8.930  1.00 20.00     0.158 C 
HETATM    9  C9  UNL     1     -23.523  17.395   9.949  1.00 20.00     0.040 C 
HETATM   10  N10 UNL     1     -23.192  18.272   7.655  1.00 20.00    -0.301 NA
ENDROOT
TORSDOF 0
ENDMDL
MODEL 6
REMARK VINA RESULT:      -4.8     11.729     12.226
REMARK  0 active torsions:
REMARK  status: ('A' for Active; 'I' for Inactive)
ROOT
HETATM    1  C1  UNL     1     -36.608  15.083  -3.822  1.00 20.00     0.023 C 
HETATM    2  C2  UNL     1     -34.986  16.750  -1.029  1.00 20.00     0.017 A 
HETATM    3  C3  UNL     1     -33.369  16.301  -2.913  1.00 20.00     0.012 C 
HETATM    4  C4  UNL     1     -36.240  14.096  -4.860  1.00 20.00     0.110 C 
HETATM    5  C5  UNL     1     -35.502  16.668  -2.236  1.00 20.00     0.010 A 
HETATM    6  C6  UNL     1     -34.055  17.079  -2.054  1.00 20.00    -0.008 A 
HETATM    7  C7  UNL     1     -35.555  15.546  -3.148  1.00 20.00    -0.061 C 
HETATM    8  C8  UNL     1     -34.024  14.865  -4.941  1.00 20.00     0.158 C 
HETATM    9  C9  UNL     1     -34.147  15.133  -3.441  1.00 20.00     0.040 C 
HETATM   10  N10 UNL     1     -35.079  13.940  -5.404  1.00 20.00    -0.301 NA
ENDROOT
TORSDOF 0
ENDMDL
MODEL 7
REMARK VINA RESULT:      -4.7     11.899     12.622
REMARK  0 active torsions:
REMARK  status: ('A' for Active; 'I' for Inactive)
ROOT
HETATM    1  C1  UNL     1     -34.249  15.038  -5.792  1.00 20.00     0.023 C 
HETATM    2  C2  UNL     1     -33.109  17.134  -3.051  1.00 20.00     0.017 A 
HETATM    3  C3  UNL     1     -35.190  15.844  -2.437  1.00 20.00     0.012 C 
HETATM    4  C4  UNL     1     -35.540  14.548  -6.321  1.00 20.00     0.110 C 
HETATM    5  C5  UNL     1     -33.304  16.000  -3.687  1.00 20.00     0.010 A 
HETATM    6  C6  UNL     1     -33.899  16.210  -2.310  1.00 20.00    -0.008 A 
HETATM    7  C7  UNL     1     -34.362  15.616  -4.597  1.00 20.00    -0.061 C 
HETATM    8  C8  UNL     1     -36.502  14.489  -4.180  1.00 20.00     0.158 C 
HETATM    9  C9  UNL     1     -35.657  15.721  -3.856  1.00 20.00     0.040 C 
HETATM   10  N10 UNL     1     -36.607  14.287  -5.641  1.00 20.00    -0.301 NA
ENDROOT
TORSDOF 0
ENDMDL
MODEL 8
REMARK VINA RESULT:      -4.7     11.634     12.260
REMARK  0 active torsions:
REMARK  status: ('A' for Active; 'I' for Inactive)
ROOT
HETATM    1  C1  UNL     1     -32.860  17.419  -2.118  1.00 20.00     0.023 C 
HETATM    2  C2  UNL     1     -33.371  14.482  -4.198  1.00 20.00     0.017 A 
HETATM    3  C3  UNL     1     -35.544  15.337  -3.240  1.00 20.00     0.012 C 
HETATM    4  C4  UNL     1     -33.471  18.014  -0.910  1.00 20.00     0.110 C 
HETATM    5  C5  UNL     1     -33.418  15.764  -3.907  1.00 20.00     0.010 A 
HETATM    6  C6  UNL     1     -34.692  15.011  -4.232  1.00 20.00    -0.008 A 
HETATM    7  C7  UNL     1     -33.580  16.419  -2.627  1.00 20.00    -0.061 C 
HETATM    8  C8  UNL     1     -35.600  17.198  -1.470  1.00 20.00     0.158 C 
HETATM    9  C9  UNL     1     -34.889  15.977  -2.053  1.00 20.00     0.040 C 
HETATM   10  N10 UNL     1     -34.710  17.942  -0.554  1.00 20.00    -0.301 NA
ENDROOT
TORSDOF 0
ENDMDL
MODEL 9
REMARK VINA RESULT:      -4.5     11.640     12.329
REMARK  0 active torsions:
REMARK  status: ('A' for Active; 'I' for Inactive)
ROOT
HETATM    1  C1  UNL     1     -35.184  17.019  -0.724  1.00 20.00     0.023 C 
HETATM    2  C2  UNL     1     -35.356  15.180  -3.855  1.00 20.00     0.017 A 
HETATM    3  C3  UNL     1     -33.055  16.136  -3.460  1.00 20.00     0.012 C 
HETATM    4  C4  UNL     1     -34.464  18.197  -0.195  1.00 20.00     0.110 C 
HETATM    5  C5  UNL     1     -35.012  15.376  -2.601  1.00 20.00     0.010 A 
HETATM    6  C6  UNL     1     -33.948  15.146  -3.655  1.00 20.00    -0.008 A 
HETATM    7  C7  UNL     1     -34.715  16.608  -1.902  1.00 20.00    -0.061 C 
HETATM    8  C8  UNL     1     -32.581  17.763  -1.529  1.00 20.00     0.158 C 
HETATM    9  C9  UNL     1     -33.554  17.252  -2.592  1.00 20.00     0.040 C 
HETATM   10  N10 UNL     1     -33.281  18.594  -0.526  1.00 20.00    -0.301 NA
ENDROOT
TORSDOF 0
ENDMDL
