MODEL 1
REMARK VINA RESULT:      -5.3      0.000      0.000
REMARK  2 active torsions:
REMARK  status: ('A' for Active; 'I' for Inactive)
REMARK    1  A    between atoms: C1_1  and  C2_2 
REMARK    2  A    between atoms: C1_1  and  C3_3 
ROOT
HETATM    1  C1  UNL     1     -33.659   6.203   5.002  1.00 20.00     0.348 C 
HETATM    2  F4  UNL     1     -34.040   7.299   5.727  1.00 20.00    -0.234 F 
ENDROOT
BRANCH   1   3
HETATM    3  C2  UNL     1     -34.806   5.216   5.077  1.00 20.00     0.423 C 
HETATM    4  F5  UNL     1     -35.833   5.565   4.274  1.00 20.00    -0.168 F 
HETATM    5  F6  UNL     1     -34.412   3.972   4.732  1.00 20.00    -0.168 F 
HETATM    6  F7  UNL     1     -35.290   5.157   6.339  1.00 20.00    -0.168 F 
ENDBRANCH   1   3
BRANCH   1   7
HETATM    7  C3  UNL     1     -33.307   6.678   3.592  1.00 20.00     0.294 C 
HETATM    8  F8  UNL     1     -34.274   7.532   3.159  1.00 20.00    -0.204 F 
HETATM    9 CL9  UNL     1     -33.254   5.287   2.472  1.00 20.00    -0.062 Cl
HETATM   10 CL10 UNL     1     -31.737   7.517   3.535  1.00 20.00    -0.062 Cl
ENDBRANCH   1   7
TORSDOF 2
ENDMDL
MODEL 2
REMARK VINA RESULT:      -5.3      0.047      1.195
REMARK  2 active torsions:
REMARK  status: ('A' for Active; 'I' for Inactive)
REMARK    1  A    between atoms: C1_1  and  C2_2 
REMARK    2  A    between atoms: C1_1  and  C3_3 
ROOT
HETATM    1  C1  UNL     1     -33.667   6.196   5.039  1.00 20.00     0.348 C 
HETATM    2  F4  UNL     1     -34.031   7.291   5.776  1.00 20.00    -0.234 F 
ENDROOT
BRANCH   1   3
HETATM    3  C2  UNL     1     -34.817   5.214   5.128  1.00 20.00     0.423 C 
HETATM    4  F5  UNL     1     -35.312   5.122   6.379  1.00 20.00    -0.168 F 
HETATM    5  F6  UNL     1     -35.828   5.560   4.303  1.00 20.00    -0.168 F 
HETATM    6  F7  UNL     1     -34.402   3.977   4.770  1.00 20.00    -0.168 F 
ENDBRANCH   1   3
BRANCH   1   7
HETATM    7  C3  UNL     1     -33.334   6.676   3.627  1.00 20.00     0.294 C 
HETATM    8  F8  UNL     1     -34.314   7.522   3.205  1.00 20.00    -0.204 F 
HETATM    9 CL9  UNL     1     -33.282   5.288   2.503  1.00 20.00    -0.062 Cl
HETATM   10 CL10 UNL     1     -31.773   7.529   3.553  1.00 20.00    -0.062 Cl
ENDBRANCH   1   7
TORSDOF 2
ENDMDL
MODEL 3
REMARK VINA RESULT:      -5.3      0.027      1.189
REMARK  2 active torsions:
REMARK  status: ('A' for Active; 'I' for Inactive)
REMARK    1  A    between atoms: C1_1  and  C2_2 
REMARK    2  A    between atoms: C1_1  and  C3_3 
ROOT
HETATM    1  C1  UNL     1     -33.663   6.207   5.019  1.00 20.00     0.348 C 
HETATM    2  F4  UNL     1     -34.055   7.302   5.740  1.00 20.00    -0.234 F 
ENDROOT
BRANCH   1   3
HETATM    3  C2  UNL     1     -34.797   5.205   5.106  1.00 20.00     0.423 C 
HETATM    4  F5  UNL     1     -34.415   3.969   4.723  1.00 20.00    -0.168 F 
HETATM    5  F6  UNL     1     -35.287   5.120   6.360  1.00 20.00    -0.168 F 
HETATM    6  F7  UNL     1     -35.813   5.579   4.294  1.00 20.00    -0.168 F 
ENDBRANCH   1   3
BRANCH   1   7
HETATM    7  C3  UNL     1     -33.323   6.677   3.605  1.00 20.00     0.294 C 
HETATM    8  F8  UNL     1     -34.296   7.527   3.176  1.00 20.00    -0.204 F 
HETATM    9 CL9  UNL     1     -33.277   5.283   2.489  1.00 20.00    -0.062 Cl
HETATM   10 CL10 UNL     1     -31.756   7.520   3.532  1.00 20.00    -0.062 Cl
ENDBRANCH   1   7
TORSDOF 2
ENDMDL
MODEL 4
REMARK VINA RESULT:      -5.1      2.040      3.434
REMARK  2 active torsions:
REMARK  status: ('A' for Active; 'I' for Inactive)
REMARK    1  A    between atoms: C1_1  and  C2_2 
REMARK    2  A    between atoms: C1_1  and  C3_3 
ROOT
HETATM    1  C1  UNL     1     -33.933   6.668   3.993  1.00 20.00     0.348 C 
HETATM    2  F4  UNL     1     -33.032   6.990   4.971  1.00 20.00    -0.234 F 
ENDROOT
BRANCH   1   3
HETATM    3  C2  UNL     1     -33.132   6.440   2.727  1.00 20.00     0.423 C 
HETATM    4  F5  UNL     1     -31.896   5.963   2.985  1.00 20.00    -0.168 F 
HETATM    5  F6  UNL     1     -33.750   5.571   1.900  1.00 20.00    -0.168 F 
HETATM    6  F7  UNL     1     -32.978   7.604   2.056  1.00 20.00    -0.168 F 
ENDBRANCH   1   3
BRANCH   1   7
HETATM    7  C3  UNL     1     -34.734   5.461   4.477  1.00 20.00     0.294 C 
HETATM    8  F8  UNL     1     -36.014   5.569   4.023  1.00 20.00    -0.204 F 
HETATM    9 CL9  UNL     1     -34.782   5.431   6.263  1.00 20.00    -0.062 Cl
HETATM   10 CL10 UNL     1     -34.052   3.921   3.898  1.00 20.00    -0.062 Cl
ENDBRANCH   1   7
TORSDOF 2
ENDMDL
MODEL 5
REMARK VINA RESULT:      -4.7      2.296      3.465
REMARK  2 active torsions:
REMARK  status: ('A' for Active; 'I' for Inactive)
REMARK    1  A    between atoms: C1_1  and  C2_2 
REMARK    2  A    between atoms: C1_1  and  C3_3 
ROOT
HETATM    1  C1  UNL     1     -33.736   6.842   4.135  1.00 20.00     0.348 C 
HETATM    2  F4  UNL     1     -32.990   7.131   5.245  1.00 20.00    -0.234 F 
ENDROOT
BRANCH   1   3
HETATM    3  C2  UNL     1     -32.769   6.778   2.970  1.00 20.00     0.423 C 
HETATM    4  F5  UNL     1     -32.625   5.522   2.497  1.00 20.00    -0.168 F 
HETATM    5  F6  UNL     1     -33.171   7.564   1.949  1.00 20.00    -0.168 F 
HETATM    6  F7  UNL     1     -31.544   7.202   3.356  1.00 20.00    -0.168 F 
ENDBRANCH   1   3
BRANCH   1   7
HETATM    7  C3  UNL     1     -34.502   5.549   4.412  1.00 20.00     0.294 C 
HETATM    8  F8  UNL     1     -33.869   4.518   3.786  1.00 20.00    -0.204 F 
HETATM    9 CL9  UNL     1     -36.158   5.662   3.752  1.00 20.00    -0.062 Cl
HETATM   10 CL10 UNL     1     -34.604   5.183   6.151  1.00 20.00    -0.062 Cl
ENDBRANCH   1   7
TORSDOF 2
ENDMDL
MODEL 6
REMARK VINA RESULT:      -4.5      2.348      3.535
REMARK  2 active torsions:
REMARK  status: ('A' for Active; 'I' for Inactive)
REMARK    1  A    between atoms: C1_1  and  C2_2 
REMARK    2  A    between atoms: C1_1  and  C3_3 
ROOT
HETATM    1  C1  UNL     1     -33.710   4.615   3.926  1.00 20.00     0.348 C 
HETATM    2  F4  UNL     1     -34.399   3.451   3.722  1.00 20.00    -0.234 F 
ENDROOT
BRANCH   1   3
HETATM    3  C2  UNL     1     -33.275   5.105   2.560  1.00 20.00     0.423 C 
HETATM    4  F5  UNL     1     -34.315   5.551   1.824  1.00 20.00    -0.168 F 
HETATM    5  F6  UNL     1     -32.374   6.104   2.656  1.00 20.00    -0.168 F 
HETATM    6  F7  UNL     1     -32.698   4.098   1.865  1.00 20.00    -0.168 F 
ENDBRANCH   1   3
BRANCH   1   7
HETATM    7  C3  UNL     1     -34.625   5.569   4.694  1.00 20.00     0.294 C 
HETATM    8  F8  UNL     1     -35.818   5.655   4.044  1.00 20.00    -0.204 F 
HETATM    9 CL9  UNL     1     -33.905   7.204   4.743  1.00 20.00    -0.062 Cl
HETATM   10 CL10 UNL     1     -34.921   5.025   6.363  1.00 20.00    -0.062 Cl
ENDBRANCH   1   7
TORSDOF 2
ENDMDL
MODEL 7
REMARK VINA RESULT:      -4.5      2.145      3.836
REMARK  2 active torsions:
REMARK  status: ('A' for Active; 'I' for Inactive)
REMARK    1  A    between atoms: C1_1  and  C2_2 
REMARK    2  A    between atoms: C1_1  and  C3_3 
ROOT
HETATM    1  C1  UNL     1     -33.150   5.802   3.225  1.00 20.00     0.348 C 
HETATM    2  F4  UNL     1     -33.726   5.175   2.152  1.00 20.00    -0.234 F 
ENDROOT
BRANCH   1   3
HETATM    3  C2  UNL     1     -32.584   7.109   2.708  1.00 20.00     0.423 C 
HETATM    4  F5  UNL     1     -33.531   8.062   2.588  1.00 20.00    -0.168 F 
HETATM    5  F6  UNL     1     -31.615   7.583   3.519  1.00 20.00    -0.168 F 
HETATM    6  F7  UNL     1     -32.040   6.930   1.482  1.00 20.00    -0.168 F 
ENDBRANCH   1   3
BRANCH   1   7
HETATM    7  C3  UNL     1     -34.218   5.944   4.309  1.00 20.00     0.294 C 
HETATM    8  F8  UNL     1     -35.339   6.483   3.757  1.00 20.00    -0.204 F 
HETATM    9 CL9  UNL     1     -33.647   7.050   5.591  1.00 20.00    -0.062 Cl
HETATM   10 CL10 UNL     1     -34.641   4.381   5.049  1.00 20.00    -0.062 Cl
ENDBRANCH   1   7
TORSDOF 2
ENDMDL
MODEL 8
REMARK VINA RESULT:      -4.5      2.069      3.639
REMARK  2 active torsions:
REMARK  status: ('A' for Active; 'I' for Inactive)
REMARK    1  A    between atoms: C1_1  and  C2_2 
REMARK    2  A    between atoms: C1_1  and  C3_3 
ROOT
HETATM    1  C1  UNL     1     -33.251   5.477   3.385  1.00 20.00     0.348 C 
HETATM    2  F4  UNL     1     -33.780   4.901   2.262  1.00 20.00    -0.234 F 
ENDROOT
BRANCH   1   3
HETATM    3  C2  UNL     1     -32.867   6.892   3.006  1.00 20.00     0.423 C 
HETATM    4  F5  UNL     1     -33.911   7.743   3.089  1.00 20.00    -0.168 F 
HETATM    5  F6  UNL     1     -31.880   7.366   3.795  1.00 20.00    -0.168 F 
HETATM    6  F7  UNL     1     -32.423   6.929   1.729  1.00 20.00    -0.168 F 
ENDBRANCH   1   3
BRANCH   1   7
HETATM    7  C3  UNL     1     -34.292   5.366   4.499  1.00 20.00     0.294 C 
HETATM    8  F8  UNL     1     -34.256   4.106   5.013  1.00 20.00    -0.204 F 
HETATM    9 CL9  UNL     1     -35.929   5.647   3.840  1.00 20.00    -0.062 Cl
HETATM   10 CL10 UNL     1     -33.999   6.528   5.816  1.00 20.00    -0.062 Cl
ENDBRANCH   1   7
TORSDOF 2
ENDMDL
MODEL 9
REMARK VINA RESULT:      -4.4      8.617      9.439
REMARK  2 active torsions:
REMARK  status: ('A' for Active; 'I' for Inactive)
REMARK    1  A    between atoms: C1_1  and  C2_2 
REMARK    2  A    between atoms: C1_1  and  C3_3 
ROOT
HETATM    1  C1  UNL     1     -41.839   6.990  -1.004  1.00 20.00     0.348 C 
HETATM    2  F4  UNL     1     -40.758   7.434  -1.717  1.00 20.00    -0.234 F 
ENDROOT
BRANCH   1   3
HETATM    3  C2  UNL     1     -41.711   5.482  -0.920  1.00 20.00     0.423 C 
HETATM    4  F5  UNL     1     -40.435   5.071  -1.075  1.00 20.00    -0.168 F 
HETATM    5  F6  UNL     1     -42.159   5.013   0.263  1.00 20.00    -0.168 F 
HETATM    6  F7  UNL     1     -42.441   4.896  -1.896  1.00 20.00    -0.168 F 
ENDBRANCH   1   3
BRANCH   1   7
HETATM    7  C3  UNL     1     -41.839   7.715   0.341  1.00 20.00     0.294 C 
HETATM    8  F8  UNL     1     -40.880   7.169   1.138  1.00 20.00    -0.204 F 
HETATM    9 CL9  UNL     1     -43.418   7.503   1.152  1.00 20.00    -0.062 Cl
HETATM   10 CL10 UNL     1     -41.515   9.457   0.170  1.00 20.00    -0.062 Cl
ENDBRANCH   1   7
TORSDOF 2
ENDMDL
