MODEL 1
REMARK VINA RESULT:      -4.2      0.000      0.000
REMARK  2 active torsions:
REMARK  status: ('A' for Active; 'I' for Inactive)
REMARK    1  A    between atoms: C1_1  and  C2_2 
REMARK    2  A    between atoms: C1_1  and  C3_3 
ROOT
HETATM    1  C2  UNL     1     -34.061  15.060  -4.240  1.00 20.00     0.043 A 
HETATM    2  C4  UNL     1     -35.223  14.316  -4.676  1.00 20.00     0.013 A 
HETATM    3  C5  UNL     1     -34.615  15.411  -5.544  1.00 20.00    -0.023 A 
HETATM    4  C8  UNL     1     -36.568  14.434  -4.044  1.00 20.00     0.012 C 
HETATM    5  C9  UNL     1     -33.825  14.975  -6.754  1.00 20.00     0.017 C 
HETATM    6  C10 UNL     1     -35.351  16.714  -5.748  1.00 20.00     0.017 C 
ENDROOT
BRANCH   1   7
HETATM    7  C1  UNL     1     -34.024  15.843  -3.210  1.00 20.00    -0.159 C 
BRANCH   7   8
HETATM    8  C3  UNL     1     -33.988  16.634  -2.172  1.00 20.00     0.022 C 
HETATM    9  C6  UNL     1     -32.809  17.517  -1.878  1.00 20.00     0.029 C 
HETATM   10  C7  UNL     1     -35.124  16.729  -1.194  1.00 20.00     0.029 C 
ENDBRANCH   7   8
ENDBRANCH   1   7
TORSDOF 2
ENDMDL
MODEL 2
REMARK VINA RESULT:      -4.1      1.065      4.384
REMARK  2 active torsions:
REMARK  status: ('A' for Active; 'I' for Inactive)
REMARK    1  A    between atoms: C1_1  and  C2_2 
REMARK    2  A    between atoms: C1_1  and  C3_3 
ROOT
HETATM    1  C2  UNL     1     -34.447  15.825  -2.279  1.00 20.00     0.043 A 
HETATM    2  C4  UNL     1     -33.580  16.977  -2.163  1.00 20.00     0.013 A 
HETATM    3  C5  UNL     1     -35.050  17.052  -1.769  1.00 20.00    -0.023 A 
HETATM    4  C8  UNL     1     -33.015  17.711  -3.331  1.00 20.00     0.012 C 
HETATM    5  C9  UNL     1     -35.369  17.085  -0.293  1.00 20.00     0.017 C 
HETATM    6  C10 UNL     1     -36.022  17.847  -2.608  1.00 20.00     0.017 C 
ENDROOT
BRANCH   1   7
HETATM    7  C1  UNL     1     -34.765  15.245  -3.392  1.00 20.00    -0.159 C 
BRANCH   7   8
HETATM    8  C3  UNL     1     -35.087  14.662  -4.515  1.00 20.00     0.022 C 
HETATM    9  C6  UNL     1     -36.196  13.653  -4.605  1.00 20.00     0.029 C 
HETATM   10  C7  UNL     1     -34.379  14.959  -5.806  1.00 20.00     0.029 C 
ENDBRANCH   7   8
ENDBRANCH   1   7
TORSDOF 2
ENDMDL
MODEL 3
REMARK VINA RESULT:      -4.1      1.069      4.242
REMARK  2 active torsions:
REMARK  status: ('A' for Active; 'I' for Inactive)
REMARK    1  A    between atoms: C1_1  and  C2_2 
REMARK    2  A    between atoms: C1_1  and  C3_3 
ROOT
HETATM    1  C2  UNL     1     -34.456  15.824  -2.292  1.00 20.00     0.043 A 
HETATM    2  C4  UNL     1     -33.585  16.973  -2.173  1.00 20.00     0.013 A 
HETATM    3  C5  UNL     1     -35.055  17.052  -1.779  1.00 20.00    -0.023 A 
HETATM    4  C8  UNL     1     -33.016  17.707  -3.339  1.00 20.00     0.012 C 
HETATM    5  C9  UNL     1     -35.375  17.083  -0.304  1.00 20.00     0.017 C 
HETATM    6  C10 UNL     1     -36.023  17.852  -2.617  1.00 20.00     0.017 C 
ENDROOT
BRANCH   1   7
HETATM    7  C1  UNL     1     -34.776  15.248  -3.406  1.00 20.00    -0.159 C 
BRANCH   7   8
HETATM    8  C3  UNL     1     -35.100  14.666  -4.529  1.00 20.00     0.022 C 
HETATM    9  C6  UNL     1     -34.387  14.958  -5.818  1.00 20.00     0.029 C 
HETATM   10  C7  UNL     1     -36.208  13.657  -4.620  1.00 20.00     0.029 C 
ENDBRANCH   7   8
ENDBRANCH   1   7
TORSDOF 2
ENDMDL
MODEL 4
REMARK VINA RESULT:      -4.1      1.704      2.817
REMARK  2 active torsions:
REMARK  status: ('A' for Active; 'I' for Inactive)
REMARK    1  A    between atoms: C1_1  and  C2_2 
REMARK    2  A    between atoms: C1_1  and  C3_3 
ROOT
HETATM    1  C2  UNL     1     -35.417  15.904  -2.472  1.00 20.00     0.043 A 
HETATM    2  C4  UNL     1     -35.579  16.411  -3.818  1.00 20.00     0.013 A 
HETATM    3  C5  UNL     1     -34.464  15.432  -3.471  1.00 20.00    -0.023 A 
HETATM    4  C8  UNL     1     -35.323  17.826  -4.207  1.00 20.00     0.012 C 
HETATM    5  C9  UNL     1     -34.627  14.005  -3.938  1.00 20.00     0.017 C 
HETATM    6  C10 UNL     1     -33.026  15.894  -3.452  1.00 20.00     0.017 C 
ENDROOT
BRANCH   1   7
HETATM    7  C1  UNL     1     -35.118  16.625  -1.439  1.00 20.00    -0.159 C 
BRANCH   7   8
HETATM    8  C3  UNL     1     -34.816  17.354  -0.399  1.00 20.00     0.022 C 
HETATM    9  C6  UNL     1     -35.667  17.376   0.839  1.00 20.00     0.029 C 
HETATM   10  C7  UNL     1     -33.592  18.223  -0.355  1.00 20.00     0.029 C 
ENDBRANCH   7   8
ENDBRANCH   1   7
TORSDOF 2
ENDMDL
MODEL 5
REMARK VINA RESULT:      -4.0      1.391      2.171
REMARK  2 active torsions:
REMARK  status: ('A' for Active; 'I' for Inactive)
REMARK    1  A    between atoms: C1_1  and  C2_2 
REMARK    2  A    between atoms: C1_1  and  C3_3 
ROOT
HETATM    1  C2  UNL     1     -35.484  15.558  -3.006  1.00 20.00     0.043 A 
HETATM    2  C4  UNL     1     -35.678  15.897  -4.399  1.00 20.00     0.013 A 
HETATM    3  C5  UNL     1     -34.750  14.761  -3.983  1.00 20.00    -0.023 A 
HETATM    4  C8  UNL     1     -35.186  17.159  -5.022  1.00 20.00     0.012 C 
HETATM    5  C9  UNL     1     -35.240  13.351  -4.209  1.00 20.00     0.017 C 
HETATM    6  C10 UNL     1     -33.255  14.907  -4.138  1.00 20.00     0.017 C 
ENDROOT
BRANCH   1   7
HETATM    7  C1  UNL     1     -34.946  16.335  -2.121  1.00 20.00    -0.159 C 
BRANCH   7   8
HETATM    8  C3  UNL     1     -34.400  17.117  -1.229  1.00 20.00     0.022 C 
HETATM    9  C6  UNL     1     -33.071  17.779  -1.449  1.00 20.00     0.029 C 
HETATM   10  C7  UNL     1     -35.063  17.420   0.085  1.00 20.00     0.029 C 
ENDBRANCH   7   8
ENDBRANCH   1   7
TORSDOF 2
ENDMDL
MODEL 6
REMARK VINA RESULT:      -4.0      1.619      4.655
REMARK  2 active torsions:
REMARK  status: ('A' for Active; 'I' for Inactive)
REMARK    1  A    between atoms: C1_1  and  C2_2 
REMARK    2  A    between atoms: C1_1  and  C3_3 
ROOT
HETATM    1  C2  UNL     1     -33.213  17.382  -2.174  1.00 20.00     0.043 A 
HETATM    2  C4  UNL     1     -33.863  18.672  -2.251  1.00 20.00     0.013 A 
HETATM    3  C5  UNL     1     -33.872  17.858  -0.962  1.00 20.00    -0.023 A 
HETATM    4  C8  UNL     1     -35.091  18.936  -3.052  1.00 20.00     0.012 C 
HETATM    5  C9  UNL     1     -32.972  18.325   0.157  1.00 20.00     0.017 C 
HETATM    6  C10 UNL     1     -35.152  17.224  -0.474  1.00 20.00     0.017 C 
ENDROOT
BRANCH   1   7
HETATM    7  C1  UNL     1     -33.562  16.334  -2.850  1.00 20.00    -0.159 C 
BRANCH   7   8
HETATM    8  C3  UNL     1     -33.916  15.279  -3.533  1.00 20.00     0.022 C 
HETATM    9  C6  UNL     1     -35.318  14.742  -3.510  1.00 20.00     0.029 C 
HETATM   10  C7  UNL     1     -32.949  14.523  -4.399  1.00 20.00     0.029 C 
ENDBRANCH   7   8
ENDBRANCH   1   7
TORSDOF 2
ENDMDL
MODEL 7
REMARK VINA RESULT:      -3.6     10.456     12.490
REMARK  2 active torsions:
REMARK  status: ('A' for Active; 'I' for Inactive)
REMARK    1  A    between atoms: C1_1  and  C2_2 
REMARK    2  A    between atoms: C1_1  and  C3_3 
ROOT
HETATM    1  C2  UNL     1     -41.334   6.269  -0.263  1.00 20.00     0.043 A 
HETATM    2  C4  UNL     1     -41.911   5.170   0.481  1.00 20.00     0.013 A 
HETATM    3  C5  UNL     1     -42.058   5.263  -1.033  1.00 20.00    -0.023 A 
HETATM    4  C8  UNL     1     -43.060   5.317   1.418  1.00 20.00     0.012 C 
HETATM    5  C9  UNL     1     -41.223   4.321  -1.867  1.00 20.00     0.017 C 
HETATM    6  C10 UNL     1     -43.401   5.575  -1.647  1.00 20.00     0.017 C 
ENDROOT
BRANCH   1   7
HETATM    7  C1  UNL     1     -41.682   7.510  -0.143  1.00 20.00    -0.159 C 
BRANCH   7   8
HETATM    8  C3  UNL     1     -42.032   8.762  -0.024  1.00 20.00     0.022 C 
HETATM    9  C6  UNL     1     -41.086   9.815   0.477  1.00 20.00     0.029 C 
HETATM   10  C7  UNL     1     -43.406   9.249  -0.386  1.00 20.00     0.029 C 
ENDBRANCH   7   8
ENDBRANCH   1   7
TORSDOF 2
ENDMDL
MODEL 8
REMARK VINA RESULT:      -3.6      1.206      4.038
REMARK  2 active torsions:
REMARK  status: ('A' for Active; 'I' for Inactive)
REMARK    1  A    between atoms: C1_1  and  C2_2 
REMARK    2  A    between atoms: C1_1  and  C3_3 
ROOT
HETATM    1  C2  UNL     1     -35.311  16.145  -4.521  1.00 20.00     0.043 A 
HETATM    2  C4  UNL     1     -35.766  14.961  -3.825  1.00 20.00     0.013 A 
HETATM    3  C5  UNL     1     -34.360  15.509  -3.616  1.00 20.00    -0.023 A 
HETATM    4  C8  UNL     1     -36.038  13.658  -4.495  1.00 20.00     0.012 C 
HETATM    5  C9  UNL     1     -34.082  16.224  -2.316  1.00 20.00     0.017 C 
HETATM    6  C10 UNL     1     -33.164  14.756  -4.150  1.00 20.00     0.017 C 
ENDROOT
BRANCH   1   7
HETATM    7  C1  UNL     1     -35.169  16.242  -5.804  1.00 20.00    -0.159 C 
BRANCH   7   8
HETATM    8  C3  UNL     1     -35.024  16.341  -7.098  1.00 20.00     0.022 C 
HETATM    9  C6  UNL     1     -34.085  15.458  -7.869  1.00 20.00     0.029 C 
HETATM   10  C7  UNL     1     -35.788  17.341  -7.918  1.00 20.00     0.029 C 
ENDBRANCH   7   8
ENDBRANCH   1   7
TORSDOF 2
ENDMDL
MODEL 9
REMARK VINA RESULT:      -3.6      1.526      3.634
REMARK  2 active torsions:
REMARK  status: ('A' for Active; 'I' for Inactive)
REMARK    1  A    between atoms: C1_1  and  C2_2 
REMARK    2  A    between atoms: C1_1  and  C3_3 
ROOT
HETATM    1  C2  UNL     1     -34.562  15.880  -2.777  1.00 20.00     0.043 A 
HETATM    2  C4  UNL     1     -33.361  15.390  -3.418  1.00 20.00     0.013 A 
HETATM    3  C5  UNL     1     -33.567  16.877  -3.157  1.00 20.00    -0.023 A 
HETATM    4  C8  UNL     1     -33.333  14.803  -4.788  1.00 20.00     0.012 C 
HETATM    5  C9  UNL     1     -32.770  17.499  -2.035  1.00 20.00     0.017 C 
HETATM    6  C10 UNL     1     -33.816  17.823  -4.308  1.00 20.00     0.017 C 
ENDROOT
BRANCH   1   7
HETATM    7  C1  UNL     1     -35.755  15.792  -3.271  1.00 20.00    -0.159 C 
BRANCH   7   8
HETATM    8  C3  UNL     1     -36.959  15.700  -3.768  1.00 20.00     0.022 C 
HETATM    9  C6  UNL     1     -37.487  14.426  -4.363  1.00 20.00     0.029 C 
HETATM   10  C7  UNL     1     -37.914  16.860  -3.778  1.00 20.00     0.029 C 
ENDBRANCH   7   8
ENDBRANCH   1   7
TORSDOF 2
ENDMDL
