MODEL 1
REMARK VINA RESULT:      -4.8      0.000      0.000
REMARK  3 active torsions:
REMARK  status: ('A' for Active; 'I' for Inactive)
REMARK    1  A    between atoms: C1_1  and  C3_3 
REMARK    2  A    between atoms: C2_2  and  C4_4 
REMARK    3  A    between atoms: C5_5  and  C6_6 
ROOT
HETATM    1  C3  UNL     1     -34.679  15.551  -2.898  1.00 20.00     0.010 C 
HETATM    2  C5  UNL     1     -34.546  14.630  -3.869  1.00 20.00    -0.017 C 
HETATM    3  C7  UNL     1     -33.304  14.263  -4.619  1.00 20.00     0.052 C 
ENDROOT
BRANCH   1   4
HETATM    4  C1  UNL     1     -33.635  16.423  -2.402  1.00 20.00     0.004 C 
HETATM    5  C2  UNL     1     -33.886  17.453  -1.583  1.00 20.00     0.041 C 
BRANCH   5   6
HETATM    6  C4  UNL     1     -32.764  18.297  -1.127  1.00 20.00     0.258 C 
HETATM    7  O9  UNL     1     -31.864  18.642  -1.882  1.00 20.00    -0.302 OA
ENDBRANCH   5   6
ENDBRANCH   1   4
BRANCH   2   8
HETATM    8  C6  UNL     1     -35.786  13.861  -4.201  1.00 20.00     0.151 C 
HETATM    9  C8  UNL     1     -37.087  14.622  -4.228  1.00 20.00     0.096 C 
HETATM   10  O10 UNL     1     -35.742  12.660  -4.459  1.00 20.00    -0.293 OA
ENDBRANCH   2   8
TORSDOF 3
ENDMDL
MODEL 2
REMARK VINA RESULT:      -4.7      0.995      5.357
REMARK  3 active torsions:
REMARK  status: ('A' for Active; 'I' for Inactive)
REMARK    1  A    between atoms: C1_1  and  C3_3 
REMARK    2  A    between atoms: C2_2  and  C4_4 
REMARK    3  A    between atoms: C5_5  and  C6_6 
ROOT
HETATM    1  C3  UNL     1     -33.571  16.016  -3.171  1.00 20.00     0.010 C 
HETATM    2  C5  UNL     1     -33.734  16.944  -2.213  1.00 20.00    -0.017 C 
HETATM    3  C7  UNL     1     -34.806  17.008  -1.171  1.00 20.00     0.052 C 
ENDROOT
BRANCH   1   4
HETATM    4  C1  UNL     1     -34.444  14.887  -3.421  1.00 20.00     0.004 C 
HETATM    5  C2  UNL     1     -35.394  14.908  -4.366  1.00 20.00     0.041 C 
BRANCH   5   6
HETATM    6  C4  UNL     1     -36.245  13.717  -4.553  1.00 20.00     0.258 C 
HETATM    7  O9  UNL     1     -35.789  12.582  -4.511  1.00 20.00    -0.302 OA
ENDBRANCH   5   6
ENDBRANCH   1   4
BRANCH   2   8
HETATM    8  C6  UNL     1     -32.689  18.015  -2.171  1.00 20.00     0.151 C 
HETATM    9  C8  UNL     1     -31.936  18.198  -0.879  1.00 20.00     0.096 C 
HETATM   10  O10 UNL     1     -32.445  18.707  -3.158  1.00 20.00    -0.293 OA
ENDBRANCH   2   8
TORSDOF 3
ENDMDL
MODEL 3
REMARK VINA RESULT:      -4.5      1.393      5.247
REMARK  3 active torsions:
REMARK  status: ('A' for Active; 'I' for Inactive)
REMARK    1  A    between atoms: C1_1  and  C3_3 
REMARK    2  A    between atoms: C2_2  and  C4_4 
REMARK    3  A    between atoms: C5_5  and  C6_6 
ROOT
HETATM    1  C3  UNL     1     -35.063  16.097  -1.990  1.00 20.00     0.010 C 
HETATM    2  C5  UNL     1     -34.102  16.999  -1.725  1.00 20.00    -0.017 C 
HETATM    3  C7  UNL     1     -32.865  17.282  -2.518  1.00 20.00     0.052 C 
ENDROOT
BRANCH   1   4
HETATM    4  C1  UNL     1     -35.073  15.165  -3.099  1.00 20.00     0.004 C 
HETATM    5  C2  UNL     1     -36.205  14.769  -3.695  1.00 20.00     0.041 C 
BRANCH   5   6
HETATM    6  C4  UNL     1     -36.128  13.812  -4.817  1.00 20.00     0.258 C 
HETATM    7  O9  UNL     1     -35.863  12.629  -4.642  1.00 20.00    -0.302 OA
ENDBRANCH   5   6
ENDBRANCH   1   4
BRANCH   2   8
HETATM    8  C6  UNL     1     -34.330  17.842  -0.509  1.00 20.00     0.151 C 
HETATM    9  C8  UNL     1     -35.420  17.412   0.439  1.00 20.00     0.096 C 
HETATM   10  O10 UNL     1     -33.643  18.836  -0.284  1.00 20.00    -0.293 OA
ENDBRANCH   2   8
TORSDOF 3
ENDMDL
MODEL 4
REMARK VINA RESULT:      -4.5      0.915      5.296
REMARK  3 active torsions:
REMARK  status: ('A' for Active; 'I' for Inactive)
REMARK    1  A    between atoms: C1_1  and  C3_3 
REMARK    2  A    between atoms: C2_2  and  C4_4 
REMARK    3  A    between atoms: C5_5  and  C6_6 
ROOT
HETATM    1  C3  UNL     1     -34.307  16.433  -2.032  1.00 20.00     0.010 C 
HETATM    2  C5  UNL     1     -33.537  17.455  -2.444  1.00 20.00    -0.017 C 
HETATM    3  C7  UNL     1     -33.437  18.030  -3.822  1.00 20.00     0.052 C 
ENDROOT
BRANCH   1   4
HETATM    4  C1  UNL     1     -35.183  15.636  -2.866  1.00 20.00     0.004 C 
HETATM    5  C2  UNL     1     -34.732  14.633  -3.630  1.00 20.00     0.041 C 
BRANCH   5   6
HETATM    6  C4  UNL     1     -35.691  13.872  -4.455  1.00 20.00     0.258 C 
HETATM    7  O9  UNL     1     -35.772  12.652  -4.395  1.00 20.00    -0.302 OA
ENDBRANCH   5   6
ENDBRANCH   1   4
BRANCH   2   8
HETATM    8  C6  UNL     1     -32.715  18.112  -1.379  1.00 20.00     0.151 C 
HETATM    9  C8  UNL     1     -33.332  18.244  -0.011  1.00 20.00     0.096 C 
HETATM   10  O10 UNL     1     -31.575  18.512  -1.609  1.00 20.00    -0.293 OA
ENDBRANCH   2   8
TORSDOF 3
ENDMDL
MODEL 5
REMARK VINA RESULT:      -4.4      1.290      1.367
REMARK  3 active torsions:
REMARK  status: ('A' for Active; 'I' for Inactive)
REMARK    1  A    between atoms: C1_1  and  C3_3 
REMARK    2  A    between atoms: C2_2  and  C4_4 
REMARK    3  A    between atoms: C5_5  and  C6_6 
ROOT
HETATM    1  C3  UNL     1     -35.214  15.380  -2.969  1.00 20.00     0.010 C 
HETATM    2  C5  UNL     1     -34.605  14.687  -3.948  1.00 20.00    -0.017 C 
HETATM    3  C7  UNL     1     -33.141  14.622  -4.251  1.00 20.00     0.052 C 
ENDROOT
BRANCH   1   4
HETATM    4  C1  UNL     1     -34.565  16.259  -2.018  1.00 20.00     0.004 C 
HETATM    5  C2  UNL     1     -35.238  16.891  -1.048  1.00 20.00     0.041 C 
BRANCH   5   6
HETATM    6  C4  UNL     1     -34.501  17.773  -0.121  1.00 20.00     0.258 C 
HETATM    7  O9  UNL     1     -33.403  18.237  -0.403  1.00 20.00    -0.302 OA
ENDBRANCH   5   6
ENDBRANCH   1   4
BRANCH   2   8
HETATM    8  C6  UNL     1     -35.508  13.854  -4.803  1.00 20.00     0.151 C 
HETATM    9  C8  UNL     1     -35.907  14.417  -6.143  1.00 20.00     0.096 C 
HETATM   10  O10 UNL     1     -35.895  12.747  -4.433  1.00 20.00    -0.293 OA
ENDBRANCH   2   8
TORSDOF 3
ENDMDL
MODEL 6
REMARK VINA RESULT:      -4.4     10.604     11.432
REMARK  3 active torsions:
REMARK  status: ('A' for Active; 'I' for Inactive)
REMARK    1  A    between atoms: C1_1  and  C3_3 
REMARK    2  A    between atoms: C2_2  and  C4_4 
REMARK    3  A    between atoms: C5_5  and  C6_6 
ROOT
HETATM    1  C3  UNL     1     -32.972   7.181   3.572  1.00 20.00     0.010 C 
HETATM    2  C5  UNL     1     -33.735   6.184   4.051  1.00 20.00    -0.017 C 
HETATM    3  C7  UNL     1     -34.316   5.030   3.296  1.00 20.00     0.052 C 
ENDROOT
BRANCH   1   4
HETATM    4  C1  UNL     1     -32.586   7.369   2.188  1.00 20.00     0.004 C 
HETATM    5  C2  UNL     1     -33.015   8.405   1.455  1.00 20.00     0.041 C 
BRANCH   5   6
HETATM    6  C4  UNL     1     -32.577   8.520   0.050  1.00 20.00     0.258 C 
HETATM    7  O9  UNL     1     -33.372   8.488  -0.880  1.00 20.00    -0.302 OA
ENDBRANCH   5   6
ENDBRANCH   1   4
BRANCH   2   8
HETATM    8  C6  UNL     1     -33.995   6.223   5.524  1.00 20.00     0.151 C 
HETATM    9  C8  UNL     1     -34.752   5.068   6.126  1.00 20.00     0.096 C 
HETATM   10  O10 UNL     1     -33.590   7.154   6.218  1.00 20.00    -0.293 OA
ENDBRANCH   2   8
TORSDOF 3
ENDMDL
MODEL 7
REMARK VINA RESULT:      -4.2      0.851      5.566
REMARK  3 active torsions:
REMARK  status: ('A' for Active; 'I' for Inactive)
REMARK    1  A    between atoms: C1_1  and  C3_3 
REMARK    2  A    between atoms: C2_2  and  C4_4 
REMARK    3  A    between atoms: C5_5  and  C6_6 
ROOT
HETATM    1  C3  UNL     1     -33.554  16.856  -2.655  1.00 20.00     0.010 C 
HETATM    2  C5  UNL     1     -33.634  17.484  -1.468  1.00 20.00    -0.017 C 
HETATM    3  C7  UNL     1     -34.727  17.386  -0.451  1.00 20.00     0.052 C 
ENDROOT
BRANCH   1   4
HETATM    4  C1  UNL     1     -34.554  15.974  -3.220  1.00 20.00     0.004 C 
HETATM    5  C2  UNL     1     -34.283  14.709  -3.568  1.00 20.00     0.041 C 
BRANCH   5   6
HETATM    6  C4  UNL     1     -35.359  13.877  -4.142  1.00 20.00     0.258 C 
HETATM    7  O9  UNL     1     -35.299  12.654  -4.147  1.00 20.00    -0.302 OA
ENDBRANCH   5   6
ENDBRANCH   1   4
BRANCH   2   8
HETATM    8  C6  UNL     1     -32.464  18.349  -1.119  1.00 20.00     0.151 C 
HETATM    9  C8  UNL     1     -32.197  18.597   0.343  1.00 20.00     0.096 C 
HETATM   10  O10 UNL     1     -31.739  18.824  -1.991  1.00 20.00    -0.293 OA
ENDBRANCH   2   8
TORSDOF 3
ENDMDL
MODEL 8
REMARK VINA RESULT:      -4.2      1.192      1.688
REMARK  3 active torsions:
REMARK  status: ('A' for Active; 'I' for Inactive)
REMARK    1  A    between atoms: C1_1  and  C3_3 
REMARK    2  A    between atoms: C2_2  and  C4_4 
REMARK    3  A    between atoms: C5_5  and  C6_6 
ROOT
HETATM    1  C3  UNL     1     -33.242  15.909  -3.525  1.00 20.00     0.010 C 
HETATM    2  C5  UNL     1     -34.457  15.404  -3.247  1.00 20.00    -0.017 C 
HETATM    3  C7  UNL     1     -35.520  15.999  -2.378  1.00 20.00     0.052 C 
ENDROOT
BRANCH   1   4
HETATM    4  C1  UNL     1     -32.688  17.137  -2.993  1.00 20.00     0.004 C 
HETATM    5  C2  UNL     1     -32.652  17.401  -1.680  1.00 20.00     0.041 C 
BRANCH   5   6
HETATM    6  C4  UNL     1     -32.074  18.679  -1.221  1.00 20.00     0.258 C 
HETATM    7  O9  UNL     1     -30.887  18.790  -0.942  1.00 20.00    -0.302 OA
ENDBRANCH   5   6
ENDBRANCH   1   4
BRANCH   2   8
HETATM    8  C6  UNL     1     -34.787  14.112  -3.925  1.00 20.00     0.151 C 
HETATM    9  C8  UNL     1     -36.196  13.932  -4.427  1.00 20.00     0.096 C 
HETATM   10  O10 UNL     1     -33.935  13.238  -4.082  1.00 20.00    -0.293 OA
ENDBRANCH   2   8
TORSDOF 3
ENDMDL
MODEL 9
REMARK VINA RESULT:      -4.1      2.203      3.258
REMARK  3 active torsions:
REMARK  status: ('A' for Active; 'I' for Inactive)
REMARK    1  A    between atoms: C1_1  and  C3_3 
REMARK    2  A    between atoms: C2_2  and  C4_4 
REMARK    3  A    between atoms: C5_5  and  C6_6 
ROOT
HETATM    1  C3  UNL     1     -32.830  17.473  -2.157  1.00 20.00     0.010 C 
HETATM    2  C5  UNL     1     -33.954  16.753  -2.316  1.00 20.00    -0.017 C 
HETATM    3  C7  UNL     1     -35.077  16.580  -1.343  1.00 20.00     0.052 C 
ENDROOT
BRANCH   1   4
HETATM    4  C1  UNL     1     -32.450  18.208  -0.968  1.00 20.00     0.004 C 
HETATM    5  C2  UNL     1     -31.194  18.226  -0.503  1.00 20.00     0.041 C 
BRANCH   5   6
HETATM    6  C4  UNL     1     -30.893  18.997   0.719  1.00 20.00     0.258 C 
HETATM    7  O9  UNL     1     -29.779  18.995   1.228  1.00 20.00    -0.302 OA
ENDBRANCH   5   6
ENDBRANCH   1   4
BRANCH   2   8
HETATM    8  C6  UNL     1     -34.104  16.081  -3.645  1.00 20.00     0.151 C 
HETATM    9  C8  UNL     1     -34.492  14.625  -3.646  1.00 20.00     0.096 C 
HETATM   10  O10 UNL     1     -33.935  16.699  -4.695  1.00 20.00    -0.293 OA
ENDBRANCH   2   8
TORSDOF 3
ENDMDL
