MODEL 1
REMARK VINA RESULT:      -4.2      0.000      0.000
REMARK  0 active torsions:
REMARK  status: ('A' for Active; 'I' for Inactive)
ROOT
HETATM    1  C1  UNL     1     -35.570  16.160  -2.886  1.00 20.00     0.141 C 
HETATM    2  C2  UNL     1     -34.198  16.266  -2.249  1.00 20.00     0.079 C 
HETATM    3  C3  UNL     1     -33.096  16.115  -3.289  1.00 20.00     0.008 C 
HETATM    4  C4  UNL     1     -33.299  14.884  -4.180  1.00 20.00     0.017 C 
HETATM    5  C5  UNL     1     -37.497  16.100  -5.658  1.00 20.00     0.085 C 
HETATM    6  C6  UNL     1     -36.458  15.862  -6.739  1.00 20.00     0.084 C 
HETATM    7  C7  UNL     1     -35.778  14.938  -3.772  1.00 20.00     0.130 C 
HETATM    8  C8  UNL     1     -34.688  14.835  -4.847  1.00 20.00     0.068 C 
HETATM    9  O9  UNL     1     -36.452  16.972  -2.613  1.00 20.00    -0.297 OA
HETATM   10  S10 UNL     1     -37.487  14.804  -4.386  1.00 20.00    -0.155 SA
HETATM   11  S11 UNL     1     -34.773  16.140  -6.135  1.00 20.00    -0.162 SA
ENDROOT
TORSDOF 0
ENDMDL
MODEL 2
REMARK VINA RESULT:      -4.1     18.109     19.111
REMARK  0 active torsions:
REMARK  status: ('A' for Active; 'I' for Inactive)
ROOT
HETATM    1  C1  UNL     1     -25.314  16.654  11.967  1.00 20.00     0.141 C 
HETATM    2  C2  UNL     1     -26.780  16.790  12.332  1.00 20.00     0.079 C 
HETATM    3  C3  UNL     1     -27.414  17.981  11.628  1.00 20.00     0.008 C 
HETATM    4  C4  UNL     1     -26.590  19.263  11.792  1.00 20.00     0.017 C 
HETATM    5  C5  UNL     1     -22.712  17.521  10.001  1.00 20.00     0.085 C 
HETATM    6  C6  UNL     1     -23.249  18.770   9.325  1.00 20.00     0.084 C 
HETATM    7  C7  UNL     1     -24.489  17.924  12.130  1.00 20.00     0.130 C 
HETATM    8  C8  UNL     1     -25.116  19.100  11.368  1.00 20.00     0.068 C 
HETATM    9  O9  UNL     1     -24.846  15.562  11.654  1.00 20.00    -0.297 OA
HETATM   10  S10 UNL     1     -22.718  17.651  11.812  1.00 20.00    -0.155 SA
HETATM   11  S11 UNL     1     -25.040  18.941   9.541  1.00 20.00    -0.162 SA
ENDROOT
TORSDOF 0
ENDMDL
MODEL 3
REMARK VINA RESULT:      -4.0      2.226      3.023
REMARK  0 active torsions:
REMARK  status: ('A' for Active; 'I' for Inactive)
ROOT
HETATM    1  C1  UNL     1     -37.053  14.381  -4.568  1.00 20.00     0.141 C 
HETATM    2  C2  UNL     1     -35.825  13.493  -4.503  1.00 20.00     0.079 C 
HETATM    3  C3  UNL     1     -34.667  14.207  -3.820  1.00 20.00     0.008 C 
HETATM    4  C4  UNL     1     -34.419  15.605  -4.397  1.00 20.00     0.017 C 
HETATM    5  C5  UNL     1     -38.683  17.171  -3.592  1.00 20.00     0.085 C 
HETATM    6  C6  UNL     1     -37.554  17.976  -2.972  1.00 20.00     0.084 C 
HETATM    7  C7  UNL     1     -36.814  15.772  -5.143  1.00 20.00     0.130 C 
HETATM    8  C8  UNL     1     -35.678  16.494  -4.404  1.00 20.00     0.068 C 
HETATM    9  O9  UNL     1     -38.159  13.945  -4.255  1.00 20.00    -0.297 OA
HETATM   10  S10 UNL     1     -38.353  16.727  -5.321  1.00 20.00    -0.155 SA
HETATM   11  S11 UNL     1     -36.082  16.964  -2.676  1.00 20.00    -0.162 SA
ENDROOT
TORSDOF 0
ENDMDL
MODEL 4
REMARK VINA RESULT:      -3.9      2.133      2.847
REMARK  0 active torsions:
REMARK  status: ('A' for Active; 'I' for Inactive)
ROOT
HETATM    1  C1  UNL     1     -35.186  14.450  -5.305  1.00 20.00     0.141 C 
HETATM    2  C2  UNL     1     -34.788  14.098  -3.885  1.00 20.00     0.079 C 
HETATM    3  C3  UNL     1     -34.710  15.342  -3.011  1.00 20.00     0.008 C 
HETATM    4  C4  UNL     1     -33.878  16.457  -3.654  1.00 20.00     0.017 C 
HETATM    5  C5  UNL     1     -36.385  16.698  -7.519  1.00 20.00     0.085 C 
HETATM    6  C6  UNL     1     -36.253  17.991  -6.735  1.00 20.00     0.084 C 
HETATM    7  C7  UNL     1     -34.362  15.557  -5.951  1.00 20.00     0.130 C 
HETATM    8  C8  UNL     1     -34.342  16.820  -5.079  1.00 20.00     0.068 C 
HETATM    9  O9  UNL     1     -36.056  13.807  -5.889  1.00 20.00    -0.297 OA
HETATM   10  S10 UNL     1     -34.802  15.826  -7.696  1.00 20.00    -0.155 SA
HETATM   11  S11 UNL     1     -35.955  17.689  -4.974  1.00 20.00    -0.162 SA
ENDROOT
TORSDOF 0
ENDMDL
MODEL 5
REMARK VINA RESULT:      -3.9      2.199      3.126
REMARK  0 active torsions:
REMARK  status: ('A' for Active; 'I' for Inactive)
ROOT
HETATM    1  C1  UNL     1     -33.452  16.256  -3.010  1.00 20.00     0.141 C 
HETATM    2  C2  UNL     1     -32.900  15.210  -3.959  1.00 20.00     0.079 C 
HETATM    3  C3  UNL     1     -33.972  14.721  -4.923  1.00 20.00     0.008 C 
HETATM    4  C4  UNL     1     -35.264  14.318  -4.204  1.00 20.00     0.017 C 
HETATM    5  C5  UNL     1     -35.915  18.400  -2.155  1.00 20.00     0.085 C 
HETATM    6  C6  UNL     1     -37.057  17.908  -3.027  1.00 20.00     0.084 C 
HETATM    7  C7  UNL     1     -34.736  15.860  -2.291  1.00 20.00     0.130 C 
HETATM    8  C8  UNL     1     -35.821  15.423  -3.284  1.00 20.00     0.068 C 
HETATM    9  O9  UNL     1     -32.834  17.296  -2.796  1.00 20.00    -0.297 OA
HETATM   10  S10 UNL     1     -35.261  17.102  -1.067  1.00 20.00    -0.155 SA
HETATM   11  S11 UNL     1     -36.483  16.783  -4.325  1.00 20.00    -0.162 SA
ENDROOT
TORSDOF 0
ENDMDL
MODEL 6
REMARK VINA RESULT:      -3.8      2.039      2.480
REMARK  0 active torsions:
REMARK  status: ('A' for Active; 'I' for Inactive)
ROOT
HETATM    1  C1  UNL     1     -34.395  17.519  -4.704  1.00 20.00     0.141 C 
HETATM    2  C2  UNL     1     -33.401  17.937  -3.637  1.00 20.00     0.079 C 
HETATM    3  C3  UNL     1     -33.183  16.822  -2.623  1.00 20.00     0.008 C 
HETATM    4  C4  UNL     1     -34.501  16.253  -2.086  1.00 20.00     0.017 C 
HETATM    5  C5  UNL     1     -36.191  15.096  -6.220  1.00 20.00     0.085 C 
HETATM    6  C6  UNL     1     -36.087  13.969  -5.209  1.00 20.00     0.084 C 
HETATM    7  C7  UNL     1     -35.708  16.954  -4.177  1.00 20.00     0.130 C 
HETATM    8  C8  UNL     1     -35.466  15.796  -3.199  1.00 20.00     0.068 C 
HETATM    9  O9  UNL     1     -34.157  17.719  -5.893  1.00 20.00    -0.297 OA
HETATM   10  S10 UNL     1     -36.901  16.607  -5.507  1.00 20.00    -0.155 SA
HETATM   11  S11 UNL     1     -34.793  14.277  -3.979  1.00 20.00    -0.162 SA
ENDROOT
TORSDOF 0
ENDMDL
MODEL 7
REMARK VINA RESULT:      -3.7      2.005      2.764
REMARK  0 active torsions:
REMARK  status: ('A' for Active; 'I' for Inactive)
ROOT
HETATM    1  C1  UNL     1     -34.427  15.005  -5.217  1.00 20.00     0.141 C 
HETATM    2  C2  UNL     1     -33.296  14.858  -4.216  1.00 20.00     0.079 C 
HETATM    3  C3  UNL     1     -33.364  15.941  -3.148  1.00 20.00     0.008 C 
HETATM    4  C4  UNL     1     -33.515  17.344  -3.746  1.00 20.00     0.017 C 
HETATM    5  C5  UNL     1     -37.369  16.403  -6.101  1.00 20.00     0.085 C 
HETATM    6  C6  UNL     1     -37.459  17.558  -5.120  1.00 20.00     0.084 C 
HETATM    7  C7  UNL     1     -34.580  16.397  -5.817  1.00 20.00     0.130 C 
HETATM    8  C8  UNL     1     -34.702  17.467  -4.723  1.00 20.00     0.068 C 
HETATM    9  O9  UNL     1     -35.090  14.029  -5.559  1.00 20.00    -0.297 OA
HETATM   10  S10 UNL     1     -35.860  16.462  -7.109  1.00 20.00    -0.155 SA
HETATM   11  S11 UNL     1     -36.266  17.393  -3.766  1.00 20.00    -0.162 SA
ENDROOT
TORSDOF 0
ENDMDL
MODEL 8
REMARK VINA RESULT:      -3.7      1.886      2.918
REMARK  0 active torsions:
REMARK  status: ('A' for Active; 'I' for Inactive)
ROOT
HETATM    1  C1  UNL     1     -34.124  15.435  -5.188  1.00 20.00     0.141 C 
HETATM    2  C2  UNL     1     -33.495  15.199  -3.828  1.00 20.00     0.079 C 
HETATM    3  C3  UNL     1     -34.421  15.654  -2.708  1.00 20.00     0.008 C 
HETATM    4  C4  UNL     1     -34.955  17.073  -2.932  1.00 20.00     0.017 C 
HETATM    5  C5  UNL     1     -36.838  16.186  -7.049  1.00 20.00     0.085 C 
HETATM    6  C6  UNL     1     -37.782  16.734  -5.994  1.00 20.00     0.084 C 
HETATM    7  C7  UNL     1     -34.656  16.844  -5.417  1.00 20.00     0.130 C 
HETATM    8  C8  UNL     1     -35.629  17.262  -4.306  1.00 20.00     0.068 C 
HETATM    9  O9  UNL     1     -34.107  14.555  -6.046  1.00 20.00    -0.297 OA
HETATM   10  S10 UNL     1     -35.266  17.091  -7.114  1.00 20.00    -0.155 SA
HETATM   11  S11 UNL     1     -37.222  16.350  -4.316  1.00 20.00    -0.162 SA
ENDROOT
TORSDOF 0
ENDMDL
MODEL 9
REMARK VINA RESULT:      -3.6      1.516      1.879
REMARK  0 active torsions:
REMARK  status: ('A' for Active; 'I' for Inactive)
ROOT
HETATM    1  C1  UNL     1     -34.393  16.910  -3.468  1.00 20.00     0.141 C 
HETATM    2  C2  UNL     1     -33.170  16.015  -3.397  1.00 20.00     0.079 C 
HETATM    3  C3  UNL     1     -33.367  14.749  -4.219  1.00 20.00     0.008 C 
HETATM    4  C4  UNL     1     -34.695  14.050  -3.907  1.00 20.00     0.017 C 
HETATM    5  C5  UNL     1     -37.349  17.692  -4.898  1.00 20.00     0.085 C 
HETATM    6  C6  UNL     1     -37.651  16.422  -5.674  1.00 20.00     0.084 C 
HETATM    7  C7  UNL     1     -35.716  16.222  -3.157  1.00 20.00     0.130 C 
HETATM    8  C8  UNL     1     -35.919  14.979  -4.035  1.00 20.00     0.068 C 
HETATM    9  O9  UNL     1     -34.274  18.116  -3.677  1.00 20.00    -0.297 OA
HETATM   10  S10 UNL     1     -37.116  17.385  -3.124  1.00 20.00    -0.155 SA
HETATM   11  S11 UNL     1     -36.199  15.349  -5.811  1.00 20.00    -0.162 SA
ENDROOT
TORSDOF 0
ENDMDL
