MODEL 1
REMARK VINA RESULT:      -5.1      0.000      0.000
REMARK  0 active torsions:
REMARK  status: ('A' for Active; 'I' for Inactive)
ROOT
HETATM    1  C1  UNL     1     -25.738  19.263   7.851  1.00 20.00     0.004 A 
HETATM    2  C2  UNL     1     -24.449  18.926   7.400  1.00 20.00     0.034 A 
HETATM    3  C3  UNL     1     -26.090  19.168   9.204  1.00 20.00     0.021 A 
HETATM    4  C4  UNL     1     -21.787  17.804   9.429  1.00 20.00     0.210 A 
HETATM    5  C5  UNL     1     -23.509  18.491   8.348  1.00 20.00     0.086 A 
HETATM    6  C6  UNL     1     -23.897  18.413   9.675  1.00 20.00     0.081 A 
HETATM    7  C7  UNL     1     -25.166  18.725  10.153  1.00 20.00     0.029 A 
HETATM    8  C8  UNL     1     -22.756  17.787  11.774  1.00 20.00     0.140 C 
HETATM    9  C9  UNL     1     -24.129  17.391  12.332  1.00 20.00     0.100 C 
HETATM   10  N10 UNL     1     -22.192  18.105   8.210  1.00 20.00    -0.242 NA
HETATM   11  N11 UNL     1     -22.783  17.979  10.339  1.00 20.00    -0.338 N 
HETATM   12  S12 UNL     1     -25.474  18.571  11.887  1.00 20.00    -0.126 SA
ENDROOT
TORSDOF 0
ENDMDL
MODEL 2
REMARK VINA RESULT:      -4.5     13.186     14.338
REMARK  0 active torsions:
REMARK  status: ('A' for Active; 'I' for Inactive)
ROOT
HETATM    1  C1  UNL     1     -34.176  16.160  -2.770  1.00 20.00     0.004 A 
HETATM    2  C2  UNL     1     -32.964  16.872  -2.808  1.00 20.00     0.034 A 
HETATM    3  C3  UNL     1     -35.088  16.318  -1.718  1.00 20.00     0.021 A 
HETATM    4  C4  UNL     1     -31.872  19.205  -0.394  1.00 20.00     0.210 A 
HETATM    5  C5  UNL     1     -32.686  17.761  -1.757  1.00 20.00     0.086 A 
HETATM    6  C6  UNL     1     -33.614  17.889  -0.737  1.00 20.00     0.081 A 
HETATM    7  C7  UNL     1     -34.815  17.190  -0.662  1.00 20.00     0.029 A 
HETATM    8  C8  UNL     1     -33.750  19.262   1.311  1.00 20.00     0.140 C 
HETATM    9  C9  UNL     1     -34.649  18.172   1.910  1.00 20.00     0.100 C 
HETATM   10  N10 UNL     1     -31.604  18.585  -1.526  1.00 20.00    -0.242 NA
HETATM   11  N11 UNL     1     -33.074  18.815   0.111  1.00 20.00    -0.338 N 
HETATM   12  S12 UNL     1     -35.880  17.493   0.717  1.00 20.00    -0.126 SA
ENDROOT
TORSDOF 0
ENDMDL
MODEL 3
REMARK VINA RESULT:      -4.5     17.607     19.009
REMARK  0 active torsions:
REMARK  status: ('A' for Active; 'I' for Inactive)
ROOT
HETATM    1  C1  UNL     1     -34.325  14.299  -3.817  1.00 20.00     0.004 A 
HETATM    2  C2  UNL     1     -35.499  13.630  -4.205  1.00 20.00     0.034 A 
HETATM    3  C3  UNL     1     -34.344  15.641  -3.416  1.00 20.00     0.021 A 
HETATM    4  C4  UNL     1     -38.739  15.030  -4.272  1.00 20.00     0.210 A 
HETATM    5  C5  UNL     1     -36.708  14.343  -4.176  1.00 20.00     0.086 A 
HETATM    6  C6  UNL     1     -36.683  15.668  -3.772  1.00 20.00     0.081 A 
HETATM    7  C7  UNL     1     -35.539  16.363  -3.395  1.00 20.00     0.029 A 
HETATM    8  C8  UNL     1     -38.404  17.412  -3.467  1.00 20.00     0.140 C 
HETATM    9  C9  UNL     1     -37.307  18.454  -3.720  1.00 20.00     0.100 C 
HETATM   10  N10 UNL     1     -37.997  13.962  -4.488  1.00 20.00    -0.242 NA
HETATM   11  N11 UNL     1     -37.986  16.077  -3.838  1.00 20.00    -0.338 N 
HETATM   12  S12 UNL     1     -35.705  18.053  -2.901  1.00 20.00    -0.126 SA
ENDROOT
TORSDOF 0
ENDMDL
MODEL 4
REMARK VINA RESULT:      -4.4      1.931      3.463
REMARK  0 active torsions:
REMARK  status: ('A' for Active; 'I' for Inactive)
ROOT
HETATM    1  C1  UNL     1     -25.471  18.673  12.282  1.00 20.00     0.004 A 
HETATM    2  C2  UNL     1     -26.215  19.034  11.145  1.00 20.00     0.034 A 
HETATM    3  C3  UNL     1     -24.149  18.220  12.179  1.00 20.00     0.021 A 
HETATM    4  C4  UNL     1     -25.056  18.951   7.813  1.00 20.00     0.210 A 
HETATM    5  C5  UNL     1     -25.597  18.935   9.889  1.00 20.00     0.086 A 
HETATM    6  C6  UNL     1     -24.289  18.484   9.831  1.00 20.00     0.081 A 
HETATM    7  C7  UNL     1     -23.528  18.106  10.934  1.00 20.00     0.029 A 
HETATM    8  C8  UNL     1     -22.662  18.132   8.007  1.00 20.00     0.140 C 
HETATM    9  C9  UNL     1     -21.991  17.073   8.891  1.00 20.00     0.100 C 
HETATM   10  N10 UNL     1     -26.062  19.218   8.622  1.00 20.00    -0.242 NA
HETATM   11  N11 UNL     1     -23.969  18.509   8.502  1.00 20.00    -0.338 N 
HETATM   12  S12 UNL     1     -21.867  17.562  10.664  1.00 20.00    -0.126 SA
ENDROOT
TORSDOF 0
ENDMDL
MODEL 5
REMARK VINA RESULT:      -4.4     16.666     18.354
REMARK  0 active torsions:
REMARK  status: ('A' for Active; 'I' for Inactive)
ROOT
HETATM    1  C1  UNL     1     -33.505  16.768  -2.872  1.00 20.00     0.004 A 
HETATM    2  C2  UNL     1     -33.426  15.467  -3.401  1.00 20.00     0.034 A 
HETATM    3  C3  UNL     1     -34.730  17.437  -2.751  1.00 20.00     0.021 A 
HETATM    4  C4  UNL     1     -36.157  13.532  -4.522  1.00 20.00     0.210 A 
HETATM    5  C5  UNL     1     -34.617  14.843  -3.805  1.00 20.00     0.086 A 
HETATM    6  C6  UNL     1     -35.806  15.538  -3.666  1.00 20.00     0.081 A 
HETATM    7  C7  UNL     1     -35.919  16.830  -3.160  1.00 20.00     0.029 A 
HETATM    8  C8  UNL     1     -38.176  15.017  -4.128  1.00 20.00     0.140 C 
HETATM    9  C9  UNL     1     -38.412  16.523  -4.298  1.00 20.00     0.100 C 
HETATM   10  N10 UNL     1     -34.852  13.595  -4.344  1.00 20.00    -0.242 NA
HETATM   11  N11 UNL     1     -36.768  14.681  -4.124  1.00 20.00    -0.338 N 
HETATM   12  S12 UNL     1     -37.528  17.554  -3.051  1.00 20.00    -0.126 SA
ENDROOT
TORSDOF 0
ENDMDL
MODEL 6
REMARK VINA RESULT:      -4.1     17.209     19.033
REMARK  0 active torsions:
REMARK  status: ('A' for Active; 'I' for Inactive)
ROOT
HETATM    1  C1  UNL     1     -34.023  15.875  -2.636  1.00 20.00     0.004 A 
HETATM    2  C2  UNL     1     -33.530  15.235  -3.786  1.00 20.00     0.034 A 
HETATM    3  C3  UNL     1     -35.261  16.532  -2.636  1.00 20.00     0.021 A 
HETATM    4  C4  UNL     1     -35.173  15.053  -6.905  1.00 20.00     0.210 A 
HETATM    5  C5  UNL     1     -34.316  15.264  -4.949  1.00 20.00     0.086 A 
HETATM    6  C6  UNL     1     -35.534  15.922  -4.906  1.00 20.00     0.081 A 
HETATM    7  C7  UNL     1     -36.046  16.577  -3.790  1.00 20.00     0.029 A 
HETATM    8  C8  UNL     1     -37.354  16.294  -6.533  1.00 20.00     0.140 C 
HETATM    9  C9  UNL     1     -37.710  17.566  -5.753  1.00 20.00     0.100 C 
HETATM   10  N10 UNL     1     -34.104  14.730  -6.203  1.00 20.00    -0.242 NA
HETATM   11  N11 UNL     1     -36.058  15.768  -6.159  1.00 20.00    -0.338 N 
HETATM   12  S12 UNL     1     -37.627  17.358  -3.923  1.00 20.00    -0.126 SA
ENDROOT
TORSDOF 0
ENDMDL
MODEL 7
REMARK VINA RESULT:      -4.1     17.279     19.024
REMARK  0 active torsions:
REMARK  status: ('A' for Active; 'I' for Inactive)
ROOT
HETATM    1  C1  UNL     1     -34.095  15.790  -2.819  1.00 20.00     0.004 A 
HETATM    2  C2  UNL     1     -34.634  14.718  -3.552  1.00 20.00     0.034 A 
HETATM    3  C3  UNL     1     -33.900  17.050  -3.399  1.00 20.00     0.021 A 
HETATM    4  C4  UNL     1     -35.650  14.839  -6.930  1.00 20.00     0.210 A 
HETATM    5  C5  UNL     1     -34.981  14.941  -4.894  1.00 20.00     0.086 A 
HETATM    6  C6  UNL     1     -34.773  16.202  -5.428  1.00 20.00     0.081 A 
HETATM    7  C7  UNL     1     -34.231  17.280  -4.736  1.00 20.00     0.029 A 
HETATM    8  C8  UNL     1     -35.193  17.233  -7.632  1.00 20.00     0.140 C 
HETATM    9  C9  UNL     1     -34.050  18.210  -7.326  1.00 20.00     0.100 C 
HETATM   10  N10 UNL     1     -35.525  14.102  -5.844  1.00 20.00    -0.242 NA
HETATM   11  N11 UNL     1     -35.212  16.110  -6.720  1.00 20.00    -0.338 N 
HETATM   12  S12 UNL     1     -34.048  18.820  -5.586  1.00 20.00    -0.126 SA
ENDROOT
TORSDOF 0
ENDMDL
MODEL 8
REMARK VINA RESULT:      -4.1     17.065     18.746
REMARK  0 active torsions:
REMARK  status: ('A' for Active; 'I' for Inactive)
ROOT
HETATM    1  C1  UNL     1     -38.355  17.227  -3.937  1.00 20.00     0.004 A 
HETATM    2  C2  UNL     1     -38.553  15.857  -4.184  1.00 20.00     0.034 A 
HETATM    3  C3  UNL     1     -37.071  17.767  -3.786  1.00 20.00     0.021 A 
HETATM    4  C4  UNL     1     -36.005  13.436  -4.515  1.00 20.00     0.210 A 
HETATM    5  C5  UNL     1     -37.421  15.032  -4.282  1.00 20.00     0.086 A 
HETATM    6  C6  UNL     1     -36.170  15.605  -4.128  1.00 20.00     0.081 A 
HETATM    7  C7  UNL     1     -35.939  16.953  -3.870  1.00 20.00     0.029 A 
HETATM    8  C8  UNL     1     -33.855  14.752  -4.225  1.00 20.00     0.140 C 
HETATM    9  C9  UNL     1     -33.455  15.904  -3.294  1.00 20.00     0.100 C 
HETATM   10  N10 UNL     1     -37.301  13.678  -4.519  1.00 20.00    -0.242 NA
HETATM   11  N11 UNL     1     -35.290  14.571  -4.286  1.00 20.00    -0.338 N 
HETATM   12  S12 UNL     1     -34.267  17.506  -3.712  1.00 20.00    -0.126 SA
ENDROOT
TORSDOF 0
ENDMDL
MODEL 9
REMARK VINA RESULT:      -4.1     10.516     12.432
REMARK  0 active torsions:
REMARK  status: ('A' for Active; 'I' for Inactive)
ROOT
HETATM    1  C1  UNL     1     -30.758  19.256   3.145  1.00 20.00     0.004 A 
HETATM    2  C2  UNL     1     -30.145  19.086   1.891  1.00 20.00     0.034 A 
HETATM    3  C3  UNL     1     -32.139  19.095   3.315  1.00 20.00     0.021 A 
HETATM    4  C4  UNL     1     -31.797  18.213  -1.104  1.00 20.00     0.210 A 
HETATM    5  C5  UNL     1     -30.957  18.742   0.799  1.00 20.00     0.086 A 
HETATM    6  C6  UNL     1     -32.318  18.591   1.010  1.00 20.00     0.081 A 
HETATM    7  C7  UNL     1     -32.958  18.764   2.233  1.00 20.00     0.029 A 
HETATM    8  C8  UNL     1     -34.230  17.974  -0.426  1.00 20.00     0.140 C 
HETATM    9  C9  UNL     1     -35.128  18.766   0.533  1.00 20.00     0.100 C 
HETATM   10  N10 UNL     1     -30.649  18.507  -0.525  1.00 20.00    -0.242 NA
HETATM   11  N11 UNL     1     -32.825  18.251  -0.213  1.00 20.00    -0.338 N 
HETATM   12  S12 UNL     1     -34.707  18.520   2.310  1.00 20.00    -0.126 SA
ENDROOT
TORSDOF 0
ENDMDL
