MODEL 1
REMARK VINA RESULT:      -4.1      0.000      0.000
REMARK  2 active torsions:
REMARK  status: ('A' for Active; 'I' for Inactive)
REMARK    1  A    between atoms: C1_1  and  C2_2 
REMARK    2  A    between atoms: C1_1  and  C3_3 
ROOT
HETATM    1  C2  UNL     1     -34.327  16.026  -2.295  1.00 20.00     0.043 A 
HETATM    2  C4  UNL     1     -33.854  17.391  -2.349  1.00 20.00     0.013 A 
HETATM    3  C5  UNL     1     -35.191  17.046  -1.704  1.00 20.00    -0.023 A 
HETATM    4  C8  UNL     1     -32.662  17.804  -1.556  1.00 20.00     0.012 C 
HETATM    5  C9  UNL     1     -35.327  17.028  -0.202  1.00 20.00     0.017 C 
HETATM    6  C10 UNL     1     -36.438  17.512  -2.417  1.00 20.00     0.017 C 
ENDROOT
BRANCH   1   7
HETATM    7  C1  UNL     1     -34.614  15.346  -3.360  1.00 20.00    -0.159 C 
BRANCH   7   8
HETATM    8  C3  UNL     1     -34.903  14.662  -4.433  1.00 20.00     0.022 C 
HETATM    9  C6  UNL     1     -36.012  13.649  -4.465  1.00 20.00     0.029 C 
HETATM   10  C7  UNL     1     -34.152  14.834  -5.722  1.00 20.00     0.029 C 
ENDBRANCH   7   8
ENDBRANCH   1   7
TORSDOF 2
ENDMDL
MODEL 2
REMARK VINA RESULT:      -4.1      0.004      1.136
REMARK  2 active torsions:
REMARK  status: ('A' for Active; 'I' for Inactive)
REMARK    1  A    between atoms: C1_1  and  C2_2 
REMARK    2  A    between atoms: C1_1  and  C3_3 
ROOT
HETATM    1  C2  UNL     1     -34.330  16.027  -2.294  1.00 20.00     0.043 A 
HETATM    2  C4  UNL     1     -33.858  17.393  -2.347  1.00 20.00     0.013 A 
HETATM    3  C5  UNL     1     -35.194  17.047  -1.704  1.00 20.00    -0.023 A 
HETATM    4  C8  UNL     1     -32.665  17.804  -1.554  1.00 20.00     0.012 C 
HETATM    5  C9  UNL     1     -35.331  17.028  -0.202  1.00 20.00     0.017 C 
HETATM    6  C10 UNL     1     -36.441  17.514  -2.416  1.00 20.00     0.017 C 
ENDROOT
BRANCH   1   7
HETATM    7  C1  UNL     1     -34.618  15.349  -3.360  1.00 20.00    -0.159 C 
BRANCH   7   8
HETATM    8  C3  UNL     1     -34.907  14.666  -4.434  1.00 20.00     0.022 C 
HETATM    9  C6  UNL     1     -34.154  14.840  -5.723  1.00 20.00     0.029 C 
HETATM   10  C7  UNL     1     -36.011  13.648  -4.467  1.00 20.00     0.029 C 
ENDBRANCH   7   8
ENDBRANCH   1   7
TORSDOF 2
ENDMDL
MODEL 3
REMARK VINA RESULT:      -4.1      1.348      4.531
REMARK  2 active torsions:
REMARK  status: ('A' for Active; 'I' for Inactive)
REMARK    1  A    between atoms: C1_1  and  C2_2 
REMARK    2  A    between atoms: C1_1  and  C3_3 
ROOT
HETATM    1  C2  UNL     1     -35.422  15.912  -2.475  1.00 20.00     0.043 A 
HETATM    2  C4  UNL     1     -35.525  16.473  -3.804  1.00 20.00     0.013 A 
HETATM    3  C5  UNL     1     -34.457  15.441  -3.465  1.00 20.00    -0.023 A 
HETATM    4  C8  UNL     1     -36.703  16.159  -4.660  1.00 20.00     0.012 C 
HETATM    5  C9  UNL     1     -34.606  14.014  -3.929  1.00 20.00     0.017 C 
HETATM    6  C10 UNL     1     -33.024  15.919  -3.439  1.00 20.00     0.017 C 
ENDROOT
BRANCH   1   7
HETATM    7  C1  UNL     1     -35.121  16.629  -1.438  1.00 20.00    -0.159 C 
BRANCH   7   8
HETATM    8  C3  UNL     1     -34.819  17.351  -0.394  1.00 20.00     0.022 C 
HETATM    9  C6  UNL     1     -33.588  18.212  -0.342  1.00 20.00     0.029 C 
HETATM   10  C7  UNL     1     -35.679  17.384   0.837  1.00 20.00     0.029 C 
ENDBRANCH   7   8
ENDBRANCH   1   7
TORSDOF 2
ENDMDL
MODEL 4
REMARK VINA RESULT:      -4.1      1.340      4.385
REMARK  2 active torsions:
REMARK  status: ('A' for Active; 'I' for Inactive)
REMARK    1  A    between atoms: C1_1  and  C2_2 
REMARK    2  A    between atoms: C1_1  and  C3_3 
ROOT
HETATM    1  C2  UNL     1     -35.419  15.908  -2.499  1.00 20.00     0.043 A 
HETATM    2  C4  UNL     1     -35.509  16.461  -3.832  1.00 20.00     0.013 A 
HETATM    3  C5  UNL     1     -34.456  15.418  -3.482  1.00 20.00    -0.023 A 
HETATM    4  C8  UNL     1     -36.688  16.156  -4.691  1.00 20.00     0.012 C 
HETATM    5  C9  UNL     1     -34.622  13.989  -3.936  1.00 20.00     0.017 C 
HETATM    6  C10 UNL     1     -33.017  15.878  -3.454  1.00 20.00     0.017 C 
ENDROOT
BRANCH   1   7
HETATM    7  C1  UNL     1     -35.113  16.628  -1.467  1.00 20.00    -0.159 C 
BRANCH   7   8
HETATM    8  C3  UNL     1     -34.804  17.353  -0.426  1.00 20.00     0.022 C 
HETATM    9  C6  UNL     1     -35.648  17.372   0.818  1.00 20.00     0.029 C 
HETATM   10  C7  UNL     1     -33.580  18.222  -0.386  1.00 20.00     0.029 C 
ENDBRANCH   7   8
ENDBRANCH   1   7
TORSDOF 2
ENDMDL
MODEL 5
REMARK VINA RESULT:      -4.1      0.986      4.360
REMARK  2 active torsions:
REMARK  status: ('A' for Active; 'I' for Inactive)
REMARK    1  A    between atoms: C1_1  and  C2_2 
REMARK    2  A    between atoms: C1_1  and  C3_3 
ROOT
HETATM    1  C2  UNL     1     -34.509  15.235  -3.647  1.00 20.00     0.043 A 
HETATM    2  C4  UNL     1     -35.789  14.964  -4.263  1.00 20.00     0.013 A 
HETATM    3  C5  UNL     1     -34.670  15.647  -5.040  1.00 20.00    -0.023 A 
HETATM    4  C8  UNL     1     -36.210  13.559  -4.528  1.00 20.00     0.012 C 
HETATM    5  C9  UNL     1     -33.880  14.876  -6.067  1.00 20.00     0.017 C 
HETATM    6  C10 UNL     1     -34.872  17.099  -5.400  1.00 20.00     0.017 C 
ENDROOT
BRANCH   1   7
HETATM    7  C1  UNL     1     -34.376  16.052  -2.650  1.00 20.00    -0.159 C 
BRANCH   7   8
HETATM    8  C3  UNL     1     -34.241  16.874  -1.645  1.00 20.00     0.022 C 
HETATM    9  C6  UNL     1     -35.276  16.995  -0.563  1.00 20.00     0.029 C 
HETATM   10  C7  UNL     1     -33.039  17.762  -1.489  1.00 20.00     0.029 C 
ENDBRANCH   7   8
ENDBRANCH   1   7
TORSDOF 2
ENDMDL
MODEL 6
REMARK VINA RESULT:      -3.9      1.621      4.363
REMARK  2 active torsions:
REMARK  status: ('A' for Active; 'I' for Inactive)
REMARK    1  A    between atoms: C1_1  and  C2_2 
REMARK    2  A    between atoms: C1_1  and  C3_3 
ROOT
HETATM    1  C2  UNL     1     -33.304  17.052  -3.020  1.00 20.00     0.043 A 
HETATM    2  C4  UNL     1     -33.693  15.665  -3.145  1.00 20.00     0.013 A 
HETATM    3  C5  UNL     1     -34.689  16.788  -3.402  1.00 20.00    -0.023 A 
HETATM    4  C8  UNL     1     -33.128  14.824  -4.237  1.00 20.00     0.012 C 
HETATM    5  C9  UNL     1     -35.080  17.146  -4.815  1.00 20.00     0.017 C 
HETATM    6  C10 UNL     1     -35.813  16.951  -2.407  1.00 20.00     0.017 C 
ENDROOT
BRANCH   1   7
HETATM    7  C1  UNL     1     -32.941  17.575  -1.892  1.00 20.00    -0.159 C 
BRANCH   7   8
HETATM    8  C3  UNL     1     -32.573  18.100  -0.755  1.00 20.00     0.022 C 
HETATM    9  C6  UNL     1     -33.562  18.475   0.313  1.00 20.00     0.029 C 
HETATM   10  C7  UNL     1     -31.134  18.369  -0.422  1.00 20.00     0.029 C 
ENDBRANCH   7   8
ENDBRANCH   1   7
TORSDOF 2
ENDMDL
MODEL 7
REMARK VINA RESULT:      -3.9      1.029      2.412
REMARK  2 active torsions:
REMARK  status: ('A' for Active; 'I' for Inactive)
REMARK    1  A    between atoms: C1_1  and  C2_2 
REMARK    2  A    between atoms: C1_1  and  C3_3 
ROOT
HETATM    1  C2  UNL     1     -35.094  16.853  -2.298  1.00 20.00     0.043 A 
HETATM    2  C4  UNL     1     -34.838  16.862  -0.875  1.00 20.00     0.013 A 
HETATM    3  C5  UNL     1     -34.093  17.801  -1.815  1.00 20.00    -0.023 A 
HETATM    4  C8  UNL     1     -35.886  17.336   0.071  1.00 20.00     0.012 C 
HETATM    5  C9  UNL     1     -34.462  19.262  -1.877  1.00 20.00     0.017 C 
HETATM    6  C10 UNL     1     -32.619  17.543  -2.018  1.00 20.00     0.017 C 
ENDROOT
BRANCH   1   7
HETATM    7  C1  UNL     1     -34.834  15.827  -3.046  1.00 20.00    -0.159 C 
BRANCH   7   8
HETATM    8  C3  UNL     1     -34.572  14.793  -3.798  1.00 20.00     0.022 C 
HETATM    9  C6  UNL     1     -33.189  14.502  -4.310  1.00 20.00     0.029 C 
HETATM   10  C7  UNL     1     -35.630  13.810  -4.210  1.00 20.00     0.029 C 
ENDBRANCH   7   8
ENDBRANCH   1   7
TORSDOF 2
ENDMDL
MODEL 8
REMARK VINA RESULT:      -3.8      1.373      2.606
REMARK  2 active torsions:
REMARK  status: ('A' for Active; 'I' for Inactive)
REMARK    1  A    between atoms: C1_1  and  C2_2 
REMARK    2  A    between atoms: C1_1  and  C3_3 
ROOT
HETATM    1  C2  UNL     1     -35.592  16.586  -2.822  1.00 20.00     0.043 A 
HETATM    2  C4  UNL     1     -34.909  16.339  -1.572  1.00 20.00     0.013 A 
HETATM    3  C5  UNL     1     -34.140  16.745  -2.822  1.00 20.00    -0.023 A 
HETATM    4  C8  UNL     1     -35.107  17.256  -0.415  1.00 20.00     0.012 C 
HETATM    5  C9  UNL     1     -33.615  18.152  -2.966  1.00 20.00     0.017 C 
HETATM    6  C10 UNL     1     -33.246  15.702  -3.449  1.00 20.00     0.017 C 
ENDROOT
BRANCH   1   7
HETATM    7  C1  UNL     1     -36.230  15.658  -3.463  1.00 20.00    -0.159 C 
BRANCH   7   8
HETATM    8  C3  UNL     1     -36.871  14.722  -4.108  1.00 20.00     0.022 C 
HETATM    9  C6  UNL     1     -36.171  13.531  -4.700  1.00 20.00     0.029 C 
HETATM   10  C7  UNL     1     -38.359  14.758  -4.306  1.00 20.00     0.029 C 
ENDBRANCH   7   8
ENDBRANCH   1   7
TORSDOF 2
ENDMDL
MODEL 9
REMARK VINA RESULT:      -3.7      1.688      4.700
REMARK  2 active torsions:
REMARK  status: ('A' for Active; 'I' for Inactive)
REMARK    1  A    between atoms: C1_1  and  C2_2 
REMARK    2  A    between atoms: C1_1  and  C3_3 
ROOT
HETATM    1  C2  UNL     1     -33.423  17.756  -1.986  1.00 20.00     0.043 A 
HETATM    2  C4  UNL     1     -33.679  16.374  -2.323  1.00 20.00     0.013 A 
HETATM    3  C5  UNL     1     -34.823  17.343  -2.057  1.00 20.00    -0.023 A 
HETATM    4  C8  UNL     1     -33.358  15.863  -3.686  1.00 20.00     0.012 C 
HETATM    5  C9  UNL     1     -35.632  17.895  -3.204  1.00 20.00     0.017 C 
HETATM    6  C10 UNL     1     -35.631  17.124  -0.801  1.00 20.00     0.017 C 
ENDROOT
BRANCH   1   7
HETATM    7  C1  UNL     1     -32.815  18.106  -0.897  1.00 20.00    -0.159 C 
BRANCH   7   8
HETATM    8  C3  UNL     1     -32.201  18.458   0.200  1.00 20.00     0.022 C 
HETATM    9  C6  UNL     1     -32.941  18.955   1.410  1.00 20.00     0.029 C 
HETATM   10  C7  UNL     1     -30.707  18.393   0.341  1.00 20.00     0.029 C 
ENDBRANCH   7   8
ENDBRANCH   1   7
TORSDOF 2
ENDMDL
