MODEL 1
REMARK VINA RESULT:      -4.2      0.000      0.000
REMARK  2 active torsions:
REMARK  status: ('A' for Active; 'I' for Inactive)
REMARK    1  A    between atoms: C7_7  and  C9_9 
REMARK    2  A    between atoms: C8_8  and  C10_10 
ROOT
HETATM    1  C1  UNL     1     -33.738  14.742  -5.489  1.00 20.00     0.005 C 
HETATM    2  C2  UNL     1     -34.364  16.020  -6.113  1.00 20.00     0.005 C 
HETATM    3  C3  UNL     1     -35.787  14.147  -4.215  1.00 20.00     0.005 C 
HETATM    4  C4  UNL     1     -36.492  15.087  -5.231  1.00 20.00     0.005 C 
HETATM    5  C7  UNL     1     -34.307  14.553  -4.052  1.00 20.00    -0.010 C 
HETATM    6  C8  UNL     1     -35.661  16.396  -5.366  1.00 20.00    -0.010 C 
ENDROOT
BRANCH   5   7
HETATM    7  C9  UNL     1     -34.162  15.944  -3.419  1.00 20.00    -0.006 C 
HETATM    8  C5  UNL     1     -33.160  16.848  -2.649  1.00 20.00     0.006 C 
HETATM    9  C6  UNL     1     -34.473  17.387  -1.930  1.00 20.00     0.006 C 
HETATM   10  C10 UNL     1     -34.936  15.908  -2.050  1.00 20.00    -0.006 C 
ENDBRANCH   5   7
TORSDOF 2
ENDMDL
MODEL 2
REMARK VINA RESULT:      -4.2     16.042     18.319
REMARK  2 active torsions:
REMARK  status: ('A' for Active; 'I' for Inactive)
REMARK    1  A    between atoms: C7_7  and  C9_9 
REMARK    2  A    between atoms: C8_8  and  C10_10 
ROOT
HETATM    1  C1  UNL     1     -23.669  18.406  12.327  1.00 20.00     0.005 C 
HETATM    2  C2  UNL     1     -22.871  17.251  11.662  1.00 20.00     0.005 C 
HETATM    3  C3  UNL     1     -25.874  17.312  11.991  1.00 20.00     0.005 C 
HETATM    4  C4  UNL     1     -25.024  16.022  11.829  1.00 20.00     0.005 C 
HETATM    5  C7  UNL     1     -25.040  18.552  11.605  1.00 20.00    -0.010 C 
HETATM    6  C8  UNL     1     -23.826  16.324  10.882  1.00 20.00    -0.010 C 
ENDROOT
BRANCH   5   7
HETATM    7  C9  UNL     1     -24.668  18.548  10.115  1.00 20.00    -0.006 C 
HETATM    8  C5  UNL     1     -23.761  19.257   9.071  1.00 20.00     0.006 C 
HETATM    9  C6  UNL     1     -24.978  18.975   8.086  1.00 20.00     0.006 C 
HETATM   10  C10 UNL     1     -25.840  19.262   9.347  1.00 20.00    -0.006 C 
ENDBRANCH   5   7
TORSDOF 2
ENDMDL
MODEL 3
REMARK VINA RESULT:      -4.1     17.656     18.824
REMARK  2 active torsions:
REMARK  status: ('A' for Active; 'I' for Inactive)
REMARK    1  A    between atoms: C7_7  and  C9_9 
REMARK    2  A    between atoms: C8_8  and  C10_10 
ROOT
HETATM    1  C1  UNL     1     -25.278  18.271  11.233  1.00 20.00     0.005 C 
HETATM    2  C2  UNL     1     -24.231  18.654  12.315  1.00 20.00     0.005 C 
HETATM    3  C3  UNL     1     -24.393  15.968  10.939  1.00 20.00     0.005 C 
HETATM    4  C4  UNL     1     -23.747  16.216  12.330  1.00 20.00     0.005 C 
HETATM    5  C7  UNL     1     -24.612  17.308  10.207  1.00 20.00    -0.010 C 
HETATM    6  C8  UNL     1     -23.082  17.623  12.332  1.00 20.00    -0.010 C 
ENDROOT
BRANCH   5   7
HETATM    7  C9  UNL     1     -23.283  17.999   9.870  1.00 20.00    -0.006 C 
HETATM    8  C5  UNL     1     -22.660  19.091   8.957  1.00 20.00     0.006 C 
HETATM    9  C6  UNL     1     -21.392  18.130   8.973  1.00 20.00     0.006 C 
HETATM   10  C10 UNL     1     -22.463  17.003   8.970  1.00 20.00    -0.006 C 
ENDBRANCH   5   7
TORSDOF 2
ENDMDL
MODEL 4
REMARK VINA RESULT:      -4.0      1.378      3.600
REMARK  2 active torsions:
REMARK  status: ('A' for Active; 'I' for Inactive)
REMARK    1  A    between atoms: C7_7  and  C9_9 
REMARK    2  A    between atoms: C8_8  and  C10_10 
ROOT
HETATM    1  C1  UNL     1     -35.548  17.138  -1.924  1.00 20.00     0.005 C 
HETATM    2  C2  UNL     1     -35.826  18.021  -3.172  1.00 20.00     0.005 C 
HETATM    3  C3  UNL     1     -33.363  16.315  -2.775  1.00 20.00     0.005 C 
HETATM    4  C4  UNL     1     -33.442  17.559  -3.702  1.00 20.00     0.005 C 
HETATM    5  C7  UNL     1     -34.782  15.860  -2.372  1.00 20.00    -0.010 C 
HETATM    6  C8  UNL     1     -34.868  17.637  -4.320  1.00 20.00    -0.010 C 
ENDROOT
BRANCH   5   7
HETATM    7  C9  UNL     1     -35.585  15.360  -3.582  1.00 20.00    -0.006 C 
HETATM    8  C5  UNL     1     -36.913  14.651  -3.970  1.00 20.00     0.006 C 
HETATM    9  C6  UNL     1     -36.031  14.029  -5.139  1.00 20.00     0.006 C 
HETATM   10  C10 UNL     1     -34.915  14.019  -4.058  1.00 20.00    -0.006 C 
ENDBRANCH   5   7
TORSDOF 2
ENDMDL
MODEL 5
REMARK VINA RESULT:      -4.0      1.307      3.090
REMARK  2 active torsions:
REMARK  status: ('A' for Active; 'I' for Inactive)
REMARK    1  A    between atoms: C7_7  and  C9_9 
REMARK    2  A    between atoms: C8_8  and  C10_10 
ROOT
HETATM    1  C1  UNL     1     -33.748  14.432  -4.100  1.00 20.00     0.005 C 
HETATM    2  C2  UNL     1     -35.292  14.292  -3.999  1.00 20.00     0.005 C 
HETATM    3  C3  UNL     1     -33.649  16.399  -2.585  1.00 20.00     0.005 C 
HETATM    4  C4  UNL     1     -35.049  15.907  -2.125  1.00 20.00     0.005 C 
HETATM    5  C7  UNL     1     -33.373  15.941  -4.033  1.00 20.00    -0.010 C 
HETATM    6  C8  UNL     1     -35.902  15.569  -3.382  1.00 20.00    -0.010 C 
ENDROOT
BRANCH   5   7
HETATM    7  C9  UNL     1     -34.334  16.599  -5.033  1.00 20.00    -0.006 C 
HETATM    8  C5  UNL     1     -34.557  16.837  -6.552  1.00 20.00     0.006 C 
HETATM    9  C6  UNL     1     -35.175  18.219  -6.064  1.00 20.00     0.006 C 
HETATM   10  C10 UNL     1     -34.051  18.145  -4.994  1.00 20.00    -0.006 C 
ENDBRANCH   5   7
TORSDOF 2
ENDMDL
MODEL 6
REMARK VINA RESULT:      -3.9      1.024      1.268
REMARK  2 active torsions:
REMARK  status: ('A' for Active; 'I' for Inactive)
REMARK    1  A    between atoms: C7_7  and  C9_9 
REMARK    2  A    between atoms: C8_8  and  C10_10 
ROOT
HETATM    1  C1  UNL     1     -35.523  14.392  -5.793  1.00 20.00     0.005 C 
HETATM    2  C2  UNL     1     -35.454  15.817  -6.407  1.00 20.00     0.005 C 
HETATM    3  C3  UNL     1     -37.219  15.015  -4.089  1.00 20.00     0.005 C 
HETATM    4  C4  UNL     1     -37.488  16.218  -5.036  1.00 20.00     0.005 C 
HETATM    5  C7  UNL     1     -35.770  14.514  -4.261  1.00 20.00    -0.010 C 
HETATM    6  C8  UNL     1     -36.125  16.836  -5.462  1.00 20.00    -0.010 C 
ENDROOT
BRANCH   5   7
HETATM    7  C9  UNL     1     -34.746  15.566  -3.811  1.00 20.00    -0.006 C 
HETATM    8  C5  UNL     1     -33.239  15.752  -3.476  1.00 20.00     0.006 C 
HETATM    9  C6  UNL     1     -33.789  16.798  -2.410  1.00 20.00     0.006 C 
HETATM   10  C10 UNL     1     -34.952  15.777  -2.266  1.00 20.00    -0.006 C 
ENDBRANCH   5   7
TORSDOF 2
ENDMDL
MODEL 7
REMARK VINA RESULT:      -3.9      0.845      2.367
REMARK  2 active torsions:
REMARK  status: ('A' for Active; 'I' for Inactive)
REMARK    1  A    between atoms: C7_7  and  C9_9 
REMARK    2  A    between atoms: C8_8  and  C10_10 
ROOT
HETATM    1  C1  UNL     1     -36.266  14.577  -4.206  1.00 20.00     0.005 C 
HETATM    2  C2  UNL     1     -35.012  13.701  -3.936  1.00 20.00     0.005 C 
HETATM    3  C3  UNL     1     -35.033  16.224  -5.600  1.00 20.00     0.005 C 
HETATM    4  C4  UNL     1     -33.988  15.082  -5.731  1.00 20.00     0.005 C 
HETATM    5  C7  UNL     1     -35.830  16.069  -4.287  1.00 20.00    -0.010 C 
HETATM    6  C8  UNL     1     -33.731  14.471  -4.323  1.00 20.00    -0.010 C 
ENDROOT
BRANCH   5   7
HETATM    7  C9  UNL     1     -34.936  16.254  -3.053  1.00 20.00    -0.006 C 
HETATM    8  C5  UNL     1     -34.990  16.438  -1.510  1.00 20.00     0.006 C 
HETATM    9  C6  UNL     1     -33.706  17.347  -1.753  1.00 20.00     0.006 C 
HETATM   10  C10 UNL     1     -34.452  17.750  -3.055  1.00 20.00    -0.006 C 
ENDBRANCH   5   7
TORSDOF 2
ENDMDL
MODEL 8
REMARK VINA RESULT:      -3.9      1.172      3.206
REMARK  2 active torsions:
REMARK  status: ('A' for Active; 'I' for Inactive)
REMARK    1  A    between atoms: C7_7  and  C9_9 
REMARK    2  A    between atoms: C8_8  and  C10_10 
ROOT
HETATM    1  C1  UNL     1     -35.085  15.859  -2.218  1.00 20.00     0.005 C 
HETATM    2  C2  UNL     1     -33.663  16.344  -2.610  1.00 20.00     0.005 C 
HETATM    3  C3  UNL     1     -35.221  14.201  -4.064  1.00 20.00     0.005 C 
HETATM    4  C4  UNL     1     -33.674  14.342  -4.082  1.00 20.00     0.005 C 
HETATM    5  C7  UNL     1     -35.867  15.490  -3.513  1.00 20.00    -0.010 C 
HETATM    6  C8  UNL     1     -33.305  15.853  -4.029  1.00 20.00    -0.010 C 
ENDROOT
BRANCH   5   7
HETATM    7  C9  UNL     1     -35.623  16.691  -4.438  1.00 20.00    -0.006 C 
HETATM    8  C5  UNL     1     -36.073  18.156  -4.698  1.00 20.00     0.006 C 
HETATM    9  C6  UNL     1     -35.818  17.776  -6.222  1.00 20.00     0.006 C 
HETATM   10  C10 UNL     1     -36.372  16.390  -5.788  1.00 20.00    -0.006 C 
ENDBRANCH   5   7
TORSDOF 2
ENDMDL
MODEL 9
REMARK VINA RESULT:      -3.8      1.217      3.505
REMARK  2 active torsions:
REMARK  status: ('A' for Active; 'I' for Inactive)
REMARK    1  A    between atoms: C7_7  and  C9_9 
REMARK    2  A    between atoms: C8_8  and  C10_10 
ROOT
HETATM    1  C1  UNL     1     -33.399  16.490  -2.658  1.00 20.00     0.005 C 
HETATM    2  C2  UNL     1     -34.659  16.550  -1.752  1.00 20.00     0.005 C 
HETATM    3  C3  UNL     1     -34.517  17.585  -4.588  1.00 20.00     0.005 C 
HETATM    4  C4  UNL     1     -35.528  18.073  -3.513  1.00 20.00     0.005 C 
HETATM    5  C7  UNL     1     -33.848  16.271  -4.132  1.00 20.00    -0.010 C 
HETATM    6  C8  UNL     1     -35.909  16.873  -2.598  1.00 20.00    -0.010 C 
ENDROOT
BRANCH   5   7
HETATM    7  C9  UNL     1     -34.859  15.119  -4.036  1.00 20.00    -0.006 C 
HETATM    8  C5  UNL     1     -34.956  13.574  -3.902  1.00 20.00     0.006 C 
HETATM    9  C6  UNL     1     -36.253  13.755  -4.806  1.00 20.00     0.006 C 
HETATM   10  C10 UNL     1     -35.411  14.869  -5.488  1.00 20.00    -0.006 C 
ENDBRANCH   5   7
TORSDOF 2
ENDMDL
