MODEL 1
REMARK VINA RESULT:      -5.6      0.000      0.000
REMARK  2 active torsions:
REMARK  status: ('A' for Active; 'I' for Inactive)
REMARK    1  A    between atoms: C1_1  and  C2_2 
REMARK    2  A    between atoms: C1_1  and  C3_3 
ROOT
HETATM    1  C1  UNL     1     -33.959   6.444   3.868  1.00 20.00     0.346 C 
HETATM    2  F4  UNL     1     -33.051   6.816   4.821  1.00 20.00    -0.234 F 
ENDROOT
BRANCH   1   3
HETATM    3  C2  UNL     1     -33.185   6.042   2.619  1.00 20.00     0.357 C 
HETATM    4  F5  UNL     1     -33.998   5.422   1.730  1.00 20.00    -0.184 F 
HETATM    5  F6  UNL     1     -32.207   5.160   2.943  1.00 20.00    -0.184 F 
HETATM    6 CL9  UNL     1     -32.454   7.456   1.834  1.00 20.00    -0.045 Cl
ENDBRANCH   1   3
BRANCH   1   7
HETATM    7  C3  UNL     1     -34.806   5.339   4.485  1.00 20.00     0.357 C 
HETATM    8  F7  UNL     1     -34.356   4.141   4.026  1.00 20.00    -0.184 F 
HETATM    9  F8  UNL     1     -36.092   5.453   4.066  1.00 20.00    -0.184 F 
HETATM   10 CL10 UNL     1     -34.758   5.320   6.255  1.00 20.00    -0.045 Cl
ENDBRANCH   1   7
TORSDOF 2
ENDMDL
MODEL 2
REMARK VINA RESULT:      -5.5      0.570      3.496
REMARK  2 active torsions:
REMARK  status: ('A' for Active; 'I' for Inactive)
REMARK    1  A    between atoms: C1_1  and  C2_2 
REMARK    2  A    between atoms: C1_1  and  C3_3 
ROOT
HETATM    1  C1  UNL     1     -33.693   6.107   4.006  1.00 20.00     0.346 C 
HETATM    2  F4  UNL     1     -34.245   7.359   4.004  1.00 20.00    -0.234 F 
ENDROOT
BRANCH   1   3
HETATM    3  C2  UNL     1     -34.755   5.131   4.493  1.00 20.00     0.357 C 
HETATM    4  F5  UNL     1     -34.496   3.878   4.045  1.00 20.00    -0.184 F 
HETATM    5  F6  UNL     1     -35.969   5.483   4.002  1.00 20.00    -0.184 F 
HETATM    6 CL9  UNL     1     -34.833   5.099   6.266  1.00 20.00    -0.045 Cl
ENDBRANCH   1   3
BRANCH   1   7
HETATM    7  C3  UNL     1     -33.187   5.857   2.591  1.00 20.00     0.357 C 
HETATM    8  F7  UNL     1     -34.245   5.518   1.806  1.00 20.00    -0.184 F 
HETATM    9  F8  UNL     1     -32.346   4.792   2.583  1.00 20.00    -0.184 F 
HETATM   10 CL10 UNL     1     -32.377   7.258   1.873  1.00 20.00    -0.045 Cl
ENDBRANCH   1   7
TORSDOF 2
ENDMDL
MODEL 3
REMARK VINA RESULT:      -5.1      1.083      1.291
REMARK  2 active torsions:
REMARK  status: ('A' for Active; 'I' for Inactive)
REMARK    1  A    between atoms: C1_1  and  C2_2 
REMARK    2  A    between atoms: C1_1  and  C3_3 
ROOT
HETATM    1  C1  UNL     1     -33.908   6.618   3.958  1.00 20.00     0.346 C 
HETATM    2  F4  UNL     1     -32.968   6.962   4.891  1.00 20.00    -0.234 F 
ENDROOT
BRANCH   1   3
HETATM    3  C2  UNL     1     -33.176   6.212   2.686  1.00 20.00     0.357 C 
HETATM    4  F5  UNL     1     -33.989   5.499   1.871  1.00 20.00    -0.184 F 
HETATM    5  F6  UNL     1     -32.123   5.413   2.991  1.00 20.00    -0.184 F 
HETATM    6 CL9  UNL     1     -32.587   7.635   1.803  1.00 20.00    -0.045 Cl
ENDBRANCH   1   3
BRANCH   1   7
HETATM    7  C3  UNL     1     -34.761   5.525   4.588  1.00 20.00     0.357 C 
HETATM    8  F7  UNL     1     -36.024   5.621   4.092  1.00 20.00    -0.184 F 
HETATM    9  F8  UNL     1     -34.857   5.727   5.927  1.00 20.00    -0.184 F 
HETATM   10 CL10 UNL     1     -34.155   3.891   4.276  1.00 20.00    -0.045 Cl
ENDBRANCH   1   7
TORSDOF 2
ENDMDL
MODEL 4
REMARK VINA RESULT:      -5.1      0.952      1.980
REMARK  2 active torsions:
REMARK  status: ('A' for Active; 'I' for Inactive)
REMARK    1  A    between atoms: C1_1  and  C2_2 
REMARK    2  A    between atoms: C1_1  and  C3_3 
ROOT
HETATM    1  C1  UNL     1     -33.380   5.496   3.386  1.00 20.00     0.346 C 
HETATM    2  F4  UNL     1     -33.775   5.087   2.141  1.00 20.00    -0.234 F 
ENDROOT
BRANCH   1   3
HETATM    3  C2  UNL     1     -33.094   6.990   3.317  1.00 20.00     0.357 C 
HETATM    4  F5  UNL     1     -32.189   7.350   4.258  1.00 20.00    -0.184 F 
HETATM    5  F6  UNL     1     -34.227   7.691   3.570  1.00 20.00    -0.184 F 
HETATM    6 CL9  UNL     1     -32.472   7.452   1.720  1.00 20.00    -0.045 Cl
ENDBRANCH   1   3
BRANCH   1   7
HETATM    7  C3  UNL     1     -34.493   5.096   4.346  1.00 20.00     0.357 C 
HETATM    8  F7  UNL     1     -34.450   3.748   4.521  1.00 20.00    -0.184 F 
HETATM    9  F8  UNL     1     -35.701   5.373   3.793  1.00 20.00    -0.184 F 
HETATM   10 CL10 UNL     1     -34.371   5.875   5.930  1.00 20.00    -0.045 Cl
ENDBRANCH   1   7
TORSDOF 2
ENDMDL
MODEL 5
REMARK VINA RESULT:      -5.1      0.928      1.726
REMARK  2 active torsions:
REMARK  status: ('A' for Active; 'I' for Inactive)
REMARK    1  A    between atoms: C1_1  and  C2_2 
REMARK    2  A    between atoms: C1_1  and  C3_3 
ROOT
HETATM    1  C1  UNL     1     -33.763   4.786   3.917  1.00 20.00     0.346 C 
HETATM    2  F4  UNL     1     -34.377   3.572   3.768  1.00 20.00    -0.234 F 
ENDROOT
BRANCH   1   3
HETATM    3  C2  UNL     1     -33.290   5.240   2.542  1.00 20.00     0.357 C 
HETATM    4  F5  UNL     1     -34.345   5.482   1.728  1.00 20.00    -0.184 F 
HETATM    5  F6  UNL     1     -32.555   4.262   1.957  1.00 20.00    -0.184 F 
HETATM    6 CL9  UNL     1     -32.307   6.714   2.657  1.00 20.00    -0.045 Cl
ENDBRANCH   1   3
BRANCH   1   7
HETATM    7  C3  UNL     1     -34.778   5.704   4.586  1.00 20.00     0.357 C 
HETATM    8  F7  UNL     1     -36.003   5.463   4.045  1.00 20.00    -0.184 F 
HETATM    9  F8  UNL     1     -34.483   6.999   4.307  1.00 20.00    -0.184 F 
HETATM   10 CL10 UNL     1     -34.881   5.482   6.339  1.00 20.00    -0.045 Cl
ENDBRANCH   1   7
TORSDOF 2
ENDMDL
MODEL 6
REMARK VINA RESULT:      -4.9      1.277      1.601
REMARK  2 active torsions:
REMARK  status: ('A' for Active; 'I' for Inactive)
REMARK    1  A    between atoms: C1_1  and  C2_2 
REMARK    2  A    between atoms: C1_1  and  C3_3 
ROOT
HETATM    1  C1  UNL     1     -33.928   6.756   4.166  1.00 20.00     0.346 C 
HETATM    2  F4  UNL     1     -33.180   7.068   5.268  1.00 20.00    -0.234 F 
ENDROOT
BRANCH   1   3
HETATM    3  C2  UNL     1     -32.980   6.627   2.981  1.00 20.00     0.357 C 
HETATM    4  F5  UNL     1     -31.709   6.918   3.349  1.00 20.00    -0.184 F 
HETATM    5  F6  UNL     1     -33.323   7.513   2.013  1.00 20.00    -0.184 F 
HETATM    6 CL9  UNL     1     -33.018   4.986   2.305  1.00 20.00    -0.045 Cl
ENDBRANCH   1   3
BRANCH   1   7
HETATM    7  C3  UNL     1     -34.702   5.491   4.513  1.00 20.00     0.357 C 
HETATM    8  F7  UNL     1     -34.084   4.430   3.927  1.00 20.00    -0.184 F 
HETATM    9  F8  UNL     1     -35.949   5.551   3.982  1.00 20.00    -0.184 F 
HETATM   10 CL10 UNL     1     -34.812   5.188   6.254  1.00 20.00    -0.045 Cl
ENDBRANCH   1   7
TORSDOF 2
ENDMDL
MODEL 7
REMARK VINA RESULT:      -4.8      1.869      3.385
REMARK  2 active torsions:
REMARK  status: ('A' for Active; 'I' for Inactive)
REMARK    1  A    between atoms: C1_1  and  C2_2 
REMARK    2  A    between atoms: C1_1  and  C3_3 
ROOT
HETATM    1  C1  UNL     1     -33.644   6.296   5.005  1.00 20.00     0.346 C 
HETATM    2  F4  UNL     1     -34.074   7.371   5.735  1.00 20.00    -0.234 F 
ENDROOT
BRANCH   1   3
HETATM    3  C2  UNL     1     -34.784   5.287   4.947  1.00 20.00     0.357 C 
HETATM    4  F5  UNL     1     -35.822   5.777   4.228  1.00 20.00    -0.184 F 
HETATM    5  F6  UNL     1     -35.250   5.040   6.197  1.00 20.00    -0.184 F 
HETATM    6 CL9  UNL     1     -34.251   3.760   4.215  1.00 20.00    -0.045 Cl
ENDBRANCH   1   3
BRANCH   1   7
HETATM    7  C3  UNL     1     -33.196   6.841   3.656  1.00 20.00     0.357 C 
HETATM    8  F7  UNL     1     -32.002   7.472   3.818  1.00 20.00    -0.184 F 
HETATM    9  F8  UNL     1     -34.072   7.783   3.223  1.00 20.00    -0.184 F 
HETATM   10 CL10 UNL     1     -33.009   5.590   2.417  1.00 20.00    -0.045 Cl
ENDBRANCH   1   7
TORSDOF 2
ENDMDL
MODEL 8
REMARK VINA RESULT:      -4.6      8.338      9.150
REMARK  2 active torsions:
REMARK  status: ('A' for Active; 'I' for Inactive)
REMARK    1  A    between atoms: C1_1  and  C2_2 
REMARK    2  A    between atoms: C1_1  and  C3_3 
ROOT
HETATM    1  C1  UNL     1     -41.850   7.007  -0.862  1.00 20.00     0.346 C 
HETATM    2  F4  UNL     1     -40.832   7.423  -1.675  1.00 20.00    -0.234 F 
ENDROOT
BRANCH   1   3
HETATM    3  C2  UNL     1     -41.767   5.490  -0.752  1.00 20.00     0.357 C 
HETATM    4  F5  UNL     1     -42.003   5.088   0.521  1.00 20.00    -0.184 F 
HETATM    5  F6  UNL     1     -40.518   5.069  -1.073  1.00 20.00    -0.184 F 
HETATM    6 CL9  UNL     1     -42.939   4.702  -1.827  1.00 20.00    -0.045 Cl
ENDBRANCH   1   3
BRANCH   1   7
HETATM    7  C3  UNL     1     -41.689   7.759   0.452  1.00 20.00     0.357 C 
HETATM    8  F7  UNL     1     -40.621   7.244   1.118  1.00 20.00    -0.184 F 
HETATM    9  F8  UNL     1     -42.773   7.547   1.242  1.00 20.00    -0.184 F 
HETATM   10 CL10 UNL     1     -41.439   9.499   0.242  1.00 20.00    -0.045 Cl
ENDBRANCH   1   7
TORSDOF 2
ENDMDL
MODEL 9
REMARK VINA RESULT:      -4.5      1.070      3.496
REMARK  2 active torsions:
REMARK  status: ('A' for Active; 'I' for Inactive)
REMARK    1  A    between atoms: C1_1  and  C2_2 
REMARK    2  A    between atoms: C1_1  and  C3_3 
ROOT
HETATM    1  C1  UNL     1     -33.648   5.546   2.852  1.00 20.00     0.346 C 
HETATM    2  F4  UNL     1     -32.581   4.697   2.749  1.00 20.00    -0.234 F 
ENDROOT
BRANCH   1   3
HETATM    3  C2  UNL     1     -34.469   5.119   4.062  1.00 20.00     0.357 C 
HETATM    4  F5  UNL     1     -34.295   3.800   4.317  1.00 20.00    -0.184 F 
HETATM    5  F6  UNL     1     -35.790   5.304   3.816  1.00 20.00    -0.184 F 
HETATM    6 CL9  UNL     1     -34.012   6.045   5.506  1.00 20.00    -0.045 Cl
ENDBRANCH   1   3
BRANCH   1   7
HETATM    7  C3  UNL     1     -33.074   6.955   2.927  1.00 20.00     0.357 C 
HETATM    8  F7  UNL     1     -31.971   6.931   3.723  1.00 20.00    -0.184 F 
HETATM    9  F8  UNL     1     -33.963   7.785   3.528  1.00 20.00    -0.184 F 
HETATM   10 CL10 UNL     1     -32.617   7.615   1.349  1.00 20.00    -0.045 Cl
ENDBRANCH   1   7
TORSDOF 2
ENDMDL
