MODEL 1
REMARK VINA RESULT:      -4.7      0.000      0.000
REMARK  1 active torsions:
REMARK  status: ('A' for Active; 'I' for Inactive)
REMARK    1  A    between atoms: C7_7  and  O10_10 
ROOT
HETATM    1  C1  UNL     1     -25.457  19.257   8.301  1.00 20.00     0.013 C 
HETATM    2  C2  UNL     1     -24.558  18.599   8.746  1.00 20.00    -0.102 C 
HETATM    3  C3  UNL     1     -23.587  17.046  10.553  1.00 20.00    -0.040 C 
HETATM    4  C4  UNL     1     -24.419  16.029  10.809  1.00 20.00     0.019 C 
HETATM    5  C5  UNL     1     -21.420  18.101  10.623  1.00 20.00     0.043 C 
HETATM    6  C6  UNL     1     -22.397  17.382   8.309  1.00 20.00     0.034 A 
HETATM    7  C7  UNL     1     -22.525  17.517  11.520  1.00 20.00     0.148 C 
HETATM    8  C8  UNL     1     -22.100  18.449   9.324  1.00 20.00     0.015 A 
HETATM    9  C9  UNL     1     -23.477  17.810   9.281  1.00 20.00     0.052 A 
ENDROOT
BRANCH   7  10
HETATM   10  O10 UNL     1     -23.078  18.547  12.332  1.00 20.00    -0.391 OA
HETATM   11  H20 UNL     1     -24.013  18.624  12.085  1.00 20.00     0.210 HD
ENDBRANCH   7  10
TORSDOF 1
ENDMDL
MODEL 2
REMARK VINA RESULT:      -4.5      1.560      2.938
REMARK  1 active torsions:
REMARK  status: ('A' for Active; 'I' for Inactive)
REMARK    1  A    between atoms: C7_7  and  O10_10 
ROOT
HETATM    1  C1  UNL     1     -21.293  16.951   8.165  1.00 20.00     0.013 C 
HETATM    2  C2  UNL     1     -22.030  17.367   9.016  1.00 20.00    -0.102 C 
HETATM    3  C3  UNL     1     -22.678  17.648  11.489  1.00 20.00    -0.040 C 
HETATM    4  C4  UNL     1     -21.641  18.094  12.209  1.00 20.00     0.019 C 
HETATM    5  C5  UNL     1     -25.033  17.253  11.156  1.00 20.00     0.043 C 
HETATM    6  C6  UNL     1     -23.826  19.013   9.650  1.00 20.00     0.034 A 
HETATM    7  C7  UNL     1     -23.858  16.919  12.090  1.00 20.00     0.148 C 
HETATM    8  C8  UNL     1     -24.404  17.641   9.843  1.00 20.00     0.015 A 
HETATM    9  C9  UNL     1     -22.915  17.867  10.036  1.00 20.00     0.052 A 
ENDROOT
BRANCH   7  10
HETATM   10  O10 UNL     1     -23.594  15.520  12.048  1.00 20.00    -0.391 OA
HETATM   11  H20 UNL     1     -22.738  15.386  12.486  1.00 20.00     0.210 HD
ENDBRANCH   7  10
TORSDOF 1
ENDMDL
MODEL 3
REMARK VINA RESULT:      -4.5     17.033     19.036
REMARK  1 active torsions:
REMARK  status: ('A' for Active; 'I' for Inactive)
REMARK    1  A    between atoms: C7_7  and  O10_10 
ROOT
HETATM    1  C1  UNL     1     -34.459  16.746  -1.517  1.00 20.00     0.013 C 
HETATM    2  C2  UNL     1     -34.712  16.176  -2.542  1.00 20.00    -0.102 C 
HETATM    3  C3  UNL     1     -36.240  15.766  -4.571  1.00 20.00    -0.040 C 
HETATM    4  C4  UNL     1     -36.568  16.920  -5.165  1.00 20.00     0.019 C 
HETATM    5  C5  UNL     1     -36.016  13.366  -4.546  1.00 20.00     0.043 C 
HETATM    6  C6  UNL     1     -33.855  14.833  -4.492  1.00 20.00     0.034 A 
HETATM    7  C7  UNL     1     -37.046  14.495  -4.716  1.00 20.00     0.148 C 
HETATM    8  C8  UNL     1     -34.869  13.979  -3.786  1.00 20.00     0.015 A 
HETATM    9  C9  UNL     1     -35.014  15.490  -3.773  1.00 20.00     0.052 A 
ENDROOT
BRANCH   7  10
HETATM   10  O10 UNL     1     -37.997  14.441  -3.658  1.00 20.00    -0.391 OA
HETATM   11  H20 UNL     1     -37.495  14.306  -2.839  1.00 20.00     0.210 HD
ENDBRANCH   7  10
TORSDOF 1
ENDMDL
MODEL 4
REMARK VINA RESULT:      -4.5     17.330     19.032
REMARK  1 active torsions:
REMARK  status: ('A' for Active; 'I' for Inactive)
REMARK    1  A    between atoms: C7_7  and  O10_10 
ROOT
HETATM    1  C1  UNL     1     -35.166  16.255  -1.907  1.00 20.00     0.013 C 
HETATM    2  C2  UNL     1     -35.052  15.568  -2.885  1.00 20.00    -0.102 C 
HETATM    3  C3  UNL     1     -33.676  14.712  -4.883  1.00 20.00    -0.040 C 
HETATM    4  C4  UNL     1     -32.462  14.306  -4.491  1.00 20.00     0.019 C 
HETATM    5  C5  UNL     1     -35.497  14.782  -6.462  1.00 20.00     0.043 C 
HETATM    6  C6  UNL     1     -35.857  13.564  -4.179  1.00 20.00     0.034 A 
HETATM    7  C7  UNL     1     -34.003  15.112  -6.304  1.00 20.00     0.148 C 
HETATM    8  C8  UNL     1     -36.054  14.763  -5.062  1.00 20.00     0.015 A 
HETATM    9  C9  UNL     1     -34.915  14.744  -4.059  1.00 20.00     0.052 A 
ENDROOT
BRANCH   7  10
HETATM   10  O10 UNL     1     -33.805  16.516  -6.434  1.00 20.00    -0.391 OA
HETATM   11  H20 UNL     1     -34.383  16.940  -5.781  1.00 20.00     0.210 HD
ENDBRANCH   7  10
TORSDOF 1
ENDMDL
MODEL 5
REMARK VINA RESULT:      -4.4     17.094     18.647
REMARK  1 active torsions:
REMARK  status: ('A' for Active; 'I' for Inactive)
REMARK    1  A    between atoms: C7_7  and  O10_10 
ROOT
HETATM    1  C1  UNL     1     -34.071  15.571  -7.491  1.00 20.00     0.013 C 
HETATM    2  C2  UNL     1     -34.096  15.255  -6.333  1.00 20.00    -0.102 C 
HETATM    3  C3  UNL     1     -35.388  14.572  -4.216  1.00 20.00    -0.040 C 
HETATM    4  C4  UNL     1     -36.244  13.577  -4.477  1.00 20.00     0.019 C 
HETATM    5  C5  UNL     1     -34.087  15.929  -2.705  1.00 20.00     0.043 C 
HETATM    6  C6  UNL     1     -32.840  14.333  -4.356  1.00 20.00     0.034 A 
HETATM    7  C7  UNL     1     -35.528  15.504  -3.034  1.00 20.00     0.148 C 
HETATM    8  C8  UNL     1     -33.305  15.709  -3.974  1.00 20.00     0.015 A 
HETATM    9  C9  UNL     1     -34.126  14.877  -4.943  1.00 20.00     0.052 A 
ENDROOT
BRANCH   7  10
HETATM   10  O10 UNL     1     -36.282  16.641  -3.443  1.00 20.00    -0.391 OA
HETATM   11  H20 UNL     1     -35.686  17.405  -3.386  1.00 20.00     0.210 HD
ENDBRANCH   7  10
TORSDOF 1
ENDMDL
MODEL 6
REMARK VINA RESULT:      -4.4      2.285      3.489
REMARK  1 active torsions:
REMARK  status: ('A' for Active; 'I' for Inactive)
REMARK    1  A    between atoms: C7_7  and  O10_10 
ROOT
HETATM    1  C1  UNL     1     -24.320  19.147   8.716  1.00 20.00     0.013 C 
HETATM    2  C2  UNL     1     -24.584  18.792   9.831  1.00 20.00    -0.102 C 
HETATM    3  C3  UNL     1     -24.067  17.395  11.929  1.00 20.00    -0.040 C 
HETATM    4  C4  UNL     1     -22.796  17.560  12.314  1.00 20.00     0.019 C 
HETATM    5  C5  UNL     1     -26.349  16.728  12.329  1.00 20.00     0.043 C 
HETATM    6  C6  UNL     1     -25.822  19.262  11.973  1.00 20.00     0.034 A 
HETATM    7  C7  UNL     1     -24.906  16.198  12.314  1.00 20.00     0.148 C 
HETATM    8  C8  UNL     1     -26.336  17.951  11.450  1.00 20.00     0.015 A 
HETATM    9  C9  UNL     1     -24.903  18.365  11.170  1.00 20.00     0.052 A 
ENDROOT
BRANCH   7  10
HETATM   10  O10 UNL     1     -24.769  15.206  11.301  1.00 20.00    -0.391 OA
HETATM   11  H20 UNL     1     -24.020  15.476  10.747  1.00 20.00     0.210 HD
ENDBRANCH   7  10
TORSDOF 1
ENDMDL
MODEL 7
REMARK VINA RESULT:      -4.3     16.728     18.238
REMARK  1 active torsions:
REMARK  status: ('A' for Active; 'I' for Inactive)
REMARK    1  A    between atoms: C7_7  and  O10_10 
ROOT
HETATM    1  C1  UNL     1     -37.377  16.706  -5.177  1.00 20.00     0.013 C 
HETATM    2  C2  UNL     1     -36.498  16.097  -4.632  1.00 20.00    -0.102 C 
HETATM    3  C3  UNL     1     -34.619  15.945  -2.882  1.00 20.00    -0.040 C 
HETATM    4  C4  UNL     1     -35.050  16.345  -1.679  1.00 20.00     0.019 C 
HETATM    5  C5  UNL     1     -33.062  14.793  -4.316  1.00 20.00     0.043 C 
HETATM    6  C6  UNL     1     -35.489  13.857  -4.084  1.00 20.00     0.034 A 
HETATM    7  C7  UNL     1     -33.161  15.924  -3.280  1.00 20.00     0.148 C 
HETATM    8  C8  UNL     1     -34.456  14.623  -4.860  1.00 20.00     0.015 A 
HETATM    9  C9  UNL     1     -35.443  15.367  -3.977  1.00 20.00     0.052 A 
ENDROOT
BRANCH   7  10
HETATM   10  O10 UNL     1     -32.843  17.168  -3.896  1.00 20.00    -0.391 OA
HETATM   11  H20 UNL     1     -33.637  17.723  -3.829  1.00 20.00     0.210 HD
ENDBRANCH   7  10
TORSDOF 1
ENDMDL
MODEL 8
REMARK VINA RESULT:      -4.2     15.555     17.653
REMARK  1 active torsions:
REMARK  status: ('A' for Active; 'I' for Inactive)
REMARK    1  A    between atoms: C7_7  and  O10_10 
ROOT
HETATM    1  C1  UNL     1     -32.161  18.024  -1.591  1.00 20.00     0.013 C 
HETATM    2  C2  UNL     1     -32.967  17.330  -2.148  1.00 20.00    -0.102 C 
HETATM    3  C3  UNL     1     -33.627  15.737  -4.057  1.00 20.00    -0.040 C 
HETATM    4  C4  UNL     1     -32.728  14.753  -4.192  1.00 20.00     0.019 C 
HETATM    5  C5  UNL     1     -35.805  16.703  -4.421  1.00 20.00     0.043 C 
HETATM    6  C6  UNL     1     -35.117  16.028  -1.993  1.00 20.00     0.034 A 
HETATM    7  C7  UNL     1     -34.569  16.163  -5.159  1.00 20.00     0.148 C 
HETATM    8  C8  UNL     1     -35.318  17.080  -3.046  1.00 20.00     0.015 A 
HETATM    9  C9  UNL     1     -33.935  16.497  -2.815  1.00 20.00     0.052 A 
ENDROOT
BRANCH   7  10
HETATM   10  O10 UNL     1     -33.954  17.213  -5.898  1.00 20.00    -0.391 OA
HETATM   11  H20 UNL     1     -33.529  16.801  -6.667  1.00 20.00     0.210 HD
ENDBRANCH   7  10
TORSDOF 1
ENDMDL
MODEL 9
REMARK VINA RESULT:      -4.2     23.088     24.375
REMARK  1 active torsions:
REMARK  status: ('A' for Active; 'I' for Inactive)
REMARK    1  A    between atoms: C7_7  and  O10_10 
ROOT
HETATM    1  C1  UNL     1     -43.394   4.756  -2.349  1.00 20.00     0.013 C 
HETATM    2  C2  UNL     1     -42.786   5.409  -1.546  1.00 20.00    -0.102 C 
HETATM    3  C3  UNL     1     -42.716   6.927   0.530  1.00 20.00    -0.040 C 
HETATM    4  C4  UNL     1     -43.417   6.393   1.538  1.00 20.00     0.019 C 
HETATM    5  C5  UNL     1     -41.067   8.448  -0.353  1.00 20.00     0.043 C 
HETATM    6  C6  UNL     1     -40.581   5.882  -0.427  1.00 20.00     0.034 A 
HETATM    7  C7  UNL     1     -42.391   8.399   0.428  1.00 20.00     0.148 C 
HETATM    8  C8  UNL     1     -41.002   7.149  -1.114  1.00 20.00     0.015 A 
HETATM    9  C9  UNL     1     -42.055   6.192  -0.583  1.00 20.00     0.052 A 
ENDROOT
BRANCH   7  10
HETATM   10  O10 UNL     1     -43.417   9.037  -0.326  1.00 20.00    -0.391 OA
HETATM   11  H20 UNL     1     -44.073   8.354  -0.536  1.00 20.00     0.210 HD
ENDBRANCH   7  10
TORSDOF 1
ENDMDL
