MODEL 1
REMARK VINA RESULT:      -5.0      0.000      0.000
REMARK  0 active torsions:
REMARK  status: ('A' for Active; 'I' for Inactive)
ROOT
HETATM    1  C1  UNL     1     -22.886  17.622   9.356  1.00 20.00     0.011 A 
HETATM    2  C2  UNL     1     -23.115  18.051   8.048  1.00 20.00     0.024 A 
HETATM    3  C3  UNL     1     -25.243  19.039   8.694  1.00 20.00     0.031 A 
HETATM    4  C4  UNL     1     -23.837  17.913  10.321  1.00 20.00    -0.033 A 
HETATM    5  C5  UNL     1     -25.001  18.621   9.992  1.00 20.00    -0.049 A 
HETATM    6  C6  UNL     1     -24.285  18.753   7.719  1.00 20.00     0.034 A 
HETATM    7  C7  UNL     1     -25.885  18.780  11.189  1.00 20.00     0.041 C 
HETATM    8  C8  UNL     1     -24.887  18.510  12.329  1.00 20.00     0.030 C 
HETATM    9  C9  UNL     1     -23.829  17.540  11.771  1.00 20.00     0.116 C 
HETATM   10 CL10 UNL     1     -24.545  19.263   6.094  1.00 20.00    -0.084 Cl
HETATM   11 CL11 UNL     1     -24.332  15.848  11.972  1.00 20.00    -0.120 Cl
ENDROOT
TORSDOF 0
ENDMDL
MODEL 2
REMARK VINA RESULT:      -4.9     13.620     15.115
REMARK  0 active torsions:
REMARK  status: ('A' for Active; 'I' for Inactive)
ROOT
HETATM    1  C1  UNL     1     -32.805  17.371  -2.326  1.00 20.00     0.011 A 
HETATM    2  C2  UNL     1     -33.100  16.287  -3.155  1.00 20.00     0.024 A 
HETATM    3  C3  UNL     1     -35.200  15.903  -1.987  1.00 20.00     0.031 A 
HETATM    4  C4  UNL     1     -33.716  17.711  -1.339  1.00 20.00    -0.033 A 
HETATM    5  C5  UNL     1     -34.905  16.987  -1.177  1.00 20.00    -0.049 A 
HETATM    6  C6  UNL     1     -34.288  15.558  -2.987  1.00 20.00     0.034 A 
HETATM    7  C7  UNL     1     -35.704  17.522  -0.030  1.00 20.00     0.041 C 
HETATM    8  C8  UNL     1     -35.077  18.917   0.139  1.00 20.00     0.030 C 
HETATM    9  C9  UNL     1     -33.612  18.804  -0.321  1.00 20.00     0.116 C 
HETATM   10 CL10 UNL     1     -34.621  14.221  -4.020  1.00 20.00    -0.084 Cl
HETATM   11 CL11 UNL     1     -32.553  18.301   1.013  1.00 20.00    -0.120 Cl
ENDROOT
TORSDOF 0
ENDMDL
MODEL 3
REMARK VINA RESULT:      -4.9     14.768     16.651
REMARK  0 active torsions:
REMARK  status: ('A' for Active; 'I' for Inactive)
ROOT
HETATM    1  C1  UNL     1     -32.739  16.638  -3.041  1.00 20.00     0.011 A 
HETATM    2  C2  UNL     1     -32.934  17.444  -1.918  1.00 20.00     0.024 A 
HETATM    3  C3  UNL     1     -35.167  16.535  -1.594  1.00 20.00     0.031 A 
HETATM    4  C4  UNL     1     -33.761  15.784  -3.424  1.00 20.00    -0.033 A 
HETATM    5  C5  UNL     1     -34.961  15.730  -2.701  1.00 20.00    -0.049 A 
HETATM    6  C6  UNL     1     -34.139  17.394  -1.200  1.00 20.00     0.034 A 
HETATM    7  C7  UNL     1     -35.917  14.763  -3.327  1.00 20.00     0.041 C 
HETATM    8  C8  UNL     1     -34.962  13.926  -4.196  1.00 20.00     0.030 C 
HETATM    9  C9  UNL     1     -33.799  14.853  -4.595  1.00 20.00     0.116 C 
HETATM   10 CL10 UNL     1     -34.353  18.406   0.177  1.00 20.00    -0.084 Cl
HETATM   11 CL11 UNL     1     -34.169  15.751  -6.082  1.00 20.00    -0.120 Cl
ENDROOT
TORSDOF 0
ENDMDL
MODEL 4
REMARK VINA RESULT:      -4.8      1.853      2.602
REMARK  0 active torsions:
REMARK  status: ('A' for Active; 'I' for Inactive)
ROOT
HETATM    1  C1  UNL     1     -24.711  18.584   8.986  1.00 20.00     0.011 A 
HETATM    2  C2  UNL     1     -23.668  18.425   8.071  1.00 20.00     0.024 A 
HETATM    3  C3  UNL     1     -22.587  16.793   9.516  1.00 20.00     0.031 A 
HETATM    4  C4  UNL     1     -24.682  17.840  10.153  1.00 20.00    -0.033 A 
HETATM    5  C5  UNL     1     -23.631  16.948  10.412  1.00 20.00    -0.049 A 
HETATM    6  C6  UNL     1     -22.614  17.538   8.335  1.00 20.00     0.034 A 
HETATM    7  C7  UNL     1     -23.805  16.290  11.745  1.00 20.00     0.041 C 
HETATM    8  C8  UNL     1     -25.301  16.541  12.003  1.00 20.00     0.030 C 
HETATM    9  C9  UNL     1     -25.661  17.855  11.286  1.00 20.00     0.116 C 
HETATM   10 CL10 UNL     1     -21.336  17.369   7.191  1.00 20.00    -0.084 Cl
HETATM   11 CL11 UNL     1     -25.369  19.263  12.330  1.00 20.00    -0.120 Cl
ENDROOT
TORSDOF 0
ENDMDL
MODEL 5
REMARK VINA RESULT:      -4.8     13.719     15.288
REMARK  0 active torsions:
REMARK  status: ('A' for Active; 'I' for Inactive)
ROOT
HETATM    1  C1  UNL     1     -32.799  17.057  -3.234  1.00 20.00     0.011 A 
HETATM    2  C2  UNL     1     -33.486  15.976  -3.788  1.00 20.00     0.024 A 
HETATM    3  C3  UNL     1     -35.070  15.976  -1.939  1.00 20.00     0.031 A 
HETATM    4  C4  UNL     1     -33.259  17.590  -2.041  1.00 20.00    -0.033 A 
HETATM    5  C5  UNL     1     -34.389  17.057  -1.404  1.00 20.00    -0.049 A 
HETATM    6  C6  UNL     1     -34.613  15.439  -3.145  1.00 20.00     0.034 A 
HETATM    7  C7  UNL     1     -34.667  17.775  -0.121  1.00 20.00     0.041 C 
HETATM    8  C8  UNL     1     -33.869  19.073  -0.333  1.00 20.00     0.030 C 
HETATM    9  C9  UNL     1     -32.682  18.720  -1.247  1.00 20.00     0.116 C 
HETATM   10 CL10 UNL     1     -35.436  14.098  -3.848  1.00 20.00    -0.084 Cl
HETATM   11 CL11 UNL     1     -31.284  18.158  -0.306  1.00 20.00    -0.120 Cl
ENDROOT
TORSDOF 0
ENDMDL
MODEL 6
REMARK VINA RESULT:      -4.7     13.855     15.579
REMARK  0 active torsions:
REMARK  status: ('A' for Active; 'I' for Inactive)
ROOT
HETATM    1  C1  UNL     1     -35.200  16.045  -1.893  1.00 20.00     0.011 A 
HETATM    2  C2  UNL     1     -34.973  15.338  -3.075  1.00 20.00     0.024 A 
HETATM    3  C3  UNL     1     -32.879  16.525  -3.438  1.00 20.00     0.031 A 
HETATM    4  C4  UNL     1     -34.259  16.980  -1.494  1.00 20.00    -0.033 A 
HETATM    5  C5  UNL     1     -33.107  17.212  -2.258  1.00 20.00    -0.049 A 
HETATM    6  C6  UNL     1     -33.822  15.577  -3.842  1.00 20.00     0.034 A 
HETATM    7  C7  UNL     1     -32.266  18.287  -1.643  1.00 20.00     0.041 C 
HETATM    8  C8  UNL     1     -32.817  18.305  -0.207  1.00 20.00     0.030 C 
HETATM    9  C9  UNL     1     -34.292  17.873  -0.292  1.00 20.00     0.116 C 
HETATM   10 CL10 UNL     1     -33.572  14.694  -5.301  1.00 20.00    -0.084 Cl
HETATM   11 CL11 UNL     1     -35.357  19.263  -0.589  1.00 20.00    -0.120 Cl
ENDROOT
TORSDOF 0
ENDMDL
MODEL 7
REMARK VINA RESULT:      -4.6     14.060     15.986
REMARK  0 active torsions:
REMARK  status: ('A' for Active; 'I' for Inactive)
ROOT
HETATM    1  C1  UNL     1     -32.807  17.601  -2.051  1.00 20.00     0.011 A 
HETATM    2  C2  UNL     1     -33.180  18.155  -0.825  1.00 20.00     0.024 A 
HETATM    3  C3  UNL     1     -35.222  16.831  -0.794  1.00 20.00     0.031 A 
HETATM    4  C4  UNL     1     -33.645  16.663  -2.631  1.00 20.00    -0.033 A 
HETATM    5  C5  UNL     1     -34.838  16.278  -2.004  1.00 20.00    -0.049 A 
HETATM    6  C6  UNL     1     -34.379  17.774  -0.201  1.00 20.00     0.034 A 
HETATM    7  C7  UNL     1     -35.583  15.284  -2.838  1.00 20.00     0.041 C 
HETATM    8  C8  UNL     1     -34.465  14.787  -3.771  1.00 20.00     0.030 C 
HETATM    9  C9  UNL     1     -33.477  15.956  -3.940  1.00 20.00     0.116 C 
HETATM   10 CL10 UNL     1     -34.816  18.480   1.308  1.00 20.00    -0.084 Cl
HETATM   11 CL11 UNL     1     -33.955  17.020  -5.279  1.00 20.00    -0.120 Cl
ENDROOT
TORSDOF 0
ENDMDL
MODEL 8
REMARK VINA RESULT:      -4.6      2.108      3.484
REMARK  0 active torsions:
REMARK  status: ('A' for Active; 'I' for Inactive)
ROOT
HETATM    1  C1  UNL     1     -24.590  19.067   9.173  1.00 20.00     0.011 A 
HETATM    2  C2  UNL     1     -25.875  19.263   9.681  1.00 20.00     0.024 A 
HETATM    3  C3  UNL     1     -25.240  18.255  11.803  1.00 20.00     0.031 A 
HETATM    4  C4  UNL     1     -23.642  18.472   9.990  1.00 20.00    -0.033 A 
HETATM    5  C5  UNL     1     -23.965  18.077  11.295  1.00 20.00    -0.049 A 
HETATM    6  C6  UNL     1     -26.198  18.859  10.986  1.00 20.00     0.034 A 
HETATM    7  C7  UNL     1     -22.791  17.431  11.963  1.00 20.00     0.041 C 
HETATM    8  C8  UNL     1     -21.638  17.930  11.076  1.00 20.00     0.030 C 
HETATM    9  C9  UNL     1     -22.220  18.136   9.665  1.00 20.00     0.116 C 
HETATM   10 CL10 UNL     1     -27.795  19.107  11.583  1.00 20.00    -0.084 Cl
HETATM   11 CL11 UNL     1     -22.146  16.640   8.710  1.00 20.00    -0.120 Cl
ENDROOT
TORSDOF 0
ENDMDL
MODEL 9
REMARK VINA RESULT:      -4.5      2.520      3.718
REMARK  0 active torsions:
REMARK  status: ('A' for Active; 'I' for Inactive)
ROOT
HETATM    1  C1  UNL     1     -25.509  16.959  12.273  1.00 20.00     0.011 A 
HETATM    2  C2  UNL     1     -26.784  17.526  12.332  1.00 20.00     0.024 A 
HETATM    3  C3  UNL     1     -26.239  19.054  10.518  1.00 20.00     0.031 A 
HETATM    4  C4  UNL     1     -24.616  17.443  11.332  1.00 20.00    -0.033 A 
HETATM    5  C5  UNL     1     -24.982  18.477  10.458  1.00 20.00    -0.049 A 
HETATM    6  C6  UNL     1     -27.146  18.567  11.462  1.00 20.00     0.034 A 
HETATM    7  C7  UNL     1     -23.841  18.847   9.562  1.00 20.00     0.041 C 
HETATM    8  C8  UNL     1     -22.950  17.600   9.691  1.00 20.00     0.030 C 
HETATM    9  C9  UNL     1     -23.200  17.020  11.095  1.00 20.00     0.116 C 
HETATM   10 CL10 UNL     1     -28.723  19.253  11.563  1.00 20.00    -0.084 Cl
HETATM   11 CL11 UNL     1     -22.128  17.761  12.302  1.00 20.00    -0.120 Cl
ENDROOT
TORSDOF 0
ENDMDL
