MODEL 1
REMARK VINA RESULT:      -4.4      0.000      0.000
REMARK  2 active torsions:
REMARK  status: ('A' for Active; 'I' for Inactive)
REMARK    1  A    between atoms: C7_7  and  C9_9 
REMARK    2  A    between atoms: C8_8  and  C10_10 
ROOT
HETATM    1  C1  UNL     1     -33.669  14.761  -5.576  1.00 20.00     0.005 C 
HETATM    2  C2  UNL     1     -34.925  15.187  -6.348  1.00 20.00     0.005 C 
HETATM    3  C3  UNL     1     -35.094  13.547  -3.925  1.00 20.00     0.005 C 
HETATM    4  C4  UNL     1     -36.357  13.978  -4.701  1.00 20.00     0.005 C 
HETATM    5  C7  UNL     1     -33.984  14.607  -4.079  1.00 20.00    -0.010 C 
HETATM    6  C8  UNL     1     -36.120  15.336  -5.394  1.00 20.00    -0.010 C 
ENDROOT
BRANCH   5   7
HETATM    7  C9  UNL     1     -34.543  15.920  -3.501  1.00 20.00    -0.006 A 
HETATM    8  C5  UNL     1     -34.926  16.058  -2.012  1.00 20.00     0.006 A 
HETATM    9  C6  UNL     1     -33.790  17.073  -1.808  1.00 20.00     0.006 A 
HETATM   10  C10 UNL     1     -33.402  16.944  -3.297  1.00 20.00    -0.006 A 
ENDBRANCH   5   7
TORSDOF 2
ENDMDL
MODEL 2
REMARK VINA RESULT:      -4.2     10.678     12.293
REMARK  2 active torsions:
REMARK  status: ('A' for Active; 'I' for Inactive)
REMARK    1  A    between atoms: C7_7  and  C9_9 
REMARK    2  A    between atoms: C8_8  and  C10_10 
ROOT
HETATM    1  C1  UNL     1     -40.796   5.169  -0.975  1.00 20.00     0.005 C 
HETATM    2  C2  UNL     1     -41.992   4.685  -1.804  1.00 20.00     0.005 C 
HETATM    3  C3  UNL     1     -42.213   5.159   1.080  1.00 20.00     0.005 C 
HETATM    4  C4  UNL     1     -43.417   4.674   0.244  1.00 20.00     0.005 C 
HETATM    5  C7  UNL     1     -41.272   6.022   0.212  1.00 20.00    -0.010 C 
HETATM    6  C8  UNL     1     -43.309   5.200  -1.203  1.00 20.00    -0.010 C 
ENDROOT
BRANCH   5   7
HETATM    7  C9  UNL     1     -42.101   7.224  -0.277  1.00 20.00    -0.006 A 
HETATM    8  C5  UNL     1     -42.750   8.222   0.706  1.00 20.00     0.006 A 
HETATM    9  C6  UNL     1     -41.820   9.334   0.198  1.00 20.00     0.006 A 
HETATM   10  C10 UNL     1     -41.167   8.344  -0.790  1.00 20.00    -0.006 A 
ENDBRANCH   5   7
TORSDOF 2
ENDMDL
MODEL 3
REMARK VINA RESULT:      -4.2      1.000      2.437
REMARK  2 active torsions:
REMARK  status: ('A' for Active; 'I' for Inactive)
REMARK    1  A    between atoms: C7_7  and  C9_9 
REMARK    2  A    between atoms: C8_8  and  C10_10 
ROOT
HETATM    1  C1  UNL     1     -36.449  15.461  -4.040  1.00 20.00     0.005 C 
HETATM    2  C2  UNL     1     -35.886  14.036  -4.119  1.00 20.00     0.005 C 
HETATM    3  C3  UNL     1     -34.393  16.335  -5.153  1.00 20.00     0.005 C 
HETATM    4  C4  UNL     1     -33.827  14.902  -5.229  1.00 20.00     0.005 C 
HETATM    5  C7  UNL     1     -35.308  16.484  -3.919  1.00 20.00    -0.010 C 
HETATM    6  C8  UNL     1     -34.352  14.056  -4.049  1.00 20.00    -0.010 C 
ENDROOT
BRANCH   5   7
HETATM    7  C9  UNL     1     -34.438  16.187  -2.684  1.00 20.00    -0.006 A 
HETATM    8  C5  UNL     1     -33.237  17.078  -2.299  1.00 20.00     0.006 A 
HETATM    9  C6  UNL     1     -33.966  17.516  -1.020  1.00 20.00     0.006 A 
HETATM   10  C10 UNL     1     -35.170  16.626  -1.395  1.00 20.00    -0.006 A 
ENDBRANCH   5   7
TORSDOF 2
ENDMDL
MODEL 4
REMARK VINA RESULT:      -4.0      1.123      2.475
REMARK  2 active torsions:
REMARK  status: ('A' for Active; 'I' for Inactive)
REMARK    1  A    between atoms: C7_7  and  C9_9 
REMARK    2  A    between atoms: C8_8  and  C10_10 
ROOT
HETATM    1  C1  UNL     1     -37.417  15.936  -4.143  1.00 20.00     0.005 C 
HETATM    2  C2  UNL     1     -37.539  14.412  -4.265  1.00 20.00     0.005 C 
HETATM    3  C3  UNL     1     -35.627  15.933  -5.882  1.00 20.00     0.005 C 
HETATM    4  C4  UNL     1     -35.748  14.399  -6.002  1.00 20.00     0.005 C 
HETATM    5  C7  UNL     1     -35.980  16.388  -4.450  1.00 20.00    -0.010 C 
HETATM    6  C8  UNL     1     -36.188  13.791  -4.653  1.00 20.00    -0.010 C 
ENDROOT
BRANCH   5   7
HETATM    7  C9  UNL     1     -34.978  15.698  -3.507  1.00 20.00    -0.006 A 
HETATM    8  C5  UNL     1     -33.474  16.045  -3.519  1.00 20.00     0.006 A 
HETATM    9  C6  UNL     1     -33.592  16.629  -2.103  1.00 20.00     0.006 A 
HETATM   10  C10 UNL     1     -35.096  16.283  -2.080  1.00 20.00    -0.006 A 
ENDBRANCH   5   7
TORSDOF 2
ENDMDL
MODEL 5
REMARK VINA RESULT:      -4.0      1.328      3.480
REMARK  2 active torsions:
REMARK  status: ('A' for Active; 'I' for Inactive)
REMARK    1  A    between atoms: C7_7  and  C9_9 
REMARK    2  A    between atoms: C8_8  and  C10_10 
ROOT
HETATM    1  C1  UNL     1     -35.071  15.894  -2.150  1.00 20.00     0.005 C 
HETATM    2  C2  UNL     1     -33.681  16.499  -2.387  1.00 20.00     0.005 C 
HETATM    3  C3  UNL     1     -34.637  14.197  -3.928  1.00 20.00     0.005 C 
HETATM    4  C4  UNL     1     -33.240  14.808  -4.167  1.00 20.00     0.005 C 
HETATM    5  C7  UNL     1     -35.622  15.284  -3.449  1.00 20.00    -0.010 C 
HETATM    6  C8  UNL     1     -33.257  16.319  -3.852  1.00 20.00    -0.010 C 
ENDROOT
BRANCH   5   7
HETATM    7  C9  UNL     1     -35.687  16.344  -4.564  1.00 20.00    -0.006 A 
HETATM    8  C5  UNL     1     -36.329  16.046  -5.936  1.00 20.00     0.006 A 
HETATM    9  C6  UNL     1     -37.445  17.058  -5.639  1.00 20.00     0.006 A 
HETATM   10  C10 UNL     1     -36.809  17.366  -4.267  1.00 20.00    -0.006 A 
ENDBRANCH   5   7
TORSDOF 2
ENDMDL
MODEL 6
REMARK VINA RESULT:      -4.0      1.892      4.863
REMARK  2 active torsions:
REMARK  status: ('A' for Active; 'I' for Inactive)
REMARK    1  A    between atoms: C7_7  and  C9_9 
REMARK    2  A    between atoms: C8_8  and  C10_10 
ROOT
HETATM    1  C1  UNL     1     -32.391  18.909  -2.545  1.00 20.00     0.005 C 
HETATM    2  C2  UNL     1     -31.819  18.779  -1.127  1.00 20.00     0.005 C 
HETATM    3  C3  UNL     1     -34.694  19.085  -1.601  1.00 20.00     0.005 C 
HETATM    4  C4  UNL     1     -34.118  18.952  -0.176  1.00 20.00     0.005 C 
HETATM    5  C7  UNL     1     -33.810  18.322  -2.609  1.00 20.00    -0.010 C 
HETATM    6  C8  UNL     1     -32.833  18.098  -0.196  1.00 20.00    -0.010 C 
ENDROOT
BRANCH   5   7
HETATM    7  C9  UNL     1     -33.810  16.846  -2.169  1.00 20.00    -0.006 A 
HETATM    8  C5  UNL     1     -35.102  16.002  -2.145  1.00 20.00     0.006 A 
HETATM    9  C6  UNL     1     -34.549  15.114  -3.271  1.00 20.00     0.006 A 
HETATM   10  C10 UNL     1     -33.251  15.950  -3.300  1.00 20.00    -0.006 A 
ENDBRANCH   5   7
TORSDOF 2
ENDMDL
MODEL 7
REMARK VINA RESULT:      -4.0      1.573      3.071
REMARK  2 active torsions:
REMARK  status: ('A' for Active; 'I' for Inactive)
REMARK    1  A    between atoms: C7_7  and  C9_9 
REMARK    2  A    between atoms: C8_8  and  C10_10 
ROOT
HETATM    1  C1  UNL     1     -33.570  14.475  -4.328  1.00 20.00     0.005 C 
HETATM    2  C2  UNL     1     -34.947  14.026  -3.822  1.00 20.00     0.005 C 
HETATM    3  C3  UNL     1     -33.586  16.368  -2.702  1.00 20.00     0.005 C 
HETATM    4  C4  UNL     1     -34.973  15.918  -2.195  1.00 20.00     0.005 C 
HETATM    5  C7  UNL     1     -33.415  15.998  -4.190  1.00 20.00    -0.010 C 
HETATM    6  C8  UNL     1     -35.761  15.234  -3.332  1.00 20.00    -0.010 C 
ENDROOT
BRANCH   5   7
HETATM    7  C9  UNL     1     -34.529  16.731  -4.960  1.00 20.00    -0.006 A 
HETATM    8  C5  UNL     1     -34.484  18.255  -5.206  1.00 20.00     0.006 A 
HETATM    9  C6  UNL     1     -34.332  18.011  -6.715  1.00 20.00     0.006 A 
HETATM   10  C10 UNL     1     -34.380  16.487  -6.480  1.00 20.00    -0.006 A 
ENDBRANCH   5   7
TORSDOF 2
ENDMDL
MODEL 8
REMARK VINA RESULT:      -3.9      1.313      3.781
REMARK  2 active torsions:
REMARK  status: ('A' for Active; 'I' for Inactive)
REMARK    1  A    between atoms: C7_7  and  C9_9 
REMARK    2  A    between atoms: C8_8  and  C10_10 
ROOT
HETATM    1  C1  UNL     1     -33.372  16.834  -3.382  1.00 20.00     0.005 C 
HETATM    2  C2  UNL     1     -33.536  16.981  -1.864  1.00 20.00     0.005 C 
HETATM    3  C3  UNL     1     -35.674  17.739  -3.720  1.00 20.00     0.005 C 
HETATM    4  C4  UNL     1     -35.839  17.884  -2.193  1.00 20.00     0.005 C 
HETATM    5  C7  UNL     1     -34.731  16.561  -4.047  1.00 20.00    -0.010 C 
HETATM    6  C8  UNL     1     -35.009  16.808  -1.461  1.00 20.00    -0.010 C 
ENDROOT
BRANCH   5   7
HETATM    7  C9  UNL     1     -35.382  15.297  -3.458  1.00 20.00    -0.006 A 
HETATM    8  C5  UNL     1     -36.711  14.732  -4.006  1.00 20.00     0.006 A 
HETATM    9  C6  UNL     1     -35.977  13.478  -4.506  1.00 20.00     0.006 A 
HETATM   10  C10 UNL     1     -34.645  14.032  -3.957  1.00 20.00    -0.006 A 
ENDBRANCH   5   7
TORSDOF 2
ENDMDL
MODEL 9
REMARK VINA RESULT:      -3.9      0.884      1.086
REMARK  2 active torsions:
REMARK  status: ('A' for Active; 'I' for Inactive)
REMARK    1  A    between atoms: C7_7  and  C9_9 
REMARK    2  A    between atoms: C8_8  and  C10_10 
ROOT
HETATM    1  C1  UNL     1     -35.075  15.035  -6.240  1.00 20.00     0.005 C 
HETATM    2  C2  UNL     1     -36.434  15.725  -6.419  1.00 20.00     0.005 C 
HETATM    3  C3  UNL     1     -35.996  13.714  -4.333  1.00 20.00     0.005 C 
HETATM    4  C4  UNL     1     -37.362  14.410  -4.513  1.00 20.00     0.005 C 
HETATM    5  C7  UNL     1     -34.854  14.657  -4.766  1.00 20.00    -0.010 C 
HETATM    6  C8  UNL     1     -37.165  15.835  -5.073  1.00 20.00    -0.010 C 
ENDROOT
BRANCH   5   7
HETATM    7  C9  UNL     1     -34.941  15.902  -3.864  1.00 20.00    -0.006 A 
HETATM    8  C5  UNL     1     -34.725  15.821  -2.338  1.00 20.00     0.006 A 
HETATM    9  C6  UNL     1     -33.445  16.660  -2.469  1.00 20.00     0.006 A 
HETATM   10  C10 UNL     1     -33.654  16.750  -3.996  1.00 20.00    -0.006 A 
ENDBRANCH   5   7
TORSDOF 2
ENDMDL
