MODEL 1
REMARK VINA RESULT:      -3.1      0.000      0.000
REMARK  0 active torsions:
REMARK  status: ('A' for Active; 'I' for Inactive)
ROOT
HETATM    1  C1  UNL     1     -34.643  14.850  -5.435  1.00 20.00     0.175 C 
HETATM    2  C2  UNL     1     -36.298  15.955  -3.477  1.00 20.00     0.175 C 
HETATM    3  C3  UNL     1     -34.916  17.621  -5.241  1.00 20.00     0.175 C 
HETATM    4  C4  UNL     1     -33.526  16.214  -3.272  1.00 20.00     0.175 C 
HETATM    5  S5  UNL     1     -36.203  14.515  -4.575  1.00 20.00    -0.117 SA
HETATM    6  S6  UNL     1     -34.703  16.324  -6.490  1.00 20.00    -0.117 SA
HETATM    7  S7  UNL     1     -36.500  17.525  -4.362  1.00 20.00    -0.117 SA
HETATM    8  S8  UNL     1     -33.192  14.795  -4.351  1.00 20.00    -0.117 SA
HETATM    9  S9  UNL     1     -34.988  15.996  -2.224  1.00 20.00    -0.117 SA
HETATM   10  S10 UNL     1     -33.489  17.806  -4.139  1.00 20.00    -0.117 SA
ENDROOT
TORSDOF 0
ENDMDL
MODEL 2
REMARK VINA RESULT:      -3.0      0.037      2.788
REMARK  0 active torsions:
REMARK  status: ('A' for Active; 'I' for Inactive)
ROOT
HETATM    1  C1  UNL     1     -34.656  14.859  -5.418  1.00 20.00     0.175 C 
HETATM    2  C2  UNL     1     -33.537  16.210  -3.247  1.00 20.00     0.175 C 
HETATM    3  C3  UNL     1     -36.311  15.997  -3.480  1.00 20.00     0.175 C 
HETATM    4  C4  UNL     1     -34.885  17.633  -5.234  1.00 20.00     0.175 C 
HETATM    5  S5  UNL     1     -33.218  14.782  -4.318  1.00 20.00    -0.117 SA
HETATM    6  S6  UNL     1     -36.229  14.551  -4.571  1.00 20.00    -0.117 SA
HETATM    7  S7  UNL     1     -35.014  16.020  -2.213  1.00 20.00    -0.117 SA
HETATM    8  S8  UNL     1     -34.681  16.329  -6.478  1.00 20.00    -0.117 SA
HETATM    9  S9  UNL     1     -33.466  17.798  -4.120  1.00 20.00    -0.117 SA
HETATM   10  S10 UNL     1     -36.478  17.566  -4.371  1.00 20.00    -0.117 SA
ENDROOT
TORSDOF 0
ENDMDL
MODEL 3
REMARK VINA RESULT:      -3.0      0.039      2.802
REMARK  0 active torsions:
REMARK  status: ('A' for Active; 'I' for Inactive)
ROOT
HETATM    1  C1  UNL     1     -36.313  15.984  -3.505  1.00 20.00     0.175 C 
HETATM    2  C2  UNL     1     -34.892  17.652  -5.234  1.00 20.00     0.175 C 
HETATM    3  C3  UNL     1     -34.649  14.880  -5.456  1.00 20.00     0.175 C 
HETATM    4  C4  UNL     1     -33.542  16.207  -3.264  1.00 20.00     0.175 C 
HETATM    5  S5  UNL     1     -36.487  17.564  -4.376  1.00 20.00    -0.117 SA
HETATM    6  S6  UNL     1     -36.223  14.554  -4.616  1.00 20.00    -0.117 SA
HETATM    7  S7  UNL     1     -34.679  16.366  -6.494  1.00 20.00    -0.117 SA
HETATM    8  S8  UNL     1     -35.019  15.995  -2.235  1.00 20.00    -0.117 SA
HETATM    9  S9  UNL     1     -33.476  17.807  -4.113  1.00 20.00    -0.117 SA
HETATM   10  S10 UNL     1     -33.212  14.796  -4.355  1.00 20.00    -0.117 SA
ENDROOT
TORSDOF 0
ENDMDL
MODEL 4
REMARK VINA RESULT:      -3.0      0.045      2.784
REMARK  0 active torsions:
REMARK  status: ('A' for Active; 'I' for Inactive)
ROOT
HETATM    1  C1  UNL     1     -36.314  15.931  -3.532  1.00 20.00     0.175 C 
HETATM    2  C2  UNL     1     -33.550  16.218  -3.271  1.00 20.00     0.175 C 
HETATM    3  C3  UNL     1     -34.918  17.622  -5.258  1.00 20.00     0.175 C 
HETATM    4  C4  UNL     1     -34.611  14.856  -5.464  1.00 20.00     0.175 C 
HETATM    5  S5  UNL     1     -35.031  15.979  -2.253  1.00 20.00    -0.117 SA
HETATM    6  S6  UNL     1     -36.516  17.504  -4.411  1.00 20.00    -0.117 SA
HETATM    7  S7  UNL     1     -33.513  17.816  -4.128  1.00 20.00    -0.117 SA
HETATM    8  S8  UNL     1     -36.184  14.498  -4.635  1.00 20.00    -0.117 SA
HETATM    9  S9  UNL     1     -33.181  14.810  -4.352  1.00 20.00    -0.117 SA
HETATM   10  S10 UNL     1     -34.666  16.336  -6.510  1.00 20.00    -0.117 SA
ENDROOT
TORSDOF 0
ENDMDL
MODEL 5
REMARK VINA RESULT:      -3.0      0.066      3.236
REMARK  0 active torsions:
REMARK  status: ('A' for Active; 'I' for Inactive)
ROOT
HETATM    1  C1  UNL     1     -36.300  15.916  -3.543  1.00 20.00     0.175 C 
HETATM    2  C2  UNL     1     -34.570  14.872  -5.469  1.00 20.00     0.175 C 
HETATM    3  C3  UNL     1     -33.541  16.235  -3.261  1.00 20.00     0.175 C 
HETATM    4  C4  UNL     1     -34.912  17.633  -5.249  1.00 20.00     0.175 C 
HETATM    5  S5  UNL     1     -36.143  14.491  -4.651  1.00 20.00    -0.117 SA
HETATM    6  S6  UNL     1     -35.026  15.971  -2.254  1.00 20.00    -0.117 SA
HETATM    7  S7  UNL     1     -33.146  14.838  -4.346  1.00 20.00    -0.117 SA
HETATM    8  S8  UNL     1     -36.515  17.491  -4.414  1.00 20.00    -0.117 SA
HETATM    9  S9  UNL     1     -34.636  16.357  -6.506  1.00 20.00    -0.117 SA
HETATM   10  S10 UNL     1     -33.518  17.837  -4.108  1.00 20.00    -0.117 SA
ENDROOT
TORSDOF 0
ENDMDL
MODEL 6
REMARK VINA RESULT:      -3.0      0.078      2.804
REMARK  0 active torsions:
REMARK  status: ('A' for Active; 'I' for Inactive)
ROOT
HETATM    1  C1  UNL     1     -33.537  16.239  -3.230  1.00 20.00     0.175 C 
HETATM    2  C2  UNL     1     -34.653  14.920  -5.422  1.00 20.00     0.175 C 
HETATM    3  C3  UNL     1     -34.877  17.693  -5.200  1.00 20.00     0.175 C 
HETATM    4  C4  UNL     1     -36.309  16.035  -3.472  1.00 20.00     0.175 C 
HETATM    5  S5  UNL     1     -33.216  14.827  -4.321  1.00 20.00    -0.117 SA
HETATM    6  S6  UNL     1     -33.459  17.839  -4.079  1.00 20.00    -0.117 SA
HETATM    7  S7  UNL     1     -34.672  16.406  -6.460  1.00 20.00    -0.117 SA
HETATM    8  S8  UNL     1     -35.016  16.037  -2.201  1.00 20.00    -0.117 SA
HETATM    9  S9  UNL     1     -36.228  14.605  -4.583  1.00 20.00    -0.117 SA
HETATM   10  S10 UNL     1     -36.471  17.617  -4.342  1.00 20.00    -0.117 SA
ENDROOT
TORSDOF 0
ENDMDL
MODEL 7
REMARK VINA RESULT:      -3.0      0.056      2.813
REMARK  0 active torsions:
REMARK  status: ('A' for Active; 'I' for Inactive)
ROOT
HETATM    1  C1  UNL     1     -34.716  14.835  -5.429  1.00 20.00     0.175 C 
HETATM    2  C2  UNL     1     -34.913  17.614  -5.250  1.00 20.00     0.175 C 
HETATM    3  C3  UNL     1     -33.553  16.181  -3.278  1.00 20.00     0.175 C 
HETATM    4  C4  UNL     1     -36.331  15.996  -3.472  1.00 20.00     0.175 C 
HETATM    5  S5  UNL     1     -34.738  16.304  -6.492  1.00 20.00    -0.117 SA
HETATM    6  S6  UNL     1     -33.262  14.748  -4.350  1.00 20.00    -0.117 SA
HETATM    7  S7  UNL     1     -33.477  17.767  -4.155  1.00 20.00    -0.117 SA
HETATM    8  S8  UNL     1     -36.281  14.546  -4.560  1.00 20.00    -0.117 SA
HETATM    9  S9  UNL     1     -36.495  17.565  -4.366  1.00 20.00    -0.117 SA
HETATM   10  S10 UNL     1     -35.017  16.009  -2.223  1.00 20.00    -0.117 SA
ENDROOT
TORSDOF 0
ENDMDL
MODEL 8
REMARK VINA RESULT:      -3.0      0.055      2.794
REMARK  0 active torsions:
REMARK  status: ('A' for Active; 'I' for Inactive)
ROOT
HETATM    1  C1  UNL     1     -33.557  16.226  -3.264  1.00 20.00     0.175 C 
HETATM    2  C2  UNL     1     -36.332  16.011  -3.469  1.00 20.00     0.175 C 
HETATM    3  C3  UNL     1     -34.696  14.888  -5.432  1.00 20.00     0.175 C 
HETATM    4  C4  UNL     1     -34.927  17.661  -5.227  1.00 20.00     0.175 C 
HETATM    5  S5  UNL     1     -35.022  16.026  -2.216  1.00 20.00    -0.117 SA
HETATM    6  S6  UNL     1     -33.245  14.806  -4.348  1.00 20.00    -0.117 SA
HETATM    7  S7  UNL     1     -36.261  14.573  -4.571  1.00 20.00    -0.117 SA
HETATM    8  S8  UNL     1     -33.495  17.821  -4.125  1.00 20.00    -0.117 SA
HETATM    9  S9  UNL     1     -36.510  17.586  -4.348  1.00 20.00    -0.117 SA
HETATM   10  S10 UNL     1     -34.734  16.366  -6.481  1.00 20.00    -0.117 SA
ENDROOT
TORSDOF 0
ENDMDL
MODEL 9
REMARK VINA RESULT:      -3.0      0.096      2.780
REMARK  0 active torsions:
REMARK  status: ('A' for Active; 'I' for Inactive)
ROOT
HETATM    1  C1  UNL     1     -35.031  17.588  -5.300  1.00 20.00     0.175 C 
HETATM    2  C2  UNL     1     -36.361  15.938  -3.483  1.00 20.00     0.175 C 
HETATM    3  C3  UNL     1     -33.593  16.255  -3.313  1.00 20.00     0.175 C 
HETATM    4  C4  UNL     1     -34.705  14.820  -5.432  1.00 20.00     0.175 C 
HETATM    5  S5  UNL     1     -36.602  17.483  -4.402  1.00 20.00    -0.117 SA
HETATM    6  S6  UNL     1     -33.596  17.827  -4.217  1.00 20.00    -0.117 SA
HETATM    7  S7  UNL     1     -35.041  16.034  -2.244  1.00 20.00    -0.117 SA
HETATM    8  S8  UNL     1     -34.804  16.267  -6.520  1.00 20.00    -0.117 SA
HETATM    9  S9  UNL     1     -36.249  14.475  -4.547  1.00 20.00    -0.117 SA
HETATM   10  S10 UNL     1     -33.242  14.819  -4.361  1.00 20.00    -0.117 SA
ENDROOT
TORSDOF 0
ENDMDL
