MODEL 1
REMARK VINA RESULT:      -4.0      0.000      0.000
REMARK  4 active torsions:
REMARK  status: ('A' for Active; 'I' for Inactive)
REMARK    1  A    between atoms: C1_1  and  O8_8 
REMARK    2  A    between atoms: C5_5  and  C6_6 
REMARK    3  A    between atoms: C6_6  and  C7_7 
REMARK    4  A    between atoms: C7_7  and  O8_8 
ROOT
HETATM    1  C4  UNL     1     -33.170   5.274   2.055  1.00 20.00     0.040 C 
HETATM    2  C7  UNL     1     -32.818   6.319   3.105  1.00 20.00     0.125 C 
ENDROOT
BRANCH   2   3
HETATM    3  C6  UNL     1     -32.183   7.561   2.471  1.00 20.00     0.032 C 
BRANCH   3   4
HETATM    4  C5  UNL     1     -32.547   7.702   0.991  1.00 20.00    -0.002 C 
HETATM    5  C3  UNL     1     -32.960   9.126   0.654  1.00 20.00     0.005 C 
ENDBRANCH   3   4
ENDBRANCH   2   3
BRANCH   2   6
HETATM    6  O8  UNL     1     -34.006   6.680   3.806  1.00 20.00    -0.340 OA
BRANCH   6   7
HETATM    7  C1  UNL     1     -34.188   6.329   5.098  1.00 20.00     0.109 C 
HETATM    8  C2  UNL     1     -33.681   7.224   6.184  1.00 20.00     0.089 C 
HETATM    9  S9  UNL     1     -34.977   4.890   5.384  1.00 20.00    -0.058 SA
ENDBRANCH   6   7
ENDBRANCH   2   6
TORSDOF 4
ENDMDL
MODEL 2
REMARK VINA RESULT:      -3.6     15.879     16.693
REMARK  4 active torsions:
REMARK  status: ('A' for Active; 'I' for Inactive)
REMARK    1  A    between atoms: C1_1  and  O8_8 
REMARK    2  A    between atoms: C5_5  and  C6_6 
REMARK    3  A    between atoms: C6_6  and  C7_7 
REMARK    4  A    between atoms: C7_7  and  O8_8 
ROOT
HETATM    1  C4  UNL     1     -21.770  17.149   8.926  1.00 20.00     0.040 C 
HETATM    2  C7  UNL     1     -22.889  17.656   9.826  1.00 20.00     0.125 C 
ENDROOT
BRANCH   2   3
HETATM    3  C6  UNL     1     -22.433  17.762  11.285  1.00 20.00     0.032 C 
BRANCH   3   4
HETATM    4  C5  UNL     1     -23.456  17.163  12.253  1.00 20.00    -0.002 C 
HETATM    5  C3  UNL     1     -24.383  16.186  11.546  1.00 20.00     0.005 C 
ENDBRANCH   3   4
ENDBRANCH   2   3
BRANCH   2   6
HETATM    6  O8  UNL     1     -23.315  18.932   9.352  1.00 20.00    -0.340 OA
BRANCH   6   7
HETATM    7  C1  UNL     1     -24.569  19.121   8.887  1.00 20.00     0.109 C 
HETATM    8  C2  UNL     1     -25.701  19.263   9.856  1.00 20.00     0.089 C 
HETATM    9  S9  UNL     1     -24.760  19.177   7.233  1.00 20.00    -0.058 SA
ENDBRANCH   6   7
ENDBRANCH   2   6
TORSDOF 4
ENDMDL
MODEL 3
REMARK VINA RESULT:      -3.4     11.223     11.894
REMARK  4 active torsions:
REMARK  status: ('A' for Active; 'I' for Inactive)
REMARK    1  A    between atoms: C1_1  and  O8_8 
REMARK    2  A    between atoms: C5_5  and  C6_6 
REMARK    3  A    between atoms: C6_6  and  C7_7 
REMARK    4  A    between atoms: C7_7  and  O8_8 
ROOT
HETATM    1  C4  UNL     1     -35.147  16.304  -1.657  1.00 20.00     0.040 C 
HETATM    2  C7  UNL     1     -34.353  16.229  -2.954  1.00 20.00     0.125 C 
ENDROOT
BRANCH   2   3
HETATM    3  C6  UNL     1     -32.911  16.712  -2.760  1.00 20.00     0.032 C 
BRANCH   3   4
HETATM    4  C5  UNL     1     -32.852  18.138  -2.207  1.00 20.00    -0.002 C 
HETATM    5  C3  UNL     1     -31.843  18.253  -1.075  1.00 20.00     0.005 C 
ENDBRANCH   3   4
ENDBRANCH   2   3
BRANCH   2   6
HETATM    6  O8  UNL     1     -34.359  14.881  -3.417  1.00 20.00    -0.340 OA
BRANCH   6   7
HETATM    7  C1  UNL     1     -34.974  14.542  -4.572  1.00 20.00     0.109 C 
HETATM    8  C2  UNL     1     -36.207  13.695  -4.528  1.00 20.00     0.089 C 
HETATM    9  S9  UNL     1     -34.291  15.103  -5.984  1.00 20.00    -0.058 SA
ENDBRANCH   6   7
ENDBRANCH   2   6
TORSDOF 4
ENDMDL
MODEL 4
REMARK VINA RESULT:      -3.3     11.511     12.582
REMARK  4 active torsions:
REMARK  status: ('A' for Active; 'I' for Inactive)
REMARK    1  A    between atoms: C1_1  and  O8_8 
REMARK    2  A    between atoms: C5_5  and  C6_6 
REMARK    3  A    between atoms: C6_6  and  C7_7 
REMARK    4  A    between atoms: C7_7  and  O8_8 
ROOT
HETATM    1  C4  UNL     1     -32.775  18.939  -4.029  1.00 20.00     0.040 C 
HETATM    2  C7  UNL     1     -32.917  18.279  -2.663  1.00 20.00     0.125 C 
ENDROOT
BRANCH   2   3
HETATM    3  C6  UNL     1     -32.957  16.751  -2.779  1.00 20.00     0.032 C 
BRANCH   3   4
HETATM    4  C5  UNL     1     -34.307  16.176  -2.342  1.00 20.00    -0.002 C 
HETATM    5  C3  UNL     1     -34.769  15.071  -3.278  1.00 20.00     0.005 C 
ENDBRANCH   3   4
ENDBRANCH   2   3
BRANCH   2   6
HETATM    6  O8  UNL     1     -31.822  18.680  -1.845  1.00 20.00    -0.340 OA
BRANCH   6   7
HETATM    7  C1  UNL     1     -31.932  18.717  -0.499  1.00 20.00     0.109 C 
HETATM    8  C2  UNL     1     -30.781  18.274   0.347  1.00 20.00     0.089 C 
HETATM    9  S9  UNL     1     -33.378  19.261   0.125  1.00 20.00    -0.058 SA
ENDBRANCH   6   7
ENDBRANCH   2   6
TORSDOF 4
ENDMDL
MODEL 5
REMARK VINA RESULT:      -3.3     11.668     12.757
REMARK  4 active torsions:
REMARK  status: ('A' for Active; 'I' for Inactive)
REMARK    1  A    between atoms: C1_1  and  O8_8 
REMARK    2  A    between atoms: C5_5  and  C6_6 
REMARK    3  A    between atoms: C6_6  and  C7_7 
REMARK    4  A    between atoms: C7_7  and  O8_8 
ROOT
HETATM    1  C4  UNL     1     -37.592  14.388  -4.296  1.00 20.00     0.040 C 
HETATM    2  C7  UNL     1     -36.223  14.855  -4.774  1.00 20.00     0.125 C 
ENDROOT
BRANCH   2   3
HETATM    3  C6  UNL     1     -35.105  14.355  -3.853  1.00 20.00     0.032 C 
BRANCH   3   4
HETATM    4  C5  UNL     1     -34.572  15.462  -2.941  1.00 20.00    -0.002 C 
HETATM    5  C3  UNL     1     -33.209  15.954  -3.404  1.00 20.00     0.005 C 
ENDBRANCH   3   4
ENDBRANCH   2   3
BRANCH   2   6
HETATM    6  O8  UNL     1     -36.015  14.379  -6.101  1.00 20.00    -0.340 OA
BRANCH   6   7
HETATM    7  C1  UNL     1     -35.453  15.166  -7.045  1.00 20.00     0.109 C 
HETATM    8  C2  UNL     1     -33.972  15.122  -7.254  1.00 20.00     0.089 C 
HETATM    9  S9  UNL     1     -36.478  16.147  -7.918  1.00 20.00    -0.058 SA
ENDBRANCH   6   7
ENDBRANCH   2   6
TORSDOF 4
ENDMDL
MODEL 6
REMARK VINA RESULT:      -3.3     11.066     11.798
REMARK  4 active torsions:
REMARK  status: ('A' for Active; 'I' for Inactive)
REMARK    1  A    between atoms: C1_1  and  O8_8 
REMARK    2  A    between atoms: C5_5  and  C6_6 
REMARK    3  A    between atoms: C6_6  and  C7_7 
REMARK    4  A    between atoms: C7_7  and  O8_8 
ROOT
HETATM    1  C4  UNL     1     -35.240  16.434  -1.541  1.00 20.00     0.040 C 
HETATM    2  C7  UNL     1     -34.373  16.378  -2.792  1.00 20.00     0.125 C 
ENDROOT
BRANCH   2   3
HETATM    3  C6  UNL     1     -32.975  16.949  -2.534  1.00 20.00     0.032 C 
BRANCH   3   4
HETATM    4  C5  UNL     1     -32.984  18.021  -1.442  1.00 20.00    -0.002 C 
HETATM    5  C3  UNL     1     -31.596  18.228  -0.856  1.00 20.00     0.005 C 
ENDBRANCH   3   4
ENDBRANCH   2   3
BRANCH   2   6
HETATM    6  O8  UNL     1     -34.277  15.022  -3.221  1.00 20.00    -0.340 OA
BRANCH   6   7
HETATM    7  C1  UNL     1     -34.714  14.643  -4.443  1.00 20.00     0.109 C 
HETATM    8  C2  UNL     1     -33.862  14.906  -5.644  1.00 20.00     0.089 C 
HETATM    9  S9  UNL     1     -36.203  13.900  -4.515  1.00 20.00    -0.058 SA
ENDBRANCH   6   7
ENDBRANCH   2   6
TORSDOF 4
ENDMDL
MODEL 7
REMARK VINA RESULT:      -3.3      2.399      3.972
REMARK  4 active torsions:
REMARK  status: ('A' for Active; 'I' for Inactive)
REMARK    1  A    between atoms: C1_1  and  O8_8 
REMARK    2  A    between atoms: C5_5  and  C6_6 
REMARK    3  A    between atoms: C6_6  and  C7_7 
REMARK    4  A    between atoms: C7_7  and  O8_8 
ROOT
HETATM    1  C4  UNL     1     -33.790   3.821   3.518  1.00 20.00     0.040 C 
HETATM    2  C7  UNL     1     -33.968   5.210   2.918  1.00 20.00     0.125 C 
ENDROOT
BRANCH   2   3
HETATM    3  C6  UNL     1     -34.659   6.162   3.901  1.00 20.00     0.032 C 
BRANCH   3   4
HETATM    4  C5  UNL     1     -34.839   5.531   5.284  1.00 20.00    -0.002 C 
HETATM    5  C3  UNL     1     -34.225   6.397   6.373  1.00 20.00     0.005 C 
ENDBRANCH   3   4
ENDBRANCH   2   3
BRANCH   2   6
HETATM    6  O8  UNL     1     -32.687   5.721   2.560  1.00 20.00    -0.340 OA
BRANCH   6   7
HETATM    7  C1  UNL     1     -32.430   7.047   2.594  1.00 20.00     0.109 C 
HETATM    8  C2  UNL     1     -31.871   7.656   3.841  1.00 20.00     0.089 C 
HETATM    9  S9  UNL     1     -32.768   7.918   1.215  1.00 20.00    -0.058 SA
ENDBRANCH   6   7
ENDBRANCH   2   6
TORSDOF 4
ENDMDL
MODEL 8
REMARK VINA RESULT:      -3.3      2.495      4.558
REMARK  4 active torsions:
REMARK  status: ('A' for Active; 'I' for Inactive)
REMARK    1  A    between atoms: C1_1  and  O8_8 
REMARK    2  A    between atoms: C5_5  and  C6_6 
REMARK    3  A    between atoms: C6_6  and  C7_7 
REMARK    4  A    between atoms: C7_7  and  O8_8 
ROOT
HETATM    1  C4  UNL     1     -32.980   4.953   2.428  1.00 20.00     0.040 C 
HETATM    2  C7  UNL     1     -33.444   6.383   2.673  1.00 20.00     0.125 C 
ENDROOT
BRANCH   2   3
HETATM    3  C6  UNL     1     -33.862   6.596   4.132  1.00 20.00     0.032 C 
BRANCH   3   4
HETATM    4  C5  UNL     1     -34.899   5.567   4.589  1.00 20.00    -0.002 C 
HETATM    5  C3  UNL     1     -34.755   5.254   6.070  1.00 20.00     0.005 C 
ENDBRANCH   3   4
ENDBRANCH   2   3
BRANCH   2   6
HETATM    6  O8  UNL     1     -32.384   7.273   2.333  1.00 20.00    -0.340 OA
BRANCH   6   7
HETATM    7  C1  UNL     1     -32.442   8.034   1.218  1.00 20.00     0.109 C 
HETATM    8  C2  UNL     1     -31.782   7.556  -0.036  1.00 20.00     0.089 C 
HETATM    9  S9  UNL     1     -33.260   9.481   1.334  1.00 20.00    -0.058 SA
ENDBRANCH   6   7
ENDBRANCH   2   6
TORSDOF 4
ENDMDL
MODEL 9
REMARK VINA RESULT:      -3.3     11.440     11.988
REMARK  4 active torsions:
REMARK  status: ('A' for Active; 'I' for Inactive)
REMARK    1  A    between atoms: C1_1  and  O8_8 
REMARK    2  A    between atoms: C5_5  and  C6_6 
REMARK    3  A    between atoms: C6_6  and  C7_7 
REMARK    4  A    between atoms: C7_7  and  O8_8 
ROOT
HETATM    1  C4  UNL     1     -33.047  15.885  -3.415  1.00 20.00     0.040 C 
HETATM    2  C7  UNL     1     -34.487  15.490  -3.116  1.00 20.00     0.125 C 
ENDROOT
BRANCH   2   3
HETATM    3  C6  UNL     1     -35.029  16.229  -1.887  1.00 20.00     0.032 C 
BRANCH   3   4
HETATM    4  C5  UNL     1     -34.103  17.365  -1.444  1.00 20.00    -0.002 C 
HETATM    5  C3  UNL     1     -34.461  17.861  -0.052  1.00 20.00     0.005 C 
ENDBRANCH   3   4
ENDBRANCH   2   3
BRANCH   2   6
HETATM    6  O8  UNL     1     -35.288  15.785  -4.257  1.00 20.00    -0.340 OA
BRANCH   6   7
HETATM    7  C1  UNL     1     -35.662  14.812  -5.118  1.00 20.00     0.109 C 
HETATM    8  C2  UNL     1     -36.274  13.554  -4.588  1.00 20.00     0.089 C 
HETATM    9  S9  UNL     1     -35.400  15.098  -6.738  1.00 20.00    -0.058 SA
ENDBRANCH   6   7
ENDBRANCH   2   6
TORSDOF 4
ENDMDL
