MODEL 1
REMARK VINA RESULT:      -4.0      0.000      0.000
REMARK  2 active torsions:
REMARK  status: ('A' for Active; 'I' for Inactive)
REMARK    1  A    between atoms: C5_5  and  C6_6 
REMARK    2  A    between atoms: C5_5  and  O8_8 
ROOT
HETATM    1  C1  UNL     1     -22.396  17.406   8.248  1.00 20.00     0.228 C 
HETATM    2  N7  UNL     1     -22.057  17.759   7.195  1.00 20.00    -0.164 NA
HETATM    3  O8  UNL     1     -22.778  16.993   9.454  1.00 20.00    -0.283 OA
ENDROOT
BRANCH   3   4
HETATM    4  C5  UNL     1     -23.729  17.894  10.009  1.00 20.00     0.198 C 
BRANCH   4   5
HETATM    5  C6  UNL     1     -24.051  17.526  11.471  1.00 20.00    -0.029 C 
HETATM    6  C2  UNL     1     -25.201  18.400  12.000  1.00 20.00     0.016 C 
HETATM    7  C3  UNL     1     -22.800  17.762  12.332  1.00 20.00     0.016 C 
HETATM    8  C4  UNL     1     -24.463  16.048  11.571  1.00 20.00     0.016 C 
ENDBRANCH   4   5
ENDBRANCH   3   4
TORSDOF 2
ENDMDL
MODEL 2
REMARK VINA RESULT:      -3.9     16.132     16.951
REMARK  2 active torsions:
REMARK  status: ('A' for Active; 'I' for Inactive)
REMARK    1  A    between atoms: C5_5  and  C6_6 
REMARK    2  A    between atoms: C5_5  and  O8_8 
ROOT
HETATM    1  C1  UNL     1     -32.701   7.222   2.097  1.00 20.00     0.228 C 
HETATM    2  N7  UNL     1     -32.591   8.108   1.356  1.00 20.00    -0.164 NA
HETATM    3  O8  UNL     1     -32.821   6.199   2.940  1.00 20.00    -0.283 OA
ENDROOT
BRANCH   3   4
HETATM    4  C5  UNL     1     -33.604   6.573   4.068  1.00 20.00     0.198 C 
BRANCH   4   5
HETATM    5  C6  UNL     1     -34.561   5.436   4.479  1.00 20.00    -0.029 C 
HETATM    6  C2  UNL     1     -34.054   4.090   3.935  1.00 20.00     0.016 C 
HETATM    7  C3  UNL     1     -35.955   5.723   3.900  1.00 20.00     0.016 C 
HETATM    8  C4  UNL     1     -34.657   5.349   6.011  1.00 20.00     0.016 C 
ENDBRANCH   4   5
ENDBRANCH   3   4
TORSDOF 2
ENDMDL
MODEL 3
REMARK VINA RESULT:      -3.8      1.487      2.140
REMARK  2 active torsions:
REMARK  status: ('A' for Active; 'I' for Inactive)
REMARK    1  A    between atoms: C5_5  and  C6_6 
REMARK    2  A    between atoms: C5_5  and  O8_8 
ROOT
HETATM    1  C1  UNL     1     -24.284  18.767   7.837  1.00 20.00     0.228 C 
HETATM    2  N7  UNL     1     -23.957  18.885   6.729  1.00 20.00    -0.164 NA
HETATM    3  O8  UNL     1     -24.670  18.634   9.103  1.00 20.00    -0.283 OA
ENDROOT
BRANCH   3   4
HETATM    4  C5  UNL     1     -23.561  18.296   9.928  1.00 20.00     0.198 C 
BRANCH   4   5
HETATM    5  C6  UNL     1     -24.031  17.691  11.266  1.00 20.00    -0.029 C 
HETATM    6  C2  UNL     1     -24.386  16.206  11.083  1.00 20.00     0.016 C 
HETATM    7  C3  UNL     1     -25.274  18.453  11.750  1.00 20.00     0.016 C 
HETATM    8  C4  UNL     1     -22.920  17.810  12.323  1.00 20.00     0.016 C 
ENDBRANCH   4   5
ENDBRANCH   3   4
TORSDOF 2
ENDMDL
MODEL 4
REMARK VINA RESULT:      -3.8     17.828     18.781
REMARK  2 active torsions:
REMARK  status: ('A' for Active; 'I' for Inactive)
REMARK    1  A    between atoms: C5_5  and  C6_6 
REMARK    2  A    between atoms: C5_5  and  O8_8 
ROOT
HETATM    1  C1  UNL     1     -36.843  14.029  -4.284  1.00 20.00     0.228 C 
HETATM    2  N7  UNL     1     -37.991  14.028  -4.461  1.00 20.00    -0.164 NA
HETATM    3  O8  UNL     1     -35.527  14.021  -4.087  1.00 20.00    -0.283 OA
ENDROOT
BRANCH   3   4
HETATM    4  C5  UNL     1     -35.142  15.112  -3.259  1.00 20.00     0.198 C 
BRANCH   4   5
HETATM    5  C6  UNL     1     -33.873  15.798  -3.804  1.00 20.00    -0.029 C 
HETATM    6  C2  UNL     1     -33.185  16.607  -2.690  1.00 20.00     0.016 C 
HETATM    7  C3  UNL     1     -34.268  16.745  -4.947  1.00 20.00     0.016 C 
HETATM    8  C4  UNL     1     -32.885  14.746  -4.336  1.00 20.00     0.016 C 
ENDBRANCH   4   5
ENDBRANCH   3   4
TORSDOF 2
ENDMDL
MODEL 5
REMARK VINA RESULT:      -3.8     17.790     18.745
REMARK  2 active torsions:
REMARK  status: ('A' for Active; 'I' for Inactive)
REMARK    1  A    between atoms: C5_5  and  C6_6 
REMARK    2  A    between atoms: C5_5  and  O8_8 
ROOT
HETATM    1  C1  UNL     1     -36.776  14.017  -4.284  1.00 20.00     0.228 C 
HETATM    2  N7  UNL     1     -37.912  14.019  -4.523  1.00 20.00    -0.164 NA
HETATM    3  O8  UNL     1     -35.472  14.004  -4.017  1.00 20.00    -0.283 OA
ENDROOT
BRANCH   3   4
HETATM    4  C5  UNL     1     -35.119  15.125  -3.216  1.00 20.00     0.198 C 
BRANCH   4   5
HETATM    5  C6  UNL     1     -33.868  15.832  -3.774  1.00 20.00    -0.029 C 
HETATM    6  C2  UNL     1     -34.265  16.816  -4.889  1.00 20.00     0.016 C 
HETATM    7  C3  UNL     1     -32.911  14.776  -4.348  1.00 20.00     0.016 C 
HETATM    8  C4  UNL     1     -33.152  16.610  -2.657  1.00 20.00     0.016 C 
ENDBRANCH   4   5
ENDBRANCH   3   4
TORSDOF 2
ENDMDL
MODEL 6
REMARK VINA RESULT:      -3.7     17.798     18.764
REMARK  2 active torsions:
REMARK  status: ('A' for Active; 'I' for Inactive)
REMARK    1  A    between atoms: C5_5  and  C6_6 
REMARK    2  A    between atoms: C5_5  and  O8_8 
ROOT
HETATM    1  C1  UNL     1     -36.777  13.997  -4.298  1.00 20.00     0.228 C 
HETATM    2  N7  UNL     1     -37.914  13.983  -4.532  1.00 20.00    -0.164 NA
HETATM    3  O8  UNL     1     -35.472  14.002  -4.035  1.00 20.00    -0.283 OA
ENDROOT
BRANCH   3   4
HETATM    4  C5  UNL     1     -35.130  15.132  -3.241  1.00 20.00     0.198 C 
BRANCH   4   5
HETATM    5  C6  UNL     1     -33.867  15.828  -3.786  1.00 20.00    -0.029 C 
HETATM    6  C2  UNL     1     -32.883  14.786  -4.344  1.00 20.00     0.016 C 
HETATM    7  C3  UNL     1     -33.191  16.601  -2.643  1.00 20.00     0.016 C 
HETATM    8  C4  UNL     1     -34.241  16.810  -4.909  1.00 20.00     0.016 C 
ENDBRANCH   4   5
ENDBRANCH   3   4
TORSDOF 2
ENDMDL
MODEL 7
REMARK VINA RESULT:      -3.6     17.178     17.994
REMARK  2 active torsions:
REMARK  status: ('A' for Active; 'I' for Inactive)
REMARK    1  A    between atoms: C5_5  and  C6_6 
REMARK    2  A    between atoms: C5_5  and  O8_8 
ROOT
HETATM    1  C1  UNL     1     -35.638  13.892  -4.363  1.00 20.00     0.228 C 
HETATM    2  N7  UNL     1     -35.913  12.776  -4.525  1.00 20.00    -0.164 NA
HETATM    3  O8  UNL     1     -35.330  15.175  -4.185  1.00 20.00    -0.283 OA
ENDROOT
BRANCH   3   4
HETATM    4  C5  UNL     1     -34.346  15.313  -3.167  1.00 20.00     0.198 C 
BRANCH   4   5
HETATM    5  C6  UNL     1     -34.391  16.721  -2.541  1.00 20.00    -0.029 C 
HETATM    6  C2  UNL     1     -32.965  17.232  -2.275  1.00 20.00     0.016 C 
HETATM    7  C3  UNL     1     -35.160  16.653  -1.213  1.00 20.00     0.016 C 
HETATM    8  C4  UNL     1     -35.102  17.702  -3.489  1.00 20.00     0.016 C 
ENDBRANCH   4   5
ENDBRANCH   3   4
TORSDOF 2
ENDMDL
MODEL 8
REMARK VINA RESULT:      -3.6     17.804     18.624
REMARK  2 active torsions:
REMARK  status: ('A' for Active; 'I' for Inactive)
REMARK    1  A    between atoms: C5_5  and  C6_6 
REMARK    2  A    between atoms: C5_5  and  O8_8 
ROOT
HETATM    1  C1  UNL     1     -36.610  14.164  -4.591  1.00 20.00     0.228 C 
HETATM    2  N7  UNL     1     -37.676  13.763  -4.367  1.00 20.00    -0.164 NA
HETATM    3  O8  UNL     1     -35.391  14.626  -4.858  1.00 20.00    -0.283 OA
ENDROOT
BRANCH   3   4
HETATM    4  C5  UNL     1     -34.605  14.670  -3.673  1.00 20.00     0.198 C 
BRANCH   4   5
HETATM    5  C6  UNL     1     -34.458  16.117  -3.161  1.00 20.00    -0.029 C 
HETATM    6  C2  UNL     1     -35.031  17.107  -4.189  1.00 20.00     0.016 C 
HETATM    7  C3  UNL     1     -32.968  16.420  -2.941  1.00 20.00     0.016 C 
HETATM    8  C4  UNL     1     -35.211  16.290  -1.831  1.00 20.00     0.016 C 
ENDBRANCH   4   5
ENDBRANCH   3   4
TORSDOF 2
ENDMDL
MODEL 9
REMARK VINA RESULT:      -3.5     23.352     24.021
REMARK  2 active torsions:
REMARK  status: ('A' for Active; 'I' for Inactive)
REMARK    1  A    between atoms: C5_5  and  C6_6 
REMARK    2  A    between atoms: C5_5  and  O8_8 
ROOT
HETATM    1  C1  UNL     1     -41.389   9.076  -0.215  1.00 20.00     0.228 C 
HETATM    2  N7  UNL     1     -41.400  10.015   0.468  1.00 20.00    -0.164 NA
HETATM    3  O8  UNL     1     -41.365   8.002  -1.001  1.00 20.00    -0.283 OA
ENDROOT
BRANCH   3   4
HETATM    4  C5  UNL     1     -42.593   7.291  -0.907  1.00 20.00     0.198 C 
BRANCH   4   5
HETATM    5  C6  UNL     1     -42.347   5.801  -0.594  1.00 20.00    -0.029 C 
HETATM    6  C2  UNL     1     -42.543   5.533   0.908  1.00 20.00     0.016 C 
HETATM    7  C3  UNL     1     -40.907   5.439  -0.989  1.00 20.00     0.016 C 
HETATM    8  C4  UNL     1     -43.327   4.921  -1.388  1.00 20.00     0.016 C 
ENDBRANCH   4   5
ENDBRANCH   3   4
TORSDOF 2
ENDMDL
