MODEL 1
REMARK VINA RESULT:      -5.4      0.000      0.000
REMARK  0 active torsions:
REMARK  status: ('A' for Active; 'I' for Inactive)
ROOT
HETATM    1  C1  UNL     1     -22.417  17.676   7.940  1.00 20.00     0.083 C 
HETATM    2  C2  UNL     1     -24.297  17.933  12.200  1.00 20.00    -0.003 A 
HETATM    3  C3  UNL     1     -25.281  17.113  11.607  1.00 20.00    -0.011 A 
HETATM    4  C4  UNL     1     -25.148  18.344  11.041  1.00 20.00    -0.006 A 
HETATM    5  C5  UNL     1     -23.252  17.182  11.719  1.00 20.00    -0.016 C 
HETATM    6  C6  UNL     1     -22.352  16.908   9.230  1.00 20.00     0.052 C 
HETATM    7  C7  UNL     1     -24.263  15.971  11.748  1.00 20.00     0.023 C 
HETATM    8  C8  UNL     1     -24.529  18.430   8.567  1.00 20.00     0.153 C 
HETATM    9  C9  UNL     1     -24.042  18.700   9.994  1.00 20.00     0.022 C 
HETATM   10  C10 UNL     1     -22.740  17.859  10.338  1.00 20.00     0.007 C 
HETATM   11  N11 UNL     1     -23.417  18.420   7.605  1.00 20.00    -0.305 NA
ENDROOT
TORSDOF 0
ENDMDL
MODEL 2
REMARK VINA RESULT:      -5.0     16.341     18.000
REMARK  0 active torsions:
REMARK  status: ('A' for Active; 'I' for Inactive)
ROOT
HETATM    1  C1  UNL     1     -36.288  13.977  -4.956  1.00 20.00     0.083 C 
HETATM    2  C2  UNL     1     -33.632  16.623  -2.183  1.00 20.00    -0.003 A 
HETATM    3  C3  UNL     1     -33.875  17.584  -3.187  1.00 20.00    -0.011 A 
HETATM    4  C4  UNL     1     -33.210  16.473  -3.610  1.00 20.00    -0.006 A 
HETATM    5  C5  UNL     1     -34.952  16.258  -2.086  1.00 20.00    -0.016 C 
HETATM    6  C6  UNL     1     -36.483  14.923  -3.805  1.00 20.00     0.052 C 
HETATM    7  C7  UNL     1     -35.272  17.727  -2.564  1.00 20.00     0.023 C 
HETATM    8  C8  UNL     1     -34.305  15.090  -5.454  1.00 20.00     0.153 C 
HETATM    9  C9  UNL     1     -33.919  15.127  -3.972  1.00 20.00     0.022 C 
HETATM   10  C10 UNL     1     -35.187  14.961  -3.031  1.00 20.00     0.007 C 
HETATM   11  N11 UNL     1     -35.264  14.012  -5.740  1.00 20.00    -0.305 NA
ENDROOT
TORSDOF 0
ENDMDL
MODEL 3
REMARK VINA RESULT:      -4.8     17.013     18.661
REMARK  0 active torsions:
REMARK  status: ('A' for Active; 'I' for Inactive)
ROOT
HETATM    1  C1  UNL     1     -37.929  14.836  -4.178  1.00 20.00     0.083 C 
HETATM    2  C2  UNL     1     -33.572  16.023  -3.013  1.00 20.00    -0.003 A 
HETATM    3  C3  UNL     1     -33.404  16.031  -4.414  1.00 20.00    -0.011 A 
HETATM    4  C4  UNL     1     -33.754  14.825  -3.889  1.00 20.00    -0.006 A 
HETATM    5  C5  UNL     1     -34.728  16.764  -3.057  1.00 20.00    -0.016 C 
HETATM    6  C6  UNL     1     -37.150  16.097  -3.935  1.00 20.00     0.052 C 
HETATM    7  C7  UNL     1     -34.146  17.377  -4.389  1.00 20.00     0.023 C 
HETATM    8  C8  UNL     1     -35.927  13.777  -4.719  1.00 20.00     0.153 C 
HETATM    9  C9  UNL     1     -35.224  14.433  -3.526  1.00 20.00     0.022 C 
HETATM   10  C10 UNL     1     -35.985  15.739  -3.043  1.00 20.00     0.007 C 
HETATM   11  N11 UNL     1     -37.384  13.719  -4.527  1.00 20.00    -0.305 NA
ENDROOT
TORSDOF 0
ENDMDL
MODEL 4
REMARK VINA RESULT:      -4.7     16.857     18.504
REMARK  0 active torsions:
REMARK  status: ('A' for Active; 'I' for Inactive)
ROOT
HETATM    1  C1  UNL     1     -35.557  14.691  -6.545  1.00 20.00     0.083 C 
HETATM    2  C2  UNL     1     -34.929  17.139  -2.626  1.00 20.00    -0.003 A 
HETATM    3  C3  UNL     1     -33.941  16.157  -2.397  1.00 20.00    -0.011 A 
HETATM    4  C4  UNL     1     -35.212  15.677  -2.492  1.00 20.00    -0.006 A 
HETATM    5  C5  UNL     1     -34.519  17.379  -3.915  1.00 20.00    -0.016 C 
HETATM    6  C6  UNL     1     -34.717  15.846  -6.081  1.00 20.00     0.052 C 
HETATM    7  C7  UNL     1     -33.091  16.924  -3.422  1.00 20.00     0.023 C 
HETATM    8  C8  UNL     1     -35.681  13.974  -4.333  1.00 20.00     0.153 C 
HETATM    9  C9  UNL     1     -35.935  15.406  -3.852  1.00 20.00     0.022 C 
HETATM   10  C10 UNL     1     -35.430  16.478  -4.909  1.00 20.00     0.007 C 
HETATM   11  N11 UNL     1     -36.047  13.802  -5.747  1.00 20.00    -0.305 NA
ENDROOT
TORSDOF 0
ENDMDL
MODEL 5
REMARK VINA RESULT:      -4.6     15.998     17.503
REMARK  0 active torsions:
REMARK  status: ('A' for Active; 'I' for Inactive)
ROOT
HETATM    1  C1  UNL     1     -33.524  18.381  -2.287  1.00 20.00     0.083 C 
HETATM    2  C2  UNL     1     -34.449  14.114  -3.926  1.00 20.00    -0.003 A 
HETATM    3  C3  UNL     1     -35.374  14.827  -4.719  1.00 20.00    -0.011 A 
HETATM    4  C4  UNL     1     -35.591  14.909  -3.377  1.00 20.00    -0.006 A 
HETATM    5  C5  UNL     1     -33.416  14.979  -4.194  1.00 20.00    -0.016 C 
HETATM    6  C6  UNL     1     -33.043  17.490  -3.397  1.00 20.00     0.052 C 
HETATM    7  C7  UNL     1     -34.160  15.262  -5.555  1.00 20.00     0.023 C 
HETATM    8  C8  UNL     1     -35.549  17.234  -2.327  1.00 20.00     0.153 C 
HETATM    9  C9  UNL     1     -34.821  15.890  -2.434  1.00 20.00     0.022 C 
HETATM   10  C10 UNL     1     -33.346  16.066  -2.993  1.00 20.00     0.007 C 
HETATM   11  N11 UNL     1     -34.689  18.275  -1.743  1.00 20.00    -0.305 NA
ENDROOT
TORSDOF 0
ENDMDL
MODEL 6
REMARK VINA RESULT:      -4.5      0.922      2.183
REMARK  0 active torsions:
REMARK  status: ('A' for Active; 'I' for Inactive)
ROOT
HETATM    1  C1  UNL     1     -23.730  18.763   7.762  1.00 20.00     0.083 C 
HETATM    2  C2  UNL     1     -24.740  16.911  11.921  1.00 20.00    -0.003 A 
HETATM    3  C3  UNL     1     -23.545  17.566  12.289  1.00 20.00    -0.011 A 
HETATM    4  C4  UNL     1     -23.398  16.607  11.333  1.00 20.00    -0.006 A 
HETATM    5  C5  UNL     1     -25.250  18.011  11.276  1.00 20.00    -0.016 C 
HETATM    6  C6  UNL     1     -24.492  19.155   8.996  1.00 20.00     0.052 C 
HETATM    7  C7  UNL     1     -24.374  18.859  12.277  1.00 20.00     0.023 C 
HETATM    8  C8  UNL     1     -22.447  17.338   9.082  1.00 20.00     0.153 C 
HETATM    9  C9  UNL     1     -23.697  16.844   9.817  1.00 20.00     0.022 C 
HETATM   10  C10 UNL     1     -24.894  17.880   9.699  1.00 20.00     0.007 C 
HETATM   11  N11 UNL     1     -22.776  17.894   7.761  1.00 20.00    -0.305 NA
ENDROOT
TORSDOF 0
ENDMDL
MODEL 7
REMARK VINA RESULT:      -4.5     16.700     18.336
REMARK  0 active torsions:
REMARK  status: ('A' for Active; 'I' for Inactive)
ROOT
HETATM    1  C1  UNL     1     -36.069  13.747  -5.113  1.00 20.00     0.083 C 
HETATM    2  C2  UNL     1     -33.296  17.140  -3.517  1.00 20.00    -0.003 A 
HETATM    3  C3  UNL     1     -34.520  17.652  -3.035  1.00 20.00    -0.011 A 
HETATM    4  C4  UNL     1     -34.445  17.536  -4.390  1.00 20.00    -0.006 A 
HETATM    5  C5  UNL     1     -33.536  15.873  -3.043  1.00 20.00    -0.016 C 
HETATM    6  C6  UNL     1     -35.289  14.048  -3.865  1.00 20.00     0.052 C 
HETATM    7  C7  UNL     1     -34.416  16.578  -1.940  1.00 20.00     0.023 C 
HETATM    8  C8  UNL     1     -36.164  16.036  -5.530  1.00 20.00     0.153 C 
HETATM    9  C9  UNL     1     -34.687  16.196  -5.158  1.00 20.00     0.022 C 
HETATM   10  C10 UNL     1     -34.179  14.999  -4.248  1.00 20.00     0.007 C 
HETATM   11  N11 UNL     1     -36.478  14.656  -5.933  1.00 20.00    -0.305 NA
ENDROOT
TORSDOF 0
ENDMDL
MODEL 8
REMARK VINA RESULT:      -4.4     23.295     24.249
REMARK  0 active torsions:
REMARK  status: ('A' for Active; 'I' for Inactive)
ROOT
HETATM    1  C1  UNL     1     -43.417   4.269   0.782  1.00 20.00     0.083 C 
HETATM    2  C2  UNL     1     -40.975   8.010  -0.556  1.00 20.00    -0.003 A 
HETATM    3  C3  UNL     1     -42.220   8.390  -1.101  1.00 20.00    -0.011 A 
HETATM    4  C4  UNL     1     -41.700   7.240  -1.614  1.00 20.00    -0.006 A 
HETATM    5  C5  UNL     1     -41.511   7.671   0.663  1.00 20.00    -0.016 C 
HETATM    6  C6  UNL     1     -43.081   5.628   1.328  1.00 20.00     0.052 C 
HETATM    7  C7  UNL     1     -42.625   8.740   0.339  1.00 20.00     0.023 C 
HETATM    8  C8  UNL     1     -43.092   5.117  -1.361  1.00 20.00     0.153 C 
HETATM    9  C9  UNL     1     -41.823   5.848  -0.912  1.00 20.00     0.022 C 
HETATM   10  C10 UNL     1     -41.803   6.076   0.659  1.00 20.00     0.007 C 
HETATM   11  N11 UNL     1     -43.411   3.986  -0.477  1.00 20.00    -0.305 NA
ENDROOT
TORSDOF 0
ENDMDL
MODEL 9
REMARK VINA RESULT:      -4.4      1.783      3.825
REMARK  0 active torsions:
REMARK  status: ('A' for Active; 'I' for Inactive)
ROOT
HETATM    1  C1  UNL     1     -25.784  17.549  11.943  1.00 20.00     0.083 C 
HETATM    2  C2  UNL     1     -22.191  18.326   9.073  1.00 20.00    -0.003 A 
HETATM    3  C3  UNL     1     -22.902  17.427   8.250  1.00 20.00    -0.011 A 
HETATM    4  C4  UNL     1     -22.492  16.907   9.440  1.00 20.00    -0.006 A 
HETATM    5  C5  UNL     1     -23.300  19.085   9.356  1.00 20.00    -0.016 C 
HETATM    6  C6  UNL     1     -25.432  18.505  10.839  1.00 20.00     0.052 C 
HETATM    7  C7  UNL     1     -23.841  18.606   7.953  1.00 20.00     0.023 C 
HETATM    8  C8  UNL     1     -24.297  16.020  11.009  1.00 20.00     0.153 C 
HETATM    9  C9  UNL     1     -23.257  17.122  10.787  1.00 20.00     0.022 C 
HETATM   10  C10 UNL     1     -23.925  18.562  10.758  1.00 20.00     0.007 C 
HETATM   11  N11 UNL     1     -25.254  16.379  12.068  1.00 20.00    -0.305 NA
ENDROOT
TORSDOF 0
ENDMDL
