MODEL 1
REMARK VINA RESULT:      -4.1      0.000      0.000
REMARK  0 active torsions:
REMARK  status: ('A' for Active; 'I' for Inactive)
ROOT
HETATM    1  C1  UNL     1     -35.649  14.064  -4.355  1.00 20.00     0.141 C 
HETATM    2  C2  UNL     1     -34.180  14.408  -4.255  1.00 20.00     0.079 C 
HETATM    3  C3  UNL     1     -33.947  15.412  -3.141  1.00 20.00     0.008 C 
HETATM    4  C4  UNL     1     -34.816  16.652  -3.328  1.00 20.00     0.017 C 
HETATM    5  C5  UNL     1     -39.232  16.184  -4.591  1.00 20.00     0.085 C 
HETATM    6  C6  UNL     1     -38.935  17.201  -3.503  1.00 20.00     0.084 C 
HETATM    7  C7  UNL     1     -36.613  15.251  -4.458  1.00 20.00     0.130 C 
HETATM    8  C8  UNL     1     -36.309  16.282  -3.359  1.00 20.00     0.068 C 
HETATM    9  O9  UNL     1     -35.998  12.887  -4.448  1.00 20.00    -0.297 OA
HETATM   10  S10 UNL     1     -38.330  14.628  -4.349  1.00 20.00    -0.155 SA
HETATM   11  S11 UNL     1     -37.240  17.843  -3.598  1.00 20.00    -0.162 SA
ENDROOT
TORSDOF 0
ENDMDL
MODEL 2
REMARK VINA RESULT:      -4.0     17.507     19.068
REMARK  0 active torsions:
REMARK  status: ('A' for Active; 'I' for Inactive)
ROOT
HETATM    1  C1  UNL     1     -24.669  18.140  11.611  1.00 20.00     0.141 C 
HETATM    2  C2  UNL     1     -23.584  17.372  12.331  1.00 20.00     0.079 C 
HETATM    3  C3  UNL     1     -22.217  17.766  11.801  1.00 20.00     0.008 C 
HETATM    4  C4  UNL     1     -22.141  17.586  10.288  1.00 20.00     0.017 C 
HETATM    5  C5  UNL     1     -25.681  18.924   7.643  1.00 20.00     0.085 C 
HETATM    6  C6  UNL     1     -24.287  19.262   7.144  1.00 20.00     0.084 C 
HETATM    7  C7  UNL     1     -24.625  18.091  10.080  1.00 20.00     0.130 C 
HETATM    8  C8  UNL     1     -23.213  18.429   9.576  1.00 20.00     0.068 C 
HETATM    9  O9  UNL     1     -25.574  18.672  12.254  1.00 20.00    -0.297 OA
HETATM   10  S10 UNL     1     -25.878  19.249   9.417  1.00 20.00    -0.155 SA
HETATM   11  S11 UNL     1     -23.027  18.120   7.778  1.00 20.00    -0.162 SA
ENDROOT
TORSDOF 0
ENDMDL
MODEL 3
REMARK VINA RESULT:      -4.0      1.565      1.992
REMARK  0 active torsions:
REMARK  status: ('A' for Active; 'I' for Inactive)
ROOT
HETATM    1  C1  UNL     1     -37.244  14.481  -4.413  1.00 20.00     0.141 C 
HETATM    2  C2  UNL     1     -36.027  13.646  -4.744  1.00 20.00     0.079 C 
HETATM    3  C3  UNL     1     -34.897  13.953  -3.777  1.00 20.00     0.008 C 
HETATM    4  C4  UNL     1     -34.582  15.446  -3.756  1.00 20.00     0.017 C 
HETATM    5  C5  UNL     1     -38.031  18.514  -3.709  1.00 20.00     0.085 C 
HETATM    6  C6  UNL     1     -36.857  18.789  -2.786  1.00 20.00     0.084 C 
HETATM    7  C7  UNL     1     -37.010  15.990  -4.285  1.00 20.00     0.130 C 
HETATM    8  C8  UNL     1     -35.819  16.267  -3.353  1.00 20.00     0.068 C 
HETATM    9  O9  UNL     1     -38.354  13.953  -4.362  1.00 20.00    -0.297 OA
HETATM   10  S10 UNL     1     -38.546  16.774  -3.674  1.00 20.00    -0.155 SA
HETATM   11  S11 UNL     1     -35.318  18.031  -3.376  1.00 20.00    -0.162 SA
ENDROOT
TORSDOF 0
ENDMDL
MODEL 4
REMARK VINA RESULT:      -3.8      2.058      2.383
REMARK  0 active torsions:
REMARK  status: ('A' for Active; 'I' for Inactive)
ROOT
HETATM    1  C1  UNL     1     -33.936  15.180  -4.497  1.00 20.00     0.141 C 
HETATM    2  C2  UNL     1     -33.460  15.747  -3.178  1.00 20.00     0.079 C 
HETATM    3  C3  UNL     1     -34.642  16.035  -2.269  1.00 20.00     0.008 C 
HETATM    4  C4  UNL     1     -35.653  16.949  -2.957  1.00 20.00     0.017 C 
HETATM    5  C5  UNL     1     -36.767  16.217  -7.377  1.00 20.00     0.085 C 
HETATM    6  C6  UNL     1     -37.907  16.545  -6.428  1.00 20.00     0.084 C 
HETATM    7  C7  UNL     1     -35.019  15.985  -5.223  1.00 20.00     0.130 C 
HETATM    8  C8  UNL     1     -36.170  16.320  -4.261  1.00 20.00     0.068 C 
HETATM    9  O9  UNL     1     -33.386  14.186  -4.971  1.00 20.00    -0.297 OA
HETATM   10  S10 UNL     1     -35.598  15.023  -6.668  1.00 20.00    -0.155 SA
HETATM   11  S11 UNL     1     -37.359  17.509  -4.992  1.00 20.00    -0.162 SA
ENDROOT
TORSDOF 0
ENDMDL
MODEL 5
REMARK VINA RESULT:      -3.8      1.932      3.473
REMARK  0 active torsions:
REMARK  status: ('A' for Active; 'I' for Inactive)
ROOT
HETATM    1  C1  UNL     1     -34.642  14.309  -4.037  1.00 20.00     0.141 C 
HETATM    2  C2  UNL     1     -35.900  13.549  -4.393  1.00 20.00     0.079 C 
HETATM    3  C3  UNL     1     -36.977  14.505  -4.876  1.00 20.00     0.008 C 
HETATM    4  C4  UNL     1     -37.239  15.600  -3.847  1.00 20.00     0.017 C 
HETATM    5  C5  UNL     1     -33.688  17.634  -1.710  1.00 20.00     0.085 C 
HETATM    6  C6  UNL     1     -34.812  18.539  -2.184  1.00 20.00     0.084 C 
HETATM    7  C7  UNL     1     -34.819  15.487  -3.074  1.00 20.00     0.130 C 
HETATM    8  C8  UNL     1     -35.959  16.401  -3.552  1.00 20.00     0.068 C 
HETATM    9  O9  UNL     1     -33.550  13.907  -4.436  1.00 20.00    -0.297 OA
HETATM   10  S10 UNL     1     -33.232  16.390  -2.950  1.00 20.00    -0.155 SA
HETATM   11  S11 UNL     1     -36.400  17.669  -2.303  1.00 20.00    -0.162 SA
ENDROOT
TORSDOF 0
ENDMDL
MODEL 6
REMARK VINA RESULT:      -3.8      2.708      3.490
REMARK  0 active torsions:
REMARK  status: ('A' for Active; 'I' for Inactive)
ROOT
HETATM    1  C1  UNL     1     -36.043  16.745  -3.065  1.00 20.00     0.141 C 
HETATM    2  C2  UNL     1     -35.092  16.263  -1.992  1.00 20.00     0.079 C 
HETATM    3  C3  UNL     1     -33.657  16.345  -2.483  1.00 20.00     0.008 C 
HETATM    4  C4  UNL     1     -33.480  15.583  -3.793  1.00 20.00     0.017 C 
HETATM    5  C5  UNL     1     -36.665  15.965  -7.113  1.00 20.00     0.085 C 
HETATM    6  C6  UNL     1     -35.211  16.006  -7.550  1.00 20.00     0.084 C 
HETATM    7  C7  UNL     1     -35.884  16.098  -4.445  1.00 20.00     0.130 C 
HETATM    8  C8  UNL     1     -34.411  16.136  -4.885  1.00 20.00     0.068 C 
HETATM    9  O9  UNL     1     -36.943  17.533  -2.777  1.00 20.00    -0.297 OA
HETATM   10  S10 UNL     1     -36.971  16.968  -5.632  1.00 20.00    -0.155 SA
HETATM   11  S11 UNL     1     -34.114  15.138  -6.394  1.00 20.00    -0.162 SA
ENDROOT
TORSDOF 0
ENDMDL
MODEL 7
REMARK VINA RESULT:      -3.7      1.814      3.623
REMARK  0 active torsions:
REMARK  status: ('A' for Active; 'I' for Inactive)
ROOT
HETATM    1  C1  UNL     1     -36.966  14.385  -4.201  1.00 20.00     0.141 C 
HETATM    2  C2  UNL     1     -38.415  14.813  -4.274  1.00 20.00     0.079 C 
HETATM    3  C3  UNL     1     -38.540  16.126  -5.024  1.00 20.00     0.008 C 
HETATM    4  C4  UNL     1     -37.654  17.202  -4.402  1.00 20.00     0.017 C 
HETATM    5  C5  UNL     1     -33.355  16.149  -3.089  1.00 20.00     0.085 C 
HETATM    6  C6  UNL     1     -33.546  17.469  -3.815  1.00 20.00     0.084 C 
HETATM    7  C7  UNL     1     -35.982  15.432  -3.668  1.00 20.00     0.130 C 
HETATM    8  C8  UNL     1     -36.178  16.769  -4.400  1.00 20.00     0.068 C 
HETATM    9  O9  UNL     1     -36.656  13.223  -4.464  1.00 20.00    -0.297 OA
HETATM   10  S10 UNL     1     -34.278  14.793  -3.866  1.00 20.00    -0.155 SA
HETATM   11  S11 UNL     1     -35.226  18.130  -3.624  1.00 20.00    -0.162 SA
ENDROOT
TORSDOF 0
ENDMDL
MODEL 8
REMARK VINA RESULT:      -3.7      2.855      3.346
REMARK  0 active torsions:
REMARK  status: ('A' for Active; 'I' for Inactive)
ROOT
HETATM    1  C1  UNL     1     -34.984  14.736  -5.229  1.00 20.00     0.141 C 
HETATM    2  C2  UNL     1     -34.526  14.310  -3.852  1.00 20.00     0.079 C 
HETATM    3  C3  UNL     1     -34.786  15.415  -2.844  1.00 20.00     0.008 C 
HETATM    4  C4  UNL     1     -34.138  16.724  -3.284  1.00 20.00     0.017 C 
HETATM    5  C5  UNL     1     -34.428  18.051  -7.697  1.00 20.00     0.085 C 
HETATM    6  C6  UNL     1     -34.645  19.123  -6.643  1.00 20.00     0.084 C 
HETATM    7  C7  UNL     1     -34.453  16.086  -5.726  1.00 20.00     0.130 C 
HETATM    8  C8  UNL     1     -34.669  17.170  -4.657  1.00 20.00     0.068 C 
HETATM    9  O9  UNL     1     -35.656  13.969  -5.917  1.00 20.00    -0.297 OA
HETATM   10  S10 UNL     1     -35.291  16.505  -7.298  1.00 20.00    -0.155 SA
HETATM   11  S11 UNL     1     -33.813  18.736  -5.077  1.00 20.00    -0.162 SA
ENDROOT
TORSDOF 0
ENDMDL
MODEL 9
REMARK VINA RESULT:      -3.7      1.392      1.522
REMARK  0 active torsions:
REMARK  status: ('A' for Active; 'I' for Inactive)
ROOT
HETATM    1  C1  UNL     1     -35.268  14.801  -5.653  1.00 20.00     0.141 C 
HETATM    2  C2  UNL     1     -33.760  14.696  -5.604  1.00 20.00     0.079 C 
HETATM    3  C3  UNL     1     -33.271  14.766  -4.169  1.00 20.00     0.008 C 
HETATM    4  C4  UNL     1     -33.782  16.025  -3.475  1.00 20.00     0.017 C 
HETATM    5  C5  UNL     1     -38.163  17.352  -4.075  1.00 20.00     0.085 C 
HETATM    6  C6  UNL     1     -37.610  17.434  -2.663  1.00 20.00     0.084 C 
HETATM    7  C7  UNL     1     -35.883  15.990  -4.908  1.00 20.00     0.130 C 
HETATM    8  C8  UNL     1     -35.320  16.075  -3.480  1.00 20.00     0.068 C 
HETATM    9  O9  UNL     1     -35.915  14.017  -6.347  1.00 20.00    -0.297 OA
HETATM   10  S10 UNL     1     -37.704  15.808  -4.909  1.00 20.00    -0.155 SA
HETATM   11  S11 UNL     1     -35.806  17.627  -2.635  1.00 20.00    -0.162 SA
ENDROOT
TORSDOF 0
ENDMDL
