MODEL 1
REMARK VINA RESULT:      -4.3      0.000      0.000
REMARK  1 active torsions:
REMARK  status: ('A' for Active; 'I' for Inactive)
REMARK    1  A    between atoms: C2_2  and  C6_6 
ROOT
HETATM    1  C3  UNL     1     -33.958   7.067   5.277  1.00 20.00     0.181 C 
HETATM    2  C4  UNL     1     -35.399   5.417   4.056  1.00 20.00     0.181 C 
HETATM    3  C5  UNL     1     -34.552   4.990   6.206  1.00 20.00     0.337 C 
HETATM    4  C6  UNL     1     -34.401   6.569   3.897  1.00 20.00     0.061 C 
HETATM    5  O8  UNL     1     -33.532   5.981   6.101  1.00 20.00    -0.366 OA
HETATM    6  O9  UNL     1     -34.894   4.420   4.945  1.00 20.00    -0.366 OA
ENDROOT
BRANCH   4   7
HETATM    7  C2  UNL     1     -33.216   6.139   3.079  1.00 20.00    -0.085 C 
HETATM    8  C1  UNL     1     -33.151   4.927   2.508  1.00 20.00     0.014 C 
HETATM    9  C7  UNL     1     -32.110   7.143   2.938  1.00 20.00     0.043 C 
ENDBRANCH   4   7
TORSDOF 1
ENDMDL
MODEL 2
REMARK VINA RESULT:      -4.0     12.374     13.147
REMARK  1 active torsions:
REMARK  status: ('A' for Active; 'I' for Inactive)
REMARK    1  A    between atoms: C2_2  and  C6_6 
ROOT
HETATM    1  C3  UNL     1     -33.682  14.767  -5.329  1.00 20.00     0.181 C 
HETATM    2  C4  UNL     1     -35.793  14.031  -4.191  1.00 20.00     0.181 C 
HETATM    3  C5  UNL     1     -35.808  15.165  -6.250  1.00 20.00     0.337 C 
HETATM    4  C6  UNL     1     -34.334  14.448  -3.979  1.00 20.00     0.061 C 
HETATM    5  O8  UNL     1     -34.486  15.673  -6.085  1.00 20.00    -0.366 OA
HETATM    6  O9  UNL     1     -36.483  14.978  -5.009  1.00 20.00    -0.366 OA
ENDROOT
BRANCH   4   7
HETATM    7  C2  UNL     1     -34.246  15.628  -3.053  1.00 20.00    -0.085 C 
HETATM    8  C1  UNL     1     -35.225  15.922  -2.184  1.00 20.00     0.014 C 
HETATM    9  C7  UNL     1     -33.001  16.458  -3.155  1.00 20.00     0.043 C 
ENDBRANCH   4   7
TORSDOF 1
ENDMDL
MODEL 3
REMARK VINA RESULT:      -4.0     16.456     17.093
REMARK  1 active torsions:
REMARK  status: ('A' for Active; 'I' for Inactive)
REMARK    1  A    between atoms: C2_2  and  C6_6 
ROOT
HETATM    1  C3  UNL     1     -24.668  17.194  11.570  1.00 20.00     0.181 C 
HETATM    2  C4  UNL     1     -22.780  16.995   9.931  1.00 20.00     0.181 C 
HETATM    3  C5  UNL     1     -22.453  17.742  12.136  1.00 20.00     0.337 C 
HETATM    4  C6  UNL     1     -24.288  17.218  10.085  1.00 20.00     0.061 C 
HETATM    5  O8  UNL     1     -23.829  18.066  12.327  1.00 20.00    -0.366 OA
HETATM    6  O9  UNL     1     -22.042  17.878  10.778  1.00 20.00    -0.366 OA
ENDROOT
BRANCH   4   7
HETATM    7  C2  UNL     1     -24.703  18.514   9.448  1.00 20.00    -0.085 C 
HETATM    8  C1  UNL     1     -25.698  19.262   9.947  1.00 20.00     0.014 C 
HETATM    9  C7  UNL     1     -23.941  18.922   8.222  1.00 20.00     0.043 C 
ENDBRANCH   4   7
TORSDOF 1
ENDMDL
MODEL 4
REMARK VINA RESULT:      -3.9     12.214     12.927
REMARK  1 active torsions:
REMARK  status: ('A' for Active; 'I' for Inactive)
REMARK    1  A    between atoms: C2_2  and  C6_6 
ROOT
HETATM    1  C3  UNL     1     -36.815  15.785  -3.979  1.00 20.00     0.181 C 
HETATM    2  C4  UNL     1     -34.764  15.416  -5.375  1.00 20.00     0.181 C 
HETATM    3  C5  UNL     1     -36.285  13.688  -4.900  1.00 20.00     0.337 C 
HETATM    4  C6  UNL     1     -35.386  16.262  -4.259  1.00 20.00     0.061 C 
HETATM    5  O8  UNL     1     -36.854  14.371  -3.785  1.00 20.00    -0.366 OA
HETATM    6  O9  UNL     1     -34.914  14.021  -5.105  1.00 20.00    -0.366 OA
ENDROOT
BRANCH   4   7
HETATM    7  C2  UNL     1     -34.548  16.199  -3.013  1.00 20.00    -0.085 C 
HETATM    8  C1  UNL     1     -35.096  16.218  -1.789  1.00 20.00     0.014 C 
HETATM    9  C7  UNL     1     -33.064  16.114  -3.217  1.00 20.00     0.043 C 
ENDBRANCH   4   7
TORSDOF 1
ENDMDL
MODEL 5
REMARK VINA RESULT:      -3.8     12.411     12.938
REMARK  1 active torsions:
REMARK  status: ('A' for Active; 'I' for Inactive)
REMARK    1  A    between atoms: C2_2  and  C6_6 
ROOT
HETATM    1  C3  UNL     1     -36.039  16.207  -4.091  1.00 20.00     0.181 C 
HETATM    2  C4  UNL     1     -35.096  14.810  -5.949  1.00 20.00     0.181 C 
HETATM    3  C5  UNL     1     -36.880  14.073  -4.608  1.00 20.00     0.337 C 
HETATM    4  C6  UNL     1     -34.789  15.909  -4.926  1.00 20.00     0.061 C 
HETATM    5  O8  UNL     1     -36.601  15.004  -3.565  1.00 20.00    -0.366 OA
HETATM    6  O9  UNL     1     -35.709  13.682  -5.321  1.00 20.00    -0.366 OA
ENDROOT
BRANCH   4   7
HETATM    7  C2  UNL     1     -33.640  15.510  -4.044  1.00 20.00    -0.085 C 
HETATM    8  C1  UNL     1     -32.803  14.515  -4.375  1.00 20.00     0.014 C 
HETATM    9  C7  UNL     1     -33.482  16.290  -2.771  1.00 20.00     0.043 C 
ENDBRANCH   4   7
TORSDOF 1
ENDMDL
MODEL 6
REMARK VINA RESULT:      -3.7     16.068     17.121
REMARK  1 active torsions:
REMARK  status: ('A' for Active; 'I' for Inactive)
REMARK    1  A    between atoms: C2_2  and  C6_6 
ROOT
HETATM    1  C3  UNL     1     -23.057  19.196   8.759  1.00 20.00     0.181 C 
HETATM    2  C4  UNL     1     -21.782  17.367   9.909  1.00 20.00     0.181 C 
HETATM    3  C5  UNL     1     -22.059  17.427   7.575  1.00 20.00     0.337 C 
HETATM    4  C6  UNL     1     -22.900  18.404  10.062  1.00 20.00     0.061 C 
HETATM    5  O8  UNL     1     -23.169  18.319   7.637  1.00 20.00    -0.366 OA
HETATM    6  O9  UNL     1     -21.964  16.589   8.724  1.00 20.00    -0.366 OA
ENDROOT
BRANCH   4   7
HETATM    7  C2  UNL     1     -24.194  17.742  10.443  1.00 20.00    -0.085 C 
HETATM    8  C1  UNL     1     -24.259  16.438  10.750  1.00 20.00     0.014 C 
HETATM    9  C7  UNL     1     -25.408  18.623  10.461  1.00 20.00     0.043 C 
ENDBRANCH   4   7
TORSDOF 1
ENDMDL
MODEL 7
REMARK VINA RESULT:      -3.7     15.798     16.543
REMARK  1 active torsions:
REMARK  status: ('A' for Active; 'I' for Inactive)
REMARK    1  A    between atoms: C2_2  and  C6_6 
ROOT
HETATM    1  C3  UNL     1     -23.171  16.971  11.942  1.00 20.00     0.181 C 
HETATM    2  C4  UNL     1     -25.147  18.490  11.660  1.00 20.00     0.181 C 
HETATM    3  C5  UNL     1     -25.374  16.249  12.332  1.00 20.00     0.337 C 
HETATM    4  C6  UNL     1     -23.712  18.202  11.207  1.00 20.00     0.061 C 
HETATM    5  O8  UNL     1     -24.085  15.878  11.850  1.00 20.00    -0.366 OA
HETATM    6  O9  UNL     1     -25.955  17.313  11.582  1.00 20.00    -0.366 OA
ENDROOT
BRANCH   4   7
HETATM    7  C2  UNL     1     -23.652  18.005   9.718  1.00 20.00    -0.085 C 
HETATM    8  C1  UNL     1     -24.464  18.667   8.881  1.00 20.00     0.014 C 
HETATM    9  C7  UNL     1     -22.630  17.025   9.222  1.00 20.00     0.043 C 
ENDBRANCH   4   7
TORSDOF 1
ENDMDL
MODEL 8
REMARK VINA RESULT:      -3.7      8.598      9.792
REMARK  1 active torsions:
REMARK  status: ('A' for Active; 'I' for Inactive)
REMARK    1  A    between atoms: C2_2  and  C6_6 
ROOT
HETATM    1  C3  UNL     1     -40.802   6.410   0.286  1.00 20.00     0.181 C 
HETATM    2  C4  UNL     1     -43.290   6.094   0.224  1.00 20.00     0.181 C 
HETATM    3  C5  UNL     1     -41.869   5.179  -1.409  1.00 20.00     0.337 C 
HETATM    4  C6  UNL     1     -42.153   7.009   0.692  1.00 20.00     0.061 C 
HETATM    5  O8  UNL     1     -40.792   6.061  -1.098  1.00 20.00    -0.366 OA
HETATM    6  O9  UNL     1     -43.145   5.762  -1.158  1.00 20.00    -0.366 OA
ENDROOT
BRANCH   4   7
HETATM    7  C2  UNL     1     -42.315   8.392   0.127  1.00 20.00    -0.085 C 
HETATM    8  C1  UNL     1     -43.417   8.760  -0.542  1.00 20.00     0.014 C 
HETATM    9  C7  UNL     1     -41.173   9.338   0.356  1.00 20.00     0.043 C 
ENDBRANCH   4   7
TORSDOF 1
ENDMDL
MODEL 9
REMARK VINA RESULT:      -3.7     12.611     13.335
REMARK  1 active torsions:
REMARK  status: ('A' for Active; 'I' for Inactive)
REMARK    1  A    between atoms: C2_2  and  C6_6 
ROOT
HETATM    1  C3  UNL     1     -35.720  16.527  -2.857  1.00 20.00     0.181 C 
HETATM    2  C4  UNL     1     -33.222  16.686  -2.687  1.00 20.00     0.181 C 
HETATM    3  C5  UNL     1     -34.507  18.298  -3.815  1.00 20.00     0.337 C 
HETATM    4  C6  UNL     1     -34.420  15.730  -2.701  1.00 20.00     0.061 C 
HETATM    5  O8  UNL     1     -35.634  17.437  -3.954  1.00 20.00    -0.366 OA
HETATM    6  O9  UNL     1     -33.272  17.587  -3.795  1.00 20.00    -0.366 OA
ENDROOT
BRANCH   4   7
HETATM    7  C2  UNL     1     -34.281  14.716  -3.802  1.00 20.00    -0.085 C 
HETATM    8  C1  UNL     1     -33.109  14.491  -4.414  1.00 20.00     0.014 C 
HETATM    9  C7  UNL     1     -35.528  13.971  -4.176  1.00 20.00     0.043 C 
ENDBRANCH   4   7
TORSDOF 1
ENDMDL
