MODEL 1
REMARK VINA RESULT:      -4.9      0.000      0.000
REMARK  0 active torsions:
REMARK  status: ('A' for Active; 'I' for Inactive)
ROOT
HETATM    1  C1  UNL     1     -33.462   6.049   6.134  1.00 20.00     0.001 C 
HETATM    2  C2  UNL     1     -34.793   5.301   5.921  1.00 20.00     0.005 C 
HETATM    3  C3  UNL     1     -34.202   4.033   3.749  1.00 20.00     0.005 C 
HETATM    4  C4  UNL     1     -33.292   4.637   2.658  1.00 20.00     0.006 C 
HETATM    5  C5  UNL     1     -33.292   7.263   5.203  1.00 20.00     0.010 C 
HETATM    6  C6  UNL     1     -35.108   6.407   3.707  1.00 20.00     0.014 C 
HETATM    7  C7  UNL     1     -32.933   7.281   2.557  1.00 20.00     0.015 A 
HETATM    8  C8  UNL     1     -35.155   5.057   4.432  1.00 20.00    -0.014 C 
HETATM    9  C9  UNL     1     -32.680   5.916   3.142  1.00 20.00    -0.005 A 
HETATM   10  C10 UNL     1     -33.669   6.858   3.802  1.00 20.00    -0.036 A 
ENDROOT
TORSDOF 0
ENDMDL
MODEL 2
REMARK VINA RESULT:      -4.6      8.578      9.699
REMARK  0 active torsions:
REMARK  status: ('A' for Active; 'I' for Inactive)
ROOT
HETATM    1  C1  UNL     1     -43.152   5.259   1.440  1.00 20.00     0.001 C 
HETATM    2  C2  UNL     1     -43.417   4.619   0.063  1.00 20.00     0.005 C 
HETATM    3  C3  UNL     1     -41.281   5.398  -1.163  1.00 20.00     0.005 C 
HETATM    4  C4  UNL     1     -40.619   6.765  -0.887  1.00 20.00     0.006 C 
HETATM    5  C5  UNL     1     -43.417   6.774   1.466  1.00 20.00     0.010 C 
HETATM    6  C6  UNL     1     -43.357   6.859  -1.035  1.00 20.00     0.014 C 
HETATM    7  C7  UNL     1     -42.045   8.715   0.249  1.00 20.00     0.015 A 
HETATM    8  C8  UNL     1     -42.837   5.420  -1.133  1.00 20.00    -0.014 C 
HETATM    9  C9  UNL     1     -41.265   7.427   0.292  1.00 20.00    -0.005 A 
HETATM   10  C10 UNL     1     -42.781   7.400   0.253  1.00 20.00    -0.036 A 
ENDROOT
TORSDOF 0
ENDMDL
MODEL 3
REMARK VINA RESULT:      -4.5     11.624     12.614
REMARK  0 active torsions:
REMARK  status: ('A' for Active; 'I' for Inactive)
ROOT
HETATM    1  C1  UNL     1     -35.157  16.410  -1.797  1.00 20.00     0.001 C 
HETATM    2  C2  UNL     1     -36.249  17.032  -2.690  1.00 20.00     0.005 C 
HETATM    3  C3  UNL     1     -36.870  14.947  -4.083  1.00 20.00     0.005 C 
HETATM    4  C4  UNL     1     -35.828  13.885  -4.495  1.00 20.00     0.006 C 
HETATM    5  C5  UNL     1     -33.815  16.217  -2.525  1.00 20.00     0.010 C 
HETATM    6  C6  UNL     1     -34.948  16.472  -4.743  1.00 20.00     0.014 C 
HETATM    7  C7  UNL     1     -33.234  14.517  -4.501  1.00 20.00     0.015 A 
HETATM    8  C8  UNL     1     -36.342  16.411  -4.109  1.00 20.00    -0.014 C 
HETATM    9  C9  UNL     1     -34.521  14.147  -3.810  1.00 20.00    -0.005 A 
HETATM   10  C10 UNL     1     -34.078  15.596  -3.872  1.00 20.00    -0.036 A 
ENDROOT
TORSDOF 0
ENDMDL
MODEL 4
REMARK VINA RESULT:      -4.5     11.445     12.803
REMARK  0 active torsions:
REMARK  status: ('A' for Active; 'I' for Inactive)
ROOT
HETATM    1  C1  UNL     1     -34.053  16.532  -3.105  1.00 20.00     0.001 C 
HETATM    2  C2  UNL     1     -32.978  15.569  -3.645  1.00 20.00     0.005 C 
HETATM    3  C3  UNL     1     -33.989  15.098  -5.975  1.00 20.00     0.005 C 
HETATM    4  C4  UNL     1     -35.512  15.018  -6.217  1.00 20.00     0.006 C 
HETATM    5  C5  UNL     1     -35.337  15.814  -2.652  1.00 20.00     0.010 C 
HETATM    6  C6  UNL     1     -34.675  13.763  -3.925  1.00 20.00     0.014 C 
HETATM    7  C7  UNL     1     -37.150  14.559  -4.159  1.00 20.00     0.015 A 
HETATM    8  C8  UNL     1     -33.520  14.491  -4.621  1.00 20.00    -0.014 C 
HETATM    9  C9  UNL     1     -36.256  15.445  -4.988  1.00 20.00    -0.005 A 
HETATM   10  C10 UNL     1     -35.735  14.817  -3.709  1.00 20.00    -0.036 A 
ENDROOT
TORSDOF 0
ENDMDL
MODEL 5
REMARK VINA RESULT:      -4.4     15.758     17.019
REMARK  0 active torsions:
REMARK  status: ('A' for Active; 'I' for Inactive)
ROOT
HETATM    1  C1  UNL     1     -25.194  19.263  10.064  1.00 20.00     0.001 C 
HETATM    2  C2  UNL     1     -25.635  18.448  11.296  1.00 20.00     0.005 C 
HETATM    3  C3  UNL     1     -23.313  17.992  12.332  1.00 20.00     0.005 C 
HETATM    4  C4  UNL     1     -22.052  17.763  11.471  1.00 20.00     0.006 C 
HETATM    5  C5  UNL     1     -24.612  18.391   8.937  1.00 20.00     0.010 C 
HETATM    6  C6  UNL     1     -24.293  16.489  10.532  1.00 20.00     0.014 C 
HETATM    7  C7  UNL     1     -22.314  17.030   8.917  1.00 20.00     0.015 A 
HETATM    8  C8  UNL     1     -24.613  17.369  11.745  1.00 20.00    -0.014 C 
HETATM    9  C9  UNL     1     -22.348  18.046  10.030  1.00 20.00    -0.005 A 
HETATM   10  C10 UNL     1     -23.635  17.413   9.534  1.00 20.00    -0.036 A 
ENDROOT
TORSDOF 0
ENDMDL
MODEL 6
REMARK VINA RESULT:      -4.4     11.699     12.977
REMARK  0 active torsions:
REMARK  status: ('A' for Active; 'I' for Inactive)
ROOT
HETATM    1  C1  UNL     1     -35.590  16.136  -5.969  1.00 20.00     0.001 C 
HETATM    2  C2  UNL     1     -36.687  15.568  -5.047  1.00 20.00     0.005 C 
HETATM    3  C3  UNL     1     -35.587  16.057  -2.761  1.00 20.00     0.005 C 
HETATM    4  C4  UNL     1     -34.061  15.983  -2.543  1.00 20.00     0.006 C 
HETATM    5  C5  UNL     1     -34.370  15.208  -6.103  1.00 20.00     0.010 C 
HETATM    6  C6  UNL     1     -35.075  13.937  -4.065  1.00 20.00     0.014 C 
HETATM    7  C7  UNL     1     -32.553  14.587  -4.248  1.00 20.00     0.015 A 
HETATM    8  C8  UNL     1     -36.154  14.969  -3.718  1.00 20.00    -0.014 C 
HETATM    9  C9  UNL     1     -33.357  15.798  -3.853  1.00 20.00    -0.005 A 
HETATM   10  C10 UNL     1     -33.973  14.727  -4.733  1.00 20.00    -0.036 A 
ENDROOT
TORSDOF 0
ENDMDL
MODEL 7
REMARK VINA RESULT:      -4.4      8.570      9.575
REMARK  0 active torsions:
REMARK  status: ('A' for Active; 'I' for Inactive)
ROOT
HETATM    1  C1  UNL     1     -41.106   8.617  -0.021  1.00 20.00     0.001 C 
HETATM    2  C2  UNL     1     -42.617   8.782   0.238  1.00 20.00     0.005 C 
HETATM    3  C3  UNL     1     -43.070   6.540   1.438  1.00 20.00     0.005 C 
HETATM    4  C4  UNL     1     -42.330   5.237   1.068  1.00 20.00     0.006 C 
HETATM    5  C5  UNL     1     -40.792   7.667  -1.191  1.00 20.00     0.010 C 
HETATM    6  C6  UNL     1     -43.112   6.733  -1.095  1.00 20.00     0.014 C 
HETATM    7  C7  UNL     1     -41.151   5.024  -1.318  1.00 20.00     0.015 A 
HETATM    8  C8  UNL     1     -43.415   7.451   0.224  1.00 20.00    -0.014 C 
HETATM    9  C9  UNL     1     -41.222   5.526   0.101  1.00 20.00    -0.005 A 
HETATM   10  C10 UNL     1     -41.633   6.426  -1.049  1.00 20.00    -0.036 A 
ENDROOT
TORSDOF 0
ENDMDL
MODEL 8
REMARK VINA RESULT:      -4.4     15.666     16.750
REMARK  0 active torsions:
REMARK  status: ('A' for Active; 'I' for Inactive)
ROOT
HETATM    1  C1  UNL     1     -24.239  17.784   9.196  1.00 20.00     0.001 C 
HETATM    2  C2  UNL     1     -23.075  17.093   9.934  1.00 20.00     0.005 C 
HETATM    3  C3  UNL     1     -24.432  15.788  11.702  1.00 20.00     0.005 C 
HETATM    4  C4  UNL     1     -25.727  16.346  12.330  1.00 20.00     0.006 C 
HETATM    5  C5  UNL     1     -24.817  18.984   9.966  1.00 20.00     0.010 C 
HETATM    6  C6  UNL     1     -23.719  18.199  12.075  1.00 20.00     0.014 C 
HETATM    7  C7  UNL     1     -26.207  18.972  12.247  1.00 20.00     0.015 A 
HETATM    8  C8  UNL     1     -23.329  16.857  11.446  1.00 20.00    -0.014 C 
HETATM    9  C9  UNL     1     -26.148  17.600  11.625  1.00 20.00    -0.005 A 
HETATM   10  C10 UNL     1     -25.017  18.587  11.406  1.00 20.00    -0.036 A 
ENDROOT
TORSDOF 0
ENDMDL
MODEL 9
REMARK VINA RESULT:      -4.2     15.842     17.122
REMARK  0 active torsions:
REMARK  status: ('A' for Active; 'I' for Inactive)
ROOT
HETATM    1  C1  UNL     1     -24.357  18.599  12.285  1.00 20.00     0.001 C 
HETATM    2  C2  UNL     1     -23.452  17.352  12.332  1.00 20.00     0.005 C 
HETATM    3  C3  UNL     1     -21.877  17.919  10.365  1.00 20.00     0.005 C 
HETATM    4  C4  UNL     1     -22.362  18.666   9.104  1.00 20.00     0.006 C 
HETATM    5  C5  UNL     1     -25.392  18.554  11.147  1.00 20.00     0.010 C 
HETATM    6  C6  UNL     1     -24.099  16.742  10.002  1.00 20.00     0.014 C 
HETATM    7  C7  UNL     1     -24.966  18.705   8.515  1.00 20.00     0.015 A 
HETATM    8  C8  UNL     1     -22.906  16.908  10.949  1.00 20.00    -0.014 C 
HETATM    9  C9  UNL     1     -23.763  19.161   9.299  1.00 20.00    -0.005 A 
HETATM   10  C10 UNL     1     -24.703  18.121   9.879  1.00 20.00    -0.036 A 
ENDROOT
TORSDOF 0
ENDMDL
