MODEL 1
REMARK VINA RESULT:      -3.3      0.000      0.000
REMARK  0 active torsions:
REMARK  status: ('A' for Active; 'I' for Inactive)
ROOT
HETATM    1  C1  UNL     1     -24.117  16.661  10.580  1.00 20.00     0.062 A 
HETATM    2  C2  UNL     1     -24.529  18.097  10.708  1.00 20.00     0.119 A 
HETATM    3  C3  UNL     1     -23.071  17.729  10.787  1.00 20.00     0.112 A 
HETATM    4 CL4  UNL     1     -25.440  18.601  12.108  1.00 20.00    -0.122 Cl
HETATM    5 CL5  UNL     1     -22.221  17.746  12.329  1.00 20.00    -0.105 Cl
HETATM    6 BR6  UNL     1     -21.966  18.186   9.287  1.00 20.00    -0.066 Br
ENDROOT
TORSDOF 0
ENDMDL
MODEL 2
REMARK VINA RESULT:      -3.3      2.692      3.164
REMARK  0 active torsions:
REMARK  status: ('A' for Active; 'I' for Inactive)
ROOT
HETATM    1  C1  UNL     1     -22.828  17.792  12.025  1.00 20.00     0.062 A 
HETATM    2  C2  UNL     1     -23.223  17.968  10.588  1.00 20.00     0.119 A 
HETATM    3  C3  UNL     1     -24.219  17.416  11.574  1.00 20.00     0.112 A 
HETATM    4 CL4  UNL     1     -22.471  16.973   9.369  1.00 20.00    -0.122 Cl
HETATM    5 CL5  UNL     1     -24.637  15.706  11.570  1.00 20.00    -0.105 Cl
HETATM    6 BR6  UNL     1     -25.660  18.566  12.105  1.00 20.00    -0.066 Br
ENDROOT
TORSDOF 0
ENDMDL
MODEL 3
REMARK VINA RESULT:      -3.3      2.372      3.016
REMARK  0 active torsions:
REMARK  status: ('A' for Active; 'I' for Inactive)
ROOT
HETATM    1  C1  UNL     1     -23.822  18.128   9.953  1.00 20.00     0.062 A 
HETATM    2  C2  UNL     1     -22.930  16.991   9.550  1.00 20.00     0.119 A 
HETATM    3  C3  UNL     1     -23.332  17.149  10.992  1.00 20.00     0.112 A 
HETATM    4 CL4  UNL     1     -21.314  17.333   8.990  1.00 20.00    -0.122 Cl
HETATM    5 CL5  UNL     1     -22.182  17.741  12.187  1.00 20.00    -0.105 Cl
HETATM    6 BR6  UNL     1     -24.603  15.894  11.693  1.00 20.00    -0.066 Br
ENDROOT
TORSDOF 0
ENDMDL
MODEL 4
REMARK VINA RESULT:      -3.2     23.291     23.952
REMARK  0 active torsions:
REMARK  status: ('A' for Active; 'I' for Inactive)
ROOT
HETATM    1  C1  UNL     1     -42.575   7.849  -1.393  1.00 20.00     0.062 A 
HETATM    2  C2  UNL     1     -41.309   8.268  -0.706  1.00 20.00     0.119 A 
HETATM    3  C3  UNL     1     -41.941   6.945  -0.364  1.00 20.00     0.112 A 
HETATM    4 CL4  UNL     1     -41.343   9.627   0.388  1.00 20.00    -0.122 Cl
HETATM    5 CL5  UNL     1     -42.796   6.722   1.159  1.00 20.00    -0.105 Cl
HETATM    6 BR6  UNL     1     -41.062   5.362  -0.999  1.00 20.00    -0.066 Br
ENDROOT
TORSDOF 0
ENDMDL
MODEL 5
REMARK VINA RESULT:      -3.2      1.836      2.528
REMARK  0 active torsions:
REMARK  status: ('A' for Active; 'I' for Inactive)
ROOT
HETATM    1  C1  UNL     1     -23.114  17.814  10.994  1.00 20.00     0.062 A 
HETATM    2  C2  UNL     1     -24.102  16.773  10.557  1.00 20.00     0.119 A 
HETATM    3  C3  UNL     1     -24.531  18.212  10.659  1.00 20.00     0.112 A 
HETATM    4 CL4  UNL     1     -24.624  15.562  11.698  1.00 20.00    -0.122 Cl
HETATM    5 CL5  UNL     1     -25.558  18.754  11.983  1.00 20.00    -0.105 Cl
HETATM    6 BR6  UNL     1     -24.817  19.162   9.016  1.00 20.00    -0.066 Br
ENDROOT
TORSDOF 0
ENDMDL
MODEL 6
REMARK VINA RESULT:      -3.1      2.127      2.248
REMARK  0 active torsions:
REMARK  status: ('A' for Active; 'I' for Inactive)
ROOT
HETATM    1  C1  UNL     1     -24.810  18.180  10.544  1.00 20.00     0.062 A 
HETATM    2  C2  UNL     1     -25.321  18.387  11.939  1.00 20.00     0.119 A 
HETATM    3  C3  UNL     1     -24.259  17.352  11.679  1.00 20.00     0.112 A 
HETATM    4 CL4  UNL     1     -26.969  17.957  12.315  1.00 20.00    -0.122 Cl
HETATM    5 CL5  UNL     1     -24.652  15.635  11.698  1.00 20.00    -0.105 Cl
HETATM    6 BR6  UNL     1     -22.480  17.747  12.279  1.00 20.00    -0.066 Br
ENDROOT
TORSDOF 0
ENDMDL
MODEL 7
REMARK VINA RESULT:      -3.1      1.863      2.280
REMARK  0 active torsions:
REMARK  status: ('A' for Active; 'I' for Inactive)
ROOT
HETATM    1  C1  UNL     1     -23.868  16.671  10.201  1.00 20.00     0.062 A 
HETATM    2  C2  UNL     1     -23.659  17.844  11.111  1.00 20.00     0.119 A 
HETATM    3  C3  UNL     1     -23.340  17.971   9.645  1.00 20.00     0.112 A 
HETATM    4 CL4  UNL     1     -22.416  17.765  12.332  1.00 20.00    -0.122 Cl
HETATM    5 CL5  UNL     1     -21.670  17.997   9.087  1.00 20.00    -0.105 Cl
HETATM    6 BR6  UNL     1     -24.533  19.024   8.573  1.00 20.00    -0.066 Br
ENDROOT
TORSDOF 0
ENDMDL
MODEL 8
REMARK VINA RESULT:      -3.1      2.524      3.290
REMARK  0 active torsions:
REMARK  status: ('A' for Active; 'I' for Inactive)
ROOT
HETATM    1  C1  UNL     1     -24.022  16.657  10.341  1.00 20.00     0.062 A 
HETATM    2  C2  UNL     1     -23.046  17.736  10.707  1.00 20.00     0.119 A 
HETATM    3  C3  UNL     1     -24.499  18.079  10.512  1.00 20.00     0.112 A 
HETATM    4 CL4  UNL     1     -21.818  18.200   9.559  1.00 20.00    -0.122 Cl
HETATM    5 CL5  UNL     1     -25.036  18.935   9.071  1.00 20.00    -0.105 Cl
HETATM    6 BR6  UNL     1     -25.525  18.483  12.083  1.00 20.00    -0.066 Br
ENDROOT
TORSDOF 0
ENDMDL
MODEL 9
REMARK VINA RESULT:      -3.0     24.000     24.266
REMARK  0 active torsions:
REMARK  status: ('A' for Active; 'I' for Inactive)
ROOT
HETATM    1  C1  UNL     1     -42.267   6.467   0.821  1.00 20.00     0.062 A 
HETATM    2  C2  UNL     1     -41.098   6.378  -0.114  1.00 20.00     0.119 A 
HETATM    3  C3  UNL     1     -42.084   7.506  -0.258  1.00 20.00     0.112 A 
HETATM    4 CL4  UNL     1     -41.016   5.061  -1.255  1.00 20.00    -0.122 Cl
HETATM    5 CL5  UNL     1     -43.248   7.521  -1.579  1.00 20.00    -0.105 Cl
HETATM    6 BR6  UNL     1     -41.507   9.253   0.287  1.00 20.00    -0.066 Br
ENDROOT
TORSDOF 0
ENDMDL
