MODEL 1
REMARK VINA RESULT:      -4.2      0.000      0.000
REMARK  5 active torsions:
REMARK  status: ('A' for Active; 'I' for Inactive)
REMARK    1  A    between atoms: C1_1  and  O9_9 
REMARK    2  A    between atoms: C5_5  and  C6_6 
REMARK    3  A    between atoms: C6_6  and  C7_7 
REMARK    4  A    between atoms: C7_7  and  C8_8 
REMARK    5  A    between atoms: C8_8  and  O9_9 
ROOT
HETATM    1  C4  UNL     1     -33.178   3.977   2.221  1.00 20.00     0.040 C 
HETATM    2  C8  UNL     1     -33.310   5.353   2.858  1.00 20.00     0.125 C 
ENDROOT
BRANCH   2   3
HETATM    3  C7  UNL     1     -34.620   5.555   3.626  1.00 20.00     0.032 C 
BRANCH   3   4
HETATM    4  C6  UNL     1     -34.762   4.637   4.842  1.00 20.00     0.002 C 
BRANCH   4   5
HETATM    5  C5  UNL     1     -34.744   5.439   6.144  1.00 20.00    -0.004 C 
HETATM    6  C3  UNL     1     -34.015   6.762   5.972  1.00 20.00     0.005 C 
ENDBRANCH   4   5
ENDBRANCH   3   4
ENDBRANCH   2   3
BRANCH   2   7
HETATM    7  O9  UNL     1     -33.238   6.336   1.824  1.00 20.00    -0.340 OA
BRANCH   7   8
HETATM    8  C1  UNL     1     -32.551   7.485   2.001  1.00 20.00     0.109 C 
HETATM    9  C2  UNL     1     -31.722   7.666   3.233  1.00 20.00     0.089 C 
HETATM   10  S10 UNL     1     -32.689   8.636   0.804  1.00 20.00    -0.058 SA
ENDBRANCH   7   8
ENDBRANCH   2   7
TORSDOF 5
ENDMDL
MODEL 2
REMARK VINA RESULT:      -3.7     11.727     12.400
REMARK  5 active torsions:
REMARK  status: ('A' for Active; 'I' for Inactive)
REMARK    1  A    between atoms: C1_1  and  O9_9 
REMARK    2  A    between atoms: C5_5  and  C6_6 
REMARK    3  A    between atoms: C6_6  and  C7_7 
REMARK    4  A    between atoms: C7_7  and  C8_8 
REMARK    5  A    between atoms: C8_8  and  O9_9 
ROOT
HETATM    1  C4  UNL     1     -37.508  14.365  -4.317  1.00 20.00     0.040 C 
HETATM    2  C8  UNL     1     -36.166  13.736  -4.662  1.00 20.00     0.125 C 
ENDROOT
BRANCH   2   3
HETATM    3  C7  UNL     1     -34.980  14.368  -3.926  1.00 20.00     0.032 C 
BRANCH   3   4
HETATM    4  C6  UNL     1     -35.391  15.432  -2.908  1.00 20.00     0.002 C 
BRANCH   4   5
HETATM    5  C5  UNL     1     -34.172  16.187  -2.375  1.00 20.00    -0.004 C 
HETATM    6  C3  UNL     1     -33.018  16.148  -3.364  1.00 20.00     0.005 C 
ENDBRANCH   4   5
ENDBRANCH   3   4
ENDBRANCH   2   3
BRANCH   2   7
HETATM    7  O9  UNL     1     -35.950  13.876  -6.067  1.00 20.00    -0.340 OA
BRANCH   7   8
HETATM    8  C1  UNL     1     -35.396  14.995  -6.579  1.00 20.00     0.109 C 
HETATM    9  C2  UNL     1     -33.930  15.023  -6.876  1.00 20.00     0.089 C 
HETATM   10  S10 UNL     1     -36.415  16.287  -6.844  1.00 20.00    -0.058 SA
ENDBRANCH   7   8
ENDBRANCH   2   7
TORSDOF 5
ENDMDL
MODEL 3
REMARK VINA RESULT:      -3.6     11.794     12.711
REMARK  5 active torsions:
REMARK  status: ('A' for Active; 'I' for Inactive)
REMARK    1  A    between atoms: C1_1  and  O9_9 
REMARK    2  A    between atoms: C5_5  and  C6_6 
REMARK    3  A    between atoms: C6_6  and  C7_7 
REMARK    4  A    between atoms: C7_7  and  C8_8 
REMARK    5  A    between atoms: C8_8  and  O9_9 
ROOT
HETATM    1  C4  UNL     1     -36.328  13.759  -4.692  1.00 20.00     0.040 C 
HETATM    2  C8  UNL     1     -35.074  14.606  -4.861  1.00 20.00     0.125 C 
ENDROOT
BRANCH   2   3
HETATM    3  C7  UNL     1     -34.309  14.842  -3.555  1.00 20.00     0.032 C 
BRANCH   3   4
HETATM    4  C6  UNL     1     -35.100  15.646  -2.521  1.00 20.00     0.002 C 
BRANCH   4   5
HETATM    5  C5  UNL     1     -34.274  16.816  -1.982  1.00 20.00    -0.004 C 
HETATM    6  C3  UNL     1     -32.950  16.948  -2.718  1.00 20.00     0.005 C 
ENDBRANCH   4   5
ENDBRANCH   3   4
ENDBRANCH   2   3
BRANCH   2   7
HETATM    7  O9  UNL     1     -35.456  15.874  -5.395  1.00 20.00    -0.340 OA
BRANCH   7   8
HETATM    8  C1  UNL     1     -34.686  16.507  -6.306  1.00 20.00     0.109 C 
HETATM    9  C2  UNL     1     -34.350  17.952  -6.111  1.00 20.00     0.089 C 
HETATM   10  S10 UNL     1     -34.160  15.606  -7.605  1.00 20.00    -0.058 SA
ENDBRANCH   7   8
ENDBRANCH   2   7
TORSDOF 5
ENDMDL
MODEL 4
REMARK VINA RESULT:      -3.5     11.678     12.414
REMARK  5 active torsions:
REMARK  status: ('A' for Active; 'I' for Inactive)
REMARK    1  A    between atoms: C1_1  and  O9_9 
REMARK    2  A    between atoms: C5_5  and  C6_6 
REMARK    3  A    between atoms: C6_6  and  C7_7 
REMARK    4  A    between atoms: C7_7  and  C8_8 
REMARK    5  A    between atoms: C8_8  and  O9_9 
ROOT
HETATM    1  C4  UNL     1     -35.157  16.639  -1.354  1.00 20.00     0.040 C 
HETATM    2  C8  UNL     1     -34.004  16.364  -2.309  1.00 20.00     0.125 C 
ENDROOT
BRANCH   2   3
HETATM    3  C7  UNL     1     -32.904  17.430  -2.272  1.00 20.00     0.032 C 
BRANCH   3   4
HETATM    4  C6  UNL     1     -32.755  18.105  -0.907  1.00 20.00     0.002 C 
BRANCH   4   5
HETATM    5  C5  UNL     1     -31.300  18.491  -0.637  1.00 20.00    -0.004 C 
HETATM    6  C3  UNL     1     -30.905  18.199   0.802  1.00 20.00     0.005 C 
ENDBRANCH   4   5
ENDBRANCH   3   4
ENDBRANCH   2   3
BRANCH   2   7
HETATM    7  O9  UNL     1     -34.524  16.300  -3.637  1.00 20.00    -0.340 OA
BRANCH   7   8
HETATM    8  C1  UNL     1     -34.397  15.181  -4.383  1.00 20.00     0.109 C 
HETATM    9  C2  UNL     1     -33.082  14.467  -4.423  1.00 20.00     0.089 C 
HETATM   10  S10 UNL     1     -35.746  14.676  -5.220  1.00 20.00    -0.058 SA
ENDBRANCH   7   8
ENDBRANCH   2   7
TORSDOF 5
ENDMDL
MODEL 5
REMARK VINA RESULT:      -3.5     11.654     12.777
REMARK  5 active torsions:
REMARK  status: ('A' for Active; 'I' for Inactive)
REMARK    1  A    between atoms: C1_1  and  O9_9 
REMARK    2  A    between atoms: C5_5  and  C6_6 
REMARK    3  A    between atoms: C6_6  and  C7_7 
REMARK    4  A    between atoms: C7_7  and  C8_8 
REMARK    5  A    between atoms: C8_8  and  O9_9 
ROOT
HETATM    1  C4  UNL     1     -32.573  19.130  -3.063  1.00 20.00     0.040 C 
HETATM    2  C8  UNL     1     -33.172  18.120  -2.094  1.00 20.00     0.125 C 
ENDROOT
BRANCH   2   3
HETATM    3  C7  UNL     1     -32.675  18.279  -0.653  1.00 20.00     0.032 C 
BRANCH   3   4
HETATM    4  C6  UNL     1     -31.150  18.315  -0.534  1.00 20.00     0.002 C 
BRANCH   4   5
HETATM    5  C5  UNL     1     -30.715  18.634   0.898  1.00 20.00    -0.004 C 
HETATM    6  C3  UNL     1     -31.805  18.288   1.900  1.00 20.00     0.005 C 
ENDBRANCH   4   5
ENDBRANCH   3   4
ENDBRANCH   2   3
BRANCH   2   7
HETATM    7  O9  UNL     1     -32.834  16.808  -2.545  1.00 20.00    -0.340 OA
BRANCH   7   8
HETATM    8  C1  UNL     1     -33.788  15.943  -2.950  1.00 20.00     0.109 C 
HETATM    9  C2  UNL     1     -35.104  15.912  -2.240  1.00 20.00     0.089 C 
HETATM   10  S10 UNL     1     -33.412  14.955  -4.238  1.00 20.00    -0.058 SA
ENDBRANCH   7   8
ENDBRANCH   2   7
TORSDOF 5
ENDMDL
MODEL 6
REMARK VINA RESULT:      -3.5      2.295      4.391
REMARK  5 active torsions:
REMARK  status: ('A' for Active; 'I' for Inactive)
REMARK    1  A    between atoms: C1_1  and  O9_9 
REMARK    2  A    between atoms: C5_5  and  C6_6 
REMARK    3  A    between atoms: C6_6  and  C7_7 
REMARK    4  A    between atoms: C7_7  and  C8_8 
REMARK    5  A    between atoms: C8_8  and  O9_9 
ROOT
HETATM    1  C4  UNL     1     -32.961   4.631   2.466  1.00 20.00     0.040 C 
HETATM    2  C8  UNL     1     -33.359   6.100   2.511  1.00 20.00     0.125 C 
ENDROOT
BRANCH   2   3
HETATM    3  C7  UNL     1     -32.555   6.987   1.555  1.00 20.00     0.032 C 
BRANCH   3   4
HETATM    4  C6  UNL     1     -32.560   8.466   1.947  1.00 20.00     0.002 C 
BRANCH   4   5
HETATM    5  C5  UNL     1     -32.945   9.351   0.759  1.00 20.00    -0.004 C 
HETATM    6  C3  UNL     1     -33.370   8.518  -0.440  1.00 20.00     0.005 C 
ENDBRANCH   4   5
ENDBRANCH   3   4
ENDBRANCH   2   3
BRANCH   2   7
HETATM    7  O9  UNL     1     -33.164   6.579   3.842  1.00 20.00    -0.340 OA
BRANCH   7   8
HETATM    8  C1  UNL     1     -34.058   6.312   4.818  1.00 20.00     0.109 C 
HETATM    9  C2  UNL     1     -33.903   6.958   6.158  1.00 20.00     0.089 C 
HETATM   10  S10 UNL     1     -35.291   5.257   4.441  1.00 20.00    -0.058 SA
ENDBRANCH   7   8
ENDBRANCH   2   7
TORSDOF 5
ENDMDL
MODEL 7
REMARK VINA RESULT:      -3.5     11.495     12.480
REMARK  5 active torsions:
REMARK  status: ('A' for Active; 'I' for Inactive)
REMARK    1  A    between atoms: C1_1  and  O9_9 
REMARK    2  A    between atoms: C5_5  and  C6_6 
REMARK    3  A    between atoms: C6_6  and  C7_7 
REMARK    4  A    between atoms: C7_7  and  C8_8 
REMARK    5  A    between atoms: C8_8  and  O9_9 
ROOT
HETATM    1  C4  UNL     1     -35.139  16.439  -1.568  1.00 20.00     0.040 C 
HETATM    2  C8  UNL     1     -34.180  15.997  -2.665  1.00 20.00     0.125 C 
ENDROOT
BRANCH   2   3
HETATM    3  C7  UNL     1     -32.904  16.841  -2.745  1.00 20.00     0.032 C 
BRANCH   3   4
HETATM    4  C6  UNL     1     -32.950  18.100  -1.876  1.00 20.00     0.002 C 
BRANCH   4   5
HETATM    5  C5  UNL     1     -31.690  18.224  -1.017  1.00 20.00    -0.004 C 
HETATM    6  C3  UNL     1     -32.033  18.518   0.434  1.00 20.00     0.005 C 
ENDBRANCH   4   5
ENDBRANCH   3   4
ENDBRANCH   2   3
BRANCH   2   7
HETATM    7  O9  UNL     1     -34.858  16.086  -3.919  1.00 20.00    -0.340 OA
BRANCH   7   8
HETATM    8  C1  UNL     1     -34.964  15.012  -4.731  1.00 20.00     0.109 C 
HETATM    9  C2  UNL     1     -35.663  13.783  -4.241  1.00 20.00     0.089 C 
HETATM   10  S10 UNL     1     -34.291  15.147  -6.249  1.00 20.00    -0.058 SA
ENDBRANCH   7   8
ENDBRANCH   2   7
TORSDOF 5
ENDMDL
MODEL 8
REMARK VINA RESULT:      -3.5      2.427      4.745
REMARK  5 active torsions:
REMARK  status: ('A' for Active; 'I' for Inactive)
REMARK    1  A    between atoms: C1_1  and  O9_9 
REMARK    2  A    between atoms: C5_5  and  C6_6 
REMARK    3  A    between atoms: C6_6  and  C7_7 
REMARK    4  A    between atoms: C7_7  and  C8_8 
REMARK    5  A    between atoms: C8_8  and  O9_9 
ROOT
HETATM    1  C4  UNL     1     -31.565   7.653   3.746  1.00 20.00     0.040 C 
HETATM    2  C8  UNL     1     -32.592   6.703   3.146  1.00 20.00     0.125 C 
ENDROOT
BRANCH   2   3
HETATM    3  C7  UNL     1     -32.789   6.879   1.637  1.00 20.00     0.032 C 
BRANCH   3   4
HETATM    4  C6  UNL     1     -31.980   8.036   1.048  1.00 20.00     0.002 C 
BRANCH   4   5
HETATM    5  C5  UNL     1     -32.875   9.238   0.743  1.00 20.00    -0.004 C 
HETATM    6  C3  UNL     1     -33.667   9.031  -0.538  1.00 20.00     0.005 C 
ENDBRANCH   4   5
ENDBRANCH   3   4
ENDBRANCH   2   3
BRANCH   2   7
HETATM    7  O9  UNL     1     -33.845   6.927   3.794  1.00 20.00    -0.340 OA
BRANCH   7   8
HETATM    8  C1  UNL     1     -34.264   6.128   4.798  1.00 20.00     0.109 C 
HETATM    9  C2  UNL     1     -34.219   6.630   6.207  1.00 20.00     0.089 C 
HETATM   10  S10 UNL     1     -34.807   4.610   4.377  1.00 20.00    -0.058 SA
ENDBRANCH   7   8
ENDBRANCH   2   7
TORSDOF 5
ENDMDL
MODEL 9
REMARK VINA RESULT:      -3.5     11.443     12.151
REMARK  5 active torsions:
REMARK  status: ('A' for Active; 'I' for Inactive)
REMARK    1  A    between atoms: C1_1  and  O9_9 
REMARK    2  A    between atoms: C5_5  and  C6_6 
REMARK    3  A    between atoms: C6_6  and  C7_7 
REMARK    4  A    between atoms: C7_7  and  C8_8 
REMARK    5  A    between atoms: C8_8  and  O9_9 
ROOT
HETATM    1  C4  UNL     1     -32.376  14.250  -4.331  1.00 20.00     0.040 C 
HETATM    2  C8  UNL     1     -33.580  14.984  -4.905  1.00 20.00     0.125 C 
ENDROOT
BRANCH   2   3
HETATM    3  C7  UNL     1     -33.923  16.280  -4.165  1.00 20.00     0.032 C 
BRANCH   3   4
HETATM    4  C6  UNL     1     -33.726  16.188  -2.651  1.00 20.00     0.002 C 
BRANCH   4   5
HETATM    5  C5  UNL     1     -35.069  16.140  -1.920  1.00 20.00    -0.004 C 
HETATM    6  C3  UNL     1     -35.092  17.091  -0.735  1.00 20.00     0.005 C 
ENDBRANCH   4   5
ENDBRANCH   3   4
ENDBRANCH   2   3
BRANCH   2   7
HETATM    7  O9  UNL     1     -34.711  14.114  -4.840  1.00 20.00    -0.340 OA
BRANCH   7   8
HETATM    8  C1  UNL     1     -35.873  14.436  -5.446  1.00 20.00     0.109 C 
HETATM    9  C2  UNL     1     -35.878  14.763  -6.906  1.00 20.00     0.089 C 
HETATM   10  S10 UNL     1     -37.242  14.445  -4.496  1.00 20.00    -0.058 SA
ENDBRANCH   7   8
ENDBRANCH   2   7
TORSDOF 5
ENDMDL
