MODEL 1
REMARK VINA RESULT:      -4.0      0.000      0.000
REMARK  0 active torsions:
REMARK  status: ('A' for Active; 'I' for Inactive)
ROOT
HETATM    1  C1  UNL     1     -33.292   7.030   5.121  1.00 20.00     0.043 C 
HETATM    2  C2  UNL     1     -34.232   4.263   3.822  1.00 20.00     0.019 C 
HETATM    3  C3  UNL     1     -33.295   4.858   3.073  1.00 20.00     0.114 C 
HETATM    4  C4  UNL     1     -34.063   6.318   5.957  1.00 20.00     0.136 C 
HETATM    5  C5  UNL     1     -33.293   7.086   3.633  1.00 20.00     0.118 C 
HETATM    6  C6  UNL     1     -35.373   5.013   4.430  1.00 20.00     0.203 C 
HETATM    7  N7  UNL     1     -33.274   6.176   2.714  1.00 20.00    -0.273 NA
HETATM    8  O8  UNL     1     -35.050   5.396   5.761  1.00 20.00    -0.359 OA
ENDROOT
TORSDOF 0
ENDMDL
MODEL 2
REMARK VINA RESULT:      -3.8     16.146     16.742
REMARK  0 active torsions:
REMARK  status: ('A' for Active; 'I' for Inactive)
ROOT
HETATM    1  C1  UNL     1     -24.905  19.263   9.070  1.00 20.00     0.043 C 
HETATM    2  C2  UNL     1     -22.524  17.256   9.801  1.00 20.00     0.019 C 
HETATM    3  C3  UNL     1     -22.255  17.943   8.684  1.00 20.00     0.114 C 
HETATM    4  C4  UNL     1     -25.054  18.729  10.292  1.00 20.00     0.136 C 
HETATM    5  C5  UNL     1     -24.259  18.699   7.853  1.00 20.00     0.118 C 
HETATM    6  C6  UNL     1     -23.866  16.657  10.075  1.00 20.00     0.203 C 
HETATM    7  N7  UNL     1     -23.112  18.140   7.639  1.00 20.00    -0.273 NA
HETATM    8  O8  UNL     1     -24.649  17.553  10.854  1.00 20.00    -0.359 OA
ENDROOT
TORSDOF 0
ENDMDL
MODEL 3
REMARK VINA RESULT:      -3.7     16.256     16.827
REMARK  0 active torsions:
REMARK  status: ('A' for Active; 'I' for Inactive)
ROOT
HETATM    1  C1  UNL     1     -22.509  16.974   9.213  1.00 20.00     0.043 C 
HETATM    2  C2  UNL     1     -24.744  19.262   9.153  1.00 20.00     0.019 C 
HETATM    3  C3  UNL     1     -24.699  18.657  10.347  1.00 20.00     0.114 C 
HETATM    4  C4  UNL     1     -22.423  17.734   8.110  1.00 20.00     0.136 C 
HETATM    5  C5  UNL     1     -23.697  16.613  10.034  1.00 20.00     0.118 C 
HETATM    6  C6  UNL     1     -24.680  18.507   7.865  1.00 20.00     0.203 C 
HETATM    7  N7  UNL     1     -24.653  17.308  10.560  1.00 20.00    -0.273 NA
HETATM    8  O8  UNL     1     -23.337  18.454   7.397  1.00 20.00    -0.359 OA
ENDROOT
TORSDOF 0
ENDMDL
MODEL 4
REMARK VINA RESULT:      -3.6     15.888     16.656
REMARK  0 active torsions:
REMARK  status: ('A' for Active; 'I' for Inactive)
ROOT
HETATM    1  C1  UNL     1     -25.869  18.785  11.224  1.00 20.00     0.043 C 
HETATM    2  C2  UNL     1     -23.418  16.802  11.759  1.00 20.00     0.019 C 
HETATM    3  C3  UNL     1     -23.036  17.864  11.037  1.00 20.00     0.114 C 
HETATM    4  C4  UNL     1     -26.176  17.835  12.121  1.00 20.00     0.136 C 
HETATM    5  C5  UNL     1     -24.927  18.744  10.072  1.00 20.00     0.118 C 
HETATM    6  C6  UNL     1     -24.688  16.062  11.492  1.00 20.00     0.203 C 
HETATM    7  N7  UNL     1     -23.693  18.373   9.953  1.00 20.00    -0.273 NA
HETATM    8  O8  UNL     1     -25.727  16.563  12.326  1.00 20.00    -0.359 OA
ENDROOT
TORSDOF 0
ENDMDL
MODEL 5
REMARK VINA RESULT:      -3.6     16.391     17.033
REMARK  0 active torsions:
REMARK  status: ('A' for Active; 'I' for Inactive)
ROOT
HETATM    1  C1  UNL     1     -25.353  19.258   9.051  1.00 20.00     0.043 C 
HETATM    2  C2  UNL     1     -23.169  17.015   9.702  1.00 20.00     0.019 C 
HETATM    3  C3  UNL     1     -24.265  16.859  10.455  1.00 20.00     0.114 C 
HETATM    4  C4  UNL     1     -24.347  19.263   8.163  1.00 20.00     0.136 C 
HETATM    5  C5  UNL     1     -25.356  18.881  10.491  1.00 20.00     0.118 C 
HETATM    6  C6  UNL     1     -22.544  18.350   9.456  1.00 20.00     0.203 C 
HETATM    7  N7  UNL     1     -24.916  17.848  11.135  1.00 20.00    -0.273 NA
HETATM    8  O8  UNL     1     -23.033  18.898   8.237  1.00 20.00    -0.359 OA
ENDROOT
TORSDOF 0
ENDMDL
MODEL 6
REMARK VINA RESULT:      -3.6      1.834      2.582
REMARK  0 active torsions:
REMARK  status: ('A' for Active; 'I' for Inactive)
ROOT
HETATM    1  C1  UNL     1     -32.956   7.153   3.798  1.00 20.00     0.043 C 
HETATM    2  C2  UNL     1     -35.108   4.826   4.225  1.00 20.00     0.019 C 
HETATM    3  C3  UNL     1     -35.217   5.768   5.171  1.00 20.00     0.114 C 
HETATM    4  C4  UNL     1     -33.011   6.319   2.748  1.00 20.00     0.136 C 
HETATM    5  C5  UNL     1     -33.214   6.892   5.241  1.00 20.00     0.118 C 
HETATM    6  C6  UNL     1     -33.790   4.292   3.768  1.00 20.00     0.203 C 
HETATM    7  N7  UNL     1     -34.184   6.317   5.876  1.00 20.00    -0.273 NA
HETATM    8  O8  UNL     1     -33.350   5.003   2.616  1.00 20.00    -0.359 OA
ENDROOT
TORSDOF 0
ENDMDL
MODEL 7
REMARK VINA RESULT:      -3.6      1.826      3.297
REMARK  0 active torsions:
REMARK  status: ('A' for Active; 'I' for Inactive)
ROOT
HETATM    1  C1  UNL     1     -34.090   4.378   3.578  1.00 20.00     0.043 C 
HETATM    2  C2  UNL     1     -33.245   7.049   5.121  1.00 20.00     0.019 C 
HETATM    3  C3  UNL     1     -33.936   6.225   5.919  1.00 20.00     0.114 C 
HETATM    4  C4  UNL     1     -33.218   5.113   2.871  1.00 20.00     0.136 C 
HETATM    5  C5  UNL     1     -35.125   4.803   4.560  1.00 20.00     0.118 C 
HETATM    6  C6  UNL     1     -33.644   7.321   3.706  1.00 20.00     0.203 C 
HETATM    7  N7  UNL     1     -35.096   5.581   5.594  1.00 20.00    -0.273 NA
HETATM    8  O8  UNL     1     -32.942   6.449   2.827  1.00 20.00    -0.359 OA
ENDROOT
TORSDOF 0
ENDMDL
MODEL 8
REMARK VINA RESULT:      -3.6     12.427     12.963
REMARK  0 active torsions:
REMARK  status: ('A' for Active; 'I' for Inactive)
ROOT
HETATM    1  C1  UNL     1     -36.098  14.905  -3.556  1.00 20.00     0.043 C 
HETATM    2  C2  UNL     1     -33.946  15.120  -5.912  1.00 20.00     0.019 C 
HETATM    3  C3  UNL     1     -35.154  14.787  -6.386  1.00 20.00     0.114 C 
HETATM    4  C4  UNL     1     -34.943  15.445  -3.136  1.00 20.00     0.136 C 
HETATM    5  C5  UNL     1     -36.351  13.909  -4.633  1.00 20.00     0.118 C 
HETATM    6  C6  UNL     1     -33.367  14.505  -4.680  1.00 20.00     0.203 C 
HETATM    7  N7  UNL     1     -35.980  13.830  -5.870  1.00 20.00    -0.273 NA
HETATM    8  O8  UNL     1     -33.648  15.322  -3.550  1.00 20.00    -0.359 OA
ENDROOT
TORSDOF 0
ENDMDL
MODEL 9
REMARK VINA RESULT:      -3.6     16.490     17.610
REMARK  0 active torsions:
REMARK  status: ('A' for Active; 'I' for Inactive)
ROOT
HETATM    1  C1  UNL     1     -22.190  18.299   9.346  1.00 20.00     0.043 C 
HETATM    2  C2  UNL     1     -23.523  16.664  11.749  1.00 20.00     0.019 C 
HETATM    3  C3  UNL     1     -24.361  16.770  10.710  1.00 20.00     0.114 C 
HETATM    4  C4  UNL     1     -21.299  17.995  10.303  1.00 20.00     0.136 C 
HETATM    5  C5  UNL     1     -23.653  18.555   9.448  1.00 20.00     0.118 C 
HETATM    6  C6  UNL     1     -22.700  17.810  12.241  1.00 20.00     0.203 C 
HETATM    7  N7  UNL     1     -24.625  17.912  10.008  1.00 20.00    -0.273 NA
HETATM    8  O8  UNL     1     -21.409  17.773  11.645  1.00 20.00    -0.359 OA
ENDROOT
TORSDOF 0
ENDMDL
