MODEL 1
REMARK VINA RESULT:      -4.4      0.000      0.000
REMARK  1 active torsions:
REMARK  status: ('A' for Active; 'I' for Inactive)
REMARK    1  A    between atoms: C4_4  and  O11_11 
ROOT
HETATM    1  C1  UNL     1     -34.233  17.205  -4.491  1.00 20.00    -0.021 C 
HETATM    2  C2  UNL     1     -35.342  16.454  -4.376  1.00 20.00    -0.025 C 
HETATM    3  C3  UNL     1     -33.789  17.000  -2.089  1.00 20.00    -0.043 C 
HETATM    4  C4  UNL     1     -33.256  17.821  -1.180  1.00 20.00     0.045 C 
HETATM    5  C5  UNL     1     -35.044  16.153  -1.916  1.00 20.00     0.046 C 
HETATM    6  C6  UNL     1     -33.586  15.201  -3.539  1.00 20.00     0.022 C 
HETATM    7  C7  UNL     1     -33.241  16.694  -3.471  1.00 20.00     0.040 C 
HETATM    8  C8  UNL     1     -35.081  15.433  -3.286  1.00 20.00     0.013 C 
HETATM    9  C9  UNL     1     -32.017  18.627  -1.415  1.00 20.00     0.076 C 
ENDROOT
BRANCH   4  10
HETATM   10  O11 UNL     1     -33.849  17.966   0.060  1.00 20.00    -0.360 OA
HETATM   11  C10 UNL     1     -32.970  18.497   1.019  1.00 20.00     0.209 C 
ENDBRANCH   4  10
TORSDOF 1
ENDMDL
MODEL 2
REMARK VINA RESULT:      -4.3      2.267      4.240
REMARK  1 active torsions:
REMARK  status: ('A' for Active; 'I' for Inactive)
REMARK    1  A    between atoms: C4_4  and  O11_11 
ROOT
HETATM    1  C1  UNL     1     -32.711  17.493  -2.672  1.00 20.00    -0.021 C 
HETATM    2  C2  UNL     1     -33.296  17.536  -1.463  1.00 20.00    -0.025 C 
HETATM    3  C3  UNL     1     -34.372  15.877  -3.471  1.00 20.00    -0.043 C 
HETATM    4  C4  UNL     1     -34.318  14.848  -4.320  1.00 20.00     0.045 C 
HETATM    5  C5  UNL     1     -35.058  15.891  -2.110  1.00 20.00     0.046 C 
HETATM    6  C6  UNL     1     -34.916  18.087  -3.020  1.00 20.00     0.022 C 
HETATM    7  C7  UNL     1     -33.806  17.269  -3.690  1.00 20.00     0.040 C 
HETATM    8  C8  UNL     1     -34.785  17.353  -1.679  1.00 20.00     0.013 C 
HETATM    9  C9  UNL     1     -33.626  14.901  -5.645  1.00 20.00     0.076 C 
ENDROOT
BRANCH   4  10
HETATM   10  O11 UNL     1     -34.922  13.647  -3.998  1.00 20.00    -0.360 OA
HETATM   11  C10 UNL     1     -36.192  13.508  -4.585  1.00 20.00     0.209 C 
ENDBRANCH   4  10
TORSDOF 1
ENDMDL
MODEL 3
REMARK VINA RESULT:      -4.2      1.351      2.423
REMARK  1 active torsions:
REMARK  status: ('A' for Active; 'I' for Inactive)
REMARK    1  A    between atoms: C4_4  and  O11_11 
ROOT
HETATM    1  C1  UNL     1     -34.653  15.555  -2.732  1.00 20.00    -0.021 C 
HETATM    2  C2  UNL     1     -33.479  15.720  -3.366  1.00 20.00    -0.025 C 
HETATM    3  C3  UNL     1     -34.164  17.436  -1.238  1.00 20.00    -0.043 C 
HETATM    4  C4  UNL     1     -34.449  17.690   0.042  1.00 20.00     0.045 C 
HETATM    5  C5  UNL     1     -32.821  17.649  -1.926  1.00 20.00     0.046 C 
HETATM    6  C6  UNL     1     -34.609  17.735  -3.495  1.00 20.00     0.022 C 
HETATM    7  C7  UNL     1     -35.123  16.925  -2.299  1.00 20.00     0.040 C 
HETATM    8  C8  UNL     1     -33.175  17.205  -3.366  1.00 20.00     0.013 C 
HETATM    9  C9  UNL     1     -35.793  17.457   0.655  1.00 20.00     0.076 C 
ENDROOT
BRANCH   4  10
HETATM   10  O11 UNL     1     -33.476  18.198   0.883  1.00 20.00    -0.360 OA
HETATM   11  C10 UNL     1     -33.829  18.092   2.240  1.00 20.00     0.209 C 
ENDBRANCH   4  10
TORSDOF 1
ENDMDL
MODEL 4
REMARK VINA RESULT:      -4.2      2.665      4.926
REMARK  1 active torsions:
REMARK  status: ('A' for Active; 'I' for Inactive)
REMARK    1  A    between atoms: C4_4  and  O11_11 
ROOT
HETATM    1  C1  UNL     1     -34.848  16.260  -1.920  1.00 20.00    -0.021 C 
HETATM    2  C2  UNL     1     -34.391  17.499  -2.170  1.00 20.00    -0.025 C 
HETATM    3  C3  UNL     1     -35.036  15.794  -4.319  1.00 20.00    -0.043 C 
HETATM    4  C4  UNL     1     -35.887  15.070  -5.050  1.00 20.00     0.045 C 
HETATM    5  C5  UNL     1     -34.529  17.194  -4.643  1.00 20.00     0.046 C 
HETATM    6  C6  UNL     1     -32.983  16.023  -3.263  1.00 20.00     0.022 C 
HETATM    7  C7  UNL     1     -34.350  15.367  -3.033  1.00 20.00     0.040 C 
HETATM    8  C8  UNL     1     -33.575  17.426  -3.446  1.00 20.00     0.013 C 
HETATM    9  C9  UNL     1     -36.346  13.697  -4.673  1.00 20.00     0.076 C 
ENDROOT
BRANCH   4  10
HETATM   10  O11 UNL     1     -36.400  15.580  -6.229  1.00 20.00    -0.360 OA
HETATM   11  C10 UNL     1     -35.763  15.052  -7.365  1.00 20.00     0.209 C 
ENDBRANCH   4  10
TORSDOF 1
ENDMDL
MODEL 5
REMARK VINA RESULT:      -4.2      2.565      4.641
REMARK  1 active torsions:
REMARK  status: ('A' for Active; 'I' for Inactive)
REMARK    1  A    between atoms: C4_4  and  O11_11 
ROOT
HETATM    1  C1  UNL     1     -35.606  17.871  -3.076  1.00 20.00    -0.021 C 
HETATM    2  C2  UNL     1     -34.414  18.238  -2.576  1.00 20.00    -0.025 C 
HETATM    3  C3  UNL     1     -34.675  15.744  -3.862  1.00 20.00    -0.043 C 
HETATM    4  C4  UNL     1     -34.917  14.973  -4.924  1.00 20.00     0.045 C 
HETATM    5  C5  UNL     1     -33.305  16.128  -3.316  1.00 20.00     0.046 C 
HETATM    6  C6  UNL     1     -34.960  16.209  -1.607  1.00 20.00     0.022 C 
HETATM    7  C7  UNL     1     -35.705  16.369  -2.938  1.00 20.00     0.040 C 
HETATM    8  C8  UNL     1     -33.724  16.978  -2.091  1.00 20.00     0.013 C 
HETATM    9  C9  UNL     1     -36.292  14.634  -5.408  1.00 20.00     0.076 C 
ENDROOT
BRANCH   4  10
HETATM   10  O11 UNL     1     -33.868  14.436  -5.648  1.00 20.00    -0.360 OA
HETATM   11  C10 UNL     1     -33.752  15.003  -6.929  1.00 20.00     0.209 C 
ENDBRANCH   4  10
TORSDOF 1
ENDMDL
MODEL 6
REMARK VINA RESULT:      -4.2      1.777      2.434
REMARK  1 active torsions:
REMARK  status: ('A' for Active; 'I' for Inactive)
REMARK    1  A    between atoms: C4_4  and  O11_11 
ROOT
HETATM    1  C1  UNL     1     -34.330  15.029  -5.551  1.00 20.00    -0.021 C 
HETATM    2  C2  UNL     1     -35.557  14.576  -5.861  1.00 20.00    -0.025 C 
HETATM    3  C3  UNL     1     -35.049  15.549  -3.266  1.00 20.00    -0.043 C 
HETATM    4  C4  UNL     1     -34.724  16.510  -2.398  1.00 20.00     0.045 C 
HETATM    5  C5  UNL     1     -36.455  15.053  -3.582  1.00 20.00     0.046 C 
HETATM    6  C6  UNL     1     -34.832  13.368  -4.026  1.00 20.00     0.022 C 
HETATM    7  C7  UNL     1     -34.092  14.709  -4.093  1.00 20.00     0.040 C 
HETATM    8  C8  UNL     1     -36.130  13.941  -4.609  1.00 20.00     0.013 C 
HETATM    9  C9  UNL     1     -33.319  16.951  -2.134  1.00 20.00     0.076 C 
ENDROOT
BRANCH   4  10
HETATM   10  O11 UNL     1     -35.710  17.162  -1.680  1.00 20.00    -0.360 OA
HETATM   11  C10 UNL     1     -35.458  17.164  -0.297  1.00 20.00     0.209 C 
ENDBRANCH   4  10
TORSDOF 1
ENDMDL
MODEL 7
REMARK VINA RESULT:      -4.1     12.323     14.189
REMARK  1 active torsions:
REMARK  status: ('A' for Active; 'I' for Inactive)
REMARK    1  A    between atoms: C4_4  and  O11_11 
ROOT
HETATM    1  C1  UNL     1     -43.331   8.290   0.435  1.00 20.00    -0.021 C 
HETATM    2  C2  UNL     1     -42.586   9.106  -0.331  1.00 20.00    -0.025 C 
HETATM    3  C3  UNL     1     -42.182   6.320  -0.464  1.00 20.00    -0.043 C 
HETATM    4  C4  UNL     1     -42.573   5.072  -0.733  1.00 20.00     0.045 C 
HETATM    5  C5  UNL     1     -41.325   7.211  -1.355  1.00 20.00     0.046 C 
HETATM    6  C6  UNL     1     -41.120   7.838   0.932  1.00 20.00     0.022 C 
HETATM    7  C7  UNL     1     -42.463   7.108   0.803  1.00 20.00     0.040 C 
HETATM    8  C8  UNL     1     -41.216   8.471  -0.461  1.00 20.00     0.013 C 
HETATM    9  C9  UNL     1     -43.417   4.249   0.188  1.00 20.00     0.076 C 
ENDROOT
BRANCH   4  10
HETATM   10  O11 UNL     1     -42.201   4.467  -1.919  1.00 20.00    -0.360 OA
HETATM   11  C10 UNL     1     -43.287   3.868  -2.582  1.00 20.00     0.209 C 
ENDBRANCH   4  10
TORSDOF 1
ENDMDL
MODEL 8
REMARK VINA RESULT:      -4.1      3.411      5.065
REMARK  1 active torsions:
REMARK  status: ('A' for Active; 'I' for Inactive)
REMARK    1  A    between atoms: C4_4  and  O11_11 
ROOT
HETATM    1  C1  UNL     1     -34.476  16.108  -5.234  1.00 20.00    -0.021 C 
HETATM    2  C2  UNL     1     -33.816  14.937  -5.236  1.00 20.00    -0.025 C 
HETATM    3  C3  UNL     1     -36.424  15.063  -4.175  1.00 20.00    -0.043 C 
HETATM    4  C4  UNL     1     -37.741  15.264  -4.273  1.00 20.00     0.045 C 
HETATM    5  C5  UNL     1     -35.712  13.716  -4.167  1.00 20.00     0.046 C 
HETATM    6  C6  UNL     1     -34.422  15.371  -3.045  1.00 20.00     0.022 C 
HETATM    7  C7  UNL     1     -35.353  16.125  -4.002  1.00 20.00     0.040 C 
HETATM    8  C8  UNL     1     -34.245  14.180  -3.995  1.00 20.00     0.013 C 
HETATM    9  C9  UNL     1     -38.377  16.618  -4.274  1.00 20.00     0.076 C 
ENDROOT
BRANCH   4  10
HETATM   10  O11 UNL     1     -38.602  14.188  -4.382  1.00 20.00    -0.360 OA
HETATM   11  C10 UNL     1     -39.948  14.583  -4.474  1.00 20.00     0.209 C 
ENDBRANCH   4  10
TORSDOF 1
ENDMDL
MODEL 9
REMARK VINA RESULT:      -4.0      3.173      5.140
REMARK  1 active torsions:
REMARK  status: ('A' for Active; 'I' for Inactive)
REMARK    1  A    between atoms: C4_4  and  O11_11 
ROOT
HETATM    1  C1  UNL     1     -34.761  15.744  -2.560  1.00 20.00    -0.021 C 
HETATM    2  C2  UNL     1     -33.656  16.144  -3.213  1.00 20.00    -0.025 C 
HETATM    3  C3  UNL     1     -35.886  15.239  -4.679  1.00 20.00    -0.043 C 
HETATM    4  C4  UNL     1     -37.155  15.319  -5.087  1.00 20.00     0.045 C 
HETATM    5  C5  UNL     1     -34.655  15.693  -5.455  1.00 20.00     0.046 C 
HETATM    6  C6  UNL     1     -34.101  13.980  -3.898  1.00 20.00     0.022 C 
HETATM    7  C7  UNL     1     -35.385  14.636  -3.378  1.00 20.00     0.040 C 
HETATM    8  C8  UNL     1     -33.539  15.292  -4.460  1.00 20.00     0.013 C 
HETATM    9  C9  UNL     1     -38.320  14.853  -4.273  1.00 20.00     0.076 C 
ENDROOT
BRANCH   4  10
HETATM   10  O11 UNL     1     -37.454  15.858  -6.324  1.00 20.00    -0.360 OA
HETATM   11  C10 UNL     1     -38.165  17.067  -6.228  1.00 20.00     0.209 C 
ENDBRANCH   4  10
TORSDOF 1
ENDMDL
