MODEL 1
REMARK VINA RESULT:      -3.1      0.000      0.000
REMARK  0 active torsions:
REMARK  status: ('A' for Active; 'I' for Inactive)
ROOT
HETATM    1  C1  UNL     1     -34.814   5.250   5.789  1.00 20.00     0.128 C 
HETATM    2  C2  UNL     1     -34.067   6.540   5.742  1.00 20.00     0.234 C 
HETATM    3  N3  UNL     1     -34.893   4.539   4.718  1.00 20.00    -0.203 NA
HETATM    4  O4  UNL     1     -33.749   6.724   4.373  1.00 20.00    -0.295 OA
HETATM    5  S5  UNL     1     -34.063   5.338   3.502  1.00 20.00     0.137 SA
ENDROOT
TORSDOF 0
ENDMDL
MODEL 2
REMARK VINA RESULT:      -3.0      1.794      1.794
REMARK  0 active torsions:
REMARK  status: ('A' for Active; 'I' for Inactive)
ROOT
HETATM    1  C1  UNL     1     -34.204   5.151   3.551  1.00 20.00     0.128 C 
HETATM    2  C2  UNL     1     -33.725   6.527   3.871  1.00 20.00     0.234 C 
HETATM    3  N3  UNL     1     -34.760   4.456   4.482  1.00 20.00    -0.203 NA
HETATM    4  O4  UNL     1     -33.887   6.650   5.273  1.00 20.00    -0.295 OA
HETATM    5  S5  UNL     1     -34.783   5.382   5.878  1.00 20.00     0.137 SA
ENDROOT
TORSDOF 0
ENDMDL
MODEL 3
REMARK VINA RESULT:      -3.0      2.340      2.503
REMARK  0 active torsions:
REMARK  status: ('A' for Active; 'I' for Inactive)
ROOT
HETATM    1  C1  UNL     1     -33.778   6.416   3.988  1.00 20.00     0.128 C 
HETATM    2  C2  UNL     1     -34.143   5.078   3.438  1.00 20.00     0.234 C 
HETATM    3  N3  UNL     1     -34.029   6.666   5.227  1.00 20.00    -0.203 NA
HETATM    4  O4  UNL     1     -34.869   4.445   4.478  1.00 20.00    -0.295 OA
HETATM    5  S5  UNL     1     -34.739   5.306   5.899  1.00 20.00     0.137 SA
ENDROOT
TORSDOF 0
ENDMDL
MODEL 4
REMARK VINA RESULT:      -2.9      1.789      2.019
REMARK  0 active torsions:
REMARK  status: ('A' for Active; 'I' for Inactive)
ROOT
HETATM    1  C1  UNL     1     -34.251   6.350   4.770  1.00 20.00     0.128 C 
HETATM    2  C2  UNL     1     -34.934   5.054   5.049  1.00 20.00     0.234 C 
HETATM    3  N3  UNL     1     -33.541   6.459   3.700  1.00 20.00    -0.203 NA
HETATM    4  O4  UNL     1     -34.449   4.168   4.054  1.00 20.00    -0.295 OA
HETATM    5  S5  UNL     1     -33.608   5.000   2.880  1.00 20.00     0.137 SA
ENDROOT
TORSDOF 0
ENDMDL
MODEL 5
REMARK VINA RESULT:      -2.8      1.631      1.844
REMARK  0 active torsions:
REMARK  status: ('A' for Active; 'I' for Inactive)
ROOT
HETATM    1  C1  UNL     1     -34.741   5.413   5.848  1.00 20.00     0.128 C 
HETATM    2  C2  UNL     1     -34.913   4.692   4.553  1.00 20.00     0.234 C 
HETATM    3  N3  UNL     1     -34.087   6.523   5.857  1.00 20.00    -0.203 NA
HETATM    4  O4  UNL     1     -34.110   5.408   3.631  1.00 20.00    -0.295 OA
HETATM    5  S5  UNL     1     -33.593   6.849   4.290  1.00 20.00     0.137 SA
ENDROOT
TORSDOF 0
ENDMDL
MODEL 6
REMARK VINA RESULT:      -2.7     17.093     17.350
REMARK  0 active torsions:
REMARK  status: ('A' for Active; 'I' for Inactive)
ROOT
HETATM    1  C1  UNL     1     -23.111  18.489   9.738  1.00 20.00     0.128 C 
HETATM    2  C2  UNL     1     -23.511  17.056   9.848  1.00 20.00     0.234 C 
HETATM    3  N3  UNL     1     -22.223  18.819   8.865  1.00 20.00    -0.203 NA
HETATM    4  O4  UNL     1     -22.617  16.364   8.994  1.00 20.00    -0.295 OA
HETATM    5  S5  UNL     1     -21.753  17.433   8.051  1.00 20.00     0.137 SA
ENDROOT
TORSDOF 0
ENDMDL
MODEL 7
REMARK VINA RESULT:      -2.5     16.842     17.096
REMARK  0 active torsions:
REMARK  status: ('A' for Active; 'I' for Inactive)
ROOT
HETATM    1  C1  UNL     1     -23.895  16.669  11.763  1.00 20.00     0.128 C 
HETATM    2  C2  UNL     1     -22.701  17.512  12.063  1.00 20.00     0.234 C 
HETATM    3  N3  UNL     1     -24.154  16.376  10.536  1.00 20.00    -0.203 NA
HETATM    4  O4  UNL     1     -22.222  17.925  10.795  1.00 20.00    -0.295 OA
HETATM    5  S5  UNL     1     -22.979  17.081   9.573  1.00 20.00     0.137 SA
ENDROOT
TORSDOF 0
ENDMDL
MODEL 8
REMARK VINA RESULT:      -2.5     17.414     17.471
REMARK  0 active torsions:
REMARK  status: ('A' for Active; 'I' for Inactive)
ROOT
HETATM    1  C1  UNL     1     -22.038  17.781   9.416  1.00 20.00     0.128 C 
HETATM    2  C2  UNL     1     -21.780  17.448   7.985  1.00 20.00     0.234 C 
HETATM    3  N3  UNL     1     -23.115  18.418   9.720  1.00 20.00    -0.203 NA
HETATM    4  O4  UNL     1     -22.804  18.114   7.268  1.00 20.00    -0.295 OA
HETATM    5  S5  UNL     1     -23.970  18.697   8.307  1.00 20.00     0.137 SA
ENDROOT
TORSDOF 0
ENDMDL
MODEL 9
REMARK VINA RESULT:      -2.5     17.012     17.160
REMARK  0 active torsions:
REMARK  status: ('A' for Active; 'I' for Inactive)
ROOT
HETATM    1  C1  UNL     1     -24.135  16.445  10.623  1.00 20.00     0.128 C 
HETATM    2  C2  UNL     1     -23.172  17.096   9.689  1.00 20.00     0.234 C 
HETATM    3  N3  UNL     1     -24.008  16.651  11.889  1.00 20.00    -0.203 NA
HETATM    4  O4  UNL     1     -22.200  17.694  10.530  1.00 20.00    -0.295 OA
HETATM    5  S5  UNL     1     -22.700  17.673  12.120  1.00 20.00     0.137 SA
ENDROOT
TORSDOF 0
ENDMDL
