MODEL 1
REMARK VINA RESULT:      -4.8      0.000      0.000
REMARK  4 active torsions:
REMARK  status: ('A' for Active; 'I' for Inactive)
REMARK    1  A    between atoms: C1_1  and  C7_7 
REMARK    2  A    between atoms: C1_1  and  C8_8 
REMARK    3  A    between atoms: C5_5  and  C6_6 
REMARK    4  A    between atoms: C6_6  and  C8_8 
ROOT
HETATM    1  C1  UNL     1     -33.410   6.092   3.255  1.00 20.00     0.148 C 
HETATM    2  O9  UNL     1     -33.062   5.052   2.692  1.00 20.00    -0.296 OA
ENDROOT
BRANCH   1   3
HETATM    3  C7  UNL     1     -34.454   6.097   4.370  1.00 20.00     0.049 C 
HETATM    4  C3  UNL     1     -33.893   6.722   5.645  1.00 20.00     0.017 C 
HETATM    5  C4  UNL     1     -34.940   4.677   4.632  1.00 20.00     0.017 C 
ENDBRANCH   1   3
BRANCH   1   6
HETATM    6  C8  UNL     1     -32.821   7.440   2.861  1.00 20.00     0.152 C 
HETATM    7 CL10 UNL     1     -31.351   7.661   3.851  1.00 20.00    -0.117 Cl
BRANCH   6   8
HETATM    8  C6  UNL     1     -32.468   7.497   1.375  1.00 20.00     0.027 C 
BRANCH   8   9
HETATM    9  C5  UNL     1     -32.710   8.888   0.780  1.00 20.00    -0.003 C 
HETATM   10  C2  UNL     1     -33.537   8.811  -0.493  1.00 20.00     0.005 C 
ENDBRANCH   8   9
ENDBRANCH   6   8
ENDBRANCH   1   6
TORSDOF 4
ENDMDL
MODEL 2
REMARK VINA RESULT:      -4.5      1.737      4.750
REMARK  4 active torsions:
REMARK  status: ('A' for Active; 'I' for Inactive)
REMARK    1  A    between atoms: C1_1  and  C7_7 
REMARK    2  A    between atoms: C1_1  and  C8_8 
REMARK    3  A    between atoms: C5_5  and  C6_6 
REMARK    4  A    between atoms: C6_6  and  C8_8 
ROOT
HETATM    1  C1  UNL     1     -32.585   7.333   2.312  1.00 20.00     0.148 C 
HETATM    2  O9  UNL     1     -31.600   7.572   3.014  1.00 20.00    -0.296 OA
ENDROOT
BRANCH   1   3
HETATM    3  C7  UNL     1     -32.807   8.026   0.969  1.00 20.00     0.049 C 
HETATM    4  C3  UNL     1     -31.618   7.811   0.036  1.00 20.00     0.017 C 
HETATM    5  C4  UNL     1     -33.062   9.513   1.188  1.00 20.00     0.017 C 
ENDBRANCH   1   3
BRANCH   1   6
HETATM    6  C8  UNL     1     -33.646   6.333   2.751  1.00 20.00     0.152 C 
HETATM    7 CL10 UNL     1     -32.972   4.708   2.442  1.00 20.00    -0.117 Cl
BRANCH   6   8
HETATM    8  C6  UNL     1     -33.996   6.485   4.232  1.00 20.00     0.027 C 
BRANCH   8   9
HETATM    9  C5  UNL     1     -34.988   5.414   4.700  1.00 20.00    -0.003 C 
HETATM   10  C2  UNL     1     -34.762   5.049   6.159  1.00 20.00     0.005 C 
ENDBRANCH   8   9
ENDBRANCH   6   8
ENDBRANCH   1   6
TORSDOF 4
ENDMDL
MODEL 3
REMARK VINA RESULT:      -4.5     10.425     11.369
REMARK  4 active torsions:
REMARK  status: ('A' for Active; 'I' for Inactive)
REMARK    1  A    between atoms: C1_1  and  C7_7 
REMARK    2  A    between atoms: C1_1  and  C8_8 
REMARK    3  A    between atoms: C5_5  and  C6_6 
REMARK    4  A    between atoms: C6_6  and  C8_8 
ROOT
HETATM    1  C1  UNL     1     -35.864  13.963  -4.344  1.00 20.00     0.148 C 
HETATM    2  O9  UNL     1     -36.125  12.806  -4.683  1.00 20.00    -0.296 OA
ENDROOT
BRANCH   1   3
HETATM    3  C7  UNL     1     -36.874  15.098  -4.503  1.00 20.00     0.049 C 
HETATM    4  C3  UNL     1     -38.298  14.606  -4.253  1.00 20.00     0.017 C 
HETATM    5  C4  UNL     1     -36.750  15.713  -5.891  1.00 20.00     0.017 C 
ENDBRANCH   1   3
BRANCH   1   6
HETATM    6  C8  UNL     1     -34.510  14.328  -3.752  1.00 20.00     0.152 C 
HETATM    7 CL10 UNL     1     -33.430  14.677  -5.132  1.00 20.00    -0.117 Cl
BRANCH   6   8
HETATM    8  C6  UNL     1     -34.598  15.545  -2.832  1.00 20.00     0.027 C 
BRANCH   8   9
HETATM    9  C5  UNL     1     -33.316  16.384  -2.864  1.00 20.00    -0.003 C 
HETATM   10  C2  UNL     1     -33.344  17.481  -1.812  1.00 20.00     0.005 C 
ENDBRANCH   8   9
ENDBRANCH   6   8
ENDBRANCH   1   6
TORSDOF 4
ENDMDL
MODEL 4
REMARK VINA RESULT:      -4.4     16.361     16.948
REMARK  4 active torsions:
REMARK  status: ('A' for Active; 'I' for Inactive)
REMARK    1  A    between atoms: C1_1  and  C7_7 
REMARK    2  A    between atoms: C1_1  and  C8_8 
REMARK    3  A    between atoms: C5_5  and  C6_6 
REMARK    4  A    between atoms: C6_6  and  C8_8 
ROOT
HETATM    1  C1  UNL     1     -23.402  17.141  10.417  1.00 20.00     0.148 C 
HETATM    2  O9  UNL     1     -23.974  16.158   9.942  1.00 20.00    -0.296 OA
ENDROOT
BRANCH   1   3
HETATM    3  C7  UNL     1     -22.691  18.166   9.534  1.00 20.00     0.049 C 
HETATM    4  C3  UNL     1     -23.684  19.162   8.940  1.00 20.00     0.017 C 
HETATM    5  C4  UNL     1     -21.915  17.454   8.434  1.00 20.00     0.017 C 
ENDBRANCH   1   3
BRANCH   1   6
HETATM    6  C8  UNL     1     -23.364  17.386  11.919  1.00 20.00     0.152 C 
HETATM    7 CL10 UNL     1     -21.665  17.754  12.331  1.00 20.00    -0.117 Cl
BRANCH   6   8
HETATM    8  C6  UNL     1     -24.269  18.546  12.332  1.00 20.00     0.027 C 
BRANCH   8   9
HETATM    9  C5  UNL     1     -25.749  18.151  12.326  1.00 20.00    -0.003 C 
HETATM   10  C2  UNL     1     -26.574  19.099  11.469  1.00 20.00     0.005 C 
ENDBRANCH   8   9
ENDBRANCH   6   8
ENDBRANCH   1   6
TORSDOF 4
ENDMDL
MODEL 5
REMARK VINA RESULT:      -4.3      1.757      1.980
REMARK  4 active torsions:
REMARK  status: ('A' for Active; 'I' for Inactive)
REMARK    1  A    between atoms: C1_1  and  C7_7 
REMARK    2  A    between atoms: C1_1  and  C8_8 
REMARK    3  A    between atoms: C5_5  and  C6_6 
REMARK    4  A    between atoms: C6_6  and  C8_8 
ROOT
HETATM    1  C1  UNL     1     -34.048   5.099   3.938  1.00 20.00     0.148 C 
HETATM    2  O9  UNL     1     -34.470   3.941   3.945  1.00 20.00    -0.296 OA
ENDROOT
BRANCH   1   3
HETATM    3  C7  UNL     1     -34.486   6.125   4.982  1.00 20.00     0.049 C 
HETATM    4  C3  UNL     1     -33.329   7.042   5.369  1.00 20.00     0.017 C 
HETATM    5  C4  UNL     1     -35.046   5.412   6.207  1.00 20.00     0.017 C 
ENDBRANCH   1   3
BRANCH   1   6
HETATM    6  C8  UNL     1     -33.067   5.576   2.876  1.00 20.00     0.152 C 
HETATM    7 CL10 UNL     1     -32.923   4.254   1.685  1.00 20.00    -0.117 Cl
BRANCH   6   8
HETATM    8  C6  UNL     1     -33.546   6.854   2.188  1.00 20.00     0.027 C 
BRANCH   8   9
HETATM    9  C5  UNL     1     -32.379   7.699   1.666  1.00 20.00    -0.003 C 
HETATM   10  C2  UNL     1     -32.848   8.724   0.647  1.00 20.00     0.005 C 
ENDBRANCH   8   9
ENDBRANCH   6   8
ENDBRANCH   1   6
TORSDOF 4
ENDMDL
MODEL 6
REMARK VINA RESULT:      -4.3     10.609     11.580
REMARK  4 active torsions:
REMARK  status: ('A' for Active; 'I' for Inactive)
REMARK    1  A    between atoms: C1_1  and  C7_7 
REMARK    2  A    between atoms: C1_1  and  C8_8 
REMARK    3  A    between atoms: C5_5  and  C6_6 
REMARK    4  A    between atoms: C6_6  and  C8_8 
ROOT
HETATM    1  C1  UNL     1     -35.070  14.121  -4.283  1.00 20.00     0.148 C 
HETATM    2  O9  UNL     1     -34.642  13.026  -3.910  1.00 20.00    -0.296 OA
ENDROOT
BRANCH   1   3
HETATM    3  C7  UNL     1     -34.476  15.434  -3.779  1.00 20.00     0.049 C 
HETATM    4  C3  UNL     1     -32.950  15.399  -3.818  1.00 20.00     0.017 C 
HETATM    5  C4  UNL     1     -34.974  15.721  -2.367  1.00 20.00     0.017 C 
ENDBRANCH   1   3
BRANCH   1   6
HETATM    6  C8  UNL     1     -36.227  14.224  -5.267  1.00 20.00     0.152 C 
HETATM    7 CL10 UNL     1     -37.715  14.364  -4.288  1.00 20.00    -0.117 Cl
BRANCH   6   8
HETATM    8  C6  UNL     1     -36.087  15.436  -6.188  1.00 20.00     0.027 C 
BRANCH   8   9
HETATM    9  C5  UNL     1     -35.473  15.061  -7.542  1.00 20.00    -0.003 C 
HETATM   10  C2  UNL     1     -33.982  15.353  -7.574  1.00 20.00     0.005 C 
ENDBRANCH   8   9
ENDBRANCH   6   8
ENDBRANCH   1   6
TORSDOF 4
ENDMDL
MODEL 7
REMARK VINA RESULT:      -4.2     10.753     12.199
REMARK  4 active torsions:
REMARK  status: ('A' for Active; 'I' for Inactive)
REMARK    1  A    between atoms: C1_1  and  C7_7 
REMARK    2  A    between atoms: C1_1  and  C8_8 
REMARK    3  A    between atoms: C5_5  and  C6_6 
REMARK    4  A    between atoms: C6_6  and  C8_8 
ROOT
HETATM    1  C1  UNL     1     -35.079  14.606  -5.655  1.00 20.00     0.148 C 
HETATM    2  O9  UNL     1     -35.960  13.921  -6.177  1.00 20.00    -0.296 OA
ENDROOT
BRANCH   1   3
HETATM    3  C7  UNL     1     -34.432  15.782  -6.385  1.00 20.00     0.049 C 
HETATM    4  C3  UNL     1     -35.376  16.980  -6.442  1.00 20.00     0.017 C 
HETATM    5  C4  UNL     1     -34.011  15.356  -7.786  1.00 20.00     0.017 C 
ENDBRANCH   1   3
BRANCH   1   6
HETATM    6  C8  UNL     1     -34.576  14.311  -4.249  1.00 20.00     0.152 C 
HETATM    7 CL10 UNL     1     -32.832  14.696  -4.241  1.00 20.00    -0.117 Cl
BRANCH   6   8
HETATM    8  C6  UNL     1     -35.304  15.146  -3.195  1.00 20.00     0.027 C 
BRANCH   8   9
HETATM    9  C5  UNL     1     -34.341  16.040  -2.405  1.00 20.00    -0.003 C 
HETATM   10  C2  UNL     1     -35.059  16.770  -1.281  1.00 20.00     0.005 C 
ENDBRANCH   8   9
ENDBRANCH   6   8
ENDBRANCH   1   6
TORSDOF 4
ENDMDL
MODEL 8
REMARK VINA RESULT:      -4.1     10.950     11.760
REMARK  4 active torsions:
REMARK  status: ('A' for Active; 'I' for Inactive)
REMARK    1  A    between atoms: C1_1  and  C7_7 
REMARK    2  A    between atoms: C1_1  and  C8_8 
REMARK    3  A    between atoms: C5_5  and  C6_6 
REMARK    4  A    between atoms: C6_6  and  C8_8 
ROOT
HETATM    1  C1  UNL     1     -33.863  14.850  -4.482  1.00 20.00     0.148 C 
HETATM    2  O9  UNL     1     -33.326  13.746  -4.368  1.00 20.00    -0.296 OA
ENDROOT
BRANCH   1   3
HETATM    3  C7  UNL     1     -33.618  15.975  -3.479  1.00 20.00     0.049 C 
HETATM    4  C3  UNL     1     -34.574  15.873  -2.294  1.00 20.00     0.017 C 
HETATM    5  C4  UNL     1     -33.755  17.326  -4.171  1.00 20.00     0.017 C 
ENDBRANCH   1   3
BRANCH   1   6
HETATM    6  C8  UNL     1     -34.813  15.152  -5.633  1.00 20.00     0.152 C 
HETATM    7 CL10 UNL     1     -33.835  15.103  -7.126  1.00 20.00    -0.117 Cl
BRANCH   6   8
HETATM    8  C6  UNL     1     -35.951  14.134  -5.716  1.00 20.00     0.027 C 
BRANCH   8   9
HETATM    9  C5  UNL     1     -36.870  14.198  -4.491  1.00 20.00    -0.003 C 
HETATM   10  C2  UNL     1     -37.639  15.509  -4.443  1.00 20.00     0.005 C 
ENDBRANCH   8   9
ENDBRANCH   6   8
ENDBRANCH   1   6
TORSDOF 4
ENDMDL
MODEL 9
REMARK VINA RESULT:      -4.1     10.623     11.960
REMARK  4 active torsions:
REMARK  status: ('A' for Active; 'I' for Inactive)
REMARK    1  A    between atoms: C1_1  and  C7_7 
REMARK    2  A    between atoms: C1_1  and  C8_8 
REMARK    3  A    between atoms: C5_5  and  C6_6 
REMARK    4  A    between atoms: C6_6  and  C8_8 
ROOT
HETATM    1  C1  UNL     1     -37.229  14.566  -4.691  1.00 20.00     0.148 C 
HETATM    2  O9  UNL     1     -38.202  13.922  -4.292  1.00 20.00    -0.296 OA
ENDROOT
BRANCH   1   3
HETATM    3  C7  UNL     1     -37.287  16.080  -4.883  1.00 20.00     0.049 C 
HETATM    4  C3  UNL     1     -37.271  16.805  -3.540  1.00 20.00     0.017 C 
HETATM    5  C4  UNL     1     -38.527  16.454  -5.686  1.00 20.00     0.017 C 
ENDBRANCH   1   3
BRANCH   1   6
HETATM    6  C8  UNL     1     -35.910  13.882  -5.024  1.00 20.00     0.152 C 
HETATM    7 CL10 UNL     1     -35.237  14.737  -6.440  1.00 20.00    -0.117 Cl
BRANCH   6   8
HETATM    8  C6  UNL     1     -34.925  13.941  -3.857  1.00 20.00     0.027 C 
BRANCH   8   9
HETATM    9  C5  UNL     1     -33.707  14.815  -4.176  1.00 20.00    -0.003 C 
HETATM   10  C2  UNL     1     -33.563  15.952  -3.177  1.00 20.00     0.005 C 
ENDBRANCH   8   9
ENDBRANCH   6   8
ENDBRANCH   1   6
TORSDOF 4
ENDMDL
