MODEL 1
REMARK VINA RESULT:      -4.6      0.000      0.000
REMARK  0 active torsions:
REMARK  status: ('A' for Active; 'I' for Inactive)
ROOT
HETATM    1  C1  UNL     1     -42.303   5.114  -1.311  1.00 20.00     0.005 C 
HETATM    2  C2  UNL     1     -42.305   5.434   1.163  1.00 20.00     0.005 C 
HETATM    3  C3  UNL     1     -43.415   6.129  -1.640  1.00 20.00     0.005 C 
HETATM    4  C4  UNL     1     -43.417   6.499   1.221  1.00 20.00     0.005 C 
HETATM    5  C5  UNL     1     -41.538   7.701  -1.547  1.00 20.00     0.010 C 
HETATM    6  C6  UNL     1     -41.540   7.996   0.734  1.00 20.00     0.010 C 
HETATM    7  C7  UNL     1     -41.442   5.578  -0.113  1.00 20.00    -0.010 C 
HETATM    8  C8  UNL     1     -43.020   7.540  -1.167  1.00 20.00    -0.010 C 
HETATM    9  C9  UNL     1     -43.021   7.743   0.405  1.00 20.00    -0.010 C 
HETATM   10  C10 UNL     1     -40.910   7.063  -0.304  1.00 20.00    -0.010 C 
ENDROOT
TORSDOF 0
ENDMDL
MODEL 2
REMARK VINA RESULT:      -4.5      0.933      2.022
REMARK  0 active torsions:
REMARK  status: ('A' for Active; 'I' for Inactive)
ROOT
HETATM    1  C1  UNL     1     -43.365   5.577   0.617  1.00 20.00     0.005 C 
HETATM    2  C2  UNL     1     -43.372   8.070   0.694  1.00 20.00     0.005 C 
HETATM    3  C3  UNL     1     -43.402   5.428  -0.917  1.00 20.00     0.005 C 
HETATM    4  C4  UNL     1     -43.411   8.312  -0.828  1.00 20.00     0.005 C 
HETATM    5  C5  UNL     1     -40.983   5.721  -0.663  1.00 20.00     0.010 C 
HETATM    6  C6  UNL     1     -40.990   8.019  -0.593  1.00 20.00     0.010 C 
HETATM    7  C7  UNL     1     -42.544   6.813   1.052  1.00 20.00    -0.010 C 
HETATM    8  C8  UNL     1     -42.175   6.102  -1.558  1.00 20.00    -0.010 C 
HETATM    9  C9  UNL     1     -42.180   7.686  -1.508  1.00 20.00    -0.010 C 
HETATM   10  C10 UNL     1     -41.106   6.838   0.376  1.00 20.00    -0.010 C 
ENDROOT
TORSDOF 0
ENDMDL
MODEL 3
REMARK VINA RESULT:      -4.4      0.733      2.661
REMARK  0 active torsions:
REMARK  status: ('A' for Active; 'I' for Inactive)
ROOT
HETATM    1  C1  UNL     1     -42.093   5.311  -1.613  1.00 20.00     0.005 C 
HETATM    2  C2  UNL     1     -42.762   7.714  -1.614  1.00 20.00     0.005 C 
HETATM    3  C3  UNL     1     -40.798   5.469  -0.794  1.00 20.00     0.005 C 
HETATM    4  C4  UNL     1     -41.571   8.249  -0.795  1.00 20.00     0.005 C 
HETATM    5  C5  UNL     1     -42.370   5.336   1.080  1.00 20.00     0.010 C 
HETATM    6  C6  UNL     1     -42.986   7.551   1.079  1.00 20.00     0.010 C 
HETATM    7  C7  UNL     1     -43.188   6.301  -1.150  1.00 20.00    -0.010 C 
HETATM    8  C8  UNL     1     -41.102   6.059   0.595  1.00 20.00    -0.010 C 
HETATM    9  C9  UNL     1     -41.528   7.586   0.594  1.00 20.00    -0.010 C 
HETATM   10  C10 UNL     1     -43.417   6.237   0.421  1.00 20.00    -0.010 C 
ENDROOT
TORSDOF 0
ENDMDL
MODEL 4
REMARK VINA RESULT:      -4.4     10.887     12.394
REMARK  0 active torsions:
REMARK  status: ('A' for Active; 'I' for Inactive)
ROOT
HETATM    1  C1  UNL     1     -33.876  15.064  -5.703  1.00 20.00     0.005 C 
HETATM    2  C2  UNL     1     -35.189  13.792  -4.006  1.00 20.00     0.005 C 
HETATM    3  C3  UNL     1     -34.860  16.238  -5.872  1.00 20.00     0.005 C 
HETATM    4  C4  UNL     1     -36.379  14.767  -3.909  1.00 20.00     0.005 C 
HETATM    5  C5  UNL     1     -33.673  17.072  -3.898  1.00 20.00     0.010 C 
HETATM    6  C6  UNL     1     -34.885  15.900  -2.334  1.00 20.00     0.010 C 
HETATM    7  C7  UNL     1     -33.856  14.539  -4.248  1.00 20.00    -0.010 C 
HETATM    8  C8  UNL     1     -35.071  16.967  -4.533  1.00 20.00    -0.010 C 
HETATM    9  C9  UNL     1     -35.905  16.159  -3.455  1.00 20.00    -0.010 C 
HETATM   10  C10 UNL     1     -33.634  15.711  -3.198  1.00 20.00    -0.010 C 
ENDROOT
TORSDOF 0
ENDMDL
MODEL 5
REMARK VINA RESULT:      -4.4      0.953      2.207
REMARK  0 active torsions:
REMARK  status: ('A' for Active; 'I' for Inactive)
ROOT
HETATM    1  C1  UNL     1     -43.417   5.544  -0.530  1.00 20.00     0.005 C 
HETATM    2  C2  UNL     1     -40.995   5.738  -1.091  1.00 20.00     0.005 C 
HETATM    3  C3  UNL     1     -43.310   5.967   0.948  1.00 20.00     0.005 C 
HETATM    4  C4  UNL     1     -40.508   6.192   0.299  1.00 20.00     0.005 C 
HETATM    5  C5  UNL     1     -43.417   8.207  -0.039  1.00 20.00     0.010 C 
HETATM    6  C6  UNL     1     -41.183   8.386  -0.556  1.00 20.00     0.010 C 
HETATM    7  C7  UNL     1     -42.399   6.299  -1.416  1.00 20.00    -0.010 C 
HETATM    8  C8  UNL     1     -42.728   7.388   1.066  1.00 20.00    -0.010 C 
HETATM    9  C9  UNL     1     -41.189   7.511   0.708  1.00 20.00    -0.010 C 
HETATM   10  C10 UNL     1     -42.475   7.872  -1.198  1.00 20.00    -0.010 C 
ENDROOT
TORSDOF 0
ENDMDL
MODEL 6
REMARK VINA RESULT:      -4.3      0.914      2.458
REMARK  0 active torsions:
REMARK  status: ('A' for Active; 'I' for Inactive)
ROOT
HETATM    1  C1  UNL     1     -40.957   7.884  -0.773  1.00 20.00     0.005 C 
HETATM    2  C2  UNL     1     -40.805   5.395  -0.782  1.00 20.00     0.005 C 
HETATM    3  C3  UNL     1     -42.291   8.002  -1.536  1.00 20.00     0.005 C 
HETATM    4  C4  UNL     1     -42.115   5.121  -1.547  1.00 20.00     0.005 C 
HETATM    5  C5  UNL     1     -43.214   7.644   0.705  1.00 20.00     0.010 C 
HETATM    6  C6  UNL     1     -43.074   5.349   0.696  1.00 20.00     0.010 C 
HETATM    7  C7  UNL     1     -40.927   6.633   0.137  1.00 20.00    -0.010 C 
HETATM    8  C8  UNL     1     -43.417   7.279  -0.776  1.00 20.00    -0.010 C 
HETATM    9  C9  UNL     1     -43.321   5.697  -0.781  1.00 20.00    -0.010 C 
HETATM   10  C10 UNL     1     -42.206   6.552   1.076  1.00 20.00    -0.010 C 
ENDROOT
TORSDOF 0
ENDMDL
MODEL 7
REMARK VINA RESULT:      -4.3     11.124     12.840
REMARK  0 active torsions:
REMARK  status: ('A' for Active; 'I' for Inactive)
ROOT
HETATM    1  C1  UNL     1     -35.109  15.779  -5.940  1.00 20.00     0.005 C 
HETATM    2  C2  UNL     1     -34.853  17.669  -4.333  1.00 20.00     0.005 C 
HETATM    3  C3  UNL     1     -33.767  15.085  -5.642  1.00 20.00     0.005 C 
HETATM    4  C4  UNL     1     -33.469  17.271  -3.782  1.00 20.00     0.005 C 
HETATM    5  C5  UNL     1     -35.071  14.097  -3.819  1.00 20.00     0.010 C 
HETATM    6  C6  UNL     1     -34.833  15.839  -2.336  1.00 20.00     0.010 C 
HETATM    7  C7  UNL     1     -35.712  16.428  -4.672  1.00 20.00    -0.010 C 
HETATM    8  C8  UNL     1     -33.686  14.672  -4.161  1.00 20.00    -0.010 C 
HETATM    9  C9  UNL     1     -33.523  15.872  -3.140  1.00 20.00    -0.010 C 
HETATM   10  C10 UNL     1     -35.781  15.405  -3.458  1.00 20.00    -0.010 C 
ENDROOT
TORSDOF 0
ENDMDL
MODEL 8
REMARK VINA RESULT:      -4.3     10.843     12.379
REMARK  0 active torsions:
REMARK  status: ('A' for Active; 'I' for Inactive)
ROOT
HETATM    1  C1  UNL     1     -36.007  16.885  -4.437  1.00 20.00     0.005 C 
HETATM    2  C2  UNL     1     -34.649  15.949  -2.566  1.00 20.00     0.005 C 
HETATM    3  C3  UNL     1     -34.925  16.791  -5.530  1.00 20.00     0.005 C 
HETATM    4  C4  UNL     1     -33.354  15.708  -3.365  1.00 20.00     0.005 C 
HETATM    5  C5  UNL     1     -35.761  14.493  -5.683  1.00 20.00     0.010 C 
HETATM    6  C6  UNL     1     -34.509  13.630  -3.958  1.00 20.00     0.010 C 
HETATM    7  C7  UNL     1     -35.909  15.713  -3.432  1.00 20.00    -0.010 C 
HETATM    8  C8  UNL     1     -34.472  15.332  -5.722  1.00 20.00    -0.010 C 
HETATM    9  C9  UNL     1     -33.610  14.737  -4.533  1.00 20.00    -0.010 C 
HETATM   10  C10 UNL     1     -35.868  14.304  -4.167  1.00 20.00    -0.010 C 
ENDROOT
TORSDOF 0
ENDMDL
MODEL 9
REMARK VINA RESULT:      -4.3     10.803     12.529
REMARK  0 active torsions:
REMARK  status: ('A' for Active; 'I' for Inactive)
ROOT
HETATM    1  C1  UNL     1     -35.919  16.417  -2.780  1.00 20.00     0.005 C 
HETATM    2  C2  UNL     1     -36.252  14.415  -4.231  1.00 20.00     0.005 C 
HETATM    3  C3  UNL     1     -34.533  16.030  -2.228  1.00 20.00     0.005 C 
HETATM    4  C4  UNL     1     -34.919  13.714  -3.906  1.00 20.00     0.005 C 
HETATM    5  C5  UNL     1     -33.787  17.058  -4.323  1.00 20.00     0.010 C 
HETATM    6  C6  UNL     1     -34.094  15.213  -5.659  1.00 20.00     0.010 C 
HETATM    7  C7  UNL     1     -36.100  15.955  -4.246  1.00 20.00    -0.010 C 
HETATM    8  C8  UNL     1     -33.515  15.880  -3.372  1.00 20.00    -0.010 C 
HETATM    9  C9  UNL     1     -33.727  14.608  -4.294  1.00 20.00    -0.010 C 
HETATM   10  C10 UNL     1     -34.894  16.423  -5.168  1.00 20.00    -0.010 C 
ENDROOT
TORSDOF 0
ENDMDL
