MODEL 1
REMARK VINA RESULT:      -5.1      0.000      0.000
REMARK  2 active torsions:
REMARK  status: ('A' for Active; 'I' for Inactive)
REMARK    1  A    between atoms: C1_1  and  C2_2 
REMARK    2  A    between atoms: C2_2  and  C3_3 
ROOT
HETATM    1  C2  UNL     1     -34.144   6.475   4.240  1.00 20.00     0.218 C 
HETATM    2 CL8  UNL     1     -33.386   7.031   5.760  1.00 20.00    -0.113 Cl
ENDROOT
BRANCH   1   3
HETATM    3  C1  UNL     1     -33.068   6.238   3.190  1.00 20.00     0.251 C 
HETATM    4  F4  UNL     1     -32.094   7.177   3.305  1.00 20.00    -0.254 F 
ENDBRANCH   1   3
BRANCH   1   5
HETATM    5  C3  UNL     1     -34.967   5.230   4.511  1.00 20.00     0.406 C 
HETATM    6  F5  UNL     1     -36.212   5.358   3.997  1.00 20.00    -0.169 F 
HETATM    7  F6  UNL     1     -35.094   4.983   5.832  1.00 20.00    -0.169 F 
HETATM    8  F7  UNL     1     -34.409   4.140   3.937  1.00 20.00    -0.169 F 
ENDBRANCH   1   5
TORSDOF 2
ENDMDL
MODEL 2
REMARK VINA RESULT:      -4.8      1.995      3.442
REMARK  2 active torsions:
REMARK  status: ('A' for Active; 'I' for Inactive)
REMARK    1  A    between atoms: C1_1  and  C2_2 
REMARK    2  A    between atoms: C2_2  and  C3_3 
ROOT
HETATM    1  C2  UNL     1     -34.059   6.492   4.092  1.00 20.00     0.218 C 
HETATM    2 CL8  UNL     1     -34.545   4.773   4.016  1.00 20.00    -0.113 Cl
ENDROOT
BRANCH   1   3
HETATM    3  C1  UNL     1     -33.695   6.856   5.524  1.00 20.00     0.251 C 
HETATM    4  F4  UNL     1     -34.602   6.322   6.383  1.00 20.00    -0.254 F 
ENDBRANCH   1   3
BRANCH   1   5
HETATM    5  C3  UNL     1     -32.915   6.737   3.127  1.00 20.00     0.406 C 
HETATM    6  F5  UNL     1     -31.860   7.291   3.767  1.00 20.00    -0.169 F 
HETATM    7  F6  UNL     1     -33.266   7.569   2.123  1.00 20.00    -0.169 F 
HETATM    8  F7  UNL     1     -32.485   5.580   2.575  1.00 20.00    -0.169 F 
ENDBRANCH   1   5
TORSDOF 2
ENDMDL
MODEL 3
REMARK VINA RESULT:      -4.8      1.996      3.411
REMARK  2 active torsions:
REMARK  status: ('A' for Active; 'I' for Inactive)
REMARK    1  A    between atoms: C1_1  and  C2_2 
REMARK    2  A    between atoms: C2_2  and  C3_3 
ROOT
HETATM    1  C2  UNL     1     -34.049   6.501   4.089  1.00 20.00     0.218 C 
HETATM    2 CL8  UNL     1     -34.547   4.785   4.015  1.00 20.00    -0.113 Cl
ENDROOT
BRANCH   1   3
HETATM    3  C1  UNL     1     -33.683   6.865   5.520  1.00 20.00     0.251 C 
HETATM    4  F4  UNL     1     -34.596   6.341   6.379  1.00 20.00    -0.254 F 
ENDBRANCH   1   3
BRANCH   1   5
HETATM    5  C3  UNL     1     -32.902   6.737   3.125  1.00 20.00     0.406 C 
HETATM    6  F5  UNL     1     -32.502   5.573   2.563  1.00 20.00    -0.169 F 
HETATM    7  F6  UNL     1     -31.830   7.286   3.735  1.00 20.00    -0.169 F 
HETATM    8  F7  UNL     1     -33.272   7.561   2.118  1.00 20.00    -0.169 F 
ENDBRANCH   1   5
TORSDOF 2
ENDMDL
MODEL 4
REMARK VINA RESULT:      -4.8      1.995      3.392
REMARK  2 active torsions:
REMARK  status: ('A' for Active; 'I' for Inactive)
REMARK    1  A    between atoms: C1_1  and  C2_2 
REMARK    2  A    between atoms: C2_2  and  C3_3 
ROOT
HETATM    1  C2  UNL     1     -34.059   6.492   4.098  1.00 20.00     0.218 C 
HETATM    2 CL8  UNL     1     -34.552   4.775   4.020  1.00 20.00    -0.113 Cl
ENDROOT
BRANCH   1   3
HETATM    3  C1  UNL     1     -33.703   6.855   5.533  1.00 20.00     0.251 C 
HETATM    4  F4  UNL     1     -34.606   6.306   6.387  1.00 20.00    -0.254 F 
ENDBRANCH   1   3
BRANCH   1   5
HETATM    5  C3  UNL     1     -32.907   6.732   3.142  1.00 20.00     0.406 C 
HETATM    6  F5  UNL     1     -33.277   7.569   2.146  1.00 20.00    -0.169 F 
HETATM    7  F6  UNL     1     -32.472   5.587   2.573  1.00 20.00    -0.169 F 
HETATM    8  F7  UNL     1     -31.857   7.304   3.775  1.00 20.00    -0.169 F 
ENDBRANCH   1   5
TORSDOF 2
ENDMDL
MODEL 5
REMARK VINA RESULT:      -4.6      1.939      2.492
REMARK  2 active torsions:
REMARK  status: ('A' for Active; 'I' for Inactive)
REMARK    1  A    between atoms: C1_1  and  C2_2 
REMARK    2  A    between atoms: C2_2  and  C3_3 
ROOT
HETATM    1  C2  UNL     1     -34.548   5.680   4.399  1.00 20.00     0.218 C 
HETATM    2 CL8  UNL     1     -33.387   6.836   3.682  1.00 20.00    -0.113 Cl
ENDROOT
BRANCH   1   3
HETATM    3  C1  UNL     1     -34.307   4.292   3.822  1.00 20.00     0.251 C 
HETATM    4  F4  UNL     1     -33.412   4.363   2.802  1.00 20.00    -0.254 F 
ENDBRANCH   1   3
BRANCH   1   5
HETATM    5  C3  UNL     1     -34.420   5.705   5.909  1.00 20.00     0.406 C 
HETATM    6  F5  UNL     1     -33.815   4.581   6.357  1.00 20.00    -0.169 F 
HETATM    7  F6  UNL     1     -35.622   5.793   6.519  1.00 20.00    -0.169 F 
HETATM    8  F7  UNL     1     -33.671   6.753   6.319  1.00 20.00    -0.169 F 
ENDBRANCH   1   5
TORSDOF 2
ENDMDL
MODEL 6
REMARK VINA RESULT:      -4.4      1.871      2.360
REMARK  2 active torsions:
REMARK  status: ('A' for Active; 'I' for Inactive)
REMARK    1  A    between atoms: C1_1  and  C2_2 
REMARK    2  A    between atoms: C2_2  and  C3_3 
ROOT
HETATM    1  C2  UNL     1     -33.591   5.896   4.541  1.00 20.00     0.218 C 
HETATM    2 CL8  UNL     1     -33.162   6.215   2.834  1.00 20.00    -0.113 Cl
ENDROOT
BRANCH   1   3
HETATM    3  C1  UNL     1     -33.844   7.214   5.258  1.00 20.00     0.251 C 
HETATM    4  F4  UNL     1     -34.324   6.978   6.507  1.00 20.00    -0.254 F 
ENDBRANCH   1   3
BRANCH   1   5
HETATM    5  C3  UNL     1     -34.792   4.972   4.596  1.00 20.00     0.406 C 
HETATM    6  F5  UNL     1     -34.565   3.848   3.878  1.00 20.00    -0.169 F 
HETATM    7  F6  UNL     1     -35.905   5.555   4.099  1.00 20.00    -0.169 F 
HETATM    8  F7  UNL     1     -35.057   4.590   5.865  1.00 20.00    -0.169 F 
ENDBRANCH   1   5
TORSDOF 2
ENDMDL
MODEL 7
REMARK VINA RESULT:      -4.4      1.872      1.990
REMARK  2 active torsions:
REMARK  status: ('A' for Active; 'I' for Inactive)
REMARK    1  A    between atoms: C1_1  and  C2_2 
REMARK    2  A    between atoms: C2_2  and  C3_3 
ROOT
HETATM    1  C2  UNL     1     -33.593   5.899   4.544  1.00 20.00     0.218 C 
HETATM    2 CL8  UNL     1     -33.171   6.213   2.835  1.00 20.00    -0.113 Cl
ENDROOT
BRANCH   1   3
HETATM    3  C1  UNL     1     -33.859   7.218   5.254  1.00 20.00     0.251 C 
HETATM    4  F4  UNL     1     -34.322   6.983   6.510  1.00 20.00    -0.254 F 
ENDBRANCH   1   3
BRANCH   1   5
HETATM    5  C3  UNL     1     -34.784   4.962   4.606  1.00 20.00     0.406 C 
HETATM    6  F5  UNL     1     -35.889   5.559   4.103  1.00 20.00    -0.169 F 
HETATM    7  F6  UNL     1     -35.065   4.581   5.871  1.00 20.00    -0.169 F 
HETATM    8  F7  UNL     1     -34.566   3.845   3.877  1.00 20.00    -0.169 F 
ENDBRANCH   1   5
TORSDOF 2
ENDMDL
MODEL 8
REMARK VINA RESULT:      -4.2      1.705      2.192
REMARK  2 active torsions:
REMARK  status: ('A' for Active; 'I' for Inactive)
REMARK    1  A    between atoms: C1_1  and  C2_2 
REMARK    2  A    between atoms: C2_2  and  C3_3 
ROOT
HETATM    1  C2  UNL     1     -33.370   5.673   3.813  1.00 20.00     0.218 C 
HETATM    2 CL8  UNL     1     -33.608   4.569   2.427  1.00 20.00    -0.113 Cl
ENDROOT
BRANCH   1   3
HETATM    3  C1  UNL     1     -33.135   7.088   3.303  1.00 20.00     0.251 C 
HETATM    4  F4  UNL     1     -31.837   7.439   3.492  1.00 20.00    -0.254 F 
ENDBRANCH   1   3
BRANCH   1   5
HETATM    5  C3  UNL     1     -34.567   5.587   4.740  1.00 20.00     0.406 C 
HETATM    6  F5  UNL     1     -34.567   4.415   5.415  1.00 20.00    -0.169 F 
HETATM    7  F6  UNL     1     -35.736   5.672   4.069  1.00 20.00    -0.169 F 
HETATM    8  F7  UNL     1     -34.546   6.578   5.660  1.00 20.00    -0.169 F 
ENDBRANCH   1   5
TORSDOF 2
ENDMDL
MODEL 9
REMARK VINA RESULT:      -4.2      1.882      3.280
REMARK  2 active torsions:
REMARK  status: ('A' for Active; 'I' for Inactive)
REMARK    1  A    between atoms: C1_1  and  C2_2 
REMARK    2  A    between atoms: C2_2  and  C3_3 
ROOT
HETATM    1  C2  UNL     1     -34.294   6.203   4.352  1.00 20.00     0.218 C 
HETATM    2 CL8  UNL     1     -33.194   6.071   2.948  1.00 20.00    -0.113 Cl
ENDROOT
BRANCH   1   3
HETATM    3  C1  UNL     1     -34.801   4.820   4.734  1.00 20.00     0.251 C 
HETATM    4  F4  UNL     1     -35.467   4.880   5.916  1.00 20.00    -0.254 F 
ENDBRANCH   1   3
BRANCH   1   5
HETATM    5  C3  UNL     1     -33.574   6.888   5.497  1.00 20.00     0.406 C 
HETATM    6  F5  UNL     1     -33.164   5.982   6.415  1.00 20.00    -0.169 F 
HETATM    7  F6  UNL     1     -34.362   7.783   6.130  1.00 20.00    -0.169 F 
HETATM    8  F7  UNL     1     -32.473   7.541   5.061  1.00 20.00    -0.169 F 
ENDBRANCH   1   5
TORSDOF 2
ENDMDL
