MODEL 1
REMARK VINA RESULT:      -3.5      0.000      0.000
REMARK  0 active torsions:
REMARK  status: ('A' for Active; 'I' for Inactive)
ROOT
HETATM    1  C1  UNL     1     -33.011  15.205  -3.941  1.00 20.00     0.027 C 
HETATM    2  C2  UNL     1     -33.695  16.231  -3.029  1.00 20.00     0.012 C 
HETATM    3  C3  UNL     1     -33.798  14.858  -5.195  1.00 20.00     0.167 C 
HETATM    4  C4  UNL     1     -36.091  14.201  -5.323  1.00 20.00     0.177 C 
HETATM    5  C5  UNL     1     -35.046  15.810  -2.451  1.00 20.00     0.074 C 
HETATM    6  C6  UNL     1     -36.955  14.668  -4.159  1.00 20.00     0.100 C 
HETATM    7  O7  UNL     1     -34.780  13.877  -4.876  1.00 20.00    -0.390 OA
HETATM    8  S8  UNL     1     -36.457  16.294  -3.505  1.00 20.00    -0.167 SA
ENDROOT
TORSDOF 0
ENDMDL
MODEL 2
REMARK VINA RESULT:      -3.5     17.433     18.647
REMARK  0 active torsions:
REMARK  status: ('A' for Active; 'I' for Inactive)
ROOT
HETATM    1  C1  UNL     1     -24.487  18.150  12.332  1.00 20.00     0.027 C 
HETATM    2  C2  UNL     1     -23.217  17.329  12.074  1.00 20.00     0.012 C 
HETATM    3  C3  UNL     1     -25.465  18.174  11.167  1.00 20.00     0.167 C 
HETATM    4  C4  UNL     1     -24.978  18.696   8.888  1.00 20.00     0.177 C 
HETATM    5  C5  UNL     1     -22.332  17.816  10.927  1.00 20.00     0.074 C 
HETATM    6  C6  UNL     1     -23.529  18.469   8.476  1.00 20.00     0.100 C 
HETATM    7  O7  UNL     1     -25.050  19.163  10.229  1.00 20.00    -0.390 OA
HETATM    8  S8  UNL     1     -22.757  17.053   9.323  1.00 20.00    -0.167 SA
ENDROOT
TORSDOF 0
ENDMDL
MODEL 3
REMARK VINA RESULT:      -3.3     17.428     18.641
REMARK  0 active torsions:
REMARK  status: ('A' for Active; 'I' for Inactive)
ROOT
HETATM    1  C1  UNL     1     -23.182  18.184   8.428  1.00 20.00     0.027 C 
HETATM    2  C2  UNL     1     -24.667  18.513   8.625  1.00 20.00     0.012 C 
HETATM    3  C3  UNL     1     -22.615  17.207   9.446  1.00 20.00     0.167 C 
HETATM    4  C4  UNL     1     -22.793  17.340  11.824  1.00 20.00     0.177 C 
HETATM    5  C5  UNL     1     -25.029  19.187   9.949  1.00 20.00     0.074 C 
HETATM    6  C6  UNL     1     -23.983  18.142  12.332  1.00 20.00     0.100 C 
HETATM    7  O7  UNL     1     -22.271  17.916  10.633  1.00 20.00    -0.390 OA
HETATM    8  S8  UNL     1     -25.453  17.995  11.266  1.00 20.00    -0.167 SA
ENDROOT
TORSDOF 0
ENDMDL
MODEL 4
REMARK VINA RESULT:      -3.3     17.583     18.699
REMARK  0 active torsions:
REMARK  status: ('A' for Active; 'I' for Inactive)
ROOT
HETATM    1  C1  UNL     1     -25.918  19.263  10.361  1.00 20.00     0.027 C 
HETATM    2  C2  UNL     1     -25.884  18.392  11.623  1.00 20.00     0.012 C 
HETATM    3  C3  UNL     1     -25.038  18.758   9.227  1.00 20.00     0.167 C 
HETATM    4  C4  UNL     1     -22.734  18.142   9.356  1.00 20.00     0.177 C 
HETATM    5  C5  UNL     1     -24.523  18.267  12.308  1.00 20.00     0.074 C 
HETATM    6  C6  UNL     1     -22.263  17.719  10.741  1.00 20.00     0.100 C 
HETATM    7  O7  UNL     1     -23.697  19.184   9.450  1.00 20.00    -0.390 OA
HETATM    8  S8  UNL     1     -23.544  16.849  11.700  1.00 20.00    -0.167 SA
ENDROOT
TORSDOF 0
ENDMDL
MODEL 5
REMARK VINA RESULT:      -3.3      1.604      2.087
REMARK  0 active torsions:
REMARK  status: ('A' for Active; 'I' for Inactive)
ROOT
HETATM    1  C1  UNL     1     -35.060  13.696  -3.902  1.00 20.00     0.027 C 
HETATM    2  C2  UNL     1     -34.483  15.059  -3.503  1.00 20.00     0.012 C 
HETATM    3  C3  UNL     1     -36.256  13.771  -4.839  1.00 20.00     0.167 C 
HETATM    4  C4  UNL     1     -38.225  15.094  -4.559  1.00 20.00     0.177 C 
HETATM    5  C5  UNL     1     -35.429  15.984  -2.738  1.00 20.00     0.074 C 
HETATM    6  C6  UNL     1     -38.048  16.325  -3.682  1.00 20.00     0.100 C 
HETATM    7  O7  UNL     1     -37.434  14.015  -4.076  1.00 20.00    -0.390 OA
HETATM    8  S8  UNL     1     -36.397  17.081  -3.832  1.00 20.00    -0.167 SA
ENDROOT
TORSDOF 0
ENDMDL
MODEL 6
REMARK VINA RESULT:      -3.2      1.321      2.103
REMARK  0 active torsions:
REMARK  status: ('A' for Active; 'I' for Inactive)
ROOT
HETATM    1  C1  UNL     1     -34.311  15.336  -3.022  1.00 20.00     0.027 C 
HETATM    2  C2  UNL     1     -35.790  15.735  -3.075  1.00 20.00     0.012 C 
HETATM    3  C3  UNL     1     -33.541  15.607  -4.306  1.00 20.00     0.167 C 
HETATM    4  C4  UNL     1     -34.161  14.963  -6.520  1.00 20.00     0.177 C 
HETATM    5  C5  UNL     1     -36.640  15.005  -4.115  1.00 20.00     0.074 C 
HETATM    6  C6  UNL     1     -35.653  14.744  -6.728  1.00 20.00     0.100 C 
HETATM    7  O7  UNL     1     -33.767  14.540  -5.221  1.00 20.00    -0.390 OA
HETATM    8  S8  UNL     1     -36.688  15.861  -5.728  1.00 20.00    -0.167 SA
ENDROOT
TORSDOF 0
ENDMDL
MODEL 7
REMARK VINA RESULT:      -3.2     17.300     18.548
REMARK  0 active torsions:
REMARK  status: ('A' for Active; 'I' for Inactive)
ROOT
HETATM    1  C1  UNL     1     -24.773  18.537   8.496  1.00 20.00     0.027 C 
HETATM    2  C2  UNL     1     -23.288  18.241   8.253  1.00 20.00     0.012 C 
HETATM    3  C3  UNL     1     -25.093  19.031   9.899  1.00 20.00     0.167 C 
HETATM    4  C4  UNL     1     -24.430  18.030  11.964  1.00 20.00     0.177 C 
HETATM    5  C5  UNL     1     -22.678  17.142   9.123  1.00 20.00     0.074 C 
HETATM    6  C6  UNL     1     -23.181  17.163  11.882  1.00 20.00     0.100 C 
HETATM    7  O7  UNL     1     -25.201  17.913  10.775  1.00 20.00    -0.390 OA
HETATM    8  S8  UNL     1     -21.960  17.778  10.678  1.00 20.00    -0.167 SA
ENDROOT
TORSDOF 0
ENDMDL
MODEL 8
REMARK VINA RESULT:      -3.1      1.788      2.714
REMARK  0 active torsions:
REMARK  status: ('A' for Active; 'I' for Inactive)
ROOT
HETATM    1  C1  UNL     1     -35.808  16.364  -2.736  1.00 20.00     0.027 C 
HETATM    2  C2  UNL     1     -34.357  16.004  -2.392  1.00 20.00     0.012 C 
HETATM    3  C3  UNL     1     -36.442  15.470  -3.790  1.00 20.00     0.167 C 
HETATM    4  C4  UNL     1     -35.540  14.900  -5.927  1.00 20.00     0.177 C 
HETATM    5  C5  UNL     1     -33.356  16.110  -3.541  1.00 20.00     0.074 C 
HETATM    6  C6  UNL     1     -34.024  14.995  -6.027  1.00 20.00     0.100 C 
HETATM    7  O7  UNL     1     -36.053  15.923  -5.083  1.00 20.00    -0.390 OA
HETATM    8  S8  UNL     1     -33.175  14.551  -4.477  1.00 20.00    -0.167 SA
ENDROOT
TORSDOF 0
ENDMDL
MODEL 9
REMARK VINA RESULT:      -3.1      1.932      2.250
REMARK  0 active torsions:
REMARK  status: ('A' for Active; 'I' for Inactive)
ROOT
HETATM    1  C1  UNL     1     -33.751  16.597  -3.641  1.00 20.00     0.027 C 
HETATM    2  C2  UNL     1     -34.457  15.414  -2.967  1.00 20.00     0.012 C 
HETATM    3  C3  UNL     1     -34.514  17.198  -4.811  1.00 20.00     0.167 C 
HETATM    4  C4  UNL     1     -35.443  16.032  -6.677  1.00 20.00     0.177 C 
HETATM    5  C5  UNL     1     -34.697  14.191  -3.852  1.00 20.00     0.074 C 
HETATM    6  C6  UNL     1     -35.759  14.565  -6.420  1.00 20.00     0.100 C 
HETATM    7  O7  UNL     1     -34.267  16.422  -5.980  1.00 20.00    -0.390 OA
HETATM    8  S8  UNL     1     -36.307  14.238  -4.714  1.00 20.00    -0.167 SA
ENDROOT
TORSDOF 0
ENDMDL
