MODEL 1
REMARK VINA RESULT:      -3.9      0.000      0.000
REMARK  1 active torsions:
REMARK  status: ('A' for Active; 'I' for Inactive)
REMARK    1  A    between atoms: C1_1  and  C8_8 
ROOT
HETATM    1  C1  UNL     1     -34.857  15.475  -3.889  1.00 20.00     0.069 C 
HETATM    2  C2  UNL     1     -35.894  14.289  -5.514  1.00 20.00     0.169 C 
HETATM    3  C3  UNL     1     -35.363  15.457  -6.356  1.00 20.00     0.025 C 
HETATM    4  C4  UNL     1     -36.396  15.954  -7.364  1.00 20.00     0.029 C 
HETATM    5  C5  UNL     1     -34.049  15.098  -7.058  1.00 20.00     0.029 C 
HETATM    6  N9  UNL     1     -35.251  14.280  -4.182  1.00 20.00    -0.285 NA
HETATM    7  S10 UNL     1     -35.043  16.724  -5.089  1.00 20.00    -0.104 SA
ENDROOT
BRANCH   1   8
HETATM    8  C8  UNL     1     -34.213  15.833  -2.593  1.00 20.00     0.036 C 
HETATM    9  C6  UNL     1     -33.028  16.772  -2.825  1.00 20.00     0.016 C 
HETATM   10  C7  UNL     1     -35.222  16.468  -1.635  1.00 20.00     0.016 C 
ENDBRANCH   1   8
TORSDOF 1
ENDMDL
MODEL 2
REMARK VINA RESULT:      -3.9      1.531      2.011
REMARK  1 active torsions:
REMARK  status: ('A' for Active; 'I' for Inactive)
REMARK    1  A    between atoms: C1_1  and  C8_8 
ROOT
HETATM    1  C1  UNL     1     -33.977  16.291  -3.920  1.00 20.00     0.069 C 
HETATM    2  C2  UNL     1     -34.515  16.955  -6.016  1.00 20.00     0.169 C 
HETATM    3  C3  UNL     1     -34.497  15.435  -6.231  1.00 20.00     0.025 C 
HETATM    4  C4  UNL     1     -33.813  15.050  -7.541  1.00 20.00     0.029 C 
HETATM    5  C5  UNL     1     -35.904  14.834  -6.156  1.00 20.00     0.029 C 
HETATM    6  N9  UNL     1     -34.512  17.270  -4.570  1.00 20.00    -0.285 NA
HETATM    7  S10 UNL     1     -33.519  14.863  -4.806  1.00 20.00    -0.104 SA
ENDROOT
BRANCH   1   8
HETATM    8  C8  UNL     1     -33.766  16.302  -2.444  1.00 20.00     0.036 C 
HETATM    9  C6  UNL     1     -32.897  17.491  -2.034  1.00 20.00     0.016 C 
HETATM   10  C7  UNL     1     -35.101  16.329  -1.698  1.00 20.00     0.016 C 
ENDBRANCH   1   8
TORSDOF 1
ENDMDL
MODEL 3
REMARK VINA RESULT:      -3.8      1.703      2.330
REMARK  1 active torsions:
REMARK  status: ('A' for Active; 'I' for Inactive)
REMARK    1  A    between atoms: C1_1  and  C8_8 
ROOT
HETATM    1  C1  UNL     1     -33.616  16.185  -2.907  1.00 20.00     0.069 C 
HETATM    2  C2  UNL     1     -33.684  14.493  -4.409  1.00 20.00     0.169 C 
HETATM    3  C3  UNL     1     -35.160  14.914  -4.438  1.00 20.00     0.025 C 
HETATM    4  C4  UNL     1     -36.100  13.710  -4.451  1.00 20.00     0.029 C 
HETATM    5  C5  UNL     1     -35.460  15.849  -5.613  1.00 20.00     0.029 C 
HETATM    6  N9  UNL     1     -32.869  15.521  -3.726  1.00 20.00    -0.285 NA
HETATM    7  S10 UNL     1     -35.322  15.835  -2.877  1.00 20.00    -0.104 SA
ENDROOT
BRANCH   1   8
HETATM    8  C8  UNL     1     -33.102  17.264  -2.016  1.00 20.00     0.036 C 
HETATM    9  C6  UNL     1     -32.680  18.483  -2.838  1.00 20.00     0.016 C 
HETATM   10  C7  UNL     1     -34.146  17.657  -0.970  1.00 20.00     0.016 C 
ENDBRANCH   1   8
TORSDOF 1
ENDMDL
MODEL 4
REMARK VINA RESULT:      -3.6      1.407      1.865
REMARK  1 active torsions:
REMARK  status: ('A' for Active; 'I' for Inactive)
REMARK    1  A    between atoms: C1_1  and  C8_8 
ROOT
HETATM    1  C1  UNL     1     -34.888  16.154  -3.253  1.00 20.00     0.069 C 
HETATM    2  C2  UNL     1     -36.525  16.113  -4.815  1.00 20.00     0.169 C 
HETATM    3  C3  UNL     1     -35.734  14.871  -5.248  1.00 20.00     0.025 C 
HETATM    4  C4  UNL     1     -35.580  14.789  -6.765  1.00 20.00     0.029 C 
HETATM    5  C5  UNL     1     -36.352  13.583  -4.695  1.00 20.00     0.029 C 
HETATM    6  N9  UNL     1     -36.098  16.552  -3.469  1.00 20.00    -0.285 NA
HETATM    7  S10 UNL     1     -34.120  15.154  -4.455  1.00 20.00    -0.104 SA
ENDROOT
BRANCH   1   8
HETATM    8  C8  UNL     1     -34.127  16.472  -2.011  1.00 20.00     0.036 C 
HETATM    9  C6  UNL     1     -32.973  17.427  -2.317  1.00 20.00     0.016 C 
HETATM   10  C7  UNL     1     -35.045  17.064  -0.940  1.00 20.00     0.016 C 
ENDBRANCH   1   8
TORSDOF 1
ENDMDL
MODEL 5
REMARK VINA RESULT:      -3.6      1.927      2.932
REMARK  1 active torsions:
REMARK  status: ('A' for Active; 'I' for Inactive)
REMARK    1  A    between atoms: C1_1  and  C8_8 
ROOT
HETATM    1  C1  UNL     1     -33.759  16.754  -2.493  1.00 20.00     0.069 C 
HETATM    2  C2  UNL     1     -33.349  15.116  -4.001  1.00 20.00     0.169 C 
HETATM    3  C3  UNL     1     -34.879  15.186  -4.115  1.00 20.00     0.025 C 
HETATM    4  C4  UNL     1     -35.512  13.798  -4.187  1.00 20.00     0.029 C 
HETATM    5  C5  UNL     1     -35.321  16.046  -5.303  1.00 20.00     0.029 C 
HETATM    6  N9  UNL     1     -32.834  16.294  -3.269  1.00 20.00    -0.285 NA
HETATM    7  S10 UNL     1     -35.336  16.019  -2.563  1.00 20.00    -0.104 SA
ENDROOT
BRANCH   1   8
HETATM    8  C8  UNL     1     -33.559  17.907  -1.570  1.00 20.00     0.036 C 
HETATM    9  C6  UNL     1     -34.397  17.732  -0.303  1.00 20.00     0.016 C 
HETATM   10  C7  UNL     1     -32.081  18.080  -1.217  1.00 20.00     0.016 C 
ENDBRANCH   1   8
TORSDOF 1
ENDMDL
MODEL 6
REMARK VINA RESULT:      -3.6      2.715      3.970
REMARK  1 active torsions:
REMARK  status: ('A' for Active; 'I' for Inactive)
REMARK    1  A    between atoms: C1_1  and  C8_8 
ROOT
HETATM    1  C1  UNL     1     -37.824  15.300  -4.656  1.00 20.00     0.069 C 
HETATM    2  C2  UNL     1     -36.217  13.707  -4.581  1.00 20.00     0.169 C 
HETATM    3  C3  UNL     1     -35.336  14.959  -4.462  1.00 20.00     0.025 C 
HETATM    4  C4  UNL     1     -34.077  14.857  -5.320  1.00 20.00     0.029 C 
HETATM    5  C5  UNL     1     -34.976  15.264  -3.005  1.00 20.00     0.029 C 
HETATM    6  N9  UNL     1     -37.638  14.056  -4.362  1.00 20.00    -0.285 NA
HETATM    7  S10 UNL     1     -36.439  16.260  -5.097  1.00 20.00    -0.104 SA
ENDROOT
BRANCH   1   8
HETATM    8  C8  UNL     1     -39.155  15.968  -4.599  1.00 20.00     0.036 C 
HETATM    9  C6  UNL     1     -40.277  14.930  -4.594  1.00 20.00     0.016 C 
HETATM   10  C7  UNL     1     -39.261  16.880  -3.376  1.00 20.00     0.016 C 
ENDBRANCH   1   8
TORSDOF 1
ENDMDL
MODEL 7
REMARK VINA RESULT:      -3.6      2.336      4.597
REMARK  1 active torsions:
REMARK  status: ('A' for Active; 'I' for Inactive)
REMARK    1  A    between atoms: C1_1  and  C8_8 
ROOT
HETATM    1  C1  UNL     1     -34.373  15.967  -2.901  1.00 20.00     0.069 C 
HETATM    2  C2  UNL     1     -35.089  16.886  -0.960  1.00 20.00     0.169 C 
HETATM    3  C3  UNL     1     -34.056  17.944  -1.373  1.00 20.00     0.025 C 
HETATM    4  C4  UNL     1     -33.212  18.412  -0.190  1.00 20.00     0.029 C 
HETATM    5  C5  UNL     1     -34.714  19.135  -2.076  1.00 20.00     0.029 C 
HETATM    6  N9  UNL     1     -35.382  15.983  -2.095  1.00 20.00    -0.285 NA
HETATM    7  S10 UNL     1     -33.032  17.029  -2.567  1.00 20.00    -0.104 SA
ENDROOT
BRANCH   1   8
HETATM    8  C8  UNL     1     -34.311  15.118  -4.125  1.00 20.00     0.036 C 
HETATM    9  C6  UNL     1     -32.892  14.593  -4.343  1.00 20.00     0.016 C 
HETATM   10  C7  UNL     1     -35.306  13.959  -4.041  1.00 20.00     0.016 C 
ENDBRANCH   1   8
TORSDOF 1
ENDMDL
MODEL 8
REMARK VINA RESULT:      -3.6      1.711      1.979
REMARK  1 active torsions:
REMARK  status: ('A' for Active; 'I' for Inactive)
REMARK    1  A    between atoms: C1_1  and  C8_8 
ROOT
HETATM    1  C1  UNL     1     -35.568  15.478  -3.292  1.00 20.00     0.069 C 
HETATM    2  C2  UNL     1     -37.073  14.314  -4.517  1.00 20.00     0.169 C 
HETATM    3  C3  UNL     1     -37.481  15.742  -4.908  1.00 20.00     0.025 C 
HETATM    4  C4  UNL     1     -38.998  15.916  -4.941  1.00 20.00     0.029 C 
HETATM    5  C5  UNL     1     -36.857  16.164  -6.242  1.00 20.00     0.029 C 
HETATM    6  N9  UNL     1     -35.761  14.323  -3.835  1.00 20.00    -0.285 NA
HETATM    7  S10 UNL     1     -36.753  16.726  -3.562  1.00 20.00    -0.104 SA
ENDROOT
BRANCH   1   8
HETATM    8  C8  UNL     1     -34.364  15.814  -2.478  1.00 20.00     0.036 C 
HETATM    9  C6  UNL     1     -33.191  16.186  -3.385  1.00 20.00     0.016 C 
HETATM   10  C7  UNL     1     -34.664  16.946  -1.494  1.00 20.00     0.016 C 
ENDBRANCH   1   8
TORSDOF 1
ENDMDL
MODEL 9
REMARK VINA RESULT:      -3.6     16.299     18.621
REMARK  1 active torsions:
REMARK  status: ('A' for Active; 'I' for Inactive)
REMARK    1  A    between atoms: C1_1  and  C8_8 
ROOT
HETATM    1  C1  UNL     1     -24.671  18.543   9.512  1.00 20.00     0.069 C 
HETATM    2  C2  UNL     1     -25.533  18.127  11.564  1.00 20.00     0.169 C 
HETATM    3  C3  UNL     1     -24.321  17.186  11.605  1.00 20.00     0.025 C 
HETATM    4  C4  UNL     1     -24.667  15.831  12.218  1.00 20.00     0.029 C 
HETATM    5  C5  UNL     1     -23.132  17.824  12.332  1.00 20.00     0.029 C 
HETATM    6  N9  UNL     1     -25.415  19.068  10.428  1.00 20.00    -0.285 NA
HETATM    7  S10 UNL     1     -23.921  17.006   9.839  1.00 20.00    -0.104 SA
ENDROOT
BRANCH   1   8
HETATM    8  C8  UNL     1     -24.387  19.203   8.206  1.00 20.00     0.036 C 
HETATM    9  C6  UNL     1     -23.221  18.512   7.499  1.00 20.00     0.016 C 
HETATM   10  C7  UNL     1     -25.629  19.211   7.312  1.00 20.00     0.016 C 
ENDBRANCH   1   8
TORSDOF 1
ENDMDL
