MODEL 1
REMARK VINA RESULT:      -4.5      0.000      0.000
REMARK  4 active torsions:
REMARK  status: ('A' for Active; 'I' for Inactive)
REMARK    1  A    between atoms: C2_2  and  C9_9 
REMARK    2  A    between atoms: C7_7  and  C8_8 
REMARK    3  A    between atoms: C8_8  and  C9_9 
REMARK    4  A    between atoms: C9_9  and  O11_11 
ROOT
HETATM    1  C3  UNL     1     -32.857  17.010  -2.410  1.00 20.00     0.031 C 
HETATM    2  C4  UNL     1     -35.111  16.027  -1.916  1.00 20.00     0.031 C 
HETATM    3  C5  UNL     1     -33.239  18.167  -1.495  1.00 20.00     0.168 C 
HETATM    4  C6  UNL     1     -35.368  17.238  -1.028  1.00 20.00     0.168 C 
HETATM    5  C7  UNL     1     -34.106  16.368  -3.022  1.00 20.00    -0.008 C 
HETATM    6  O10 UNL     1     -34.146  17.733  -0.481  1.00 20.00    -0.391 OA
ENDROOT
BRANCH   5   7
HETATM    7  C8  UNL     1     -33.746  15.131  -3.839  1.00 20.00     0.040 C 
BRANCH   7   8
HETATM    8  C9  UNL     1     -34.204  15.215  -5.299  1.00 20.00     0.140 C 
BRANCH   8   9
HETATM    9  C2  UNL     1     -35.522  14.539  -5.537  1.00 20.00    -0.006 C 
HETATM   10  C1  UNL     1     -36.107  13.712  -4.662  1.00 20.00     0.009 C 
ENDBRANCH   8   9
BRANCH   8  11
HETATM   11  O11 UNL     1     -33.235  14.554  -6.113  1.00 20.00    -0.392 OA
HETATM   12  H27 UNL     1     -33.731  14.035  -6.763  1.00 20.00     0.210 HD
ENDBRANCH   8  11
ENDBRANCH   7   8
ENDBRANCH   5   7
TORSDOF 4
ENDMDL
MODEL 2
REMARK VINA RESULT:      -4.4      1.148      1.880
REMARK  4 active torsions:
REMARK  status: ('A' for Active; 'I' for Inactive)
REMARK    1  A    between atoms: C2_2  and  C9_9 
REMARK    2  A    between atoms: C7_7  and  C8_8 
REMARK    3  A    between atoms: C8_8  and  C9_9 
REMARK    4  A    between atoms: C9_9  and  O11_11 
ROOT
HETATM    1  C3  UNL     1     -35.264  16.491  -1.801  1.00 20.00     0.031 C 
HETATM    2  C4  UNL     1     -33.110  16.947  -3.003  1.00 20.00     0.031 C 
HETATM    3  C5  UNL     1     -34.800  17.482  -0.740  1.00 20.00     0.168 C 
HETATM    4  C6  UNL     1     -32.767  17.913  -1.876  1.00 20.00     0.168 C 
HETATM    5  C7  UNL     1     -34.063  15.854  -2.508  1.00 20.00    -0.008 C 
HETATM    6  O10 UNL     1     -33.951  18.477  -1.313  1.00 20.00    -0.391 OA
ENDROOT
BRANCH   5   7
HETATM    7  C8  UNL     1     -34.513  14.955  -3.656  1.00 20.00     0.040 C 
BRANCH   7   8
HETATM    8  C9  UNL     1     -33.446  14.777  -4.741  1.00 20.00     0.140 C 
BRANCH   8   9
HETATM    9  C2  UNL     1     -34.006  14.855  -6.130  1.00 20.00    -0.006 C 
HETATM   10  C1  UNL     1     -35.314  14.897  -6.407  1.00 20.00     0.009 C 
ENDBRANCH   8   9
BRANCH   8  11
HETATM   11  O11 UNL     1     -32.864  13.481  -4.590  1.00 20.00    -0.392 OA
HETATM   12  H27 UNL     1     -32.015  13.507  -5.055  1.00 20.00     0.210 HD
ENDBRANCH   8  11
ENDBRANCH   7   8
ENDBRANCH   5   7
TORSDOF 4
ENDMDL
MODEL 3
REMARK VINA RESULT:      -4.4      0.887      1.629
REMARK  4 active torsions:
REMARK  status: ('A' for Active; 'I' for Inactive)
REMARK    1  A    between atoms: C2_2  and  C9_9 
REMARK    2  A    between atoms: C7_7  and  C8_8 
REMARK    3  A    between atoms: C8_8  and  C9_9 
REMARK    4  A    between atoms: C9_9  and  O11_11 
ROOT
HETATM    1  C3  UNL     1     -34.880  15.913  -2.236  1.00 20.00     0.031 C 
HETATM    2  C4  UNL     1     -33.369  17.202  -3.769  1.00 20.00     0.031 C 
HETATM    3  C5  UNL     1     -34.875  17.131  -1.322  1.00 20.00     0.168 C 
HETATM    4  C6  UNL     1     -33.449  18.349  -2.769  1.00 20.00     0.168 C 
HETATM    5  C7  UNL     1     -33.596  15.857  -3.070  1.00 20.00    -0.008 C 
HETATM    6  O10 UNL     1     -34.696  18.331  -2.076  1.00 20.00    -0.391 OA
ENDROOT
BRANCH   5   7
HETATM    7  C8  UNL     1     -33.644  14.714  -4.079  1.00 20.00     0.040 C 
BRANCH   7   8
HETATM    8  C9  UNL     1     -34.150  15.145  -5.460  1.00 20.00     0.140 C 
BRANCH   8   9
HETATM    9  C2  UNL     1     -35.516  14.609  -5.774  1.00 20.00    -0.006 C 
HETATM   10  C1  UNL     1     -36.211  13.810  -4.957  1.00 20.00     0.009 C 
ENDBRANCH   8   9
BRANCH   8  11
HETATM   11  O11 UNL     1     -33.256  14.631  -6.448  1.00 20.00    -0.392 OA
HETATM   12  H27 UNL     1     -32.757  15.389  -6.786  1.00 20.00     0.210 HD
ENDBRANCH   8  11
ENDBRANCH   7   8
ENDBRANCH   5   7
TORSDOF 4
ENDMDL
MODEL 4
REMARK VINA RESULT:      -4.4      1.698      4.741
REMARK  4 active torsions:
REMARK  status: ('A' for Active; 'I' for Inactive)
REMARK    1  A    between atoms: C2_2  and  C9_9 
REMARK    2  A    between atoms: C7_7  and  C8_8 
REMARK    3  A    between atoms: C8_8  and  C9_9 
REMARK    4  A    between atoms: C9_9  and  O11_11 
ROOT
HETATM    1  C3  UNL     1     -35.100  14.008  -3.927  1.00 20.00     0.031 C 
HETATM    2  C4  UNL     1     -34.151  15.139  -5.955  1.00 20.00     0.031 C 
HETATM    3  C5  UNL     1     -36.368  13.773  -4.739  1.00 20.00     0.168 C 
HETATM    4  C6  UNL     1     -35.470  14.840  -6.654  1.00 20.00     0.168 C 
HETATM    5  C7  UNL     1     -34.351  15.243  -4.439  1.00 20.00    -0.008 C 
HETATM    6  O10 UNL     1     -36.064  13.654  -6.129  1.00 20.00    -0.391 OA
ENDROOT
BRANCH   5   7
HETATM    7  C8  UNL     1     -33.018  15.417  -3.717  1.00 20.00     0.040 C 
BRANCH   7   8
HETATM    8  C9  UNL     1     -32.905  16.746  -2.963  1.00 20.00     0.140 C 
BRANCH   8   9
HETATM    9  C2  UNL     1     -34.074  17.005  -2.060  1.00 20.00    -0.006 C 
HETATM   10  C1  UNL     1     -34.006  17.733  -0.940  1.00 20.00     0.009 C 
ENDBRANCH   8   9
BRANCH   8  11
HETATM   11  O11 UNL     1     -32.866  17.805  -3.920  1.00 20.00    -0.392 OA
HETATM   12  H27 UNL     1     -33.719  17.792  -4.377  1.00 20.00     0.210 HD
ENDBRANCH   8  11
ENDBRANCH   7   8
ENDBRANCH   5   7
TORSDOF 4
ENDMDL
MODEL 5
REMARK VINA RESULT:      -4.4      1.772      2.107
REMARK  4 active torsions:
REMARK  status: ('A' for Active; 'I' for Inactive)
REMARK    1  A    between atoms: C2_2  and  C9_9 
REMARK    2  A    between atoms: C7_7  and  C8_8 
REMARK    3  A    between atoms: C8_8  and  C9_9 
REMARK    4  A    between atoms: C9_9  and  O11_11 
ROOT
HETATM    1  C3  UNL     1     -33.178  15.789  -3.584  1.00 20.00     0.031 C 
HETATM    2  C4  UNL     1     -35.206  15.853  -2.109  1.00 20.00     0.031 C 
HETATM    3  C5  UNL     1     -32.890  17.214  -3.129  1.00 20.00     0.168 C 
HETATM    4  C6  UNL     1     -34.804  17.274  -1.736  1.00 20.00     0.168 C 
HETATM    5  C7  UNL     1     -34.678  15.488  -3.501  1.00 20.00    -0.008 C 
HETATM    6  O10 UNL     1     -33.388  17.436  -1.810  1.00 20.00    -0.391 OA
ENDROOT
BRANCH   5   7
HETATM    7  C8  UNL     1     -34.966  14.026  -3.833  1.00 20.00     0.040 C 
BRANCH   7   8
HETATM    8  C9  UNL     1     -36.064  13.849  -4.887  1.00 20.00     0.140 C 
BRANCH   8   9
HETATM    9  C2  UNL     1     -36.137  14.995  -5.852  1.00 20.00    -0.006 C 
HETATM   10  C1  UNL     1     -35.627  14.964  -7.089  1.00 20.00     0.009 C 
ENDBRANCH   8   9
BRANCH   8  11
HETATM   11  O11 UNL     1     -37.323  13.778  -4.217  1.00 20.00    -0.392 OA
HETATM   12  H27 UNL     1     -37.150  13.387  -3.348  1.00 20.00     0.210 HD
ENDBRANCH   8  11
ENDBRANCH   7   8
ENDBRANCH   5   7
TORSDOF 4
ENDMDL
MODEL 6
REMARK VINA RESULT:      -4.2      1.420      4.753
REMARK  4 active torsions:
REMARK  status: ('A' for Active; 'I' for Inactive)
REMARK    1  A    between atoms: C2_2  and  C9_9 
REMARK    2  A    between atoms: C7_7  and  C8_8 
REMARK    3  A    between atoms: C8_8  and  C9_9 
REMARK    4  A    between atoms: C9_9  and  O11_11 
ROOT
HETATM    1  C3  UNL     1     -33.142  15.772  -3.539  1.00 20.00     0.031 C 
HETATM    2  C4  UNL     1     -35.608  15.357  -3.336  1.00 20.00     0.031 C 
HETATM    3  C5  UNL     1     -33.077  14.528  -4.417  1.00 20.00     0.168 C 
HETATM    4  C6  UNL     1     -35.405  14.137  -4.226  1.00 20.00     0.168 C 
HETATM    5  C7  UNL     1     -34.324  15.687  -2.568  1.00 20.00    -0.008 C 
HETATM    6  O10 UNL     1     -34.307  14.336  -5.115  1.00 20.00    -0.391 OA
ENDROOT
BRANCH   5   7
HETATM    7  C8  UNL     1     -34.476  16.979  -1.771  1.00 20.00     0.040 C 
BRANCH   7   8
HETATM    8  C9  UNL     1     -33.349  17.985  -2.026  1.00 20.00     0.140 C 
BRANCH   8   9
HETATM    9  C2  UNL     1     -32.635  18.392  -0.771  1.00 20.00    -0.006 C 
HETATM   10  C1  UNL     1     -31.320  18.245  -0.578  1.00 20.00     0.009 C 
ENDBRANCH   8   9
BRANCH   8  11
HETATM   11  O11 UNL     1     -33.919  19.166  -2.592  1.00 20.00    -0.392 OA
HETATM   12  H27 UNL     1     -33.636  19.189  -3.518  1.00 20.00     0.210 HD
ENDBRANCH   8  11
ENDBRANCH   7   8
ENDBRANCH   5   7
TORSDOF 4
ENDMDL
MODEL 7
REMARK VINA RESULT:      -4.2     11.337     11.956
REMARK  4 active torsions:
REMARK  status: ('A' for Active; 'I' for Inactive)
REMARK    1  A    between atoms: C2_2  and  C9_9 
REMARK    2  A    between atoms: C7_7  and  C8_8 
REMARK    3  A    between atoms: C8_8  and  C9_9 
REMARK    4  A    between atoms: C9_9  and  O11_11 
ROOT
HETATM    1  C3  UNL     1     -33.381   6.817   4.946  1.00 20.00     0.031 C 
HETATM    2  C4  UNL     1     -34.430   4.756   3.974  1.00 20.00     0.031 C 
HETATM    3  C5  UNL     1     -34.292   6.626   6.152  1.00 20.00     0.168 C 
HETATM    4  C6  UNL     1     -35.282   4.680   5.234  1.00 20.00     0.168 C 
HETATM    5  C7  UNL     1     -34.009   6.202   3.691  1.00 20.00    -0.008 C 
HETATM    6  O10 UNL     1     -34.590   5.243   6.348  1.00 20.00    -0.391 OA
ENDROOT
BRANCH   5   7
HETATM    7  C8  UNL     1     -33.052   6.275   2.504  1.00 20.00     0.040 C 
BRANCH   7   8
HETATM    8  C9  UNL     1     -32.542   7.692   2.223  1.00 20.00     0.140 C 
BRANCH   8   9
HETATM    9  C2  UNL     1     -32.404   7.982   0.758  1.00 20.00    -0.006 C 
HETATM   10  C1  UNL     1     -33.124   8.902   0.107  1.00 20.00     0.009 C 
ENDBRANCH   8   9
BRANCH   8  11
HETATM   11  O11 UNL     1     -31.245   7.828   2.806  1.00 20.00    -0.392 OA
HETATM   12  H27 UNL     1     -30.751   8.435   2.237  1.00 20.00     0.210 HD
ENDBRANCH   8  11
ENDBRANCH   7   8
ENDBRANCH   5   7
TORSDOF 4
ENDMDL
MODEL 8
REMARK VINA RESULT:      -4.2      2.036      4.575
REMARK  4 active torsions:
REMARK  status: ('A' for Active; 'I' for Inactive)
REMARK    1  A    between atoms: C2_2  and  C9_9 
REMARK    2  A    between atoms: C7_7  and  C8_8 
REMARK    3  A    between atoms: C8_8  and  C9_9 
REMARK    4  A    between atoms: C9_9  and  O11_11 
ROOT
HETATM    1  C3  UNL     1     -36.585  15.866  -3.387  1.00 20.00     0.031 C 
HETATM    2  C4  UNL     1     -35.040  13.929  -3.782  1.00 20.00     0.031 C 
HETATM    3  C5  UNL     1     -37.510  15.250  -4.429  1.00 20.00     0.168 C 
HETATM    4  C6  UNL     1     -36.051  13.421  -4.802  1.00 20.00     0.168 C 
HETATM    5  C7  UNL     1     -35.131  15.452  -3.641  1.00 20.00    -0.008 C 
HETATM    6  O10 UNL     1     -37.373  13.829  -4.451  1.00 20.00    -0.391 OA
ENDROOT
BRANCH   5   7
HETATM    7  C8  UNL     1     -34.213  15.958  -2.533  1.00 20.00     0.040 C 
BRANCH   7   8
HETATM    8  C9  UNL     1     -32.987  16.713  -3.059  1.00 20.00     0.140 C 
BRANCH   8   9
HETATM    9  C2  UNL     1     -32.747  18.008  -2.342  1.00 20.00    -0.006 C 
HETATM   10  C1  UNL     1     -32.077  18.111  -1.188  1.00 20.00     0.009 C 
ENDBRANCH   8   9
BRANCH   8  11
HETATM   11  O11 UNL     1     -33.206  17.024  -4.435  1.00 20.00    -0.392 OA
HETATM   12  H27 UNL     1     -33.501  17.945  -4.464  1.00 20.00     0.210 HD
ENDBRANCH   8  11
ENDBRANCH   7   8
ENDBRANCH   5   7
TORSDOF 4
ENDMDL
MODEL 9
REMARK VINA RESULT:      -4.2      1.360      2.032
REMARK  4 active torsions:
REMARK  status: ('A' for Active; 'I' for Inactive)
REMARK    1  A    between atoms: C2_2  and  C9_9 
REMARK    2  A    between atoms: C7_7  and  C8_8 
REMARK    3  A    between atoms: C8_8  and  C9_9 
REMARK    4  A    between atoms: C9_9  and  O11_11 
ROOT
HETATM    1  C3  UNL     1     -36.106  16.431  -3.328  1.00 20.00     0.031 C 
HETATM    2  C4  UNL     1     -33.788  16.268  -2.381  1.00 20.00     0.031 C 
HETATM    3  C5  UNL     1     -36.338  17.595  -2.373  1.00 20.00     0.168 C 
HETATM    4  C6  UNL     1     -34.149  17.441  -1.480  1.00 20.00     0.168 C 
HETATM    5  C7  UNL     1     -35.043  15.478  -2.772  1.00 20.00    -0.008 C 
HETATM    6  O10 UNL     1     -35.115  18.284  -2.107  1.00 20.00    -0.391 OA
ENDROOT
BRANCH   5   7
HETATM    7  C8  UNL     1     -34.710  14.378  -3.775  1.00 20.00     0.040 C 
BRANCH   7   8
HETATM    8  C9  UNL     1     -33.580  14.756  -4.738  1.00 20.00     0.140 C 
BRANCH   8   9
HETATM    9  C2  UNL     1     -34.041  14.877  -6.160  1.00 20.00    -0.006 C 
HETATM   10  C1  UNL     1     -35.325  14.840  -6.535  1.00 20.00     0.009 C 
ENDBRANCH   8   9
BRANCH   8  11
HETATM   11  O11 UNL     1     -32.591  13.726  -4.698  1.00 20.00    -0.392 OA
HETATM   12  H27 UNL     1     -31.947  13.939  -5.389  1.00 20.00     0.210 HD
ENDBRANCH   8  11
ENDBRANCH   7   8
ENDBRANCH   5   7
TORSDOF 4
ENDMDL
