MODEL 1
REMARK VINA RESULT:      -3.8      0.000      0.000
REMARK  5 active torsions:
REMARK  status: ('A' for Active; 'I' for Inactive)
REMARK    1  A    between atoms: C1_1  and  C5_5 
REMARK    2  A    between atoms: C1_1  and  S10_10 
REMARK    3  A    between atoms: C5_5  and  C8_8 
REMARK    4  A    between atoms: C6_6  and  C7_7 
REMARK    5  A    between atoms: C7_7  and  S10_10 
ROOT
HETATM    1  C1  UNL     1     -36.645  14.521  -4.462  1.00 20.00     0.186 C 
HETATM    2  O9  UNL     1     -37.504  13.648  -4.455  1.00 20.00    -0.286 OA
ENDROOT
BRANCH   1   3
HETATM    3  C5  UNL     1     -35.281  14.381  -3.810  1.00 20.00     0.094 C 
BRANCH   3   4
HETATM    4  C8  UNL     1     -34.657  15.730  -3.418  1.00 20.00    -0.015 C 
HETATM    5  C3  UNL     1     -35.012  16.070  -1.969  1.00 20.00     0.010 C 
HETATM    6  C4  UNL     1     -33.136  15.713  -3.587  1.00 20.00     0.010 C 
ENDBRANCH   3   4
ENDBRANCH   1   3
BRANCH   1   7
HETATM    7  S10 UNL     1     -36.866  16.063  -5.296  1.00 20.00    -0.093 SA
BRANCH   7   8
HETATM    8  C7  UNL     1     -36.237  15.645  -6.937  1.00 20.00     0.082 C 
BRANCH   8   9
HETATM    9  C6  UNL     1     -34.838  16.216  -7.134  1.00 20.00     0.006 C 
HETATM   10  C2  UNL     1     -33.801  15.107  -7.232  1.00 20.00     0.006 C 
ENDBRANCH   8   9
ENDBRANCH   7   8
ENDBRANCH   1   7
TORSDOF 5
ENDMDL
MODEL 2
REMARK VINA RESULT:      -3.7     11.149     12.146
REMARK  5 active torsions:
REMARK  status: ('A' for Active; 'I' for Inactive)
REMARK    1  A    between atoms: C1_1  and  C5_5 
REMARK    2  A    between atoms: C1_1  and  S10_10 
REMARK    3  A    between atoms: C5_5  and  C8_8 
REMARK    4  A    between atoms: C6_6  and  C7_7 
REMARK    5  A    between atoms: C7_7  and  S10_10 
ROOT
HETATM    1  C1  UNL     1     -33.309   5.864   2.992  1.00 20.00     0.186 C 
HETATM    2  O9  UNL     1     -33.118   4.871   2.302  1.00 20.00    -0.286 OA
ENDROOT
BRANCH   1   3
HETATM    3  C5  UNL     1     -34.457   6.013   3.974  1.00 20.00     0.094 C 
BRANCH   3   4
HETATM    4  C8  UNL     1     -34.031   5.815   5.438  1.00 20.00    -0.015 C 
HETATM    5  C3  UNL     1     -34.000   7.163   6.161  1.00 20.00     0.010 C 
HETATM    6  C4  UNL     1     -34.975   4.857   6.170  1.00 20.00     0.010 C 
ENDBRANCH   3   4
ENDBRANCH   1   3
BRANCH   1   7
HETATM    7  S10 UNL     1     -32.220   7.256   2.975  1.00 20.00    -0.093 SA
BRANCH   7   8
HETATM    8  C7  UNL     1     -32.180   7.622   1.207  1.00 20.00     0.082 C 
BRANCH   8   9
HETATM    9  C6  UNL     1     -32.889   8.940   0.918  1.00 20.00     0.006 C 
HETATM   10  C2  UNL     1     -33.537   8.924  -0.459  1.00 20.00     0.006 C 
ENDBRANCH   8   9
ENDBRANCH   7   8
ENDBRANCH   1   7
TORSDOF 5
ENDMDL
MODEL 3
REMARK VINA RESULT:      -3.7     11.766     13.132
REMARK  5 active torsions:
REMARK  status: ('A' for Active; 'I' for Inactive)
REMARK    1  A    between atoms: C1_1  and  C5_5 
REMARK    2  A    between atoms: C1_1  and  S10_10 
REMARK    3  A    between atoms: C5_5  and  C8_8 
REMARK    4  A    between atoms: C6_6  and  C7_7 
REMARK    5  A    between atoms: C7_7  and  S10_10 
ROOT
HETATM    1  C1  UNL     1     -33.423   4.813   2.574  1.00 20.00     0.186 C 
HETATM    2  O9  UNL     1     -32.896   4.176   1.671  1.00 20.00    -0.286 OA
ENDROOT
BRANCH   1   3
HETATM    3  C5  UNL     1     -33.623   6.318   2.553  1.00 20.00     0.094 C 
BRANCH   3   4
HETATM    4  C8  UNL     1     -32.344   7.093   2.195  1.00 20.00    -0.015 C 
HETATM    5  C3  UNL     1     -32.672   8.223   1.218  1.00 20.00     0.010 C 
HETATM    6  C4  UNL     1     -31.672   7.668   3.444  1.00 20.00     0.010 C 
ENDBRANCH   3   4
ENDBRANCH   1   3
BRANCH   1   7
HETATM    7  S10 UNL     1     -34.083   4.042   4.021  1.00 20.00    -0.093 SA
BRANCH   7   8
HETATM    8  C7  UNL     1     -35.166   5.353   4.629  1.00 20.00     0.082 C 
BRANCH   8   9
HETATM    9  C6  UNL     1     -34.800   5.726   6.062  1.00 20.00     0.006 C 
HETATM   10  C2  UNL     1     -33.864   6.925   6.095  1.00 20.00     0.006 C 
ENDBRANCH   8   9
ENDBRANCH   7   8
ENDBRANCH   1   7
TORSDOF 5
ENDMDL
MODEL 4
REMARK VINA RESULT:      -3.7      1.950      2.733
REMARK  5 active torsions:
REMARK  status: ('A' for Active; 'I' for Inactive)
REMARK    1  A    between atoms: C1_1  and  C5_5 
REMARK    2  A    between atoms: C1_1  and  S10_10 
REMARK    3  A    between atoms: C5_5  and  C8_8 
REMARK    4  A    between atoms: C6_6  and  C7_7 
REMARK    5  A    between atoms: C7_7  and  S10_10 
ROOT
HETATM    1  C1  UNL     1     -33.752  14.463  -4.491  1.00 20.00     0.186 C 
HETATM    2  O9  UNL     1     -34.061  13.325  -4.161  1.00 20.00    -0.286 OA
ENDROOT
BRANCH   1   3
HETATM    3  C5  UNL     1     -32.949  15.415  -3.623  1.00 20.00     0.094 C 
BRANCH   3   4
HETATM    4  C8  UNL     1     -33.795  16.554  -3.031  1.00 20.00    -0.015 C 
HETATM    5  C3  UNL     1     -34.896  15.979  -2.139  1.00 20.00     0.010 C 
HETATM    6  C4  UNL     1     -32.933  17.529  -2.226  1.00 20.00     0.010 C 
ENDBRANCH   3   4
ENDBRANCH   1   3
BRANCH   1   7
HETATM    7  S10 UNL     1     -34.163  15.137  -6.072  1.00 20.00    -0.093 SA
BRANCH   7   8
HETATM    8  C7  UNL     1     -35.876  14.586  -6.231  1.00 20.00     0.082 C 
BRANCH   8   9
HETATM    9  C6  UNL     1     -36.784  15.392  -5.309  1.00 20.00     0.006 C 
HETATM   10  C2  UNL     1     -37.515  14.485  -4.330  1.00 20.00     0.006 C 
ENDBRANCH   8   9
ENDBRANCH   7   8
ENDBRANCH   1   7
TORSDOF 5
ENDMDL
MODEL 5
REMARK VINA RESULT:      -3.6      1.408      1.966
REMARK  5 active torsions:
REMARK  status: ('A' for Active; 'I' for Inactive)
REMARK    1  A    between atoms: C1_1  and  C5_5 
REMARK    2  A    between atoms: C1_1  and  S10_10 
REMARK    3  A    between atoms: C5_5  and  C8_8 
REMARK    4  A    between atoms: C6_6  and  C7_7 
REMARK    5  A    between atoms: C7_7  and  S10_10 
ROOT
HETATM    1  C1  UNL     1     -35.935  14.056  -4.850  1.00 20.00     0.186 C 
HETATM    2  O9  UNL     1     -35.935  12.864  -4.570  1.00 20.00    -0.286 OA
ENDROOT
BRANCH   1   3
HETATM    3  C5  UNL     1     -36.046  15.172  -3.826  1.00 20.00     0.094 C 
BRANCH   3   4
HETATM    4  C8  UNL     1     -34.851  15.227  -2.860  1.00 20.00    -0.015 C 
HETATM    5  C3  UNL     1     -33.554  15.439  -3.641  1.00 20.00     0.010 C 
HETATM    6  C4  UNL     1     -35.020  16.343  -1.825  1.00 20.00     0.010 C 
ENDBRANCH   3   4
ENDBRANCH   1   3
BRANCH   1   7
HETATM    7  S10 UNL     1     -35.749  14.643  -6.506  1.00 20.00    -0.093 SA
BRANCH   7   8
HETATM    8  C7  UNL     1     -36.045  16.409  -6.266  1.00 20.00     0.082 C 
BRANCH   8   9
HETATM    9  C6  UNL     1     -34.819  17.217  -6.674  1.00 20.00     0.006 C 
HETATM   10  C2  UNL     1     -34.565  18.358  -5.700  1.00 20.00     0.006 C 
ENDBRANCH   8   9
ENDBRANCH   7   8
ENDBRANCH   1   7
TORSDOF 5
ENDMDL
MODEL 6
REMARK VINA RESULT:      -3.6     10.795     12.229
REMARK  5 active torsions:
REMARK  status: ('A' for Active; 'I' for Inactive)
REMARK    1  A    between atoms: C1_1  and  C5_5 
REMARK    2  A    between atoms: C1_1  and  S10_10 
REMARK    3  A    between atoms: C5_5  and  C8_8 
REMARK    4  A    between atoms: C6_6  and  C7_7 
REMARK    5  A    between atoms: C7_7  and  S10_10 
ROOT
HETATM    1  C1  UNL     1     -32.555   6.876   2.871  1.00 20.00     0.186 C 
HETATM    2  O9  UNL     1     -32.360   7.399   3.961  1.00 20.00    -0.286 OA
ENDROOT
BRANCH   1   3
HETATM    3  C5  UNL     1     -32.149   7.493   1.544  1.00 20.00     0.094 C 
BRANCH   3   4
HETATM    4  C8  UNL     1     -33.226   8.415   0.951  1.00 20.00    -0.015 C 
HETATM    5  C3  UNL     1     -32.968   9.862   1.373  1.00 20.00     0.010 C 
HETATM    6  C4  UNL     1     -33.263   8.321  -0.577  1.00 20.00     0.010 C 
ENDBRANCH   3   4
ENDBRANCH   1   3
BRANCH   1   7
HETATM    7  S10 UNL     1     -33.296   5.281   2.701  1.00 20.00    -0.093 SA
BRANCH   7   8
HETATM    8  C7  UNL     1     -34.828   5.530   3.626  1.00 20.00     0.082 C 
BRANCH   8   9
HETATM    9  C6  UNL     1     -34.779   4.781   4.953  1.00 20.00     0.006 C 
HETATM   10  C2  UNL     1     -34.562   5.739   6.115  1.00 20.00     0.006 C 
ENDBRANCH   8   9
ENDBRANCH   7   8
ENDBRANCH   1   7
TORSDOF 5
ENDMDL
MODEL 7
REMARK VINA RESULT:      -3.6      2.053      2.594
REMARK  5 active torsions:
REMARK  status: ('A' for Active; 'I' for Inactive)
REMARK    1  A    between atoms: C1_1  and  C5_5 
REMARK    2  A    between atoms: C1_1  and  S10_10 
REMARK    3  A    between atoms: C5_5  and  C8_8 
REMARK    4  A    between atoms: C6_6  and  C7_7 
REMARK    5  A    between atoms: C7_7  and  S10_10 
ROOT
HETATM    1  C1  UNL     1     -35.640  13.908  -4.453  1.00 20.00     0.186 C 
HETATM    2  O9  UNL     1     -36.012  12.742  -4.476  1.00 20.00    -0.286 OA
ENDROOT
BRANCH   1   3
HETATM    3  C5  UNL     1     -34.407  14.396  -3.712  1.00 20.00     0.094 C 
BRANCH   3   4
HETATM    4  C8  UNL     1     -34.480  15.885  -3.332  1.00 20.00    -0.015 C 
HETATM    5  C3  UNL     1     -35.083  16.040  -1.935  1.00 20.00     0.010 C 
HETATM    6  C4  UNL     1     -33.097  16.539  -3.373  1.00 20.00     0.010 C 
ENDBRANCH   3   4
ENDBRANCH   1   3
BRANCH   1   7
HETATM    7  S10 UNL     1     -36.474  15.189  -5.340  1.00 20.00    -0.093 SA
BRANCH   7   8
HETATM    8  C7  UNL     1     -38.055  15.220  -4.467  1.00 20.00     0.082 C 
BRANCH   8   9
HETATM    9  C6  UNL     1     -38.273  16.576  -3.805  1.00 20.00     0.006 C 
HETATM   10  C2  UNL     1     -37.550  17.679  -4.565  1.00 20.00     0.006 C 
ENDBRANCH   8   9
ENDBRANCH   7   8
ENDBRANCH   1   7
TORSDOF 5
ENDMDL
MODEL 8
REMARK VINA RESULT:      -3.6      1.345      3.684
REMARK  5 active torsions:
REMARK  status: ('A' for Active; 'I' for Inactive)
REMARK    1  A    between atoms: C1_1  and  C5_5 
REMARK    2  A    between atoms: C1_1  and  S10_10 
REMARK    3  A    between atoms: C5_5  and  C8_8 
REMARK    4  A    between atoms: C6_6  and  C7_7 
REMARK    5  A    between atoms: C7_7  and  S10_10 
ROOT
HETATM    1  C1  UNL     1     -36.144  14.057  -4.961  1.00 20.00     0.186 C 
HETATM    2  O9  UNL     1     -37.231  13.651  -4.571  1.00 20.00    -0.286 OA
ENDROOT
BRANCH   1   3
HETATM    3  C5  UNL     1     -35.862  14.506  -6.384  1.00 20.00     0.094 C 
BRANCH   3   4
HETATM    4  C8  UNL     1     -34.733  15.546  -6.477  1.00 20.00    -0.015 C 
HETATM    5  C3  UNL     1     -33.924  15.328  -7.757  1.00 20.00     0.010 C 
HETATM    6  C4  UNL     1     -35.286  16.973  -6.452  1.00 20.00     0.010 C 
ENDBRANCH   3   4
ENDBRANCH   1   3
BRANCH   1   7
HETATM    7  S10 UNL     1     -34.752  14.227  -3.886  1.00 20.00    -0.093 SA
BRANCH   7   8
HETATM    8  C7  UNL     1     -35.361  15.499  -2.757  1.00 20.00     0.082 C 
BRANCH   8   9
HETATM    9  C6  UNL     1     -34.238  16.456  -2.375  1.00 20.00     0.006 C 
HETATM   10  C2  UNL     1     -33.013  16.242  -3.251  1.00 20.00     0.006 C 
ENDBRANCH   8   9
ENDBRANCH   7   8
ENDBRANCH   1   7
TORSDOF 5
ENDMDL
MODEL 9
REMARK VINA RESULT:      -3.6      2.007      3.558
REMARK  5 active torsions:
REMARK  status: ('A' for Active; 'I' for Inactive)
REMARK    1  A    between atoms: C1_1  and  C5_5 
REMARK    2  A    between atoms: C1_1  and  S10_10 
REMARK    3  A    between atoms: C5_5  and  C8_8 
REMARK    4  A    between atoms: C6_6  and  C7_7 
REMARK    5  A    between atoms: C7_7  and  S10_10 
ROOT
HETATM    1  C1  UNL     1     -36.132  13.843  -4.745  1.00 20.00     0.186 C 
HETATM    2  O9  UNL     1     -35.937  12.658  -4.507  1.00 20.00    -0.286 OA
ENDROOT
BRANCH   1   3
HETATM    3  C5  UNL     1     -37.408  14.586  -4.391  1.00 20.00     0.094 C 
BRANCH   3   4
HETATM    4  C8  UNL     1     -37.352  16.083  -4.734  1.00 20.00    -0.015 C 
HETATM    5  C3  UNL     1     -38.377  16.411  -5.821  1.00 20.00     0.010 C 
HETATM    6  C4  UNL     1     -37.614  16.949  -3.499  1.00 20.00     0.010 C 
ENDBRANCH   3   4
ENDBRANCH   1   3
BRANCH   1   7
HETATM    7  S10 UNL     1     -34.909  14.875  -5.496  1.00 20.00    -0.093 SA
BRANCH   7   8
HETATM    8  C7  UNL     1     -33.542  14.667  -4.333  1.00 20.00     0.082 C 
BRANCH   8   9
HETATM    9  C6  UNL     1     -33.312  15.950  -3.544  1.00 20.00     0.006 C 
HETATM   10  C2  UNL     1     -34.253  16.035  -2.350  1.00 20.00     0.006 C 
ENDBRANCH   8   9
ENDBRANCH   7   8
ENDBRANCH   1   7
TORSDOF 5
ENDMDL
