MODEL 1
REMARK VINA RESULT:      -5.5      0.000      0.000
REMARK  1 active torsions:
REMARK  status: ('A' for Active; 'I' for Inactive)
REMARK    1  A    between atoms: C9_9  and  O10_10 
ROOT
HETATM    1  C1  UNL     1     -35.187  16.557  -1.456  1.00 20.00     0.053 A 
HETATM    2  C2  UNL     1     -32.688  16.970  -2.714  1.00 20.00     0.055 A 
HETATM    3  C3  UNL     1     -34.816  15.819  -2.567  1.00 20.00    -0.046 A 
HETATM    4  C4  UNL     1     -33.578  16.021  -3.191  1.00 20.00    -0.020 A 
HETATM    5  C5  UNL     1     -34.289  17.506  -0.962  1.00 20.00     0.155 A 
HETATM    6  C6  UNL     1     -33.048  17.710  -1.587  1.00 20.00     0.155 A 
HETATM    7  C7  UNL     1     -35.617  14.782  -3.291  1.00 20.00     0.042 C 
HETATM    8  C8  UNL     1     -34.522  14.078  -4.103  1.00 20.00     0.041 C 
HETATM    9  C9  UNL     1     -33.446  15.137  -4.394  1.00 20.00     0.152 C 
HETATM   10  F11 UNL     1     -34.615  18.234   0.114  1.00 20.00    -0.203 F 
HETATM   11  F12 UNL     1     -32.206  18.632  -1.101  1.00 20.00    -0.203 F 
ENDROOT
BRANCH   9  12
HETATM   12  O10 UNL     1     -32.165  14.547  -4.482  1.00 20.00    -0.391 OA
HETATM   13  H20 UNL     1     -32.296  13.601  -4.670  1.00 20.00     0.210 HD
ENDBRANCH   9  12
TORSDOF 1
ENDMDL
MODEL 2
REMARK VINA RESULT:      -5.4     14.860     16.325
REMARK  1 active torsions:
REMARK  status: ('A' for Active; 'I' for Inactive)
REMARK    1  A    between atoms: C9_9  and  O10_10 
ROOT
HETATM    1  C1  UNL     1     -22.318  17.281   9.484  1.00 20.00     0.053 A 
HETATM    2  C2  UNL     1     -24.676  18.745   8.937  1.00 20.00     0.055 A 
HETATM    3  C3  UNL     1     -23.258  17.518  10.473  1.00 20.00    -0.046 A 
HETATM    4  C4  UNL     1     -24.427  18.243  10.204  1.00 20.00    -0.020 A 
HETATM    5  C5  UNL     1     -22.569  17.773   8.201  1.00 20.00     0.155 A 
HETATM    6  C6  UNL     1     -23.740  18.499   7.930  1.00 20.00     0.155 A 
HETATM    7  C7  UNL     1     -23.193  17.126  11.917  1.00 20.00     0.042 C 
HETATM    8  C8  UNL     1     -24.661  17.286  12.332  1.00 20.00     0.041 C 
HETATM    9  C9  UNL     1     -25.244  18.402  11.450  1.00 20.00     0.152 C 
HETATM   10  F11 UNL     1     -21.683  17.557   7.221  1.00 20.00    -0.203 F 
HETATM   11  F12 UNL     1     -23.955  18.970   6.695  1.00 20.00    -0.203 F 
ENDROOT
BRANCH   9  12
HETATM   12  O10 UNL     1     -26.622  18.193  11.212  1.00 20.00    -0.391 OA
HETATM   13  H20 UNL     1     -27.108  18.627  11.935  1.00 20.00     0.210 HD
ENDBRANCH   9  12
TORSDOF 1
ENDMDL
MODEL 3
REMARK VINA RESULT:      -5.1      3.147      4.623
REMARK  1 active torsions:
REMARK  status: ('A' for Active; 'I' for Inactive)
REMARK    1  A    between atoms: C9_9  and  O10_10 
ROOT
HETATM    1  C1  UNL     1     -32.802  16.027  -3.492  1.00 20.00     0.053 A 
HETATM    2  C2  UNL     1     -35.421  15.468  -2.581  1.00 20.00     0.055 A 
HETATM    3  C3  UNL     1     -33.374  16.760  -2.465  1.00 20.00    -0.046 A 
HETATM    4  C4  UNL     1     -34.670  16.484  -2.012  1.00 20.00    -0.020 A 
HETATM    5  C5  UNL     1     -33.549  14.993  -4.061  1.00 20.00     0.155 A 
HETATM    6  C6  UNL     1     -34.848  14.715  -3.608  1.00 20.00     0.155 A 
HETATM    7  C7  UNL     1     -32.788  17.928  -1.733  1.00 20.00     0.042 C 
HETATM    8  C8  UNL     1     -33.695  17.984  -0.496  1.00 20.00     0.041 C 
HETATM    9  C9  UNL     1     -35.067  17.450  -0.937  1.00 20.00     0.152 C 
HETATM   10  F11 UNL     1     -33.024  14.262  -5.053  1.00 20.00    -0.203 F 
HETATM   11  F12 UNL     1     -35.549  13.724  -4.175  1.00 20.00    -0.203 F 
ENDROOT
BRANCH   9  12
HETATM   12  O10 UNL     1     -35.731  16.809   0.135  1.00 20.00    -0.391 OA
HETATM   13  H20 UNL     1     -35.394  17.204   0.959  1.00 20.00     0.210 HD
ENDBRANCH   9  12
TORSDOF 1
ENDMDL
MODEL 4
REMARK VINA RESULT:      -5.1      2.884      3.967
REMARK  1 active torsions:
REMARK  status: ('A' for Active; 'I' for Inactive)
REMARK    1  A    between atoms: C9_9  and  O10_10 
ROOT
HETATM    1  C1  UNL     1     -35.359  15.586  -2.484  1.00 20.00     0.053 A 
HETATM    2  C2  UNL     1     -32.750  16.124  -3.435  1.00 20.00     0.055 A 
HETATM    3  C3  UNL     1     -34.580  16.577  -1.910  1.00 20.00    -0.046 A 
HETATM    4  C4  UNL     1     -33.288  16.845  -2.380  1.00 20.00    -0.020 A 
HETATM    5  C5  UNL     1     -34.829  14.865  -3.556  1.00 20.00     0.155 A 
HETATM    6  C6  UNL     1     -33.534  15.132  -4.028  1.00 20.00     0.155 A 
HETATM    7  C7  UNL     1     -34.915  17.448  -0.740  1.00 20.00     0.042 C 
HETATM    8  C8  UNL     1     -33.871  18.562  -0.894  1.00 20.00     0.041 C 
HETATM    9  C9  UNL     1     -32.642  17.920  -1.558  1.00 20.00     0.152 C 
HETATM   10  F11 UNL     1     -35.559  13.903  -4.135  1.00 20.00    -0.203 F 
HETATM   11  F12 UNL     1     -33.043  14.421  -5.051  1.00 20.00    -0.203 F 
ENDROOT
BRANCH   9  12
HETATM   12  O10 UNL     1     -31.950  18.857  -2.359  1.00 20.00    -0.391 OA
HETATM   13  H20 UNL     1     -32.465  18.971  -3.177  1.00 20.00     0.210 HD
ENDBRANCH   9  12
TORSDOF 1
ENDMDL
MODEL 5
REMARK VINA RESULT:      -5.1      1.178      1.285
REMARK  1 active torsions:
REMARK  status: ('A' for Active; 'I' for Inactive)
REMARK    1  A    between atoms: C9_9  and  O10_10 
ROOT
HETATM    1  C1  UNL     1     -35.553  16.080  -2.216  1.00 20.00     0.053 A 
HETATM    2  C2  UNL     1     -33.106  16.397  -3.599  1.00 20.00     0.055 A 
HETATM    3  C3  UNL     1     -35.391  15.593  -3.503  1.00 20.00    -0.046 A 
HETATM    4  C4  UNL     1     -34.179  15.748  -4.188  1.00 20.00    -0.020 A 
HETATM    5  C5  UNL     1     -34.472  16.723  -1.611  1.00 20.00     0.155 A 
HETATM    6  C6  UNL     1     -33.257  16.880  -2.297  1.00 20.00     0.155 A 
HETATM    7  C7  UNL     1     -36.408  14.907  -4.361  1.00 20.00     0.042 C 
HETATM    8  C8  UNL     1     -35.508  14.266  -5.427  1.00 20.00     0.041 C 
HETATM    9  C9  UNL     1     -34.283  15.183  -5.573  1.00 20.00     0.152 C 
HETATM   10  F11 UNL     1     -34.595  17.202  -0.366  1.00 20.00    -0.203 F 
HETATM   11  F12 UNL     1     -32.236  17.509  -1.700  1.00 20.00    -0.203 F 
ENDROOT
BRANCH   9  12
HETATM   12  O10 UNL     1     -33.134  14.441  -5.931  1.00 20.00    -0.391 OA
HETATM   13  H20 UNL     1     -33.131  13.635  -5.385  1.00 20.00     0.210 HD
ENDBRANCH   9  12
TORSDOF 1
ENDMDL
MODEL 6
REMARK VINA RESULT:      -5.0      1.530      2.563
REMARK  1 active torsions:
REMARK  status: ('A' for Active; 'I' for Inactive)
REMARK    1  A    between atoms: C9_9  and  O10_10 
ROOT
HETATM    1  C1  UNL     1     -32.762  16.653  -3.077  1.00 20.00     0.053 A 
HETATM    2  C2  UNL     1     -35.192  16.298  -1.674  1.00 20.00     0.055 A 
HETATM    3  C3  UNL     1     -33.707  15.736  -3.505  1.00 20.00    -0.046 A 
HETATM    4  C4  UNL     1     -34.912  15.559  -2.812  1.00 20.00    -0.020 A 
HETATM    5  C5  UNL     1     -33.045  17.411  -1.939  1.00 20.00     0.155 A 
HETATM    6  C6  UNL     1     -34.251  17.235  -1.243  1.00 20.00     0.155 A 
HETATM    7  C7  UNL     1     -33.614  14.793  -4.665  1.00 20.00     0.042 C 
HETATM    8  C8  UNL     1     -35.086  14.399  -4.842  1.00 20.00     0.041 C 
HETATM    9  C9  UNL     1     -35.729  14.475  -3.448  1.00 20.00     0.152 C 
HETATM   10  F11 UNL     1     -32.154  18.310  -1.501  1.00 20.00    -0.203 F 
HETATM   11  F12 UNL     1     -34.496  17.966  -0.147  1.00 20.00    -0.203 F 
ENDROOT
BRANCH   9  12
HETATM   12  O10 UNL     1     -37.096  14.824  -3.537  1.00 20.00    -0.391 OA
HETATM   13  H20 UNL     1     -37.179  15.742  -3.222  1.00 20.00     0.210 HD
ENDBRANCH   9  12
TORSDOF 1
ENDMDL
MODEL 7
REMARK VINA RESULT:      -4.9      1.567      2.595
REMARK  1 active torsions:
REMARK  status: ('A' for Active; 'I' for Inactive)
REMARK    1  A    between atoms: C9_9  and  O10_10 
ROOT
HETATM    1  C1  UNL     1     -32.773  17.596  -1.892  1.00 20.00     0.053 A 
HETATM    2  C2  UNL     1     -35.365  16.863  -1.029  1.00 20.00     0.055 A 
HETATM    3  C3  UNL     1     -33.478  16.585  -2.524  1.00 20.00    -0.046 A 
HETATM    4  C4  UNL     1     -34.762  16.222  -2.099  1.00 20.00    -0.020 A 
HETATM    5  C5  UNL     1     -33.380  18.256  -0.821  1.00 20.00     0.155 A 
HETATM    6  C6  UNL     1     -34.667  17.892  -0.394  1.00 20.00     0.155 A 
HETATM    7  C7  UNL     1     -33.024  15.720  -3.659  1.00 20.00     0.042 C 
HETATM    8  C8  UNL     1     -34.363  15.148  -4.145  1.00 20.00     0.041 C 
HETATM    9  C9  UNL     1     -35.279  15.073  -2.913  1.00 20.00     0.152 C 
HETATM   10  F11 UNL     1     -32.727  19.240  -0.190  1.00 20.00    -0.203 F 
HETATM   11  F12 UNL     1     -35.227  18.533   0.642  1.00 20.00    -0.203 F 
ENDROOT
BRANCH   9  12
HETATM   12  O10 UNL     1     -36.633  15.248  -3.276  1.00 20.00    -0.391 OA
HETATM   13  H20 UNL     1     -37.103  15.576  -2.489  1.00 20.00     0.210 HD
ENDBRANCH   9  12
TORSDOF 1
ENDMDL
MODEL 8
REMARK VINA RESULT:      -4.8      1.964      2.902
REMARK  1 active torsions:
REMARK  status: ('A' for Active; 'I' for Inactive)
REMARK    1  A    between atoms: C9_9  and  O10_10 
ROOT
HETATM    1  C1  UNL     1     -33.273  16.552  -4.178  1.00 20.00     0.053 A 
HETATM    2  C2  UNL     1     -35.181  15.746  -2.252  1.00 20.00     0.055 A 
HETATM    3  C3  UNL     1     -34.259  15.631  -4.490  1.00 20.00    -0.046 A 
HETATM    4  C4  UNL     1     -35.205  15.231  -3.538  1.00 20.00    -0.020 A 
HETATM    5  C5  UNL     1     -33.251  17.085  -2.887  1.00 20.00     0.155 A 
HETATM    6  C6  UNL     1     -34.199  16.685  -1.932  1.00 20.00     0.155 A 
HETATM    7  C7  UNL     1     -34.460  14.903  -5.783  1.00 20.00     0.042 C 
HETATM    8  C8  UNL     1     -35.902  14.406  -5.619  1.00 20.00     0.041 C 
HETATM    9  C9  UNL     1     -36.122  14.193  -4.113  1.00 20.00     0.152 C 
HETATM   10  F11 UNL     1     -32.313  17.981  -2.554  1.00 20.00    -0.203 F 
HETATM   11  F12 UNL     1     -34.153  17.202  -0.697  1.00 20.00    -0.203 F 
ENDROOT
BRANCH   9  12
HETATM   12  O10 UNL     1     -37.471  14.422  -3.759  1.00 20.00    -0.391 OA
HETATM   13  H20 UNL     1     -37.514  14.441  -2.787  1.00 20.00     0.210 HD
ENDBRANCH   9  12
TORSDOF 1
ENDMDL
MODEL 9
REMARK VINA RESULT:      -4.8      3.056      4.874
REMARK  1 active torsions:
REMARK  status: ('A' for Active; 'I' for Inactive)
REMARK    1  A    between atoms: C9_9  and  O10_10 
ROOT
HETATM    1  C1  UNL     1     -32.726  17.545  -1.935  1.00 20.00     0.053 A 
HETATM    2  C2  UNL     1     -35.252  16.521  -1.176  1.00 20.00     0.055 A 
HETATM    3  C3  UNL     1     -33.391  18.033  -0.822  1.00 20.00    -0.046 A 
HETATM    4  C4  UNL     1     -34.642  17.527  -0.445  1.00 20.00    -0.020 A 
HETATM    5  C5  UNL     1     -33.329  16.521  -2.669  1.00 20.00     0.155 A 
HETATM    6  C6  UNL     1     -34.583  16.013  -2.292  1.00 20.00     0.155 A 
HETATM    7  C7  UNL     1     -32.965  19.142   0.089  1.00 20.00     0.042 C 
HETATM    8  C8  UNL     1     -33.875  18.892   1.300  1.00 20.00     0.041 C 
HETATM    9  C9  UNL     1     -35.165  18.260   0.754  1.00 20.00     0.152 C 
HETATM   10  F11 UNL     1     -32.711  16.023  -3.747  1.00 20.00    -0.203 F 
HETATM   11  F12 UNL     1     -35.147  15.037  -3.016  1.00 20.00    -0.203 F 
ENDROOT
BRANCH   9  12
HETATM   12  O10 UNL     1     -35.741  17.383   1.702  1.00 20.00    -0.391 OA
HETATM   13  H20 UNL     1     -35.703  16.486   1.325  1.00 20.00     0.210 HD
ENDBRANCH   9  12
TORSDOF 1
ENDMDL
