MODEL 1
REMARK VINA RESULT:      -5.1      0.000      0.000
REMARK  0 active torsions:
REMARK  status: ('A' for Active; 'I' for Inactive)
ROOT
HETATM    1  C1  UNL     1     -35.148  16.586  -4.577  1.00 20.00    -0.081 C 
HETATM    2  C2  UNL     1     -34.664  17.615  -5.294  1.00 20.00     0.015 C 
HETATM    3  C3  UNL     1     -36.509  16.027  -4.945  1.00 20.00     0.034 C 
HETATM    4  C4  UNL     1     -36.400  14.556  -5.338  1.00 20.00     0.004 C 
HETATM    5  C5  UNL     1     -35.677  13.730  -4.278  1.00 20.00     0.001 C 
HETATM    6  C6  UNL     1     -33.647  17.679  -1.174  1.00 20.00     0.000 C 
HETATM    7  C7  UNL     1     -35.093  17.294  -1.447  1.00 20.00     0.001 C 
HETATM    8  C8  UNL     1     -32.816  17.645  -2.448  1.00 20.00     0.001 C 
HETATM    9  C9  UNL     1     -34.324  14.343  -3.908  1.00 20.00     0.014 C 
HETATM   10  C10 UNL     1     -35.175  15.918  -2.104  1.00 20.00     0.014 C 
HETATM   11  C11 UNL     1     -32.941  16.308  -3.188  1.00 20.00     0.014 C 
HETATM   12  C12 UNL     1     -34.403  15.833  -3.455  1.00 20.00    -0.018 C 
ENDROOT
TORSDOF 0
ENDMDL
MODEL 2
REMARK VINA RESULT:      -4.8      1.222      1.441
REMARK  0 active torsions:
REMARK  status: ('A' for Active; 'I' for Inactive)
ROOT
HETATM    1  C1  UNL     1     -34.349  17.271  -4.373  1.00 20.00    -0.081 C 
HETATM    2  C2  UNL     1     -34.163  18.577  -4.632  1.00 20.00     0.015 C 
HETATM    3  C3  UNL     1     -35.155  16.447  -5.358  1.00 20.00     0.034 C 
HETATM    4  C4  UNL     1     -34.311  15.310  -5.929  1.00 20.00     0.004 C 
HETATM    5  C5  UNL     1     -33.662  14.471  -4.831  1.00 20.00     0.001 C 
HETATM    6  C6  UNL     1     -34.575  17.619  -0.518  1.00 20.00     0.000 C 
HETATM    7  C7  UNL     1     -35.556  16.889  -1.423  1.00 20.00     0.001 C 
HETATM    8  C8  UNL     1     -33.467  18.281  -1.324  1.00 20.00     0.001 C 
HETATM    9  C9  UNL     1     -32.887  15.339  -3.837  1.00 20.00     0.014 C 
HETATM   10  C10 UNL     1     -34.835  15.860  -2.290  1.00 20.00     0.014 C 
HETATM   11  C11 UNL     1     -32.774  17.299  -2.276  1.00 20.00     0.014 C 
HETATM   12  C12 UNL     1     -33.732  16.483  -3.198  1.00 20.00    -0.018 C 
ENDROOT
TORSDOF 0
ENDMDL
MODEL 3
REMARK VINA RESULT:      -4.7      1.327      3.931
REMARK  0 active torsions:
REMARK  status: ('A' for Active; 'I' for Inactive)
ROOT
HETATM    1  C1  UNL     1     -33.510  17.654  -3.144  1.00 20.00    -0.081 C 
HETATM    2  C2  UNL     1     -33.041  18.587  -3.991  1.00 20.00     0.015 C 
HETATM    3  C3  UNL     1     -32.943  17.605  -1.739  1.00 20.00     0.034 C 
HETATM    4  C4  UNL     1     -34.042  17.832  -0.705  1.00 20.00     0.004 C 
HETATM    5  C5  UNL     1     -35.226  16.891  -0.909  1.00 20.00     0.001 C 
HETATM    6  C6  UNL     1     -34.051  14.882  -5.802  1.00 20.00     0.000 C 
HETATM    7  C7  UNL     1     -33.308  14.742  -4.481  1.00 20.00     0.001 C 
HETATM    8  C8  UNL     1     -34.539  16.309  -6.012  1.00 20.00     0.001 C 
HETATM    9  C9  UNL     1     -35.749  16.943  -2.347  1.00 20.00     0.014 C 
HETATM   10  C10 UNL     1     -34.185  15.188  -3.313  1.00 20.00     0.014 C 
HETATM   11  C11 UNL     1     -35.351  16.828  -4.821  1.00 20.00     0.014 C 
HETATM   12  C12 UNL     1     -34.662  16.667  -3.429  1.00 20.00    -0.018 C 
ENDROOT
TORSDOF 0
ENDMDL
MODEL 4
REMARK VINA RESULT:      -4.7      1.497      3.897
REMARK  0 active torsions:
REMARK  status: ('A' for Active; 'I' for Inactive)
ROOT
HETATM    1  C1  UNL     1     -35.541  15.414  -3.939  1.00 20.00    -0.081 C 
HETATM    2  C2  UNL     1     -36.215  14.300  -4.274  1.00 20.00     0.015 C 
HETATM    3  C3  UNL     1     -36.064  16.257  -2.792  1.00 20.00     0.034 C 
HETATM    4  C4  UNL     1     -35.028  16.353  -1.675  1.00 20.00     0.004 C 
HETATM    5  C5  UNL     1     -33.669  16.817  -2.192  1.00 20.00     0.001 C 
HETATM    6  C6  UNL     1     -34.439  16.357  -7.535  1.00 20.00     0.000 C 
HETATM    7  C7  UNL     1     -35.115  17.271  -6.523  1.00 20.00     0.001 C 
HETATM    8  C8  UNL     1     -34.280  14.946  -6.986  1.00 20.00     0.001 C 
HETATM    9  C9  UNL     1     -33.189  15.965  -3.370  1.00 20.00     0.014 C 
HETATM   10  C10 UNL     1     -34.342  17.290  -5.206  1.00 20.00     0.014 C 
HETATM   11  C11 UNL     1     -33.586  14.928  -5.619  1.00 20.00     0.014 C 
HETATM   12  C12 UNL     1     -34.204  15.883  -4.551  1.00 20.00    -0.018 C 
ENDROOT
TORSDOF 0
ENDMDL
MODEL 5
REMARK VINA RESULT:      -4.5      1.353      2.821
REMARK  0 active torsions:
REMARK  status: ('A' for Active; 'I' for Inactive)
ROOT
HETATM    1  C1  UNL     1     -34.481  14.989  -4.521  1.00 20.00    -0.081 C 
HETATM    2  C2  UNL     1     -34.850  13.891  -3.838  1.00 20.00     0.015 C 
HETATM    3  C3  UNL     1     -33.676  14.810  -5.794  1.00 20.00     0.034 C 
HETATM    4  C4  UNL     1     -34.423  15.390  -6.992  1.00 20.00     0.004 C 
HETATM    5  C5  UNL     1     -34.859  16.834  -6.753  1.00 20.00     0.001 C 
HETATM    6  C6  UNL     1     -33.942  17.268  -1.431  1.00 20.00     0.000 C 
HETATM    7  C7  UNL     1     -32.967  17.047  -2.578  1.00 20.00     0.001 C 
HETATM    8  C8  UNL     1     -35.193  16.417  -1.598  1.00 20.00     0.001 C 
HETATM    9  C9  UNL     1     -35.639  16.980  -5.444  1.00 20.00     0.014 C 
HETATM   10  C10 UNL     1     -33.634  17.331  -3.922  1.00 20.00     0.014 C 
HETATM   11  C11 UNL     1     -35.846  16.606  -2.972  1.00 20.00     0.014 C 
HETATM   12  C12 UNL     1     -34.885  16.441  -4.190  1.00 20.00    -0.018 C 
ENDROOT
TORSDOF 0
ENDMDL
MODEL 6
REMARK VINA RESULT:      -4.5      1.223      2.204
REMARK  0 active torsions:
REMARK  status: ('A' for Active; 'I' for Inactive)
ROOT
HETATM    1  C1  UNL     1     -33.926  15.181  -4.661  1.00 20.00    -0.081 C 
HETATM    2  C2  UNL     1     -32.780  14.553  -4.346  1.00 20.00     0.015 C 
HETATM    3  C3  UNL     1     -34.557  14.898  -6.011  1.00 20.00     0.034 C 
HETATM    4  C4  UNL     1     -35.955  14.309  -5.841  1.00 20.00     0.004 C 
HETATM    5  C5  UNL     1     -36.833  15.167  -4.935  1.00 20.00     0.001 C 
HETATM    6  C6  UNL     1     -33.117  18.509  -2.844  1.00 20.00     0.000 C 
HETATM    7  C7  UNL     1     -33.594  18.351  -4.280  1.00 20.00     0.001 C 
HETATM    8  C8  UNL     1     -32.925  17.156  -2.173  1.00 20.00     0.001 C 
HETATM    9  C9  UNL     1     -36.150  15.460  -3.597  1.00 20.00     0.014 C 
HETATM   10  C10 UNL     1     -34.884  17.535  -4.338  1.00 20.00     0.014 C 
HETATM   11  C11 UNL     1     -34.170  16.269  -2.287  1.00 20.00     0.014 C 
HETATM   12  C12 UNL     1     -34.739  16.107  -3.731  1.00 20.00    -0.018 C 
ENDROOT
TORSDOF 0
ENDMDL
MODEL 7
REMARK VINA RESULT:      -4.3      1.226      4.031
REMARK  0 active torsions:
REMARK  status: ('A' for Active; 'I' for Inactive)
ROOT
HETATM    1  C1  UNL     1     -34.562  16.273  -2.926  1.00 20.00    -0.081 C 
HETATM    2  C2  UNL     1     -33.244  16.140  -3.160  1.00 20.00     0.015 C 
HETATM    3  C3  UNL     1     -35.040  16.305  -1.488  1.00 20.00     0.034 C 
HETATM    4  C4  UNL     1     -35.748  17.622  -1.183  1.00 20.00     0.004 C 
HETATM    5  C5  UNL     1     -36.853  17.926  -2.192  1.00 20.00     0.001 C 
HETATM    6  C6  UNL     1     -35.759  14.225  -5.993  1.00 20.00     0.000 C 
HETATM    7  C7  UNL     1     -36.205  14.043  -4.550  1.00 20.00     0.001 C 
HETATM    8  C8  UNL     1     -34.699  15.310  -6.112  1.00 20.00     0.001 C 
HETATM    9  C9  UNL     1     -36.341  17.851  -3.633  1.00 20.00     0.014 C 
HETATM   10  C10 UNL     1     -36.717  15.360  -3.969  1.00 20.00     0.014 C 
HETATM   11  C11 UNL     1     -35.137  16.626  -5.461  1.00 20.00     0.014 C 
HETATM   12  C12 UNL     1     -35.654  16.499  -3.994  1.00 20.00    -0.018 C 
ENDROOT
TORSDOF 0
ENDMDL
MODEL 8
REMARK VINA RESULT:      -4.2      1.710      4.131
REMARK  0 active torsions:
REMARK  status: ('A' for Active; 'I' for Inactive)
ROOT
HETATM    1  C1  UNL     1     -34.062  17.373  -4.568  1.00 20.00    -0.081 C 
HETATM    2  C2  UNL     1     -33.959  18.578  -5.154  1.00 20.00     0.015 C 
HETATM    3  C3  UNL     1     -33.136  17.051  -3.411  1.00 20.00     0.034 C 
HETATM    4  C4  UNL     1     -33.935  16.757  -2.145  1.00 20.00     0.004 C 
HETATM    5  C5  UNL     1     -35.004  15.691  -2.375  1.00 20.00     0.001 C 
HETATM    6  C6  UNL     1     -34.950  15.397  -7.784  1.00 20.00     0.000 C 
HETATM    7  C7  UNL     1     -33.867  15.048  -6.773  1.00 20.00     0.001 C 
HETATM    8  C8  UNL     1     -35.650  16.698  -7.417  1.00 20.00     0.001 C 
HETATM    9  C9  UNL     1     -35.897  16.034  -3.569  1.00 20.00     0.014 C 
HETATM   10  C10 UNL     1     -34.446  14.968  -5.362  1.00 20.00     0.014 C 
HETATM   11  C11 UNL     1     -36.169  16.693  -5.974  1.00 20.00     0.014 C 
HETATM   12  C12 UNL     1     -35.117  16.294  -4.893  1.00 20.00    -0.018 C 
ENDROOT
TORSDOF 0
ENDMDL
MODEL 9
REMARK VINA RESULT:      -4.2     16.260     17.878
REMARK  0 active torsions:
REMARK  status: ('A' for Active; 'I' for Inactive)
ROOT
HETATM    1  C1  UNL     1     -24.935  18.404  10.335  1.00 20.00    -0.081 C 
HETATM    2  C2  UNL     1     -25.388  19.088   9.269  1.00 20.00     0.015 C 
HETATM    3  C3  UNL     1     -25.495  18.745  11.702  1.00 20.00     0.034 C 
HETATM    4  C4  UNL     1     -26.182  17.532  12.323  1.00 20.00     0.004 C 
HETATM    5  C5  UNL     1     -25.278  16.302  12.332  1.00 20.00     0.001 C 
HETATM    6  C6  UNL     1     -21.293  17.989   9.072  1.00 20.00     0.000 C 
HETATM    7  C7  UNL     1     -21.728  18.507  10.435  1.00 20.00     0.001 C 
HETATM    8  C8  UNL     1     -22.493  17.687   8.187  1.00 20.00     0.001 C 
HETATM    9  C9  UNL     1     -24.705  16.009  10.943  1.00 20.00     0.014 C 
HETATM   10  C10 UNL     1     -22.665  17.514  11.121  1.00 20.00     0.014 C 
HETATM   11  C11 UNL     1     -23.505  16.762   8.873  1.00 20.00     0.014 C 
HETATM   12  C12 UNL     1     -23.954  17.213  10.298  1.00 20.00    -0.018 C 
ENDROOT
TORSDOF 0
ENDMDL
