MODEL 1
REMARK VINA RESULT:      -5.0      0.000      0.000
REMARK  0 active torsions:
REMARK  status: ('A' for Active; 'I' for Inactive)
ROOT
HETATM    1  C1  UNL     1     -32.115   8.014   0.788  1.00 20.00     0.012 C 
HETATM    2  C2  UNL     1     -32.451   7.407   1.766  1.00 20.00    -0.113 C 
HETATM    3  C3  UNL     1     -33.619   7.581   3.936  1.00 20.00     0.020 C 
HETATM    4  C4  UNL     1     -33.905   6.872   5.261  1.00 20.00     0.041 C 
HETATM    5  C5  UNL     1     -33.734   5.461   2.574  1.00 20.00     0.052 C 
HETATM    6  C6  UNL     1     -32.863   6.662   2.968  1.00 20.00     0.067 C 
HETATM    7  C7  UNL     1     -34.354   4.791   3.760  1.00 20.00     0.158 A 
HETATM    8  C8  UNL     1     -34.479   5.493   5.094  1.00 20.00     0.084 A 
HETATM    9  C9  UNL     1     -34.665   4.682   6.336  1.00 20.00     0.049 C 
HETATM   10  O10 UNL     1     -35.584   5.410   4.187  1.00 20.00    -0.370 OA
ENDROOT
TORSDOF 0
ENDMDL
MODEL 2
REMARK VINA RESULT:      -4.6      9.322      9.983
REMARK  0 active torsions:
REMARK  status: ('A' for Active; 'I' for Inactive)
ROOT
HETATM    1  C1  UNL     1     -41.388   9.701   0.346  1.00 20.00     0.012 C 
HETATM    2  C2  UNL     1     -41.527   8.679  -0.267  1.00 20.00    -0.113 C 
HETATM    3  C3  UNL     1     -40.957   6.276  -0.320  1.00 20.00     0.020 C 
HETATM    4  C4  UNL     1     -40.979   5.006  -1.172  1.00 20.00     0.041 C 
HETATM    5  C5  UNL     1     -43.189   7.092  -1.165  1.00 20.00     0.052 C 
HETATM    6  C6  UNL     1     -41.698   7.423  -1.018  1.00 20.00     0.067 C 
HETATM    7  C7  UNL     1     -43.417   5.727  -1.733  1.00 20.00     0.158 A 
HETATM    8  C8  UNL     1     -42.340   4.666  -1.712  1.00 20.00     0.084 A 
HETATM    9  C9  UNL     1     -42.423   3.514  -2.661  1.00 20.00     0.049 C 
HETATM   10  O10 UNL     1     -43.391   4.683  -0.740  1.00 20.00    -0.370 OA
ENDROOT
TORSDOF 0
ENDMDL
MODEL 3
REMARK VINA RESULT:      -4.5     15.897     16.708
REMARK  0 active torsions:
REMARK  status: ('A' for Active; 'I' for Inactive)
ROOT
HETATM    1  C1  UNL     1     -25.310  19.263   6.095  1.00 20.00     0.012 C 
HETATM    2  C2  UNL     1     -24.794  19.130   7.170  1.00 20.00    -0.113 C 
HETATM    3  C3  UNL     1     -25.198  18.531   9.532  1.00 20.00     0.020 C 
HETATM    4  C4  UNL     1     -24.596  18.523  10.939  1.00 20.00     0.041 C 
HETATM    5  C5  UNL     1     -23.018  17.946   8.406  1.00 20.00     0.052 C 
HETATM    6  C6  UNL     1     -24.160  18.967   8.490  1.00 20.00     0.067 C 
HETATM    7  C7  UNL     1     -22.476  17.583   9.753  1.00 20.00     0.158 A 
HETATM    8  C8  UNL     1     -23.265  17.831  11.020  1.00 20.00     0.084 A 
HETATM    9  C9  UNL     1     -22.549  17.893  12.331  1.00 20.00     0.049 C 
HETATM   10  O10 UNL     1     -23.223  16.538  10.407  1.00 20.00    -0.370 OA
ENDROOT
TORSDOF 0
ENDMDL
MODEL 4
REMARK VINA RESULT:      -4.4     11.710     12.322
REMARK  0 active torsions:
REMARK  status: ('A' for Active; 'I' for Inactive)
ROOT
HETATM    1  C1  UNL     1     -32.195  18.330  -1.503  1.00 20.00     0.012 C 
HETATM    2  C2  UNL     1     -32.884  17.450  -1.939  1.00 20.00    -0.113 C 
HETATM    3  C3  UNL     1     -35.085  16.927  -2.931  1.00 20.00     0.020 C 
HETATM    4  C4  UNL     1     -36.039  15.799  -3.330  1.00 20.00     0.041 C 
HETATM    5  C5  UNL     1     -33.017  15.665  -3.636  1.00 20.00     0.052 C 
HETATM    6  C6  UNL     1     -33.731  16.370  -2.475  1.00 20.00     0.067 C 
HETATM    7  C7  UNL     1     -33.910  14.702  -4.354  1.00 20.00     0.158 A 
HETATM    8  C8  UNL     1     -35.417  14.778  -4.241  1.00 20.00     0.084 A 
HETATM    9  C9  UNL     1     -36.240  13.575  -4.571  1.00 20.00     0.049 C 
HETATM   10  O10 UNL     1     -34.724  15.324  -5.368  1.00 20.00    -0.370 OA
ENDROOT
TORSDOF 0
ENDMDL
MODEL 5
REMARK VINA RESULT:      -4.4     11.887     12.290
REMARK  0 active torsions:
REMARK  status: ('A' for Active; 'I' for Inactive)
ROOT
HETATM    1  C1  UNL     1     -33.734  14.767  -5.123  1.00 20.00     0.012 C 
HETATM    2  C2  UNL     1     -33.739  15.287  -4.041  1.00 20.00    -0.113 C 
HETATM    3  C3  UNL     1     -33.032  17.283  -2.770  1.00 20.00     0.020 C 
HETATM    4  C4  UNL     1     -32.877  17.882  -1.370  1.00 20.00     0.041 C 
HETATM    5  C5  UNL     1     -35.185  16.092  -2.213  1.00 20.00     0.052 C 
HETATM    6  C6  UNL     1     -33.744  15.926  -2.714  1.00 20.00     0.067 C 
HETATM    7  C7  UNL     1     -35.265  16.922  -0.970  1.00 20.00     0.158 A 
HETATM    8  C8  UNL     1     -34.140  17.845  -0.557  1.00 20.00     0.084 A 
HETATM    9  C9  UNL     1     -34.041  18.290   0.867  1.00 20.00     0.049 C 
HETATM   10  O10 UNL     1     -35.302  18.340  -1.230  1.00 20.00    -0.370 OA
ENDROOT
TORSDOF 0
ENDMDL
MODEL 6
REMARK VINA RESULT:      -4.3     11.492     12.314
REMARK  0 active torsions:
REMARK  status: ('A' for Active; 'I' for Inactive)
ROOT
HETATM    1  C1  UNL     1     -35.418  17.078   0.022  1.00 20.00     0.012 C 
HETATM    2  C2  UNL     1     -35.198  16.797  -1.123  1.00 20.00    -0.113 C 
HETATM    3  C3  UNL     1     -33.439  16.143  -2.729  1.00 20.00     0.020 C 
HETATM    4  C4  UNL     1     -33.109  15.951  -4.211  1.00 20.00     0.041 C 
HETATM    5  C5  UNL     1     -35.789  15.255  -2.956  1.00 20.00     0.052 C 
HETATM    6  C6  UNL     1     -34.928  16.452  -2.530  1.00 20.00     0.067 C 
HETATM    7  C7  UNL     1     -35.407  14.728  -4.303  1.00 20.00     0.158 A 
HETATM    8  C8  UNL     1     -34.063  15.035  -4.925  1.00 20.00     0.084 A 
HETATM    9  C9  UNL     1     -33.889  14.898  -6.404  1.00 20.00     0.049 C 
HETATM   10  O10 UNL     1     -34.311  13.792  -4.261  1.00 20.00    -0.370 OA
ENDROOT
TORSDOF 0
ENDMDL
MODEL 7
REMARK VINA RESULT:      -4.3     11.729     12.943
REMARK  0 active torsions:
REMARK  status: ('A' for Active; 'I' for Inactive)
ROOT
HETATM    1  C1  UNL     1     -32.162  18.172  -1.093  1.00 20.00     0.012 C 
HETATM    2  C2  UNL     1     -32.669  17.488  -1.940  1.00 20.00    -0.113 C 
HETATM    3  C3  UNL     1     -34.493  15.889  -2.404  1.00 20.00     0.020 C 
HETATM    4  C4  UNL     1     -35.046  14.885  -3.418  1.00 20.00     0.041 C 
HETATM    5  C5  UNL     1     -33.719  17.514  -4.172  1.00 20.00     0.052 C 
HETATM    6  C6  UNL     1     -33.291  16.649  -2.979  1.00 20.00     0.067 C 
HETATM    7  C7  UNL     1     -34.543  16.753  -5.162  1.00 20.00     0.158 A 
HETATM    8  C8  UNL     1     -35.240  15.462  -4.792  1.00 20.00     0.084 A 
HETATM    9  C9  UNL     1     -35.652  14.514  -5.872  1.00 20.00     0.049 C 
HETATM   10  O10 UNL     1     -35.944  16.708  -4.826  1.00 20.00    -0.370 OA
ENDROOT
TORSDOF 0
ENDMDL
MODEL 8
REMARK VINA RESULT:      -4.1     11.733     12.296
REMARK  0 active torsions:
REMARK  status: ('A' for Active; 'I' for Inactive)
ROOT
HETATM    1  C1  UNL     1     -32.287  17.956  -1.124  1.00 20.00     0.012 C 
HETATM    2  C2  UNL     1     -32.936  17.422  -1.981  1.00 20.00    -0.113 C 
HETATM    3  C3  UNL     1     -32.904  15.685  -3.736  1.00 20.00     0.020 C 
HETATM    4  C4  UNL     1     -33.653  15.112  -4.941  1.00 20.00     0.041 C 
HETATM    5  C5  UNL     1     -35.009  16.162  -2.431  1.00 20.00     0.052 C 
HETATM    6  C6  UNL     1     -33.733  16.766  -3.032  1.00 20.00     0.067 C 
HETATM    7  C7  UNL     1     -35.750  15.305  -3.408  1.00 20.00     0.158 A 
HETATM    8  C8  UNL     1     -35.080  14.745  -4.643  1.00 20.00     0.084 A 
HETATM    9  C9  UNL     1     -35.920  14.301  -5.798  1.00 20.00     0.049 C 
HETATM   10  O10 UNL     1     -35.261  13.950  -3.466  1.00 20.00    -0.370 OA
ENDROOT
TORSDOF 0
ENDMDL
MODEL 9
REMARK VINA RESULT:      -4.1      9.559     10.357
REMARK  0 active torsions:
REMARK  status: ('A' for Active; 'I' for Inactive)
ROOT
HETATM    1  C1  UNL     1     -43.105   2.804  -2.949  1.00 20.00     0.012 C 
HETATM    2  C2  UNL     1     -42.908   3.754  -2.243  1.00 20.00    -0.113 C 
HETATM    3  C3  UNL     1     -41.163   5.201  -1.264  1.00 20.00     0.020 C 
HETATM    4  C4  UNL     1     -40.883   6.299  -0.235  1.00 20.00     0.041 C 
HETATM    5  C5  UNL     1     -43.406   6.149  -1.924  1.00 20.00     0.052 C 
HETATM    6  C6  UNL     1     -42.667   4.920  -1.377  1.00 20.00     0.067 C 
HETATM    7  C7  UNL     1     -43.030   7.407  -1.207  1.00 20.00     0.158 A 
HETATM    8  C8  UNL     1     -41.759   7.509  -0.392  1.00 20.00     0.084 A 
HETATM    9  C9  UNL     1     -41.640   8.572   0.653  1.00 20.00     0.049 C 
HETATM   10  O10 UNL     1     -41.835   8.025  -1.726  1.00 20.00    -0.370 OA
ENDROOT
TORSDOF 0
ENDMDL
