MODEL 1
REMARK VINA RESULT:      -4.3      0.000      0.000
REMARK  3 active torsions:
REMARK  status: ('A' for Active; 'I' for Inactive)
REMARK    1  A    between atoms: C1_1  and  C7_7 
REMARK    2  A    between atoms: C2_2  and  C8_8 
REMARK    3  A    between atoms: C8_8  and  C9_9 
ROOT
HETATM    1  C1  UNL     1     -32.825   5.722   2.664  1.00 20.00     0.157 A 
HETATM    2  C2  UNL     1     -33.952   5.070   3.427  1.00 20.00     0.185 A 
HETATM    3  O10 UNL     1     -33.988   5.209   2.001  1.00 20.00    -0.372 OA
ENDROOT
BRANCH   2   4
HETATM    4  C8  UNL     1     -35.002   5.844   4.159  1.00 20.00     0.204 C 
HETATM    5  F11 UNL     1     -36.212   5.273   3.905  1.00 20.00    -0.246 F 
BRANCH   4   6
HETATM    6  C9  UNL     1     -34.783   5.910   5.680  1.00 20.00     0.014 C 
HETATM    7  C5  UNL     1     -33.800   7.011   6.084  1.00 20.00     0.012 C 
HETATM    8  C6  UNL     1     -34.273   4.560   6.191  1.00 20.00     0.012 C 
ENDBRANCH   4   6
ENDBRANCH   2   4
BRANCH   1   9
HETATM    9  C7  UNL     1     -32.653   7.195   2.568  1.00 20.00     0.009 C 
HETATM   10  C3  UNL     1     -31.504   7.702   3.462  1.00 20.00     0.012 C 
HETATM   11  C4  UNL     1     -32.400   7.655   1.118  1.00 20.00     0.012 C 
ENDBRANCH   1   9
TORSDOF 3
ENDMDL
MODEL 2
REMARK VINA RESULT:      -4.0     11.314     12.557
REMARK  3 active torsions:
REMARK  status: ('A' for Active; 'I' for Inactive)
REMARK    1  A    between atoms: C1_1  and  C7_7 
REMARK    2  A    between atoms: C2_2  and  C8_8 
REMARK    3  A    between atoms: C8_8  and  C9_9 
ROOT
HETATM    1  C1  UNL     1     -37.538  15.073  -4.916  1.00 20.00     0.157 A 
HETATM    2  C2  UNL     1     -36.366  14.124  -4.853  1.00 20.00     0.185 A 
HETATM    3  O10 UNL     1     -37.684  13.725  -4.454  1.00 20.00    -0.372 OA
ENDROOT
BRANCH   2   4
HETATM    4  C8  UNL     1     -35.355  14.143  -3.751  1.00 20.00     0.204 C 
HETATM    5  F11 UNL     1     -34.808  12.899  -3.649  1.00 20.00    -0.246 F 
BRANCH   4   6
HETATM    6  C9  UNL     1     -34.233  15.174  -3.950  1.00 20.00     0.014 C 
HETATM    7  C5  UNL     1     -32.916  14.530  -4.390  1.00 20.00     0.012 C 
HETATM    8  C6  UNL     1     -34.009  15.956  -2.654  1.00 20.00     0.012 C 
ENDBRANCH   4   6
ENDBRANCH   2   4
BRANCH   1   9
HETATM    9  C7  UNL     1     -37.797  16.116  -3.889  1.00 20.00     0.009 C 
HETATM   10  C3  UNL     1     -37.182  17.475  -4.277  1.00 20.00     0.012 C 
HETATM   11  C4  UNL     1     -39.304  16.305  -3.624  1.00 20.00     0.012 C 
ENDBRANCH   1   9
TORSDOF 3
ENDMDL
MODEL 3
REMARK VINA RESULT:      -3.9     11.872     12.795
REMARK  3 active torsions:
REMARK  status: ('A' for Active; 'I' for Inactive)
REMARK    1  A    between atoms: C1_1  and  C7_7 
REMARK    2  A    between atoms: C2_2  and  C8_8 
REMARK    3  A    between atoms: C8_8  and  C9_9 
ROOT
HETATM    1  C1  UNL     1     -33.475  14.762  -5.400  1.00 20.00     0.157 A 
HETATM    2  C2  UNL     1     -33.241  15.064  -3.940  1.00 20.00     0.185 A 
HETATM    3  O10 UNL     1     -33.912  13.871  -4.366  1.00 20.00    -0.372 OA
ENDROOT
BRANCH   2   4
HETATM    4  C8  UNL     1     -34.089  16.013  -3.154  1.00 20.00     0.204 C 
HETATM    5  F11 UNL     1     -34.881  15.289  -2.316  1.00 20.00    -0.246 F 
BRANCH   4   6
HETATM    6  C9  UNL     1     -33.285  17.035  -2.332  1.00 20.00     0.014 C 
HETATM    7  C5  UNL     1     -34.078  17.587  -1.145  1.00 20.00     0.012 C 
HETATM    8  C6  UNL     1     -32.842  18.193  -3.231  1.00 20.00     0.012 C 
ENDBRANCH   4   6
ENDBRANCH   2   4
BRANCH   1   9
HETATM    9  C7  UNL     1     -34.570  15.379  -6.194  1.00 20.00     0.009 C 
HETATM   10  C3  UNL     1     -34.127  15.701  -7.635  1.00 20.00     0.012 C 
HETATM   11  C4  UNL     1     -35.824  14.485  -6.242  1.00 20.00     0.012 C 
ENDBRANCH   1   9
TORSDOF 3
ENDMDL
MODEL 4
REMARK VINA RESULT:      -3.9     11.925     12.876
REMARK  3 active torsions:
REMARK  status: ('A' for Active; 'I' for Inactive)
REMARK    1  A    between atoms: C1_1  and  C7_7 
REMARK    2  A    between atoms: C2_2  and  C8_8 
REMARK    3  A    between atoms: C8_8  and  C9_9 
ROOT
HETATM    1  C1  UNL     1     -35.841  14.366  -5.790  1.00 20.00     0.157 A 
HETATM    2  C2  UNL     1     -36.095  14.589  -4.319  1.00 20.00     0.185 A 
HETATM    3  O10 UNL     1     -37.153  14.642  -5.284  1.00 20.00    -0.372 OA
ENDROOT
BRANCH   2   4
HETATM    4  C8  UNL     1     -35.812  15.884  -3.626  1.00 20.00     0.204 C 
HETATM    5  F11 UNL     1     -36.982  16.366  -3.122  1.00 20.00    -0.246 F 
BRANCH   4   6
HETATM    6  C9  UNL     1     -34.781  15.774  -2.491  1.00 20.00     0.014 C 
HETATM    7  C5  UNL     1     -35.125  16.665  -1.296  1.00 20.00     0.012 C 
HETATM    8  C6  UNL     1     -33.389  16.141  -3.015  1.00 20.00     0.012 C 
ENDBRANCH   4   6
ENDBRANCH   2   4
BRANCH   1   9
HETATM    9  C7  UNL     1     -35.286  15.412  -6.688  1.00 20.00     0.009 C 
HETATM   10  C3  UNL     1     -33.862  15.067  -7.168  1.00 20.00     0.012 C 
HETATM   11  C4  UNL     1     -36.184  15.655  -7.918  1.00 20.00     0.012 C 
ENDBRANCH   1   9
TORSDOF 3
ENDMDL
MODEL 5
REMARK VINA RESULT:      -3.9     11.712     13.137
REMARK  3 active torsions:
REMARK  status: ('A' for Active; 'I' for Inactive)
REMARK    1  A    between atoms: C1_1  and  C7_7 
REMARK    2  A    between atoms: C2_2  and  C8_8 
REMARK    3  A    between atoms: C8_8  and  C9_9 
ROOT
HETATM    1  C1  UNL     1     -34.665  15.923  -6.292  1.00 20.00     0.157 A 
HETATM    2  C2  UNL     1     -34.021  15.180  -5.147  1.00 20.00     0.185 A 
HETATM    3  O10 UNL     1     -34.485  14.501  -6.321  1.00 20.00    -0.372 OA
ENDROOT
BRANCH   2   4
HETATM    4  C8  UNL     1     -34.748  14.824  -3.889  1.00 20.00     0.204 C 
HETATM    5  F11 UNL     1     -34.569  13.495  -3.651  1.00 20.00    -0.246 F 
BRANCH   4   6
HETATM    6  C9  UNL     1     -34.292  15.624  -2.657  1.00 20.00     0.014 C 
HETATM    7  C5  UNL     1     -35.409  16.494  -2.076  1.00 20.00     0.012 C 
HETATM    8  C6  UNL     1     -33.097  16.508  -3.023  1.00 20.00     0.012 C 
ENDBRANCH   4   6
ENDBRANCH   2   4
BRANCH   1   9
HETATM    9  C7  UNL     1     -36.083  16.371  -6.277  1.00 20.00     0.009 C 
HETATM   10  C3  UNL     1     -36.224  17.824  -5.781  1.00 20.00     0.012 C 
HETATM   11  C4  UNL     1     -36.743  16.247  -7.664  1.00 20.00     0.012 C 
ENDBRANCH   1   9
TORSDOF 3
ENDMDL
MODEL 6
REMARK VINA RESULT:      -3.9      1.496      1.975
REMARK  3 active torsions:
REMARK  status: ('A' for Active; 'I' for Inactive)
REMARK    1  A    between atoms: C1_1  and  C7_7 
REMARK    2  A    between atoms: C2_2  and  C8_8 
REMARK    3  A    between atoms: C8_8  and  C9_9 
ROOT
HETATM    1  C1  UNL     1     -32.113   7.796   2.390  1.00 20.00     0.157 A 
HETATM    2  C2  UNL     1     -32.680   6.936   3.494  1.00 20.00     0.185 A 
HETATM    3  O10 UNL     1     -31.801   6.401   2.495  1.00 20.00    -0.372 OA
ENDROOT
BRANCH   2   4
HETATM    4  C8  UNL     1     -34.069   6.382   3.469  1.00 20.00     0.204 C 
HETATM    5  F11 UNL     1     -34.043   5.186   2.816  1.00 20.00    -0.246 F 
BRANCH   4   6
HETATM    6  C9  UNL     1     -34.688   6.184   4.862  1.00 20.00     0.014 C 
HETATM    7  C5  UNL     1     -33.868   6.852   5.968  1.00 20.00     0.012 C 
HETATM    8  C6  UNL     1     -34.824   4.689   5.163  1.00 20.00     0.012 C 
ENDBRANCH   4   6
ENDBRANCH   2   4
BRANCH   1   9
HETATM    9  C7  UNL     1     -32.882   8.173   1.175  1.00 20.00     0.009 C 
HETATM   10  C3  UNL     1     -33.215   9.679   1.145  1.00 20.00     0.012 C 
HETATM   11  C4  UNL     1     -32.136   7.799  -0.121  1.00 20.00     0.012 C 
ENDBRANCH   1   9
TORSDOF 3
ENDMDL
MODEL 7
REMARK VINA RESULT:      -3.8     12.409     13.082
REMARK  3 active torsions:
REMARK  status: ('A' for Active; 'I' for Inactive)
REMARK    1  A    between atoms: C1_1  and  C7_7 
REMARK    2  A    between atoms: C2_2  and  C8_8 
REMARK    3  A    between atoms: C8_8  and  C9_9 
ROOT
HETATM    1  C1  UNL     1     -33.466  18.133  -2.393  1.00 20.00     0.157 A 
HETATM    2  C2  UNL     1     -32.709  18.968  -1.388  1.00 20.00     0.185 A 
HETATM    3  O10 UNL     1     -32.140  18.609  -2.655  1.00 20.00    -0.372 OA
ENDROOT
BRANCH   2   4
HETATM    4  C8  UNL     1     -32.011  18.386  -0.200  1.00 20.00     0.204 C 
HETATM    5  F11 UNL     1     -30.719  18.817  -0.207  1.00 20.00    -0.246 F 
BRANCH   4   6
HETATM    6  C9  UNL     1     -32.659  18.752   1.145  1.00 20.00     0.014 C 
HETATM    7  C5  UNL     1     -31.832  18.278   2.343  1.00 20.00     0.012 C 
HETATM    8  C6  UNL     1     -34.064  18.151   1.228  1.00 20.00     0.012 C 
ENDBRANCH   4   6
ENDBRANCH   2   4
BRANCH   1   9
HETATM    9  C7  UNL     1     -33.589  16.655  -2.295  1.00 20.00     0.009 C 
HETATM   10  C3  UNL     1     -35.029  16.216  -1.961  1.00 20.00     0.012 C 
HETATM   11  C4  UNL     1     -33.138  15.950  -3.589  1.00 20.00     0.012 C 
ENDBRANCH   1   9
TORSDOF 3
ENDMDL
MODEL 8
REMARK VINA RESULT:      -3.8     11.513     12.715
REMARK  3 active torsions:
REMARK  status: ('A' for Active; 'I' for Inactive)
REMARK    1  A    between atoms: C1_1  and  C7_7 
REMARK    2  A    between atoms: C2_2  and  C8_8 
REMARK    3  A    between atoms: C8_8  and  C9_9 
ROOT
HETATM    1  C1  UNL     1     -36.978  15.462  -5.179  1.00 20.00     0.157 A 
HETATM    2  C2  UNL     1     -35.591  14.905  -4.972  1.00 20.00     0.185 A 
HETATM    3  O10 UNL     1     -36.664  14.093  -5.467  1.00 20.00    -0.372 OA
ENDROOT
BRANCH   2   4
HETATM    4  C8  UNL     1     -35.063  14.499  -3.633  1.00 20.00     0.204 C 
HETATM    5  F11 UNL     1     -34.302  13.380  -3.793  1.00 20.00    -0.246 F 
BRANCH   4   6
HETATM    6  C9  UNL     1     -34.226  15.584  -2.936  1.00 20.00     0.014 C 
HETATM    7  C5  UNL     1     -35.002  16.304  -1.831  1.00 20.00     0.012 C 
HETATM    8  C6  UNL     1     -33.739  16.607  -3.965  1.00 20.00     0.012 C 
ENDBRANCH   4   6
ENDBRANCH   2   4
BRANCH   1   9
HETATM    9  C7  UNL     1     -37.950  15.658  -4.072  1.00 20.00     0.009 C 
HETATM   10  C3  UNL     1     -38.187  17.151  -3.768  1.00 20.00     0.012 C 
HETATM   11  C4  UNL     1     -39.306  14.986  -4.367  1.00 20.00     0.012 C 
ENDBRANCH   1   9
TORSDOF 3
ENDMDL
MODEL 9
REMARK VINA RESULT:      -3.7     11.789     12.765
REMARK  3 active torsions:
REMARK  status: ('A' for Active; 'I' for Inactive)
REMARK    1  A    between atoms: C1_1  and  C7_7 
REMARK    2  A    between atoms: C2_2  and  C8_8 
REMARK    3  A    between atoms: C8_8  and  C9_9 
ROOT
HETATM    1  C1  UNL     1     -33.243  17.992  -2.693  1.00 20.00     0.157 A 
HETATM    2  C2  UNL     1     -33.804  16.887  -3.555  1.00 20.00     0.185 A 
HETATM    3  O10 UNL     1     -34.644  17.898  -2.982  1.00 20.00    -0.372 OA
ENDROOT
BRANCH   2   4
HETATM    4  C8  UNL     1     -34.056  15.502  -3.051  1.00 20.00     0.204 C 
HETATM    5  F11 UNL     1     -35.179  15.524  -2.280  1.00 20.00    -0.246 F 
BRANCH   4   6
HETATM    6  C9  UNL     1     -34.227  14.454  -4.163  1.00 20.00     0.014 C 
HETATM    7  C5  UNL     1     -33.883  15.006  -5.548  1.00 20.00     0.012 C 
HETATM    8  C6  UNL     1     -35.665  13.929  -4.167  1.00 20.00     0.012 C 
ENDBRANCH   4   6
ENDBRANCH   2   4
BRANCH   1   9
HETATM    9  C7  UNL     1     -32.888  17.806  -1.261  1.00 20.00     0.009 C 
HETATM   10  C3  UNL     1     -31.552  18.488  -0.904  1.00 20.00     0.012 C 
HETATM   11  C4  UNL     1     -33.988  18.335  -0.320  1.00 20.00     0.012 C 
ENDBRANCH   1   9
TORSDOF 3
ENDMDL
