MODEL 1
REMARK VINA RESULT:      -5.5      0.000      0.000
REMARK  4 active torsions:
REMARK  status: ('A' for Active; 'I' for Inactive)
REMARK    1  A    between atoms: C3_3  and  C5_5 
REMARK    2  A    between atoms: C5_5  and  N8_8 
REMARK    3  A    between atoms: C6_6  and  C7_7 
REMARK    4  A    between atoms: C6_6  and  N8_8 
ROOT
HETATM    1  N8  UNL     1     -34.057   4.484   3.820  1.00 20.00     0.089 N 
HETATM    2  H23 UNL     1     -33.412   4.245   4.582  1.00 20.00     0.316 HD
ENDROOT
BRANCH   1   3
HETATM    3  C5  UNL     1     -33.329   5.010   2.698  1.00 20.00     0.274 C 
BRANCH   3   4
HETATM    4  C3  UNL     1     -33.324   6.499   2.709  1.00 20.00     0.018 A 
HETATM    5  C1  UNL     1     -32.143   7.248   3.268  1.00 20.00     0.011 A 
HETATM    6  C2  UNL     1     -32.407   7.259   1.786  1.00 20.00    -0.013 A 
HETATM    7  C4  UNL     1     -32.883   8.504   1.118  1.00 20.00     0.010 C 
ENDBRANCH   3   4
ENDBRANCH   1   3
BRANCH   1   8
HETATM    8  C6  UNL     1     -35.035   5.448   4.330  1.00 20.00     0.340 C 
BRANCH   8   9
HETATM    9  C7  UNL     1     -34.847   5.659   5.817  1.00 20.00     0.381 C 
HETATM   10  F9  UNL     1     -34.097   6.768   6.036  1.00 20.00    -0.213 F 
HETATM   11  F10 UNL     1     -34.147   4.614   6.329  1.00 20.00    -0.213 F 
ENDBRANCH   8   9
ENDBRANCH   1   8
TORSDOF 4
ENDMDL
MODEL 2
REMARK VINA RESULT:      -4.7      3.486      4.979
REMARK  4 active torsions:
REMARK  status: ('A' for Active; 'I' for Inactive)
REMARK    1  A    between atoms: C3_3  and  C5_5 
REMARK    2  A    between atoms: C5_5  and  N8_8 
REMARK    3  A    between atoms: C6_6  and  C7_7 
REMARK    4  A    between atoms: C6_6  and  N8_8 
ROOT
HETATM    1  N8  UNL     1     -32.247   7.357   2.503  1.00 20.00     0.089 N 
HETATM    2  H23 UNL     1     -31.282   7.196   2.812  1.00 20.00     0.316 HD
ENDROOT
BRANCH   1   3
HETATM    3  C5  UNL     1     -33.042   6.180   2.723  1.00 20.00     0.274 C 
BRANCH   3   4
HETATM    4  C3  UNL     1     -34.086   6.422   3.758  1.00 20.00     0.018 A 
HETATM    5  C1  UNL     1     -35.068   5.335   4.110  1.00 20.00     0.011 A 
HETATM    6  C2  UNL     1     -34.000   5.731   5.094  1.00 20.00    -0.013 A 
HETATM    7  C4  UNL     1     -34.362   6.466   6.339  1.00 20.00     0.010 C 
ENDBRANCH   3   4
ENDBRANCH   1   3
BRANCH   1   8
HETATM    8  C6  UNL     1     -32.220   7.733   1.088  1.00 20.00     0.340 C 
BRANCH   8   9
HETATM    9  C7  UNL     1     -33.222   8.834   0.812  1.00 20.00     0.381 C 
HETATM   10  F9  UNL     1     -33.735   8.690  -0.435  1.00 20.00    -0.213 F 
HETATM   11  F10 UNL     1     -32.583  10.031   0.830  1.00 20.00    -0.213 F 
ENDBRANCH   8   9
ENDBRANCH   1   8
TORSDOF 4
ENDMDL
MODEL 3
REMARK VINA RESULT:      -4.5      2.173      3.974
REMARK  4 active torsions:
REMARK  status: ('A' for Active; 'I' for Inactive)
REMARK    1  A    between atoms: C3_3  and  C5_5 
REMARK    2  A    between atoms: C5_5  and  N8_8 
REMARK    3  A    between atoms: C6_6  and  C7_7 
REMARK    4  A    between atoms: C6_6  and  N8_8 
ROOT
HETATM    1  N8  UNL     1     -33.311   4.892   2.594  1.00 20.00     0.089 N 
HETATM    2  H23 UNL     1     -33.532   4.423   1.709  1.00 20.00     0.316 HD
ENDROOT
BRANCH   1   3
HETATM    3  C5  UNL     1     -34.096   4.334   3.661  1.00 20.00     0.274 C 
BRANCH   3   4
HETATM    4  C3  UNL     1     -34.642   5.401   4.544  1.00 20.00     0.018 A 
HETATM    5  C1  UNL     1     -35.160   5.057   5.916  1.00 20.00     0.011 A 
HETATM    6  C2  UNL     1     -33.879   5.833   5.769  1.00 20.00    -0.013 A 
HETATM    7  C4  UNL     1     -33.827   7.274   6.147  1.00 20.00     0.010 C 
ENDBRANCH   3   4
ENDBRANCH   1   3
BRANCH   1   8
HETATM    8  C6  UNL     1     -33.562   6.325   2.432  1.00 20.00     0.340 C 
BRANCH   8   9
HETATM    9  C7  UNL     1     -32.258   7.077   2.268  1.00 20.00     0.381 C 
HETATM   10  F9  UNL     1     -31.805   7.487   3.479  1.00 20.00    -0.213 F 
HETATM   11  F10 UNL     1     -32.483   8.202   1.541  1.00 20.00    -0.213 F 
ENDBRANCH   8   9
ENDBRANCH   1   8
TORSDOF 4
ENDMDL
MODEL 4
REMARK VINA RESULT:      -4.4      0.963      1.459
REMARK  4 active torsions:
REMARK  status: ('A' for Active; 'I' for Inactive)
REMARK    1  A    between atoms: C3_3  and  C5_5 
REMARK    2  A    between atoms: C5_5  and  N8_8 
REMARK    3  A    between atoms: C6_6  and  C7_7 
REMARK    4  A    between atoms: C6_6  and  N8_8 
ROOT
HETATM    1  N8  UNL     1     -33.468   6.591   3.923  1.00 20.00     0.089 N 
HETATM    2  H23 UNL     1     -33.862   7.537   3.981  1.00 20.00     0.316 HD
ENDROOT
BRANCH   1   3
HETATM    3  C5  UNL     1     -32.991   6.331   2.592  1.00 20.00     0.274 C 
BRANCH   3   4
HETATM    4  C3  UNL     1     -32.379   7.549   1.992  1.00 20.00     0.018 A 
HETATM    5  C1  UNL     1     -31.916   7.534   0.559  1.00 20.00     0.011 A 
HETATM    6  C2  UNL     1     -33.129   8.335   0.949  1.00 20.00    -0.013 A 
HETATM    7  C4  UNL     1     -33.074   9.825   0.954  1.00 20.00     0.010 C 
ENDBRANCH   3   4
ENDBRANCH   1   3
BRANCH   1   8
HETATM    8  C6  UNL     1     -34.504   5.636   4.322  1.00 20.00     0.340 C 
BRANCH   8   9
HETATM    9  C7  UNL     1     -34.771   5.731   5.809  1.00 20.00     0.381 C 
HETATM   10  F9  UNL     1     -34.177   6.840   6.316  1.00 20.00    -0.213 F 
HETATM   11  F10 UNL     1     -34.198   4.669   6.432  1.00 20.00    -0.213 F 
ENDBRANCH   8   9
ENDBRANCH   1   8
TORSDOF 4
ENDMDL
MODEL 5
REMARK VINA RESULT:      -3.9     11.794     12.417
REMARK  4 active torsions:
REMARK  status: ('A' for Active; 'I' for Inactive)
REMARK    1  A    between atoms: C3_3  and  C5_5 
REMARK    2  A    between atoms: C5_5  and  N8_8 
REMARK    3  A    between atoms: C6_6  and  C7_7 
REMARK    4  A    between atoms: C6_6  and  N8_8 
ROOT
HETATM    1  N8  UNL     1     -36.624  15.269  -3.130  1.00 20.00     0.089 N 
HETATM    2  H23 UNL     1     -37.443  15.467  -2.544  1.00 20.00     0.316 HD
ENDROOT
BRANCH   1   3
HETATM    3  C5  UNL     1     -35.816  16.450  -3.270  1.00 20.00     0.274 C 
BRANCH   3   4
HETATM    4  C3  UNL     1     -34.513  16.298  -2.565  1.00 20.00     0.018 A 
HETATM    5  C1  UNL     1     -33.292  15.844  -3.321  1.00 20.00     0.011 A 
HETATM    6  C2  UNL     1     -33.391  17.266  -2.835  1.00 20.00    -0.013 A 
HETATM    7  C4  UNL     1     -32.526  17.738  -1.716  1.00 20.00     0.010 C 
ENDBRANCH   3   4
ENDBRANCH   1   3
BRANCH   1   8
HETATM    8  C6  UNL     1     -37.094  14.778  -4.427  1.00 20.00     0.340 C 
BRANCH   8   9
HETATM    9  C7  UNL     1     -36.147  13.731  -4.973  1.00 20.00     0.381 C 
HETATM   10  F9  UNL     1     -35.397  13.216  -3.968  1.00 20.00    -0.213 F 
HETATM   11  F10 UNL     1     -35.281  14.322  -5.836  1.00 20.00    -0.213 F 
ENDBRANCH   8   9
ENDBRANCH   1   8
TORSDOF 4
ENDMDL
MODEL 6
REMARK VINA RESULT:      -3.9      9.668     10.273
REMARK  4 active torsions:
REMARK  status: ('A' for Active; 'I' for Inactive)
REMARK    1  A    between atoms: C3_3  and  C5_5 
REMARK    2  A    between atoms: C5_5  and  N8_8 
REMARK    3  A    between atoms: C6_6  and  C7_7 
REMARK    4  A    between atoms: C6_6  and  N8_8 
ROOT
HETATM    1  N8  UNL     1     -42.436   4.722  -0.123  1.00 20.00     0.089 N 
HETATM    2  H23 UNL     1     -42.471   3.907   0.500  1.00 20.00     0.316 HD
ENDROOT
BRANCH   1   3
HETATM    3  C5  UNL     1     -42.692   5.927   0.618  1.00 20.00     0.274 C 
BRANCH   3   4
HETATM    4  C3  UNL     1     -41.634   6.945   0.374  1.00 20.00     0.018 A 
HETATM    5  C1  UNL     1     -41.271   7.336  -1.034  1.00 20.00     0.011 A 
HETATM    6  C2  UNL     1     -42.004   8.308  -0.149  1.00 20.00    -0.013 A 
HETATM    7  C4  UNL     1     -41.309   9.521   0.368  1.00 20.00     0.010 C 
ENDBRANCH   3   4
ENDBRANCH   1   3
BRANCH   1   8
HETATM    8  C6  UNL     1     -43.417   4.526  -1.192  1.00 20.00     0.340 C 
BRANCH   8   9
HETATM    9  C7  UNL     1     -42.782   3.824  -2.374  1.00 20.00     0.381 C 
HETATM   10  F9  UNL     1     -43.018   2.491  -2.302  1.00 20.00    -0.213 F 
HETATM   11  F10 UNL     1     -41.434   3.981  -2.311  1.00 20.00    -0.213 F 
ENDBRANCH   8   9
ENDBRANCH   1   8
TORSDOF 4
ENDMDL
MODEL 7
REMARK VINA RESULT:      -3.9     15.006     16.308
REMARK  4 active torsions:
REMARK  status: ('A' for Active; 'I' for Inactive)
REMARK    1  A    between atoms: C3_3  and  C5_5 
REMARK    2  A    between atoms: C5_5  and  N8_8 
REMARK    3  A    between atoms: C6_6  and  C7_7 
REMARK    4  A    between atoms: C6_6  and  N8_8 
ROOT
HETATM    1  N8  UNL     1     -25.385  18.730   8.207  1.00 20.00     0.089 N 
HETATM    2  H23 UNL     1     -26.171  19.239   8.625  1.00 20.00     0.316 HD
ENDROOT
BRANCH   1   3
HETATM    3  C5  UNL     1     -24.184  18.961   8.964  1.00 20.00     0.274 C 
BRANCH   3   4
HETATM    4  C3  UNL     1     -24.188  18.178  10.232  1.00 20.00     0.018 A 
HETATM    5  C1  UNL     1     -23.845  16.712  10.216  1.00 20.00     0.011 A 
HETATM    6  C2  UNL     1     -22.890  17.701  10.828  1.00 20.00    -0.013 A 
HETATM    7  C4  UNL     1     -22.690  17.734  12.305  1.00 20.00     0.010 C 
ENDBRANCH   3   4
ENDBRANCH   1   3
BRANCH   1   8
HETATM    8  C6  UNL     1     -25.239  19.168   6.818  1.00 20.00     0.340 C 
BRANCH   8   9
HETATM    9  C7  UNL     1     -26.557  19.046   6.082  1.00 20.00     0.381 C 
HETATM   10  F9  UNL     1     -27.505  18.543   6.910  1.00 20.00    -0.213 F 
HETATM   11  F10 UNL     1     -26.418  18.153   5.068  1.00 20.00    -0.213 F 
ENDBRANCH   8   9
ENDBRANCH   1   8
TORSDOF 4
ENDMDL
MODEL 8
REMARK VINA RESULT:      -3.8      1.470      2.032
REMARK  4 active torsions:
REMARK  status: ('A' for Active; 'I' for Inactive)
REMARK    1  A    between atoms: C3_3  and  C5_5 
REMARK    2  A    between atoms: C5_5  and  N8_8 
REMARK    3  A    between atoms: C6_6  and  C7_7 
REMARK    4  A    between atoms: C6_6  and  N8_8 
ROOT
HETATM    1  N8  UNL     1     -35.515   5.040   5.044  1.00 20.00     0.089 N 
HETATM    2  H23 UNL     1     -36.142   4.334   5.445  1.00 20.00     0.316 HD
ENDROOT
BRANCH   1   3
HETATM    3  C5  UNL     1     -35.060   4.622   3.746  1.00 20.00     0.274 C 
BRANCH   3   4
HETATM    4  C3  UNL     1     -33.641   5.014   3.521  1.00 20.00     0.018 A 
HETATM    5  C1  UNL     1     -32.960   4.676   2.221  1.00 20.00     0.011 A 
HETATM    6  C2  UNL     1     -33.305   6.106   2.539  1.00 20.00    -0.013 A 
HETATM    7  C4  UNL     1     -32.226   7.086   2.852  1.00 20.00     0.010 C 
ENDBRANCH   3   4
ENDBRANCH   1   3
BRANCH   1   8
HETATM    8  C6  UNL     1     -34.398   5.241   5.970  1.00 20.00     0.340 C 
BRANCH   8   9
HETATM    9  C7  UNL     1     -34.185   6.717   6.232  1.00 20.00     0.381 C 
HETATM   10  F9  UNL     1     -34.692   7.447   5.208  1.00 20.00    -0.213 F 
HETATM   11  F10 UNL     1     -32.851   6.974   6.264  1.00 20.00    -0.213 F 
ENDBRANCH   8   9
ENDBRANCH   1   8
TORSDOF 4
ENDMDL
MODEL 9
REMARK VINA RESULT:      -3.8     12.290     13.298
REMARK  4 active torsions:
REMARK  status: ('A' for Active; 'I' for Inactive)
REMARK    1  A    between atoms: C3_3  and  C5_5 
REMARK    2  A    between atoms: C5_5  and  N8_8 
REMARK    3  A    between atoms: C6_6  and  C7_7 
REMARK    4  A    between atoms: C6_6  and  N8_8 
ROOT
HETATM    1  N8  UNL     1     -33.308  14.750  -5.916  1.00 20.00     0.089 N 
HETATM    2  H23 UNL     1     -33.488  13.812  -6.289  1.00 20.00     0.316 HD
ENDROOT
BRANCH   1   3
HETATM    3  C5  UNL     1     -33.202  14.704  -4.483  1.00 20.00     0.274 C 
BRANCH   3   4
HETATM    4  C3  UNL     1     -33.818  15.907  -3.857  1.00 20.00     0.018 A 
HETATM    5  C1  UNL     1     -34.567  15.782  -2.556  1.00 20.00     0.011 A 
HETATM    6  C2  UNL     1     -33.235  16.483  -2.593  1.00 20.00    -0.013 A 
HETATM    7  C4  UNL     1     -33.159  17.960  -2.411  1.00 20.00     0.010 C 
ENDBRANCH   3   4
ENDBRANCH   1   3
BRANCH   1   8
HETATM    8  C6  UNL     1     -34.393  15.634  -6.348  1.00 20.00     0.340 C 
BRANCH   8   9
HETATM    9  C7  UNL     1     -35.515  14.831  -6.973  1.00 20.00     0.381 C 
HETATM   10  F9  UNL     1     -36.573  15.639  -7.231  1.00 20.00    -0.213 F 
HETATM   11  F10 UNL     1     -35.947  13.903  -6.081  1.00 20.00    -0.213 F 
ENDBRANCH   8   9
ENDBRANCH   1   8
TORSDOF 4
ENDMDL
