MODEL 1
REMARK VINA RESULT:      -4.4      0.000      0.000
REMARK  3 active torsions:
REMARK  status: ('A' for Active; 'I' for Inactive)
REMARK       I    between atoms: C1_1  and  N10_10 
REMARK    1  A    between atoms: C7_7  and  C8_8 
REMARK    2  A    between atoms: C7_7  and  N10_10 
REMARK    3  A    between atoms: C8_8  and  C9_9 
ROOT
HETATM    1  C7  UNL     1     -32.897  17.496  -2.336  1.00 20.00     0.127 C 
ENDROOT
BRANCH   1   2
HETATM    2  C8  UNL     1     -33.815  16.255  -2.322  1.00 20.00     0.007 C 
HETATM    3  C3  UNL     1     -35.099  16.581  -1.536  1.00 20.00     0.012 C 
BRANCH   2   4
HETATM    4  C9  UNL     1     -34.099  15.673  -3.759  1.00 20.00    -0.047 C 
HETATM    5  C4  UNL     1     -35.398  14.836  -3.751  1.00 20.00     0.015 C 
HETATM    6  C5  UNL     1     -32.951  14.778  -4.264  1.00 20.00     0.015 C 
HETATM    7  C6  UNL     1     -34.304  16.816  -4.778  1.00 20.00     0.015 C 
ENDBRANCH   2   4
ENDBRANCH   1   2
BRANCH   1   8
HETATM    8  N10 UNL     1     -32.892  18.188  -1.074  1.00 20.00    -0.361 N 
HETATM    9  C1  UNL     1     -31.734  18.500  -0.382  1.00 20.00     0.213 C 
HETATM   10  C2  UNL     1     -31.965  19.222   0.904  1.00 20.00     0.117 C 
HETATM   11  O11 UNL     1     -30.589  18.239  -0.731  1.00 20.00    -0.274 OA
HETATM   12  H30 UNL     1     -33.785  18.464  -0.670  1.00 20.00     0.162 HD
ENDBRANCH   1   8
TORSDOF 3
ENDMDL
MODEL 2
REMARK VINA RESULT:      -4.3      4.083      5.700
REMARK  3 active torsions:
REMARK  status: ('A' for Active; 'I' for Inactive)
REMARK       I    between atoms: C1_1  and  N10_10 
REMARK    1  A    between atoms: C7_7  and  C8_8 
REMARK    2  A    between atoms: C7_7  and  N10_10 
REMARK    3  A    between atoms: C8_8  and  C9_9 
ROOT
HETATM    1  C7  UNL     1     -36.197  15.836  -5.463  1.00 20.00     0.127 C 
ENDROOT
BRANCH   1   2
HETATM    2  C8  UNL     1     -35.177  16.619  -4.610  1.00 20.00     0.007 C 
HETATM    3  C3  UNL     1     -35.858  17.868  -4.022  1.00 20.00     0.012 C 
BRANCH   2   4
HETATM    4  C9  UNL     1     -34.463  15.731  -3.521  1.00 20.00    -0.047 C 
HETATM    5  C4  UNL     1     -32.985  16.155  -3.370  1.00 20.00     0.015 C 
HETATM    6  C5  UNL     1     -34.501  14.231  -3.873  1.00 20.00     0.015 C 
HETATM    7  C6  UNL     1     -35.131  15.920  -2.142  1.00 20.00     0.015 C 
ENDBRANCH   2   4
ENDBRANCH   1   2
BRANCH   1   8
HETATM    8  N10 UNL     1     -37.545  15.981  -4.978  1.00 20.00    -0.361 N 
HETATM    9  C1  UNL     1     -38.283  14.933  -4.455  1.00 20.00     0.213 C 
HETATM   10  C2  UNL     1     -39.657  15.313  -4.010  1.00 20.00     0.117 C 
HETATM   11  O11 UNL     1     -37.909  13.772  -4.337  1.00 20.00    -0.274 OA
HETATM   12  H30 UNL     1     -37.977  16.902  -5.020  1.00 20.00     0.162 HD
ENDBRANCH   1   8
TORSDOF 3
ENDMDL
MODEL 3
REMARK VINA RESULT:      -4.3      3.621      5.427
REMARK  3 active torsions:
REMARK  status: ('A' for Active; 'I' for Inactive)
REMARK       I    between atoms: C1_1  and  N10_10 
REMARK    1  A    between atoms: C7_7  and  C8_8 
REMARK    2  A    between atoms: C7_7  and  N10_10 
REMARK    3  A    between atoms: C8_8  and  C9_9 
ROOT
HETATM    1  C7  UNL     1     -35.738  15.477  -3.225  1.00 20.00     0.127 C 
ENDROOT
BRANCH   1   2
HETATM    2  C8  UNL     1     -35.098  16.746  -2.620  1.00 20.00     0.007 C 
HETATM    3  C3  UNL     1     -35.250  16.710  -1.088  1.00 20.00     0.012 C 
BRANCH   2   4
HETATM    4  C9  UNL     1     -33.613  16.980  -3.091  1.00 20.00    -0.047 C 
HETATM    5  C4  UNL     1     -33.567  18.051  -4.205  1.00 20.00     0.015 C 
HETATM    6  C5  UNL     1     -32.961  15.693  -3.633  1.00 20.00     0.015 C 
HETATM    7  C6  UNL     1     -32.748  17.504  -1.924  1.00 20.00     0.015 C 
ENDBRANCH   2   4
ENDBRANCH   1   2
BRANCH   1   8
HETATM    8  N10 UNL     1     -37.137  15.654  -3.516  1.00 20.00    -0.361 N 
HETATM    9  C1  UNL     1     -37.913  14.690  -4.138  1.00 20.00     0.213 C 
HETATM   10  C2  UNL     1     -39.338  15.086  -4.338  1.00 20.00     0.117 C 
HETATM   11  O11 UNL     1     -37.532  13.589  -4.518  1.00 20.00    -0.274 OA
HETATM   12  H30 UNL     1     -37.579  16.532  -3.250  1.00 20.00     0.162 HD
ENDBRANCH   1   8
TORSDOF 3
ENDMDL
MODEL 4
REMARK VINA RESULT:      -4.2      3.418      5.557
REMARK  3 active torsions:
REMARK  status: ('A' for Active; 'I' for Inactive)
REMARK       I    between atoms: C1_1  and  N10_10 
REMARK    1  A    between atoms: C7_7  and  C8_8 
REMARK    2  A    between atoms: C7_7  and  N10_10 
REMARK    3  A    between atoms: C8_8  and  C9_9 
ROOT
HETATM    1  C7  UNL     1     -35.685  15.425  -3.294  1.00 20.00     0.127 C 
ENDROOT
BRANCH   1   2
HETATM    2  C8  UNL     1     -34.392  15.834  -2.556  1.00 20.00     0.007 C 
HETATM    3  C3  UNL     1     -33.212  15.806  -3.545  1.00 20.00     0.012 C 
BRANCH   2   4
HETATM    4  C9  UNL     1     -34.522  17.200  -1.783  1.00 20.00    -0.047 C 
HETATM    5  C4  UNL     1     -35.298  16.996  -0.462  1.00 20.00     0.015 C 
HETATM    6  C5  UNL     1     -35.254  18.274  -2.611  1.00 20.00     0.015 C 
HETATM    7  C6  UNL     1     -33.127  17.748  -1.408  1.00 20.00     0.015 C 
ENDBRANCH   2   4
ENDBRANCH   1   2
BRANCH   1   8
HETATM    8  N10 UNL     1     -35.540  15.480  -4.726  1.00 20.00    -0.361 N 
HETATM    9  C1  UNL     1     -35.883  14.434  -5.567  1.00 20.00     0.213 C 
HETATM   10  C2  UNL     1     -35.651  14.712  -7.015  1.00 20.00     0.117 C 
HETATM   11  O11 UNL     1     -36.341  13.351  -5.225  1.00 20.00    -0.274 OA
HETATM   12  H30 UNL     1     -35.167  16.332  -5.141  1.00 20.00     0.162 HD
ENDBRANCH   1   8
TORSDOF 3
ENDMDL
MODEL 5
REMARK VINA RESULT:      -4.2      3.417      5.581
REMARK  3 active torsions:
REMARK  status: ('A' for Active; 'I' for Inactive)
REMARK       I    between atoms: C1_1  and  N10_10 
REMARK    1  A    between atoms: C7_7  and  C8_8 
REMARK    2  A    between atoms: C7_7  and  N10_10 
REMARK    3  A    between atoms: C8_8  and  C9_9 
ROOT
HETATM    1  C7  UNL     1     -35.745  15.458  -3.296  1.00 20.00     0.127 C 
ENDROOT
BRANCH   1   2
HETATM    2  C8  UNL     1     -34.444  15.821  -2.548  1.00 20.00     0.007 C 
HETATM    3  C3  UNL     1     -33.263  15.783  -3.535  1.00 20.00     0.012 C 
BRANCH   2   4
HETATM    4  C9  UNL     1     -34.542  17.175  -1.749  1.00 20.00    -0.047 C 
HETATM    5  C4  UNL     1     -33.129  17.722  -1.446  1.00 20.00     0.015 C 
HETATM    6  C5  UNL     1     -35.294  17.014  -0.414  1.00 20.00     0.015 C 
HETATM    7  C6  UNL     1     -35.271  18.249  -2.586  1.00 20.00     0.015 C 
ENDBRANCH   2   4
ENDBRANCH   1   2
BRANCH   1   8
HETATM    8  N10 UNL     1     -35.584  15.495  -4.726  1.00 20.00    -0.361 N 
HETATM    9  C1  UNL     1     -35.903  14.433  -5.556  1.00 20.00     0.213 C 
HETATM   10  C2  UNL     1     -35.657  14.693  -7.005  1.00 20.00     0.117 C 
HETATM   11  O11 UNL     1     -36.352  13.349  -5.204  1.00 20.00    -0.274 OA
HETATM   12  H30 UNL     1     -35.216  16.345  -5.149  1.00 20.00     0.162 HD
ENDBRANCH   1   8
TORSDOF 3
ENDMDL
MODEL 6
REMARK VINA RESULT:      -4.2      3.988      5.818
REMARK  3 active torsions:
REMARK  status: ('A' for Active; 'I' for Inactive)
REMARK       I    between atoms: C1_1  and  N10_10 
REMARK    1  A    between atoms: C7_7  and  C8_8 
REMARK    2  A    between atoms: C7_7  and  N10_10 
REMARK    3  A    between atoms: C8_8  and  C9_9 
ROOT
HETATM    1  C7  UNL     1     -36.351  15.968  -4.561  1.00 20.00     0.127 C 
ENDROOT
BRANCH   1   2
HETATM    2  C8  UNL     1     -35.501  15.499  -3.360  1.00 20.00     0.007 C 
HETATM    3  C3  UNL     1     -34.638  14.297  -3.786  1.00 20.00     0.012 C 
BRANCH   2   4
HETATM    4  C9  UNL     1     -34.665  16.659  -2.698  1.00 20.00    -0.047 C 
HETATM    5  C4  UNL     1     -35.001  18.011  -3.367  1.00 20.00     0.015 C 
HETATM    6  C5  UNL     1     -33.146  16.427  -2.816  1.00 20.00     0.015 C 
HETATM    7  C6  UNL     1     -35.016  16.797  -1.200  1.00 20.00     0.015 C 
ENDBRANCH   2   4
ENDBRANCH   1   2
BRANCH   1   8
HETATM    8  N10 UNL     1     -37.748  16.079  -4.233  1.00 20.00    -0.361 N 
HETATM    9  C1  UNL     1     -38.609  14.994  -4.193  1.00 20.00     0.213 C 
HETATM   10  C2  UNL     1     -40.014  15.342  -3.828  1.00 20.00     0.117 C 
HETATM   11  O11 UNL     1     -38.315  13.828  -4.424  1.00 20.00    -0.274 OA
HETATM   12  H30 UNL     1     -38.123  17.001  -4.019  1.00 20.00     0.162 HD
ENDBRANCH   1   8
TORSDOF 3
ENDMDL
MODEL 7
REMARK VINA RESULT:      -4.1      3.782      5.691
REMARK  3 active torsions:
REMARK  status: ('A' for Active; 'I' for Inactive)
REMARK       I    between atoms: C1_1  and  N10_10 
REMARK    1  A    between atoms: C7_7  and  C8_8 
REMARK    2  A    between atoms: C7_7  and  N10_10 
REMARK    3  A    between atoms: C8_8  and  C9_9 
ROOT
HETATM    1  C7  UNL     1     -35.895  15.892  -4.685  1.00 20.00     0.127 C 
ENDROOT
BRANCH   1   2
HETATM    2  C8  UNL     1     -35.065  15.510  -3.440  1.00 20.00     0.007 C 
HETATM    3  C3  UNL     1     -33.908  14.586  -3.865  1.00 20.00     0.012 C 
BRANCH   2   4
HETATM    4  C9  UNL     1     -34.588  16.757  -2.603  1.00 20.00    -0.047 C 
HETATM    5  C4  UNL     1     -33.046  16.779  -2.506  1.00 20.00     0.015 C 
HETATM    6  C5  UNL     1     -35.162  16.756  -1.174  1.00 20.00     0.015 C 
HETATM    7  C6  UNL     1     -35.016  18.071  -3.293  1.00 20.00     0.015 C 
ENDBRANCH   2   4
ENDBRANCH   1   2
BRANCH   1   8
HETATM    8  N10 UNL     1     -37.304  15.974  -4.401  1.00 20.00    -0.361 N 
HETATM    9  C1  UNL     1     -38.126  14.863  -4.297  1.00 20.00     0.213 C 
HETATM   10  C2  UNL     1     -39.552  15.184  -3.994  1.00 20.00     0.117 C 
HETATM   11  O11 UNL     1     -37.783  13.695  -4.429  1.00 20.00    -0.274 OA
HETATM   12  H30 UNL     1     -37.718  16.895  -4.269  1.00 20.00     0.162 HD
ENDBRANCH   1   8
TORSDOF 3
ENDMDL
MODEL 8
REMARK VINA RESULT:      -3.9      2.991      5.063
REMARK  3 active torsions:
REMARK  status: ('A' for Active; 'I' for Inactive)
REMARK       I    between atoms: C1_1  and  N10_10 
REMARK    1  A    between atoms: C7_7  and  C8_8 
REMARK    2  A    between atoms: C7_7  and  N10_10 
REMARK    3  A    between atoms: C8_8  and  C9_9 
ROOT
HETATM    1  C7  UNL     1     -33.203  15.885  -3.378  1.00 20.00     0.127 C 
ENDROOT
BRANCH   1   2
HETATM    2  C8  UNL     1     -33.088  17.294  -2.759  1.00 20.00     0.007 C 
HETATM    3  C3  UNL     1     -32.978  18.338  -3.886  1.00 20.00     0.012 C 
BRANCH   2   4
HETATM    4  C9  UNL     1     -34.232  17.616  -1.725  1.00 20.00    -0.047 C 
HETATM    5  C4  UNL     1     -35.131  18.754  -2.257  1.00 20.00     0.015 C 
HETATM    6  C5  UNL     1     -33.678  18.042  -0.352  1.00 20.00     0.015 C 
HETATM    7  C6  UNL     1     -35.140  16.383  -1.517  1.00 20.00     0.015 C 
ENDBRANCH   2   4
ENDBRANCH   1   2
BRANCH   1   8
HETATM    8  N10 UNL     1     -33.336  15.925  -4.811  1.00 20.00    -0.361 N 
HETATM    9  C1  UNL     1     -34.049  14.985  -5.536  1.00 20.00     0.213 C 
HETATM   10  C2  UNL     1     -34.055  15.224  -7.010  1.00 20.00     0.117 C 
HETATM   11  O11 UNL     1     -34.648  14.019  -5.078  1.00 20.00    -0.274 OA
HETATM   12  H30 UNL     1     -32.882  16.683  -5.318  1.00 20.00     0.162 HD
ENDBRANCH   1   8
TORSDOF 3
ENDMDL
MODEL 9
REMARK VINA RESULT:      -3.9      2.703      3.285
REMARK  3 active torsions:
REMARK  status: ('A' for Active; 'I' for Inactive)
REMARK       I    between atoms: C1_1  and  N10_10 
REMARK    1  A    between atoms: C7_7  and  C8_8 
REMARK    2  A    between atoms: C7_7  and  N10_10 
REMARK    3  A    between atoms: C8_8  and  C9_9 
ROOT
HETATM    1  C7  UNL     1     -35.668  16.334  -2.844  1.00 20.00     0.127 C 
ENDROOT
BRANCH   1   2
HETATM    2  C8  UNL     1     -34.382  16.288  -3.696  1.00 20.00     0.007 C 
HETATM    3  C3  UNL     1     -33.165  16.579  -2.797  1.00 20.00     0.012 C 
BRANCH   2   4
HETATM    4  C9  UNL     1     -34.234  14.959  -4.529  1.00 20.00    -0.047 C 
HETATM    5  C4  UNL     1     -34.455  15.242  -6.032  1.00 20.00     0.015 C 
HETATM    6  C5  UNL     1     -35.239  13.878  -4.089  1.00 20.00     0.015 C 
HETATM    7  C6  UNL     1     -32.809  14.382  -4.384  1.00 20.00     0.015 C 
ENDBRANCH   2   4
ENDBRANCH   1   2
BRANCH   1   8
HETATM    8  N10 UNL     1     -35.389  16.413  -1.434  1.00 20.00    -0.361 N 
HETATM    9  C1  UNL     1     -35.882  17.416  -0.615  1.00 20.00     0.213 C 
HETATM   10  C2  UNL     1     -35.467  17.299   0.814  1.00 20.00     0.117 C 
HETATM   11  O11 UNL     1     -36.600  18.346  -0.962  1.00 20.00    -0.274 OA
HETATM   12  H30 UNL     1     -34.799  15.696  -1.016  1.00 20.00     0.162 HD
ENDBRANCH   1   8
TORSDOF 3
ENDMDL
