MODEL 1
REMARK VINA RESULT:      -4.3      0.000      0.000
REMARK  2 active torsions:
REMARK  status: ('A' for Active; 'I' for Inactive)
REMARK    1  A    between atoms: C5_5  and  C7_7 
REMARK    2  A    between atoms: C6_6  and  C7_7 
ROOT
HETATM    1  C1  UNL     1     -34.497   4.889   4.376  1.00 20.00     0.033 C 
HETATM    2  C2  UNL     1     -34.965   5.268   5.765  1.00 20.00     0.168 C 
HETATM    3  C3  UNL     1     -33.439   6.874   5.040  1.00 20.00     0.172 C 
HETATM    4  C5  UNL     1     -34.069   6.229   3.818  1.00 20.00     0.014 C 
HETATM    5  O8  UNL     1     -34.171   6.391   6.178  1.00 20.00    -0.391 OA
ENDROOT
BRANCH   4   6
HETATM    6  C7  UNL     1     -33.138   6.139   2.626  1.00 20.00     0.041 C 
BRANCH   6   7
HETATM    7  C6  UNL     1     -32.492   7.455   2.315  1.00 20.00     0.145 A 
HETATM    8  C4  UNL     1     -33.003   8.329   1.205  1.00 20.00     0.200 A 
HETATM    9  O9  UNL     1     -31.835   7.509   1.045  1.00 20.00    -0.381 OA
ENDBRANCH   6   7
ENDBRANCH   4   6
TORSDOF 2
ENDMDL
MODEL 2
REMARK VINA RESULT:      -4.1     15.488     16.534
REMARK  2 active torsions:
REMARK  status: ('A' for Active; 'I' for Inactive)
REMARK    1  A    between atoms: C5_5  and  C7_7 
REMARK    2  A    between atoms: C6_6  and  C7_7 
ROOT
HETATM    1  C1  UNL     1     -22.220  17.066   9.033  1.00 20.00     0.033 C 
HETATM    2  C2  UNL     1     -21.727  17.410   7.644  1.00 20.00     0.168 C 
HETATM    3  C3  UNL     1     -23.739  18.530   8.006  1.00 20.00     0.172 C 
HETATM    4  C5  UNL     1     -23.093  18.260   9.355  1.00 20.00     0.014 C 
HETATM    5  O8  UNL     1     -22.767  18.173   7.011  1.00 20.00    -0.391 OA
ENDROOT
BRANCH   4   6
HETATM    6  C7  UNL     1     -24.088  18.020  10.473  1.00 20.00     0.041 C 
BRANCH   6   7
HETATM    7  C6  UNL     1     -24.240  16.563  10.788  1.00 20.00     0.145 A 
HETATM    8  C4  UNL     1     -25.050  16.104  11.968  1.00 20.00     0.200 A 
HETATM    9  O9  UNL     1     -23.615  16.151  12.007  1.00 20.00    -0.381 OA
ENDBRANCH   6   7
ENDBRANCH   4   6
TORSDOF 2
ENDMDL
MODEL 3
REMARK VINA RESULT:      -4.0      0.764      1.344
REMARK  2 active torsions:
REMARK  status: ('A' for Active; 'I' for Inactive)
REMARK    1  A    between atoms: C5_5  and  C7_7 
REMARK    2  A    between atoms: C6_6  and  C7_7 
ROOT
HETATM    1  C1  UNL     1     -33.642   6.954   4.758  1.00 20.00     0.033 C 
HETATM    2  C2  UNL     1     -34.295   6.322   5.970  1.00 20.00     0.168 C 
HETATM    3  C3  UNL     1     -34.757   4.994   4.111  1.00 20.00     0.172 C 
HETATM    4  C5  UNL     1     -33.474   5.762   3.842  1.00 20.00     0.014 C 
HETATM    5  O8  UNL     1     -35.088   5.225   5.489  1.00 20.00    -0.391 OA
ENDROOT
BRANCH   4   6
HETATM    6  C7  UNL     1     -33.271   6.122   2.383  1.00 20.00     0.041 C 
BRANCH   6   7
HETATM    7  C6  UNL     1     -32.518   7.406   2.220  1.00 20.00     0.145 A 
HETATM    8  C4  UNL     1     -32.973   8.456   1.246  1.00 20.00     0.200 A 
HETATM    9  O9  UNL     1     -31.885   7.567   0.947  1.00 20.00    -0.381 OA
ENDBRANCH   6   7
ENDBRANCH   4   6
TORSDOF 2
ENDMDL
MODEL 4
REMARK VINA RESULT:      -4.0     11.044     11.775
REMARK  2 active torsions:
REMARK  status: ('A' for Active; 'I' for Inactive)
REMARK    1  A    between atoms: C5_5  and  C7_7 
REMARK    2  A    between atoms: C6_6  and  C7_7 
ROOT
HETATM    1  C1  UNL     1     -34.945  16.241  -1.891  1.00 20.00     0.033 C 
HETATM    2  C2  UNL     1     -34.245  17.549  -1.590  1.00 20.00     0.168 C 
HETATM    3  C3  UNL     1     -32.951  16.360  -3.121  1.00 20.00     0.172 C 
HETATM    4  C5  UNL     1     -34.393  15.904  -3.260  1.00 20.00     0.014 C 
HETATM    5  O8  UNL     1     -32.966  17.495  -2.241  1.00 20.00    -0.391 OA
ENDROOT
BRANCH   4   6
HETATM    6  C7  UNL     1     -34.540  14.446  -3.648  1.00 20.00     0.041 C 
BRANCH   6   7
HETATM    7  C6  UNL     1     -35.547  14.253  -4.740  1.00 20.00     0.145 A 
HETATM    8  C4  UNL     1     -37.000  14.032  -4.427  1.00 20.00     0.200 A 
HETATM    9  O9  UNL     1     -36.131  12.947  -4.787  1.00 20.00    -0.381 OA
ENDBRANCH   6   7
ENDBRANCH   4   6
TORSDOF 2
ENDMDL
MODEL 5
REMARK VINA RESULT:      -3.9     11.182     11.746
REMARK  2 active torsions:
REMARK  status: ('A' for Active; 'I' for Inactive)
REMARK    1  A    between atoms: C5_5  and  C7_7 
REMARK    2  A    between atoms: C6_6  and  C7_7 
ROOT
HETATM    1  C1  UNL     1     -33.551  16.379  -3.264  1.00 20.00     0.033 C 
HETATM    2  C2  UNL     1     -32.905  17.257  -2.212  1.00 20.00     0.168 C 
HETATM    3  C3  UNL     1     -35.089  16.794  -1.542  1.00 20.00     0.172 C 
HETATM    4  C5  UNL     1     -34.625  15.677  -2.461  1.00 20.00     0.014 C 
HETATM    5  O8  UNL     1     -33.934  17.606  -1.274  1.00 20.00    -0.391 OA
ENDROOT
BRANCH   4   6
HETATM    6  C7  UNL     1     -35.735  15.075  -3.300  1.00 20.00     0.041 C 
BRANCH   6   7
HETATM    7  C6  UNL     1     -35.206  14.149  -4.352  1.00 20.00     0.145 A 
HETATM    8  C4  UNL     1     -35.950  13.929  -5.640  1.00 20.00     0.200 A 
HETATM    9  O9  UNL     1     -35.999  12.977  -4.566  1.00 20.00    -0.381 OA
ENDBRANCH   6   7
ENDBRANCH   4   6
TORSDOF 2
ENDMDL
MODEL 6
REMARK VINA RESULT:      -3.9      1.518      2.119
REMARK  2 active torsions:
REMARK  status: ('A' for Active; 'I' for Inactive)
REMARK    1  A    between atoms: C5_5  and  C7_7 
REMARK    2  A    between atoms: C6_6  and  C7_7 
ROOT
HETATM    1  C1  UNL     1     -33.830   6.927   3.941  1.00 20.00     0.033 C 
HETATM    2  C2  UNL     1     -34.459   5.654   4.466  1.00 20.00     0.168 C 
HETATM    3  C3  UNL     1     -33.335   5.154   2.487  1.00 20.00     0.172 C 
HETATM    4  C5  UNL     1     -32.692   6.385   3.102  1.00 20.00     0.014 C 
HETATM    5  O8  UNL     1     -34.260   4.647   3.462  1.00 20.00    -0.391 OA
ENDROOT
BRANCH   4   6
HETATM    6  C7  UNL     1     -32.148   7.365   2.083  1.00 20.00     0.041 C 
BRANCH   6   7
HETATM    7  C6  UNL     1     -33.240   8.128   1.396  1.00 20.00     0.145 A 
HETATM    8  C4  UNL     1     -33.123   8.521  -0.050  1.00 20.00     0.200 A 
HETATM    9  O9  UNL     1     -32.883   9.459   1.011  1.00 20.00    -0.381 OA
ENDBRANCH   6   7
ENDBRANCH   4   6
TORSDOF 2
ENDMDL
MODEL 7
REMARK VINA RESULT:      -3.8     15.730     16.465
REMARK  2 active torsions:
REMARK  status: ('A' for Active; 'I' for Inactive)
REMARK    1  A    between atoms: C5_5  and  C7_7 
REMARK    2  A    between atoms: C6_6  and  C7_7 
ROOT
HETATM    1  C1  UNL     1     -23.952  17.095  10.682  1.00 20.00     0.033 C 
HETATM    2  C2  UNL     1     -23.197  17.215  11.989  1.00 20.00     0.168 C 
HETATM    3  C3  UNL     1     -21.839  18.031  10.279  1.00 20.00     0.172 C 
HETATM    4  C5  UNL     1     -23.288  18.165   9.843  1.00 20.00     0.014 C 
HETATM    5  O8  UNL     1     -21.865  17.641  11.661  1.00 20.00    -0.391 OA
ENDROOT
BRANCH   4   6
HETATM    6  C7  UNL     1     -23.495  18.003   8.351  1.00 20.00     0.041 C 
BRANCH   6   7
HETATM    7  C6  UNL     1     -24.218  19.172   7.752  1.00 20.00     0.145 A 
HETATM    8  C4  UNL     1     -25.422  18.975   6.875  1.00 20.00     0.200 A 
HETATM    9  O9  UNL     1     -24.125  19.262   6.327  1.00 20.00    -0.381 OA
ENDBRANCH   6   7
ENDBRANCH   4   6
TORSDOF 2
ENDMDL
MODEL 8
REMARK VINA RESULT:      -3.8     11.387     12.548
REMARK  2 active torsions:
REMARK  status: ('A' for Active; 'I' for Inactive)
REMARK    1  A    between atoms: C5_5  and  C7_7 
REMARK    2  A    between atoms: C6_6  and  C7_7 
ROOT
HETATM    1  C1  UNL     1     -34.378  14.893  -3.510  1.00 20.00     0.033 C 
HETATM    2  C2  UNL     1     -33.269  14.563  -4.488  1.00 20.00     0.168 C 
HETATM    3  C3  UNL     1     -35.199  15.044  -5.702  1.00 20.00     0.172 C 
HETATM    4  C5  UNL     1     -35.293  15.748  -4.360  1.00 20.00     0.014 C 
HETATM    5  O8  UNL     1     -33.867  14.516  -5.793  1.00 20.00    -0.391 OA
ENDROOT
BRANCH   4   6
HETATM    6  C7  UNL     1     -36.707  15.865  -3.827  1.00 20.00     0.041 C 
BRANCH   6   7
HETATM    7  C6  UNL     1     -37.707  15.222  -4.740  1.00 20.00     0.145 A 
HETATM    8  C4  UNL     1     -39.109  14.938  -4.280  1.00 20.00     0.200 A 
HETATM    9  O9  UNL     1     -38.112  13.907  -4.346  1.00 20.00    -0.381 OA
ENDBRANCH   6   7
ENDBRANCH   4   6
TORSDOF 2
ENDMDL
MODEL 9
REMARK VINA RESULT:      -3.8     11.409     12.065
REMARK  2 active torsions:
REMARK  status: ('A' for Active; 'I' for Inactive)
REMARK    1  A    between atoms: C5_5  and  C7_7 
REMARK    2  A    between atoms: C6_6  and  C7_7 
ROOT
HETATM    1  C1  UNL     1     -33.207  16.518  -3.208  1.00 20.00     0.033 C 
HETATM    2  C2  UNL     1     -33.023  17.431  -2.014  1.00 20.00     0.168 C 
HETATM    3  C3  UNL     1     -35.147  16.480  -1.890  1.00 20.00     0.172 C 
HETATM    4  C5  UNL     1     -34.256  15.553  -2.700  1.00 20.00     0.014 C 
HETATM    5  O8  UNL     1     -34.288  17.490  -1.338  1.00 20.00    -0.391 OA
ENDROOT
BRANCH   4   6
HETATM    6  C7  UNL     1     -34.989  14.799  -3.791  1.00 20.00     0.041 C 
BRANCH   6   7
HETATM    7  C6  UNL     1     -34.719  15.371  -5.149  1.00 20.00     0.145 A 
HETATM    8  C4  UNL     1     -35.351  14.782  -6.380  1.00 20.00     0.200 A 
HETATM    9  O9  UNL     1     -33.987  14.506  -6.024  1.00 20.00    -0.381 OA
ENDBRANCH   6   7
ENDBRANCH   4   6
TORSDOF 2
ENDMDL
