MODEL 1
REMARK VINA RESULT:      -4.6      0.000      0.000
REMARK  1 active torsions:
REMARK  status: ('A' for Active; 'I' for Inactive)
REMARK    1  A    between atoms: C4_4  and  C8_8 
ROOT
HETATM    1  C1  UNL     1     -23.105  18.135   7.828  1.00 20.00     0.137 C 
HETATM    2  C2  UNL     1     -22.799  17.527   9.173  1.00 20.00     0.095 C 
HETATM    3  C3  UNL     1     -24.395  18.907   7.754  1.00 20.00     0.152 C 
HETATM    4  C4  UNL     1     -23.503  18.391  10.211  1.00 20.00     0.062 C 
HETATM    5  O9  UNL     1     -22.382  17.969   6.850  1.00 20.00    -0.297 OA
HETATM    6  S10 UNL     1     -25.075  18.850   9.429  1.00 20.00    -0.156 SA
ENDROOT
BRANCH   4   7
HETATM    7  C8  UNL     1     -23.729  17.662  11.525  1.00 20.00    -0.038 C 
HETATM    8  C5  UNL     1     -22.422  17.643  12.331  1.00 20.00     0.015 C 
HETATM    9  C6  UNL     1     -24.176  16.221  11.241  1.00 20.00     0.015 C 
HETATM   10  C7  UNL     1     -24.817  18.386  12.331  1.00 20.00     0.015 C 
ENDBRANCH   4   7
TORSDOF 1
ENDMDL
MODEL 2
REMARK VINA RESULT:      -4.5      1.518      1.736
REMARK  1 active torsions:
REMARK  status: ('A' for Active; 'I' for Inactive)
REMARK    1  A    between atoms: C4_4  and  C8_8 
ROOT
HETATM    1  C1  UNL     1     -23.672  18.454   7.918  1.00 20.00     0.137 C 
HETATM    2  C2  UNL     1     -24.576  18.527   9.123  1.00 20.00     0.095 C 
HETATM    3  C3  UNL     1     -22.330  17.818   8.164  1.00 20.00     0.152 C 
HETATM    4  C4  UNL     1     -24.171  17.382  10.041  1.00 20.00     0.062 C 
HETATM    5  O9  UNL     1     -23.985  18.926   6.829  1.00 20.00    -0.297 OA
HETATM    6  S10 UNL     1     -22.364  17.302   9.898  1.00 20.00    -0.156 SA
ENDROOT
BRANCH   4   7
HETATM    7  C8  UNL     1     -24.605  17.602  11.480  1.00 20.00    -0.038 C 
HETATM    8  C5  UNL     1     -23.387  17.999  12.326  1.00 20.00     0.015 C 
HETATM    9  C6  UNL     1     -25.214  16.306  12.035  1.00 20.00     0.015 C 
HETATM   10  C7  UNL     1     -25.652  18.723  11.533  1.00 20.00     0.015 C 
ENDBRANCH   4   7
TORSDOF 1
ENDMDL
MODEL 3
REMARK VINA RESULT:      -4.4     16.697     18.130
REMARK  1 active torsions:
REMARK  status: ('A' for Active; 'I' for Inactive)
REMARK    1  A    between atoms: C4_4  and  C8_8 
ROOT
HETATM    1  C1  UNL     1     -35.987  13.795  -4.289  1.00 20.00     0.137 C 
HETATM    2  C2  UNL     1     -34.911  14.560  -3.560  1.00 20.00     0.095 C 
HETATM    3  C3  UNL     1     -37.267  14.552  -4.515  1.00 20.00     0.152 C 
HETATM    4  C4  UNL     1     -35.158  16.036  -3.845  1.00 20.00     0.062 C 
HETATM    5  O9  UNL     1     -35.848  12.622  -4.626  1.00 20.00    -0.297 OA
HETATM    6  S10 UNL     1     -36.965  16.203  -3.840  1.00 20.00    -0.156 SA
ENDROOT
BRANCH   4   7
HETATM    7  C8  UNL     1     -34.513  16.948  -2.815  1.00 20.00    -0.038 C 
HETATM    8  C5  UNL     1     -35.077  16.628  -1.424  1.00 20.00     0.015 C 
HETATM    9  C6  UNL     1     -34.818  18.412  -3.166  1.00 20.00     0.015 C 
HETATM   10  C7  UNL     1     -32.994  16.726  -2.815  1.00 20.00     0.015 C 
ENDBRANCH   4   7
TORSDOF 1
ENDMDL
MODEL 4
REMARK VINA RESULT:      -4.4     16.697     18.093
REMARK  1 active torsions:
REMARK  status: ('A' for Active; 'I' for Inactive)
REMARK    1  A    between atoms: C4_4  and  C8_8 
ROOT
HETATM    1  C1  UNL     1     -35.987  13.795  -4.289  1.00 20.00     0.137 C 
HETATM    2  C2  UNL     1     -34.911  14.560  -3.560  1.00 20.00     0.095 C 
HETATM    3  C3  UNL     1     -37.267  14.552  -4.515  1.00 20.00     0.152 C 
HETATM    4  C4  UNL     1     -35.158  16.036  -3.845  1.00 20.00     0.062 C 
HETATM    5  O9  UNL     1     -35.848  12.622  -4.626  1.00 20.00    -0.297 OA
HETATM    6  S10 UNL     1     -36.965  16.203  -3.840  1.00 20.00    -0.156 SA
ENDROOT
BRANCH   4   7
HETATM    7  C8  UNL     1     -34.513  16.948  -2.815  1.00 20.00    -0.038 C 
HETATM    8  C5  UNL     1     -32.994  16.726  -2.815  1.00 20.00     0.015 C 
HETATM    9  C6  UNL     1     -35.078  16.628  -1.423  1.00 20.00     0.015 C 
HETATM   10  C7  UNL     1     -34.816  18.411  -3.166  1.00 20.00     0.015 C 
ENDBRANCH   4   7
TORSDOF 1
ENDMDL
MODEL 5
REMARK VINA RESULT:      -4.4     16.697     18.110
REMARK  1 active torsions:
REMARK  status: ('A' for Active; 'I' for Inactive)
REMARK    1  A    between atoms: C4_4  and  C8_8 
ROOT
HETATM    1  C1  UNL     1     -35.987  13.793  -4.289  1.00 20.00     0.137 C 
HETATM    2  C2  UNL     1     -34.911  14.559  -3.561  1.00 20.00     0.095 C 
HETATM    3  C3  UNL     1     -37.268  14.551  -4.514  1.00 20.00     0.152 C 
HETATM    4  C4  UNL     1     -35.158  16.034  -3.846  1.00 20.00     0.062 C 
HETATM    5  O9  UNL     1     -35.849  12.621  -4.626  1.00 20.00    -0.297 OA
HETATM    6  S10 UNL     1     -36.965  16.202  -3.839  1.00 20.00    -0.156 SA
ENDROOT
BRANCH   4   7
HETATM    7  C8  UNL     1     -34.512  16.946  -2.817  1.00 20.00    -0.038 C 
HETATM    8  C5  UNL     1     -34.812  18.410  -3.170  1.00 20.00     0.015 C 
HETATM    9  C6  UNL     1     -32.993  16.721  -2.815  1.00 20.00     0.015 C 
HETATM   10  C7  UNL     1     -35.078  16.630  -1.425  1.00 20.00     0.015 C 
ENDBRANCH   4   7
TORSDOF 1
ENDMDL
MODEL 6
REMARK VINA RESULT:      -4.3     16.293     17.966
REMARK  1 active torsions:
REMARK  status: ('A' for Active; 'I' for Inactive)
REMARK    1  A    between atoms: C4_4  and  C8_8 
ROOT
HETATM    1  C1  UNL     1     -35.572  13.912  -4.572  1.00 20.00     0.137 C 
HETATM    2  C2  UNL     1     -35.273  14.686  -3.313  1.00 20.00     0.095 C 
HETATM    3  C3  UNL     1     -35.436  14.695  -5.850  1.00 20.00     0.152 C 
HETATM    4  C4  UNL     1     -34.305  15.795  -3.704  1.00 20.00     0.062 C 
HETATM    5  O9  UNL     1     -35.950  12.744  -4.554  1.00 20.00    -0.297 OA
HETATM    6  S10 UNL     1     -34.870  16.335  -5.341  1.00 20.00    -0.156 SA
ENDROOT
BRANCH   4   7
HETATM    7  C8  UNL     1     -34.299  16.945  -2.711  1.00 20.00    -0.038 C 
HETATM    8  C5  UNL     1     -34.953  18.177  -3.352  1.00 20.00     0.015 C 
HETATM    9  C6  UNL     1     -32.851  17.278  -2.322  1.00 20.00     0.015 C 
HETATM   10  C7  UNL     1     -35.087  16.543  -1.457  1.00 20.00     0.015 C 
ENDBRANCH   4   7
TORSDOF 1
ENDMDL
MODEL 7
REMARK VINA RESULT:      -4.3     16.278     17.925
REMARK  1 active torsions:
REMARK  status: ('A' for Active; 'I' for Inactive)
REMARK    1  A    between atoms: C4_4  and  C8_8 
ROOT
HETATM    1  C1  UNL     1     -35.558  13.922  -4.567  1.00 20.00     0.137 C 
HETATM    2  C2  UNL     1     -35.292  14.706  -3.307  1.00 20.00     0.095 C 
HETATM    3  C3  UNL     1     -35.369  14.690  -5.848  1.00 20.00     0.152 C 
HETATM    4  C4  UNL     1     -34.297  15.798  -3.675  1.00 20.00     0.062 C 
HETATM    5  O9  UNL     1     -35.950  12.759  -4.550  1.00 20.00    -0.297 OA
HETATM    6  S10 UNL     1     -34.800  16.329  -5.336  1.00 20.00    -0.156 SA
ENDROOT
BRANCH   4   7
HETATM    7  C8  UNL     1     -34.310  16.959  -2.694  1.00 20.00    -0.038 C 
HETATM    8  C5  UNL     1     -32.869  17.306  -2.293  1.00 20.00     0.015 C 
HETATM    9  C6  UNL     1     -35.109  16.562  -1.443  1.00 20.00     0.015 C 
HETATM   10  C7  UNL     1     -34.965  18.180  -3.354  1.00 20.00     0.015 C 
ENDBRANCH   4   7
TORSDOF 1
ENDMDL
MODEL 8
REMARK VINA RESULT:      -4.2     16.721     18.329
REMARK  1 active torsions:
REMARK  status: ('A' for Active; 'I' for Inactive)
REMARK    1  A    between atoms: C4_4  and  C8_8 
ROOT
HETATM    1  C1  UNL     1     -36.855  14.342  -4.491  1.00 20.00     0.137 C 
HETATM    2  C2  UNL     1     -36.481  15.301  -3.390  1.00 20.00     0.095 C 
HETATM    3  C3  UNL     1     -35.883  14.277  -5.639  1.00 20.00     0.152 C 
HETATM    4  C4  UNL     1     -34.963  15.427  -3.418  1.00 20.00     0.062 C 
HETATM    5  O9  UNL     1     -37.900  13.699  -4.479  1.00 20.00    -0.297 OA
HETATM    6  S10 UNL     1     -34.538  15.396  -5.181  1.00 20.00    -0.156 SA
ENDROOT
BRANCH   4   7
HETATM    7  C8  UNL     1     -34.467  16.697  -2.749  1.00 20.00    -0.038 C 
HETATM    8  C5  UNL     1     -34.973  17.918  -3.530  1.00 20.00     0.015 C 
HETATM    9  C6  UNL     1     -32.931  16.700  -2.732  1.00 20.00     0.015 C 
HETATM   10  C7  UNL     1     -34.995  16.756  -1.308  1.00 20.00     0.015 C 
ENDBRANCH   4   7
TORSDOF 1
ENDMDL
MODEL 9
REMARK VINA RESULT:      -4.1     16.942     18.542
REMARK  1 active torsions:
REMARK  status: ('A' for Active; 'I' for Inactive)
REMARK    1  A    between atoms: C4_4  and  C8_8 
ROOT
HETATM    1  C1  UNL     1     -37.379  14.750  -4.169  1.00 20.00     0.137 C 
HETATM    2  C2  UNL     1     -35.903  14.750  -3.859  1.00 20.00     0.095 C 
HETATM    3  C3  UNL     1     -38.048  16.096  -4.091  1.00 20.00     0.152 C 
HETATM    4  C4  UNL     1     -35.386  16.141  -4.203  1.00 20.00     0.062 C 
HETATM    5  O9  UNL     1     -38.000  13.721  -4.416  1.00 20.00    -0.297 OA
HETATM    6  S10 UNL     1     -36.721  17.260  -3.695  1.00 20.00    -0.156 SA
ENDROOT
BRANCH   4   7
HETATM    7  C8  UNL     1     -34.083  16.474  -3.496  1.00 20.00    -0.038 C 
HETATM    8  C5  UNL     1     -34.322  16.524  -1.981  1.00 20.00     0.015 C 
HETATM    9  C6  UNL     1     -33.573  17.839  -3.980  1.00 20.00     0.015 C 
HETATM   10  C7  UNL     1     -33.038  15.395  -3.814  1.00 20.00     0.015 C 
ENDBRANCH   4   7
TORSDOF 1
ENDMDL
