MODEL 1
REMARK VINA RESULT:      -4.6      0.000      0.000
REMARK  1 active torsions:
REMARK  status: ('A' for Active; 'I' for Inactive)
REMARK    1  A    between atoms: C2_2  and  C4_4 
ROOT
HETATM    1  C1  UNL     1     -35.617   5.415   4.193  1.00 20.00     0.092 A 
HETATM    2  C2  UNL     1     -34.527   5.435   5.242  1.00 20.00     0.092 A 
HETATM    3  C3  UNL     1     -34.282   4.829   3.907  1.00 20.00     0.250 A 
HETATM    4  F5  UNL     1     -34.134   3.468   3.773  1.00 20.00    -0.206 F 
HETATM    5  F6  UNL     1     -33.439   5.427   2.995  1.00 20.00    -0.206 F 
ENDROOT
BRANCH   2   6
HETATM    6  C4  UNL     1     -33.872   6.719   5.618  1.00 20.00     0.232 C 
HETATM    7  F7  UNL     1     -34.418   7.190   6.777  1.00 20.00    -0.255 F 
ENDBRANCH   2   6
TORSDOF 1
ENDMDL
MODEL 2
REMARK VINA RESULT:      -4.4      1.519      2.449
REMARK  1 active torsions:
REMARK  status: ('A' for Active; 'I' for Inactive)
REMARK    1  A    between atoms: C2_2  and  C4_4 
ROOT
HETATM    1  C1  UNL     1     -35.543   5.613   4.134  1.00 20.00     0.092 A 
HETATM    2  C2  UNL     1     -34.122   6.125   4.210  1.00 20.00     0.092 A 
HETATM    3  C3  UNL     1     -34.507   4.858   4.885  1.00 20.00     0.250 A 
HETATM    4  F5  UNL     1     -34.559   4.784   6.258  1.00 20.00    -0.206 F 
HETATM    5  F6  UNL     1     -34.060   3.640   4.424  1.00 20.00    -0.206 F 
ENDROOT
BRANCH   2   6
HETATM    6  C4  UNL     1     -33.251   6.101   3.003  1.00 20.00     0.232 C 
HETATM    7  F7  UNL     1     -32.202   6.959   3.177  1.00 20.00    -0.255 F 
ENDBRANCH   2   6
TORSDOF 1
ENDMDL
MODEL 3
REMARK VINA RESULT:      -4.4      1.572      1.929
REMARK  1 active torsions:
REMARK  status: ('A' for Active; 'I' for Inactive)
REMARK    1  A    between atoms: C2_2  and  C4_4 
ROOT
HETATM    1  C1  UNL     1     -33.896   5.243   3.528  1.00 20.00     0.092 A 
HETATM    2  C2  UNL     1     -34.217   6.522   4.270  1.00 20.00     0.092 A 
HETATM    3  C3  UNL     1     -35.104   5.335   4.389  1.00 20.00     0.250 A 
HETATM    4  F5  UNL     1     -36.360   5.341   3.828  1.00 20.00    -0.206 F 
HETATM    5  F6  UNL     1     -35.180   4.617   5.562  1.00 20.00    -0.206 F 
ENDROOT
BRANCH   2   6
HETATM    6  C4  UNL     1     -33.376   6.953   5.420  1.00 20.00     0.232 C 
HETATM    7  F7  UNL     1     -34.163   7.138   6.520  1.00 20.00    -0.255 F 
ENDBRANCH   2   6
TORSDOF 1
ENDMDL
MODEL 4
REMARK VINA RESULT:      -4.3      1.244      3.242
REMARK  1 active torsions:
REMARK  status: ('A' for Active; 'I' for Inactive)
REMARK    1  A    between atoms: C2_2  and  C4_4 
ROOT
HETATM    1  C1  UNL     1     -35.652   5.624   4.360  1.00 20.00     0.092 A 
HETATM    2  C2  UNL     1     -34.203   5.573   3.926  1.00 20.00     0.092 A 
HETATM    3  C3  UNL     1     -34.559   5.666   5.366  1.00 20.00     0.250 A 
HETATM    4  F5  UNL     1     -34.311   6.818   6.076  1.00 20.00    -0.206 F 
HETATM    5  F6  UNL     1     -34.358   4.604   6.221  1.00 20.00    -0.206 F 
ENDROOT
BRANCH   2   6
HETATM    6  C4  UNL     1     -33.631   4.316   3.371  1.00 20.00     0.232 C 
HETATM    7  F7  UNL     1     -32.872   4.602   2.273  1.00 20.00    -0.255 F 
ENDBRANCH   2   6
TORSDOF 1
ENDMDL
MODEL 5
REMARK VINA RESULT:      -4.0      1.320      3.085
REMARK  1 active torsions:
REMARK  status: ('A' for Active; 'I' for Inactive)
REMARK    1  A    between atoms: C2_2  and  C4_4 
ROOT
HETATM    1  C1  UNL     1     -34.423   4.977   6.100  1.00 20.00     0.092 A 
HETATM    2  C2  UNL     1     -34.884   5.653   4.827  1.00 20.00     0.092 A 
HETATM    3  C3  UNL     1     -34.109   6.408   5.847  1.00 20.00     0.250 A 
HETATM    4  F5  UNL     1     -34.711   7.394   6.594  1.00 20.00    -0.206 F 
HETATM    5  F6  UNL     1     -32.812   6.805   5.608  1.00 20.00    -0.206 F 
ENDROOT
BRANCH   2   6
HETATM    6  C4  UNL     1     -34.263   5.297   3.522  1.00 20.00     0.232 C 
HETATM    7  F7  UNL     1     -33.552   6.361   3.046  1.00 20.00    -0.255 F 
ENDBRANCH   2   6
TORSDOF 1
ENDMDL
MODEL 6
REMARK VINA RESULT:      -3.9      1.352      1.934
REMARK  1 active torsions:
REMARK  status: ('A' for Active; 'I' for Inactive)
REMARK    1  A    between atoms: C2_2  and  C4_4 
ROOT
HETATM    1  C1  UNL     1     -33.411   6.557   3.818  1.00 20.00     0.092 A 
HETATM    2  C2  UNL     1     -34.644   5.725   4.089  1.00 20.00     0.092 A 
HETATM    3  C3  UNL     1     -33.706   5.354   2.998  1.00 20.00     0.250 A 
HETATM    4  F5  UNL     1     -34.079   5.485   1.680  1.00 20.00    -0.206 F 
HETATM    5  F6  UNL     1     -32.910   4.234   3.091  1.00 20.00    -0.206 F 
ENDROOT
BRANCH   2   6
HETATM    6  C4  UNL     1     -34.731   4.894   5.322  1.00 20.00     0.232 C 
HETATM    7  F7  UNL     1     -34.980   5.695   6.399  1.00 20.00    -0.255 F 
ENDBRANCH   2   6
TORSDOF 1
ENDMDL
MODEL 7
REMARK VINA RESULT:      -3.7      8.704      9.563
REMARK  1 active torsions:
REMARK  status: ('A' for Active; 'I' for Inactive)
REMARK    1  A    between atoms: C2_2  and  C4_4 
ROOT
HETATM    1  C1  UNL     1     -42.443   7.800  -1.409  1.00 20.00     0.092 A 
HETATM    2  C2  UNL     1     -41.183   7.050  -1.035  1.00 20.00     0.092 A 
HETATM    3  C3  UNL     1     -41.685   8.161  -0.183  1.00 20.00     0.250 A 
HETATM    4  F5  UNL     1     -41.001   9.353  -0.114  1.00 20.00    -0.206 F 
HETATM    5  F6  UNL     1     -42.218   7.919   1.063  1.00 20.00    -0.206 F 
ENDROOT
BRANCH   2   6
HETATM    6  C4  UNL     1     -41.263   5.642  -0.559  1.00 20.00     0.232 C 
HETATM    7  F7  UNL     1     -40.536   4.836  -1.389  1.00 20.00    -0.255 F 
ENDBRANCH   2   6
TORSDOF 1
ENDMDL
MODEL 8
REMARK VINA RESULT:      -3.7      8.611      8.868
REMARK  1 active torsions:
REMARK  status: ('A' for Active; 'I' for Inactive)
REMARK    1  A    between atoms: C2_2  and  C4_4 
ROOT
HETATM    1  C1  UNL     1     -42.731   5.460  -1.106  1.00 20.00     0.092 A 
HETATM    2  C2  UNL     1     -42.096   5.786   0.227  1.00 20.00     0.092 A 
HETATM    3  C3  UNL     1     -41.277   5.755  -1.013  1.00 20.00     0.250 A 
HETATM    4  F5  UNL     1     -40.351   4.757  -1.214  1.00 20.00    -0.206 F 
HETATM    5  F6  UNL     1     -40.764   6.910  -1.558  1.00 20.00    -0.206 F 
ENDROOT
BRANCH   2   6
HETATM    6  C4  UNL     1     -42.393   7.079   0.902  1.00 20.00     0.232 C 
HETATM    7  F7  UNL     1     -41.228   7.752   1.136  1.00 20.00    -0.255 F 
ENDBRANCH   2   6
TORSDOF 1
ENDMDL
MODEL 9
REMARK VINA RESULT:      -3.7      1.894      2.630
REMARK  1 active torsions:
REMARK  status: ('A' for Active; 'I' for Inactive)
REMARK    1  A    between atoms: C2_2  and  C4_4 
ROOT
HETATM    1  C1  UNL     1     -33.317   5.121   2.480  1.00 20.00     0.092 A 
HETATM    2  C2  UNL     1     -33.680   5.406   3.920  1.00 20.00     0.092 A 
HETATM    3  C3  UNL     1     -33.099   6.471   3.061  1.00 20.00     0.250 A 
HETATM    4  F5  UNL     1     -31.823   6.933   3.287  1.00 20.00    -0.206 F 
HETATM    5  F6  UNL     1     -33.857   7.542   2.642  1.00 20.00    -0.206 F 
ENDROOT
BRANCH   2   6
HETATM    6  C4  UNL     1     -35.108   5.468   4.335  1.00 20.00     0.232 C 
HETATM    7  F7  UNL     1     -35.209   5.220   5.674  1.00 20.00    -0.255 F 
ENDBRANCH   2   6
TORSDOF 1
ENDMDL
