MODEL 1
REMARK VINA RESULT:      -5.3      0.000      0.000
REMARK  1 active torsions:
REMARK  status: ('A' for Active; 'I' for Inactive)
REMARK    1  A    between atoms: C2_2  and  C6_6 
ROOT
HETATM    1  C1  UNL     1     -34.292   5.416   3.636  1.00 20.00     0.011 C 
HETATM    2  C2  UNL     1     -33.433   6.426   3.844  1.00 20.00     0.026 C 
HETATM    3  C3  UNL     1     -35.095   4.805   4.747  1.00 20.00     0.195 C 
HETATM    4  C4  UNL     1     -33.273   7.012   5.223  1.00 20.00     0.069 C 
HETATM    5  C5  UNL     1     -34.413   6.589   6.146  1.00 20.00     0.172 C 
HETATM    6  O7  UNL     1     -34.617   5.181   6.044  1.00 20.00    -0.387 OA
ENDROOT
BRANCH   2   7
HETATM    7  C6  UNL     1     -32.597   7.020   2.752  1.00 20.00     0.413 C 
HETATM    8  F8  UNL     1     -31.432   7.493   3.238  1.00 20.00    -0.166 F 
HETATM    9  F9  UNL     1     -32.309   6.099   1.809  1.00 20.00    -0.166 F 
HETATM   10  F10 UNL     1     -33.239   8.041   2.149  1.00 20.00    -0.166 F 
ENDBRANCH   2   7
TORSDOF 1
ENDMDL
MODEL 2
REMARK VINA RESULT:      -5.3      2.939      3.895
REMARK  1 active torsions:
REMARK  status: ('A' for Active; 'I' for Inactive)
REMARK    1  A    between atoms: C2_2  and  C6_6 
ROOT
HETATM    1  C1  UNL     1     -33.421   7.021   4.965  1.00 20.00     0.011 C 
HETATM    2  C2  UNL     1     -33.892   6.062   4.151  1.00 20.00     0.026 C 
HETATM    3  C3  UNL     1     -32.306   7.938   4.560  1.00 20.00     0.195 C 
HETATM    4  C4  UNL     1     -33.325   5.899   2.765  1.00 20.00     0.069 C 
HETATM    5  C5  UNL     1     -32.511   7.121   2.347  1.00 20.00     0.172 C 
HETATM    6  O7  UNL     1     -31.611   7.481   3.393  1.00 20.00    -0.387 OA
ENDROOT
BRANCH   2   7
HETATM    7  C6  UNL     1     -34.979   5.114   4.557  1.00 20.00     0.413 C 
HETATM    8  F8  UNL     1     -34.711   3.862   4.133  1.00 20.00    -0.166 F 
HETATM    9  F9  UNL     1     -35.112   5.076   5.899  1.00 20.00    -0.166 F 
HETATM   10  F10 UNL     1     -36.165   5.482   4.034  1.00 20.00    -0.166 F 
ENDBRANCH   2   7
TORSDOF 1
ENDMDL
MODEL 3
REMARK VINA RESULT:      -5.2      0.495      1.590
REMARK  1 active torsions:
REMARK  status: ('A' for Active; 'I' for Inactive)
REMARK    1  A    between atoms: C2_2  and  C6_6 
ROOT
HETATM    1  C1  UNL     1     -33.533   6.903   4.959  1.00 20.00     0.011 C 
HETATM    2  C2  UNL     1     -33.357   6.468   3.700  1.00 20.00     0.026 C 
HETATM    3  C3  UNL     1     -34.433   6.200   5.931  1.00 20.00     0.195 C 
HETATM    4  C4  UNL     1     -34.045   5.213   3.230  1.00 20.00     0.069 C 
HETATM    5  C5  UNL     1     -34.583   4.397   4.403  1.00 20.00     0.172 C 
HETATM    6  O7  UNL     1     -35.298   5.251   5.295  1.00 20.00    -0.387 OA
ENDROOT
BRANCH   2   7
HETATM    7  C6  UNL     1     -32.492   7.181   2.708  1.00 20.00     0.413 C 
HETATM    8  F8  UNL     1     -31.388   7.680   3.300  1.00 20.00    -0.166 F 
HETATM    9  F9  UNL     1     -32.094   6.348   1.725  1.00 20.00    -0.166 F 
HETATM   10  F10 UNL     1     -33.154   8.207   2.136  1.00 20.00    -0.166 F 
ENDBRANCH   2   7
TORSDOF 1
ENDMDL
MODEL 4
REMARK VINA RESULT:      -4.9      1.211      2.048
REMARK  1 active torsions:
REMARK  status: ('A' for Active; 'I' for Inactive)
REMARK    1  A    between atoms: C2_2  and  C6_6 
ROOT
HETATM    1  C1  UNL     1     -33.373   6.772   4.608  1.00 20.00     0.011 C 
HETATM    2  C2  UNL     1     -33.743   5.730   3.845  1.00 20.00     0.026 C 
HETATM    3  C3  UNL     1     -33.876   6.956   6.009  1.00 20.00     0.195 C 
HETATM    4  C4  UNL     1     -34.665   4.676   4.398  1.00 20.00     0.069 C 
HETATM    5  C5  UNL     1     -34.767   4.764   5.919  1.00 20.00     0.172 C 
HETATM    6  O7  UNL     1     -34.998   6.118   6.307  1.00 20.00    -0.387 OA
ENDROOT
BRANCH   2   7
HETATM    7  C6  UNL     1     -33.279   5.554   2.432  1.00 20.00     0.413 C 
HETATM    8  F8  UNL     1     -32.518   6.596   2.039  1.00 20.00    -0.166 F 
HETATM    9  F9  UNL     1     -32.543   4.431   2.300  1.00 20.00    -0.166 F 
HETATM   10  F10 UNL     1     -34.324   5.464   1.585  1.00 20.00    -0.166 F 
ENDBRANCH   2   7
TORSDOF 1
ENDMDL
MODEL 5
REMARK VINA RESULT:      -4.8      3.170      3.778
REMARK  1 active torsions:
REMARK  status: ('A' for Active; 'I' for Inactive)
REMARK    1  A    between atoms: C2_2  and  C6_6 
ROOT
HETATM    1  C1  UNL     1     -33.896   5.041   3.492  1.00 20.00     0.011 C 
HETATM    2  C2  UNL     1     -33.858   5.924   4.503  1.00 20.00     0.026 C 
HETATM    3  C3  UNL     1     -33.241   5.309   2.169  1.00 20.00     0.195 C 
HETATM    4  C4  UNL     1     -33.109   7.221   4.347  1.00 20.00     0.069 C 
HETATM    5  C5  UNL     1     -32.174   7.186   3.140  1.00 20.00     0.172 C 
HETATM    6  O7  UNL     1     -32.874   6.683   2.004  1.00 20.00    -0.387 OA
ENDROOT
BRANCH   2   7
HETATM    7  C6  UNL     1     -34.540   5.686   5.815  1.00 20.00     0.413 C 
HETATM    8  F8  UNL     1     -34.596   6.820   6.543  1.00 20.00    -0.166 F 
HETATM    9  F9  UNL     1     -35.803   5.249   5.632  1.00 20.00    -0.166 F 
HETATM   10  F10 UNL     1     -33.884   4.760   6.543  1.00 20.00    -0.166 F 
ENDBRANCH   2   7
TORSDOF 1
ENDMDL
MODEL 6
REMARK VINA RESULT:      -4.7     16.282     17.073
REMARK  1 active torsions:
REMARK  status: ('A' for Active; 'I' for Inactive)
REMARK    1  A    between atoms: C2_2  and  C6_6 
ROOT
HETATM    1  C1  UNL     1     -24.103  18.194   9.592  1.00 20.00     0.011 C 
HETATM    2  C2  UNL     1     -22.973  17.782  10.190  1.00 20.00     0.026 C 
HETATM    3  C3  UNL     1     -24.188  18.422   8.112  1.00 20.00     0.195 C 
HETATM    4  C4  UNL     1     -21.743  17.497   9.369  1.00 20.00     0.069 C 
HETATM    5  C5  UNL     1     -22.077  17.375   7.884  1.00 20.00     0.172 C 
HETATM    6  O7  UNL     1     -22.901  18.469   7.486  1.00 20.00    -0.387 OA
ENDROOT
BRANCH   2   7
HETATM    7  C6  UNL     1     -22.863  17.588  11.671  1.00 20.00     0.413 C 
HETATM    8  F8  UNL     1     -23.674  18.439  12.332  1.00 20.00    -0.166 F 
HETATM    9  F9  UNL     1     -23.207  16.332  12.022  1.00 20.00    -0.166 F 
HETATM   10  F10 UNL     1     -21.602  17.805  12.097  1.00 20.00    -0.166 F 
ENDBRANCH   2   7
TORSDOF 1
ENDMDL
MODEL 7
REMARK VINA RESULT:      -4.7      3.191      4.061
REMARK  1 active torsions:
REMARK  status: ('A' for Active; 'I' for Inactive)
REMARK    1  A    between atoms: C2_2  and  C6_6 
ROOT
HETATM    1  C1  UNL     1     -33.383   6.894   4.178  1.00 20.00     0.011 C 
HETATM    2  C2  UNL     1     -33.934   5.750   4.615  1.00 20.00     0.026 C 
HETATM    3  C3  UNL     1     -32.755   7.014   2.821  1.00 20.00     0.195 C 
HETATM    4  C4  UNL     1     -33.969   4.538   3.722  1.00 20.00     0.069 C 
HETATM    5  C5  UNL     1     -33.678   4.904   2.268  1.00 20.00     0.172 C 
HETATM    6  O7  UNL     1     -32.524   5.741   2.206  1.00 20.00    -0.387 OA
ENDROOT
BRANCH   2   7
HETATM    7  C6  UNL     1     -34.530   5.605   5.981  1.00 20.00     0.413 C 
HETATM    8  F8  UNL     1     -35.768   5.075   5.915  1.00 20.00    -0.166 F 
HETATM    9  F9  UNL     1     -33.775   4.799   6.756  1.00 20.00    -0.166 F 
HETATM   10  F10 UNL     1     -34.625   6.800   6.599  1.00 20.00    -0.166 F 
ENDBRANCH   2   7
TORSDOF 1
ENDMDL
MODEL 8
REMARK VINA RESULT:      -4.6     16.483     17.079
REMARK  1 active torsions:
REMARK  status: ('A' for Active; 'I' for Inactive)
REMARK    1  A    between atoms: C2_2  and  C6_6 
ROOT
HETATM    1  C1  UNL     1     -21.989  17.502   9.472  1.00 20.00     0.011 C 
HETATM    2  C2  UNL     1     -23.026  17.847  10.253  1.00 20.00     0.026 C 
HETATM    3  C3  UNL     1     -21.977  17.759   7.995  1.00 20.00     0.195 C 
HETATM    4  C4  UNL     1     -24.219  18.549   9.659  1.00 20.00     0.069 C 
HETATM    5  C5  UNL     1     -23.909  19.101   8.269  1.00 20.00     0.172 C 
HETATM    6  O7  UNL     1     -23.273  18.094   7.483  1.00 20.00    -0.387 OA
ENDROOT
BRANCH   2   7
HETATM    7  C6  UNL     1     -23.067  17.561  11.722  1.00 20.00     0.413 C 
HETATM    8  F8  UNL     1     -23.325  16.258  11.955  1.00 20.00    -0.166 F 
HETATM    9  F9  UNL     1     -21.888  17.860  12.307  1.00 20.00    -0.166 F 
HETATM   10  F10 UNL     1     -24.026  18.287  12.332  1.00 20.00    -0.166 F 
ENDBRANCH   2   7
TORSDOF 1
ENDMDL
MODEL 9
REMARK VINA RESULT:      -4.5     11.366     11.947
REMARK  1 active torsions:
REMARK  status: ('A' for Active; 'I' for Inactive)
REMARK    1  A    between atoms: C2_2  and  C6_6 
ROOT
HETATM    1  C1  UNL     1     -35.130  15.739  -2.359  1.00 20.00     0.011 C 
HETATM    2  C2  UNL     1     -34.079  15.560  -3.176  1.00 20.00     0.026 C 
HETATM    3  C3  UNL     1     -35.171  16.835  -1.336  1.00 20.00     0.195 C 
HETATM    4  C4  UNL     1     -32.902  16.496  -3.111  1.00 20.00     0.069 C 
HETATM    5  C5  UNL     1     -33.241  17.769  -2.340  1.00 20.00     0.172 C 
HETATM    6  O7  UNL     1     -33.887  17.431  -1.114  1.00 20.00    -0.387 OA
ENDROOT
BRANCH   2   7
HETATM    7  C6  UNL     1     -34.009  14.446  -4.176  1.00 20.00     0.413 C 
HETATM    8  F8  UNL     1     -34.492  14.839  -5.372  1.00 20.00    -0.166 F 
HETATM    9  F9  UNL     1     -32.736  14.038  -4.357  1.00 20.00    -0.166 F 
HETATM   10  F10 UNL     1     -34.729  13.382  -3.769  1.00 20.00    -0.166 F 
ENDBRANCH   2   7
TORSDOF 1
ENDMDL
