MODEL 1
REMARK VINA RESULT:      -4.7      0.000      0.000
REMARK  0 active torsions:
REMARK  status: ('A' for Active; 'I' for Inactive)
ROOT
HETATM    1  C1  UNL     1     -33.290   6.492   3.611  1.00 20.00     0.221 C 
HETATM    2  C2  UNL     1     -35.633   5.484   4.163  1.00 20.00     0.020 C 
HETATM    3  C3  UNL     1     -34.020   4.230   4.689  1.00 20.00     0.020 C 
HETATM    4  C4  UNL     1     -34.084   6.470   5.991  1.00 20.00     0.127 C 
HETATM    5  C5  UNL     1     -34.229   5.244   3.518  1.00 20.00     0.078 C 
HETATM    6  C6  UNL     1     -34.872   5.250   5.503  1.00 20.00     0.005 C 
HETATM    7  N7  UNL     1     -33.293   7.026   4.894  1.00 20.00    -0.360 N 
HETATM    8  O8  UNL     1     -32.622   6.963   2.689  1.00 20.00    -0.273 OA
HETATM    9  H17 UNL     1     -32.719   7.843   5.080  1.00 20.00     0.162 HD
ENDROOT
TORSDOF 0
ENDMDL
MODEL 2
REMARK VINA RESULT:      -4.4     16.128     16.829
REMARK  0 active torsions:
REMARK  status: ('A' for Active; 'I' for Inactive)
ROOT
HETATM    1  C1  UNL     1     -22.770  16.952   9.761  1.00 20.00     0.221 C 
HETATM    2  C2  UNL     1     -24.747  18.100  11.020  1.00 20.00     0.020 C 
HETATM    3  C3  UNL     1     -24.383  16.115  11.635  1.00 20.00     0.020 C 
HETATM    4  C4  UNL     1     -22.426  17.744  12.117  1.00 20.00     0.127 C 
HETATM    5  C5  UNL     1     -24.251  16.832  10.252  1.00 20.00     0.078 C 
HETATM    6  C6  UNL     1     -23.935  17.495  12.205  1.00 20.00     0.005 C 
HETATM    7  N7  UNL     1     -21.942  17.417  10.777  1.00 20.00    -0.360 N 
HETATM    8  O8  UNL     1     -22.359  16.677   8.633  1.00 20.00    -0.273 OA
HETATM    9  H17 UNL     1     -20.954  17.537  10.578  1.00 20.00     0.162 HD
ENDROOT
TORSDOF 0
ENDMDL
MODEL 3
REMARK VINA RESULT:      -4.3     16.363     17.199
REMARK  0 active torsions:
REMARK  status: ('A' for Active; 'I' for Inactive)
ROOT
HETATM    1  C1  UNL     1     -22.728  18.653   9.538  1.00 20.00     0.221 C 
HETATM    2  C2  UNL     1     -24.007  16.536  10.374  1.00 20.00     0.020 C 
HETATM    3  C3  UNL     1     -23.517  17.897  11.909  1.00 20.00     0.020 C 
HETATM    4  C4  UNL     1     -25.156  18.847  10.142  1.00 20.00     0.127 C 
HETATM    5  C5  UNL     1     -22.789  17.492  10.587  1.00 20.00     0.078 C 
HETATM    6  C6  UNL     1     -24.810  17.677  11.068  1.00 20.00     0.005 C 
HETATM    7  N7  UNL     1     -23.970  19.262   9.395  1.00 20.00    -0.360 N 
HETATM    8  O8  UNL     1     -21.731  19.005   8.909  1.00 20.00    -0.273 OA
HETATM    9  H17 UNL     1     -24.058  20.033   8.740  1.00 20.00     0.162 HD
ENDROOT
TORSDOF 0
ENDMDL
MODEL 4
REMARK VINA RESULT:      -4.3      8.967      9.586
REMARK  0 active torsions:
REMARK  status: ('A' for Active; 'I' for Inactive)
ROOT
HETATM    1  C1  UNL     1     -41.276   6.173  -0.660  1.00 20.00     0.221 C 
HETATM    2  C2  UNL     1     -41.387   8.716  -0.084  1.00 20.00     0.020 C 
HETATM    3  C3  UNL     1     -42.980   8.046  -1.293  1.00 20.00     0.020 C 
HETATM    4  C4  UNL     1     -42.917   6.968   1.063  1.00 20.00     0.127 C 
HETATM    5  C5  UNL     1     -41.477   7.627  -1.202  1.00 20.00     0.078 C 
HETATM    6  C6  UNL     1     -42.841   8.261   0.244  1.00 20.00     0.005 C 
HETATM    7  N7  UNL     1     -42.046   5.951   0.476  1.00 20.00    -0.360 N 
HETATM    8  O8  UNL     1     -40.542   5.315  -1.152  1.00 20.00    -0.273 OA
HETATM    9  H17 UNL     1     -42.000   5.040   0.922  1.00 20.00     0.162 HD
ENDROOT
TORSDOF 0
ENDMDL
MODEL 5
REMARK VINA RESULT:      -4.2     16.068     16.939
REMARK  0 active torsions:
REMARK  status: ('A' for Active; 'I' for Inactive)
ROOT
HETATM    1  C1  UNL     1     -24.081  16.295  11.517  1.00 20.00     0.221 C 
HETATM    2  C2  UNL     1     -22.778  16.838   9.321  1.00 20.00     0.020 C 
HETATM    3  C3  UNL     1     -23.969  18.432  10.022  1.00 20.00     0.020 C 
HETATM    4  C4  UNL     1     -22.049  17.764  11.629  1.00 20.00     0.127 C 
HETATM    5  C5  UNL     1     -24.152  16.880  10.067  1.00 20.00     0.078 C 
HETATM    6  C6  UNL     1     -22.457  18.092  10.189  1.00 20.00     0.005 C 
HETATM    7  N7  UNL     1     -22.990  16.807  12.210  1.00 20.00    -0.360 N 
HETATM    8  O8  UNL     1     -24.872  15.490  12.009  1.00 20.00    -0.273 OA
HETATM    9  H17 UNL     1     -22.837  16.500  13.166  1.00 20.00     0.162 HD
ENDROOT
TORSDOF 0
ENDMDL
MODEL 6
REMARK VINA RESULT:      -4.1      9.081      9.712
REMARK  0 active torsions:
REMARK  status: ('A' for Active; 'I' for Inactive)
ROOT
HETATM    1  C1  UNL     1     -42.746   5.926   1.018  1.00 20.00     0.221 C 
HETATM    2  C2  UNL     1     -42.886   7.560  -1.013  1.00 20.00     0.020 C 
HETATM    3  C3  UNL     1     -41.358   8.037   0.362  1.00 20.00     0.020 C 
HETATM    4  C4  UNL     1     -41.042   5.750  -0.816  1.00 20.00     0.127 C 
HETATM    5  C5  UNL     1     -42.781   7.416   0.541  1.00 20.00     0.078 C 
HETATM    6  C6  UNL     1     -41.361   7.240  -0.978  1.00 20.00     0.005 C 
HETATM    7  N7  UNL     1     -41.840   5.182   0.269  1.00 20.00    -0.360 N 
HETATM    8  O8  UNL     1     -43.417   5.444   1.931  1.00 20.00    -0.273 OA
HETATM    9  H17 UNL     1     -41.728   4.197   0.485  1.00 20.00     0.162 HD
ENDROOT
TORSDOF 0
ENDMDL
MODEL 7
REMARK VINA RESULT:      -4.0     11.970     12.730
REMARK  0 active torsions:
REMARK  status: ('A' for Active; 'I' for Inactive)
ROOT
HETATM    1  C1  UNL     1     -35.808  13.811  -4.229  1.00 20.00     0.221 C 
HETATM    2  C2  UNL     1     -34.847  15.594  -2.583  1.00 20.00     0.020 C 
HETATM    3  C3  UNL     1     -34.443  16.003  -4.613  1.00 20.00     0.020 C 
HETATM    4  C4  UNL     1     -36.964  16.028  -4.013  1.00 20.00     0.127 C 
HETATM    5  C5  UNL     1     -34.566  14.667  -3.811  1.00 20.00     0.078 C 
HETATM    6  C6  UNL     1     -35.554  16.497  -3.639  1.00 20.00     0.005 C 
HETATM    7  N7  UNL     1     -36.955  14.594  -4.300  1.00 20.00    -0.360 N 
HETATM    8  O8  UNL     1     -35.803  12.604  -4.472  1.00 20.00    -0.273 OA
HETATM    9  H17 UNL     1     -37.828  14.149  -4.563  1.00 20.00     0.162 HD
ENDROOT
TORSDOF 0
ENDMDL
MODEL 8
REMARK VINA RESULT:      -4.0     15.553     16.553
REMARK  0 active torsions:
REMARK  status: ('A' for Active; 'I' for Inactive)
ROOT
HETATM    1  C1  UNL     1     -26.131  17.699  11.976  1.00 20.00     0.221 C 
HETATM    2  C2  UNL     1     -24.134  17.868  10.304  1.00 20.00     0.020 C 
HETATM    3  C3  UNL     1     -23.557  17.946  12.332  1.00 20.00     0.020 C 
HETATM    4  C4  UNL     1     -24.650  15.703  11.632  1.00 20.00     0.127 C 
HETATM    5  C5  UNL     1     -24.824  18.461  11.575  1.00 20.00     0.078 C 
HETATM    6  C6  UNL     1     -23.616  16.783  11.296  1.00 20.00     0.005 C 
HETATM    7  N7  UNL     1     -25.930  16.324  11.972  1.00 20.00    -0.360 N 
HETATM    8  O8  UNL     1     -27.210  18.219  12.264  1.00 20.00    -0.273 OA
HETATM    9  H17 UNL     1     -26.708  15.720  12.217  1.00 20.00     0.162 HD
ENDROOT
TORSDOF 0
ENDMDL
MODEL 9
REMARK VINA RESULT:      -4.0     12.114     12.980
REMARK  0 active torsions:
REMARK  status: ('A' for Active; 'I' for Inactive)
ROOT
HETATM    1  C1  UNL     1     -36.308  14.392  -4.473  1.00 20.00     0.221 C 
HETATM    2  C2  UNL     1     -34.665  15.550  -2.807  1.00 20.00     0.020 C 
HETATM    3  C3  UNL     1     -33.703  14.551  -4.397  1.00 20.00     0.020 C 
HETATM    4  C4  UNL     1     -35.191  16.537  -5.145  1.00 20.00     0.127 C 
HETATM    5  C5  UNL     1     -35.015  14.250  -3.603  1.00 20.00     0.078 C 
HETATM    6  C6  UNL     1     -34.111  16.040  -4.179  1.00 20.00     0.005 C 
HETATM    7  N7  UNL     1     -36.290  15.574  -5.206  1.00 20.00    -0.360 N 
HETATM    8  O8  UNL     1     -37.234  13.583  -4.526  1.00 20.00    -0.273 OA
HETATM    9  H17 UNL     1     -37.078  15.779  -5.811  1.00 20.00     0.162 HD
ENDROOT
TORSDOF 0
ENDMDL
