MODEL 1
REMARK VINA RESULT:      -4.6      0.000      0.000
REMARK  1 active torsions:
REMARK  status: ('A' for Active; 'I' for Inactive)
REMARK    1  A    between atoms: C2_2  and  C6_6 
ROOT
HETATM    1  C1  UNL     1     -35.613  13.831  -4.910  1.00 20.00     0.139 C 
HETATM    2  C4  UNL     1     -35.851  14.567  -6.237  1.00 20.00     0.081 C 
HETATM    3  C5  UNL     1     -35.120  15.784  -5.631  1.00 20.00     0.028 C 
HETATM    4  C6  UNL     1     -34.726  14.976  -4.353  1.00 20.00     0.035 C 
HETATM    5  C8  UNL     1     -33.250  14.621  -4.241  1.00 20.00     0.027 C 
HETATM    6  O9  UNL     1     -35.977  12.757  -4.479  1.00 20.00    -0.297 OA
ENDROOT
BRANCH   4   7
HETATM    7  C2  UNL     1     -35.298  15.515  -3.095  1.00 20.00    -0.014 C 
HETATM    8  C3  UNL     1     -34.595  16.223  -2.199  1.00 20.00    -0.034 C 
HETATM    9  C7  UNL     1     -35.170  16.766  -0.933  1.00 20.00     0.036 C 
ENDBRANCH   4   7
TORSDOF 1
ENDMDL
MODEL 2
REMARK VINA RESULT:      -4.1      2.310      2.864
REMARK  1 active torsions:
REMARK  status: ('A' for Active; 'I' for Inactive)
REMARK    1  A    between atoms: C2_2  and  C6_6 
ROOT
HETATM    1  C1  UNL     1     -34.403  16.331  -4.997  1.00 20.00     0.139 C 
HETATM    2  C4  UNL     1     -34.010  14.990  -5.634  1.00 20.00     0.081 C 
HETATM    3  C5  UNL     1     -33.430  14.572  -4.267  1.00 20.00     0.028 C 
HETATM    4  C6  UNL     1     -33.986  15.860  -3.578  1.00 20.00     0.035 C 
HETATM    5  C8  UNL     1     -35.154  15.633  -2.629  1.00 20.00     0.027 C 
HETATM    6  O9  UNL     1     -34.873  17.357  -5.444  1.00 20.00    -0.297 OA
ENDROOT
BRANCH   4   7
HETATM    7  C2  UNL     1     -32.938  16.749  -3.020  1.00 20.00    -0.014 C 
HETATM    8  C3  UNL     1     -33.063  17.413  -1.862  1.00 20.00    -0.034 C 
HETATM    9  C7  UNL     1     -32.009  18.308  -1.299  1.00 20.00     0.036 C 
ENDBRANCH   4   7
TORSDOF 1
ENDMDL
MODEL 3
REMARK VINA RESULT:      -4.1      1.878      2.422
REMARK  1 active torsions:
REMARK  status: ('A' for Active; 'I' for Inactive)
REMARK    1  A    between atoms: C2_2  and  C6_6 
ROOT
HETATM    1  C1  UNL     1     -33.950  14.478  -4.194  1.00 20.00     0.139 C 
HETATM    2  C4  UNL     1     -35.378  13.944  -4.012  1.00 20.00     0.081 C 
HETATM    3  C5  UNL     1     -35.760  15.321  -3.429  1.00 20.00     0.028 C 
HETATM    4  C6  UNL     1     -34.358  15.916  -3.777  1.00 20.00     0.035 C 
HETATM    5  C8  UNL     1     -34.347  16.921  -4.919  1.00 20.00     0.027 C 
HETATM    6  O9  UNL     1     -32.909  13.962  -4.544  1.00 20.00    -0.297 OA
ENDROOT
BRANCH   4   7
HETATM    7  C2  UNL     1     -33.577  16.359  -2.596  1.00 20.00    -0.014 C 
HETATM    8  C3  UNL     1     -32.982  17.557  -2.501  1.00 20.00    -0.034 C 
HETATM    9  C7  UNL     1     -32.197  18.003  -1.313  1.00 20.00     0.036 C 
ENDBRANCH   4   7
TORSDOF 1
ENDMDL
MODEL 4
REMARK VINA RESULT:      -3.9     17.965     19.035
REMARK  1 active torsions:
REMARK  status: ('A' for Active; 'I' for Inactive)
REMARK    1  A    between atoms: C2_2  and  C6_6 
ROOT
HETATM    1  C1  UNL     1     -23.056  17.460  10.241  1.00 20.00     0.139 C 
HETATM    2  C4  UNL     1     -21.872  17.783  11.165  1.00 20.00     0.081 C 
HETATM    3  C5  UNL     1     -22.879  17.881  12.331  1.00 20.00     0.028 C 
HETATM    4  C6  UNL     1     -24.053  17.381  11.428  1.00 20.00     0.035 C 
HETATM    5  C8  UNL     1     -24.548  15.975  11.731  1.00 20.00     0.027 C 
HETATM    6  O9  UNL     1     -23.156  17.313   9.041  1.00 20.00    -0.297 OA
ENDROOT
BRANCH   4   7
HETATM    7  C2  UNL     1     -25.148  18.367  11.256  1.00 20.00    -0.014 C 
HETATM    8  C3  UNL     1     -26.377  18.213  11.770  1.00 20.00    -0.034 C 
HETATM    9  C7  UNL     1     -27.479  19.204  11.598  1.00 20.00     0.036 C 
ENDBRANCH   4   7
TORSDOF 1
ENDMDL
MODEL 5
REMARK VINA RESULT:      -3.9      1.380      1.795
REMARK  1 active torsions:
REMARK  status: ('A' for Active; 'I' for Inactive)
REMARK    1  A    between atoms: C2_2  and  C6_6 
ROOT
HETATM    1  C1  UNL     1     -36.170  13.727  -4.482  1.00 20.00     0.139 C 
HETATM    2  C4  UNL     1     -37.586  14.321  -4.486  1.00 20.00     0.081 C 
HETATM    3  C5  UNL     1     -36.941  15.722  -4.528  1.00 20.00     0.028 C 
HETATM    4  C6  UNL     1     -35.511  15.115  -4.702  1.00 20.00     0.035 C 
HETATM    5  C8  UNL     1     -34.894  15.299  -6.081  1.00 20.00     0.027 C 
HETATM    6  O9  UNL     1     -35.743  12.597  -4.363  1.00 20.00    -0.297 OA
ENDROOT
BRANCH   4   7
HETATM    7  C2  UNL     1     -34.579  15.432  -3.592  1.00 20.00    -0.014 C 
HETATM    8  C3  UNL     1     -33.860  16.562  -3.523  1.00 20.00    -0.034 C 
HETATM    9  C7  UNL     1     -32.922  16.881  -2.406  1.00 20.00     0.036 C 
ENDBRANCH   4   7
TORSDOF 1
ENDMDL
MODEL 6
REMARK VINA RESULT:      -3.8     16.831     18.988
REMARK  1 active torsions:
REMARK  status: ('A' for Active; 'I' for Inactive)
REMARK    1  A    between atoms: C2_2  and  C6_6 
ROOT
HETATM    1  C1  UNL     1     -22.171  17.687  10.820  1.00 20.00     0.139 C 
HETATM    2  C4  UNL     1     -22.158  17.985  12.327  1.00 20.00     0.081 C 
HETATM    3  C5  UNL     1     -23.699  18.055  12.271  1.00 20.00     0.028 C 
HETATM    4  C6  UNL     1     -23.718  17.579  10.783  1.00 20.00     0.035 C 
HETATM    5  C8  UNL     1     -24.237  16.165  10.562  1.00 20.00     0.027 C 
HETATM    6  O9  UNL     1     -21.294  17.572   9.990  1.00 20.00    -0.297 OA
ENDROOT
BRANCH   4   7
HETATM    7  C2  UNL     1     -24.289  18.570   9.837  1.00 20.00    -0.014 C 
HETATM    8  C3  UNL     1     -24.700  18.266   8.597  1.00 20.00    -0.034 C 
HETATM    9  C7  UNL     1     -25.274  19.262   7.646  1.00 20.00     0.036 C 
ENDBRANCH   4   7
TORSDOF 1
ENDMDL
MODEL 7
REMARK VINA RESULT:      -3.8      2.315      4.182
REMARK  1 active torsions:
REMARK  status: ('A' for Active; 'I' for Inactive)
REMARK    1  A    between atoms: C2_2  and  C6_6 
ROOT
HETATM    1  C1  UNL     1     -33.526  16.706  -3.295  1.00 20.00     0.139 C 
HETATM    2  C4  UNL     1     -34.444  16.277  -2.141  1.00 20.00     0.081 C 
HETATM    3  C5  UNL     1     -34.953  15.133  -3.044  1.00 20.00     0.028 C 
HETATM    4  C6  UNL     1     -33.895  15.462  -4.146  1.00 20.00     0.035 C 
HETATM    5  C8  UNL     1     -32.768  14.448  -4.285  1.00 20.00     0.027 C 
HETATM    6  O9  UNL     1     -32.788  17.655  -3.459  1.00 20.00    -0.297 OA
ENDROOT
BRANCH   4   7
HETATM    7  C2  UNL     1     -34.481  15.873  -5.445  1.00 20.00    -0.014 C 
HETATM    8  C3  UNL     1     -34.231  15.251  -6.606  1.00 20.00    -0.034 C 
HETATM    9  C7  UNL     1     -34.821  15.663  -7.913  1.00 20.00     0.036 C 
ENDBRANCH   4   7
TORSDOF 1
ENDMDL
MODEL 8
REMARK VINA RESULT:      -3.7     11.594     12.988
REMARK  1 active torsions:
REMARK  status: ('A' for Active; 'I' for Inactive)
REMARK    1  A    between atoms: C2_2  and  C6_6 
ROOT
HETATM    1  C1  UNL     1     -42.940   7.157  -0.937  1.00 20.00     0.139 C 
HETATM    2  C4  UNL     1     -43.203   7.384   0.559  1.00 20.00     0.081 C 
HETATM    3  C5  UNL     1     -42.805   5.912   0.797  1.00 20.00     0.028 C 
HETATM    4  C6  UNL     1     -42.371   5.734  -0.693  1.00 20.00     0.035 C 
HETATM    5  C8  UNL     1     -40.871   5.617  -0.920  1.00 20.00     0.027 C 
HETATM    6  O9  UNL     1     -43.108   7.844  -1.923  1.00 20.00    -0.297 OA
ENDROOT
BRANCH   4   7
HETATM    7  C2  UNL     1     -43.160   4.721  -1.438  1.00 20.00    -0.014 C 
HETATM    8  C3  UNL     1     -42.624   3.844  -2.298  1.00 20.00    -0.034 C 
HETATM    9  C7  UNL     1     -43.416   2.825  -3.047  1.00 20.00     0.036 C 
ENDBRANCH   4   7
TORSDOF 1
ENDMDL
MODEL 9
REMARK VINA RESULT:      -3.7      2.422      3.122
REMARK  1 active torsions:
REMARK  status: ('A' for Active; 'I' for Inactive)
REMARK    1  A    between atoms: C2_2  and  C6_6 
ROOT
HETATM    1  C1  UNL     1     -33.505  16.435  -3.587  1.00 20.00     0.139 C 
HETATM    2  C4  UNL     1     -33.353  15.043  -4.218  1.00 20.00     0.081 C 
HETATM    3  C5  UNL     1     -34.679  14.647  -3.534  1.00 20.00     0.028 C 
HETATM    4  C6  UNL     1     -34.921  16.110  -3.040  1.00 20.00     0.035 C 
HETATM    5  C8  UNL     1     -36.046  16.853  -3.746  1.00 20.00     0.027 C 
HETATM    6  O9  UNL     1     -32.788  17.412  -3.548  1.00 20.00    -0.297 OA
ENDROOT
BRANCH   4   7
HETATM    7  C2  UNL     1     -34.956  16.253  -1.564  1.00 20.00    -0.014 C 
HETATM    8  C3  UNL     1     -35.646  17.208  -0.924  1.00 20.00    -0.034 C 
HETATM    9  C7  UNL     1     -35.682  17.352   0.561  1.00 20.00     0.036 C 
ENDBRANCH   4   7
TORSDOF 1
ENDMDL
