MODEL 1
REMARK VINA RESULT:      -5.4      0.000      0.000
REMARK  0 active torsions:
REMARK  status: ('A' for Active; 'I' for Inactive)
ROOT
HETATM    1  C1  UNL     1     -23.719  18.615   8.135  1.00 20.00     0.102 C 
HETATM    2  C2  UNL     1     -25.047  18.404  10.176  1.00 20.00     0.050 A 
HETATM    3  C3  UNL     1     -23.990  17.830  12.272  1.00 20.00     0.069 A 
HETATM    4  C4  UNL     1     -23.808  18.349   9.536  1.00 20.00     0.087 A 
HETATM    5  C5  UNL     1     -22.752  17.774  11.632  1.00 20.00     0.158 A 
HETATM    6  C6  UNL     1     -22.661  18.034  10.264  1.00 20.00     0.175 A 
HETATM    7  C7  UNL     1     -25.137  18.144  11.544  1.00 20.00     0.038 A 
HETATM    8  N8  UNL     1     -23.646  18.832   6.997  1.00 20.00    -0.191 NA
HETATM    9  F9  UNL     1     -21.651  17.472  12.331  1.00 20.00    -0.203 F 
HETATM   10  F10 UNL     1     -21.463  17.978   9.664  1.00 20.00    -0.201 F 
HETATM   11 CL11 UNL     1     -26.667  18.211  12.332  1.00 20.00    -0.084 Cl
ENDROOT
TORSDOF 0
ENDMDL
MODEL 2
REMARK VINA RESULT:      -4.9     18.259     19.423
REMARK  0 active torsions:
REMARK  status: ('A' for Active; 'I' for Inactive)
ROOT
HETATM    1  C1  UNL     1     -37.584  14.474  -4.315  1.00 20.00     0.102 C 
HETATM    2  C2  UNL     1     -35.694  15.552  -3.202  1.00 20.00     0.050 A 
HETATM    3  C3  UNL     1     -33.532  15.649  -4.277  1.00 20.00     0.069 A 
HETATM    4  C4  UNL     1     -36.212  14.870  -4.305  1.00 20.00     0.087 A 
HETATM    5  C5  UNL     1     -34.049  14.967  -5.379  1.00 20.00     0.158 A 
HETATM    6  C6  UNL     1     -35.389  14.579  -5.392  1.00 20.00     0.175 A 
HETATM    7  C7  UNL     1     -34.354  15.940  -3.189  1.00 20.00     0.038 A 
HETATM    8  N8  UNL     1     -38.699  14.152  -4.324  1.00 20.00    -0.191 NA
HETATM    9  F9  UNL     1     -33.260  14.688  -6.423  1.00 20.00    -0.203 F 
HETATM   10  F10 UNL     1     -35.872  13.925  -6.459  1.00 20.00    -0.201 F 
HETATM   11 CL11 UNL     1     -33.716  16.780  -1.827  1.00 20.00    -0.084 Cl
ENDROOT
TORSDOF 0
ENDMDL
MODEL 3
REMARK VINA RESULT:      -4.8     17.095     18.237
REMARK  0 active torsions:
REMARK  status: ('A' for Active; 'I' for Inactive)
ROOT
HETATM    1  C1  UNL     1     -36.926  14.506  -4.054  1.00 20.00     0.102 C 
HETATM    2  C2  UNL     1     -35.660  15.964  -2.556  1.00 20.00     0.050 A 
HETATM    3  C3  UNL     1     -33.264  16.178  -2.789  1.00 20.00     0.069 A 
HETATM    4  C4  UNL     1     -35.685  15.071  -3.628  1.00 20.00     0.087 A 
HETATM    5  C5  UNL     1     -33.289  15.285  -3.861  1.00 20.00     0.158 A 
HETATM    6  C6  UNL     1     -34.500  14.732  -4.280  1.00 20.00     0.175 A 
HETATM    7  C7  UNL     1     -34.449  16.517  -2.137  1.00 20.00     0.038 A 
HETATM    8  N8  UNL     1     -37.934  14.048  -4.400  1.00 20.00    -0.191 NA
HETATM    9  F9  UNL     1     -32.152  14.960  -4.487  1.00 20.00    -0.203 F 
HETATM   10  F10 UNL     1     -34.508  13.876  -5.312  1.00 20.00    -0.201 F 
HETATM   11 CL11 UNL     1     -34.419  17.618  -0.813  1.00 20.00    -0.084 Cl
ENDROOT
TORSDOF 0
ENDMDL
MODEL 4
REMARK VINA RESULT:      -4.6     15.811     16.664
REMARK  0 active torsions:
REMARK  status: ('A' for Active; 'I' for Inactive)
ROOT
HETATM    1  C1  UNL     1     -34.772  14.599  -3.588  1.00 20.00     0.102 C 
HETATM    2  C2  UNL     1     -35.468  16.121  -1.807  1.00 20.00     0.050 A 
HETATM    3  C3  UNL     1     -33.989  17.872  -1.042  1.00 20.00     0.069 A 
HETATM    4  C4  UNL     1     -34.504  15.708  -2.727  1.00 20.00     0.087 A 
HETATM    5  C5  UNL     1     -33.024  17.458  -1.962  1.00 20.00     0.158 A 
HETATM    6  C6  UNL     1     -33.283  16.376  -2.804  1.00 20.00     0.175 A 
HETATM    7  C7  UNL     1     -35.210  17.203  -0.965  1.00 20.00     0.038 A 
HETATM    8  N8  UNL     1     -34.990  13.699  -4.287  1.00 20.00    -0.191 NA
HETATM    9  F9  UNL     1     -31.852  18.100  -2.037  1.00 20.00    -0.203 F 
HETATM   10  F10 UNL     1     -32.347  15.991  -3.684  1.00 20.00    -0.201 F 
HETATM   11 CL11 UNL     1     -36.400  17.712   0.171  1.00 20.00    -0.084 Cl
ENDROOT
TORSDOF 0
ENDMDL
MODEL 5
REMARK VINA RESULT:      -4.5     16.896     17.826
REMARK  0 active torsions:
REMARK  status: ('A' for Active; 'I' for Inactive)
ROOT
HETATM    1  C1  UNL     1     -35.621  13.883  -4.191  1.00 20.00     0.102 C 
HETATM    2  C2  UNL     1     -36.282  15.910  -2.997  1.00 20.00     0.050 A 
HETATM    3  C3  UNL     1     -34.610  17.432  -2.145  1.00 20.00     0.069 A 
HETATM    4  C4  UNL     1     -35.276  15.084  -3.498  1.00 20.00     0.087 A 
HETATM    5  C5  UNL     1     -33.603  16.605  -2.645  1.00 20.00     0.158 A 
HETATM    6  C6  UNL     1     -33.937  15.432  -3.322  1.00 20.00     0.175 A 
HETATM    7  C7  UNL     1     -35.949  17.084  -2.321  1.00 20.00     0.038 A 
HETATM    8  N8  UNL     1     -35.901  12.907  -4.753  1.00 20.00    -0.191 NA
HETATM    9  F9  UNL     1     -32.318  16.940  -2.477  1.00 20.00    -0.203 F 
HETATM   10  F10 UNL     1     -32.958  14.648  -3.799  1.00 20.00    -0.201 F 
HETATM   11 CL11 UNL     1     -37.192  18.102  -1.701  1.00 20.00    -0.084 Cl
ENDROOT
TORSDOF 0
ENDMDL
MODEL 6
REMARK VINA RESULT:      -4.5     17.470     18.589
REMARK  0 active torsions:
REMARK  status: ('A' for Active; 'I' for Inactive)
ROOT
HETATM    1  C1  UNL     1     -37.160  14.503  -4.130  1.00 20.00     0.102 C 
HETATM    2  C2  UNL     1     -34.718  14.446  -4.198  1.00 20.00     0.050 A 
HETATM    3  C3  UNL     1     -33.421  16.191  -3.143  1.00 20.00     0.069 A 
HETATM    4  C4  UNL     1     -35.895  15.076  -3.794  1.00 20.00     0.087 A 
HETATM    5  C5  UNL     1     -34.599  16.821  -2.739  1.00 20.00     0.158 A 
HETATM    6  C6  UNL     1     -35.835  16.263  -3.065  1.00 20.00     0.175 A 
HETATM    7  C7  UNL     1     -33.481  15.004  -3.872  1.00 20.00     0.038 A 
HETATM    8  N8  UNL     1     -38.187  14.036  -4.402  1.00 20.00    -0.191 NA
HETATM    9  F9  UNL     1     -34.541  17.960  -2.038  1.00 20.00    -0.203 F 
HETATM   10  F10 UNL     1     -36.958  16.880  -2.669  1.00 20.00    -0.201 F 
HETATM   11 CL11 UNL     1     -32.028  14.226  -4.372  1.00 20.00    -0.084 Cl
ENDROOT
TORSDOF 0
ENDMDL
MODEL 7
REMARK VINA RESULT:      -4.5     16.918     17.339
REMARK  0 active torsions:
REMARK  status: ('A' for Active; 'I' for Inactive)
ROOT
HETATM    1  C1  UNL     1     -32.557   7.283   1.916  1.00 20.00     0.102 C 
HETATM    2  C2  UNL     1     -33.455   7.103   4.181  1.00 20.00     0.050 A 
HETATM    3  C3  UNL     1     -34.335   5.002   4.988  1.00 20.00     0.069 A 
HETATM    4  C4  UNL     1     -33.159   6.508   2.954  1.00 20.00     0.087 A 
HETATM    5  C5  UNL     1     -34.039   4.407   3.761  1.00 20.00     0.158 A 
HETATM    6  C6  UNL     1     -33.450   5.161   2.745  1.00 20.00     0.175 A 
HETATM    7  C7  UNL     1     -34.043   6.350   5.198  1.00 20.00     0.038 A 
HETATM    8  N8  UNL     1     -32.067   7.912   1.072  1.00 20.00    -0.191 NA
HETATM    9  F9  UNL     1     -34.318   3.114   3.560  1.00 20.00    -0.203 F 
HETATM   10  F10 UNL     1     -33.171   4.575   1.572  1.00 20.00    -0.201 F 
HETATM   11 CL11 UNL     1     -34.411   7.085   6.711  1.00 20.00    -0.084 Cl
ENDROOT
TORSDOF 0
ENDMDL
MODEL 8
REMARK VINA RESULT:      -4.5     18.395     19.553
REMARK  0 active torsions:
REMARK  status: ('A' for Active; 'I' for Inactive)
ROOT
HETATM    1  C1  UNL     1     -37.366  14.402  -4.426  1.00 20.00     0.102 C 
HETATM    2  C2  UNL     1     -35.534  14.704  -6.016  1.00 20.00     0.050 A 
HETATM    3  C3  UNL     1     -33.350  15.398  -5.252  1.00 20.00     0.069 A 
HETATM    4  C4  UNL     1     -36.005  14.740  -4.703  1.00 20.00     0.087 A 
HETATM    5  C5  UNL     1     -33.821  15.434  -3.939  1.00 20.00     0.158 A 
HETATM    6  C6  UNL     1     -35.148  15.105  -3.665  1.00 20.00     0.175 A 
HETATM    7  C7  UNL     1     -34.207  15.033  -6.290  1.00 20.00     0.038 A 
HETATM    8  N8  UNL     1     -38.470  14.128  -4.201  1.00 20.00    -0.191 NA
HETATM    9  F9  UNL     1     -32.998  15.784  -2.943  1.00 20.00    -0.203 F 
HETATM   10  F10 UNL     1     -35.586  15.143  -2.398  1.00 20.00    -0.201 F 
HETATM   11 CL11 UNL     1     -33.627  14.991  -7.911  1.00 20.00    -0.084 Cl
ENDROOT
TORSDOF 0
ENDMDL
MODEL 9
REMARK VINA RESULT:      -4.5     17.337     18.254
REMARK  0 active torsions:
REMARK  status: ('A' for Active; 'I' for Inactive)
ROOT
HETATM    1  C1  UNL     1     -35.423  13.923  -4.194  1.00 20.00     0.102 C 
HETATM    2  C2  UNL     1     -35.056  15.596  -2.451  1.00 20.00     0.050 A 
HETATM    3  C3  UNL     1     -34.106  17.749  -3.000  1.00 20.00     0.069 A 
HETATM    4  C4  UNL     1     -34.977  15.219  -3.792  1.00 20.00     0.087 A 
HETATM    5  C5  UNL     1     -34.027  17.372  -4.341  1.00 20.00     0.158 A 
HETATM    6  C6  UNL     1     -34.462  16.107  -4.737  1.00 20.00     0.175 A 
HETATM    7  C7  UNL     1     -34.620  16.861  -2.056  1.00 20.00     0.038 A 
HETATM    8  N8  UNL     1     -35.787  12.870  -4.520  1.00 20.00    -0.191 NA
HETATM    9  F9  UNL     1     -33.534  18.224  -5.248  1.00 20.00    -0.203 F 
HETATM   10  F10 UNL     1     -34.381  15.759  -6.029  1.00 20.00    -0.201 F 
HETATM   11 CL11 UNL     1     -34.717  17.325  -0.401  1.00 20.00    -0.084 Cl
ENDROOT
TORSDOF 0
ENDMDL
