MODEL 1
REMARK VINA RESULT:      -5.7      0.000      0.000
REMARK  5 active torsions:
REMARK  status: ('A' for Active; 'I' for Inactive)
REMARK    1  A    between atoms: C3_3  and  C7_7 
REMARK    2  A    between atoms: C4_4  and  C8_8 
REMARK    3  A    between atoms: C7_7  and  C9_9 
REMARK    4  A    between atoms: C8_8  and  C10_10 
REMARK    5  A    between atoms: C9_9  and  C10_10 
ROOT
HETATM    1  C9  UNL     1     -33.288   5.048   2.285  1.00 20.00     0.004 C 
ENDROOT
BRANCH   1   2
HETATM    2  C7  UNL     1     -32.443   6.204   2.823  1.00 20.00     0.026 C 
BRANCH   2   3
HETATM    3  C3  UNL     1     -32.871   7.514   2.227  1.00 20.00    -0.031 C 
HETATM    4  C1  UNL     1     -32.503   7.934   1.008  1.00 20.00    -0.035 C 
HETATM    5  C5  UNL     1     -32.923   9.238   0.416  1.00 20.00     0.035 C 
ENDBRANCH   2   3
ENDBRANCH   1   2
BRANCH   1   6
HETATM    6  C10 UNL     1     -34.002   4.307   3.418  1.00 20.00     0.004 C 
BRANCH   6   7
HETATM    7  C8  UNL     1     -35.051   5.195   4.088  1.00 20.00     0.026 C 
BRANCH   7   8
HETATM    8  C4  UNL     1     -34.993   5.075   5.583  1.00 20.00    -0.031 C 
HETATM    9  C2  UNL     1     -34.380   5.963   6.379  1.00 20.00    -0.035 C 
HETATM   10  C6  UNL     1     -33.677   7.182   5.879  1.00 20.00     0.035 C 
ENDBRANCH   7   8
ENDBRANCH   6   7
ENDBRANCH   1   6
TORSDOF 5
ENDMDL
MODEL 2
REMARK VINA RESULT:      -4.5      0.913      2.310
REMARK  5 active torsions:
REMARK  status: ('A' for Active; 'I' for Inactive)
REMARK    1  A    between atoms: C3_3  and  C7_7 
REMARK    2  A    between atoms: C4_4  and  C8_8 
REMARK    3  A    between atoms: C7_7  and  C9_9 
REMARK    4  A    between atoms: C8_8  and  C10_10 
REMARK    5  A    between atoms: C9_9  and  C10_10 
ROOT
HETATM    1  C9  UNL     1     -33.571   7.398   4.125  1.00 20.00     0.004 C 
ENDROOT
BRANCH   1   2
HETATM    2  C7  UNL     1     -32.274   7.183   3.341  1.00 20.00     0.026 C 
BRANCH   2   3
HETATM    3  C3  UNL     1     -32.494   7.362   1.867  1.00 20.00    -0.031 C 
HETATM    4  C1  UNL     1     -32.867   8.520   1.304  1.00 20.00    -0.035 C 
HETATM    5  C5  UNL     1     -33.091   8.698  -0.161  1.00 20.00     0.035 C 
ENDBRANCH   2   3
ENDBRANCH   1   2
BRANCH   1   6
HETATM    6  C10 UNL     1     -33.371   7.123   5.617  1.00 20.00     0.004 C 
BRANCH   6   7
HETATM    7  C8  UNL     1     -34.108   5.855   6.051  1.00 20.00     0.026 C 
BRANCH   7   8
HETATM    8  C4  UNL     1     -35.222   5.520   5.103  1.00 20.00    -0.031 C 
HETATM    9  C2  UNL     1     -35.109   4.632   4.104  1.00 20.00    -0.035 C 
HETATM   10  C6  UNL     1     -33.862   3.866   3.810  1.00 20.00     0.035 C 
ENDBRANCH   7   8
ENDBRANCH   6   7
ENDBRANCH   1   6
TORSDOF 5
ENDMDL
MODEL 3
REMARK VINA RESULT:      -4.1      0.921      4.968
REMARK  5 active torsions:
REMARK  status: ('A' for Active; 'I' for Inactive)
REMARK    1  A    between atoms: C3_3  and  C7_7 
REMARK    2  A    between atoms: C4_4  and  C8_8 
REMARK    3  A    between atoms: C7_7  and  C9_9 
REMARK    4  A    between atoms: C8_8  and  C10_10 
REMARK    5  A    between atoms: C9_9  and  C10_10 
ROOT
HETATM    1  C9  UNL     1     -33.070   5.130   2.395  1.00 20.00     0.004 C 
ENDROOT
BRANCH   1   2
HETATM    2  C7  UNL     1     -34.035   4.197   3.131  1.00 20.00     0.026 C 
BRANCH   2   3
HETATM    3  C3  UNL     1     -34.780   4.927   4.211  1.00 20.00    -0.031 C 
HETATM    4  C1  UNL     1     -34.427   4.907   5.504  1.00 20.00    -0.035 C 
HETATM    5  C5  UNL     1     -35.170   5.628   6.579  1.00 20.00     0.035 C 
ENDBRANCH   2   3
ENDBRANCH   1   2
BRANCH   1   6
HETATM    6  C10 UNL     1     -33.069   6.529   3.015  1.00 20.00     0.004 C 
BRANCH   6   7
HETATM    7  C8  UNL     1     -32.038   7.435   2.338  1.00 20.00     0.026 C 
BRANCH   7   8
HETATM    8  C4  UNL     1     -32.288   7.537   0.862  1.00 20.00    -0.031 C 
HETATM    9  C2  UNL     1     -32.822   8.614   0.268  1.00 20.00    -0.035 C 
HETATM   10  C6  UNL     1     -33.236   9.847   1.001  1.00 20.00     0.035 C 
ENDBRANCH   7   8
ENDBRANCH   6   7
ENDBRANCH   1   6
TORSDOF 5
ENDMDL
MODEL 4
REMARK VINA RESULT:      -4.0     11.161     12.241
REMARK  5 active torsions:
REMARK  status: ('A' for Active; 'I' for Inactive)
REMARK    1  A    between atoms: C3_3  and  C7_7 
REMARK    2  A    between atoms: C4_4  and  C8_8 
REMARK    3  A    between atoms: C7_7  and  C9_9 
REMARK    4  A    between atoms: C8_8  and  C10_10 
REMARK    5  A    between atoms: C9_9  and  C10_10 
ROOT
HETATM    1  C9  UNL     1     -33.137  16.645  -2.833  1.00 20.00     0.004 C 
ENDROOT
BRANCH   1   2
HETATM    2  C7  UNL     1     -34.421  16.338  -2.059  1.00 20.00     0.026 C 
BRANCH   2   3
HETATM    3  C3  UNL     1     -35.368  15.512  -2.881  1.00 20.00    -0.031 C 
HETATM    4  C1  UNL     1     -34.980  14.510  -3.683  1.00 20.00    -0.035 C 
HETATM    5  C5  UNL     1     -35.920  13.691  -4.505  1.00 20.00     0.035 C 
ENDBRANCH   2   3
ENDBRANCH   1   2
BRANCH   1   6
HETATM    6  C10 UNL     1     -32.566  18.009  -2.444  1.00 20.00     0.004 C 
BRANCH   6   7
HETATM    7  C8  UNL     1     -32.540  18.187  -0.925  1.00 20.00     0.026 C 
BRANCH   7   8
HETATM    8  C4  UNL     1     -31.133  18.298  -0.413  1.00 20.00    -0.031 C 
HETATM    9  C2  UNL     1     -30.812  18.319   0.888  1.00 20.00    -0.035 C 
HETATM   10  C6  UNL     1     -31.813  18.236   1.993  1.00 20.00     0.035 C 
ENDBRANCH   7   8
ENDBRANCH   6   7
ENDBRANCH   1   6
TORSDOF 5
ENDMDL
MODEL 5
REMARK VINA RESULT:      -4.0     10.865     12.104
REMARK  5 active torsions:
REMARK  status: ('A' for Active; 'I' for Inactive)
REMARK    1  A    between atoms: C3_3  and  C7_7 
REMARK    2  A    between atoms: C4_4  and  C8_8 
REMARK    3  A    between atoms: C7_7  and  C9_9 
REMARK    4  A    between atoms: C8_8  and  C10_10 
REMARK    5  A    between atoms: C9_9  and  C10_10 
ROOT
HETATM    1  C9  UNL     1     -33.652  14.626  -4.434  1.00 20.00     0.004 C 
ENDROOT
BRANCH   1   2
HETATM    2  C7  UNL     1     -33.350  15.837  -3.549  1.00 20.00     0.026 C 
BRANCH   2   3
HETATM    3  C3  UNL     1     -34.315  15.928  -2.403  1.00 20.00    -0.031 C 
HETATM    4  C1  UNL     1     -34.421  16.995  -1.599  1.00 20.00    -0.035 C 
HETATM    5  C5  UNL     1     -35.376  17.084  -0.455  1.00 20.00     0.035 C 
ENDBRANCH   2   3
ENDBRANCH   1   2
BRANCH   1   6
HETATM    6  C10 UNL     1     -34.866  13.850  -3.919  1.00 20.00     0.004 C 
BRANCH   6   7
HETATM    7  C8  UNL     1     -36.030  13.923  -4.908  1.00 20.00     0.026 C 
BRANCH   7   8
HETATM    8  C4  UNL     1     -37.255  14.508  -4.267  1.00 20.00    -0.031 C 
HETATM    9  C2  UNL     1     -37.579  15.808  -4.328  1.00 20.00    -0.035 C 
HETATM   10  C6  UNL     1     -36.763  16.836  -5.039  1.00 20.00     0.035 C 
ENDBRANCH   7   8
ENDBRANCH   6   7
ENDBRANCH   1   6
TORSDOF 5
ENDMDL
MODEL 6
REMARK VINA RESULT:      -4.0      0.723      4.382
REMARK  5 active torsions:
REMARK  status: ('A' for Active; 'I' for Inactive)
REMARK    1  A    between atoms: C3_3  and  C7_7 
REMARK    2  A    between atoms: C4_4  and  C8_8 
REMARK    3  A    between atoms: C7_7  and  C9_9 
REMARK    4  A    between atoms: C8_8  and  C10_10 
REMARK    5  A    between atoms: C9_9  and  C10_10 
ROOT
HETATM    1  C9  UNL     1     -33.883   4.034   3.624  1.00 20.00     0.004 C 
ENDROOT
BRANCH   1   2
HETATM    2  C7  UNL     1     -35.055   4.928   4.036  1.00 20.00     0.026 C 
BRANCH   2   3
HETATM    3  C3  UNL     1     -34.766   5.642   5.325  1.00 20.00    -0.031 C 
HETATM    4  C1  UNL     1     -34.006   6.743   5.414  1.00 20.00    -0.035 C 
HETATM    5  C5  UNL     1     -33.713   7.450   6.695  1.00 20.00     0.035 C 
ENDBRANCH   2   3
ENDBRANCH   1   2
BRANCH   1   6
HETATM    6  C10 UNL     1     -33.121   4.628   2.437  1.00 20.00     0.004 C 
BRANCH   6   7
HETATM    7  C8  UNL     1     -33.596   6.049   2.128  1.00 20.00     0.026 C 
BRANCH   7   8
HETATM    8  C4  UNL     1     -32.482   7.043   2.286  1.00 20.00    -0.031 C 
HETATM    9  C2  UNL     1     -32.279   8.073   1.454  1.00 20.00    -0.035 C 
HETATM   10  C6  UNL     1     -33.133   8.362   0.264  1.00 20.00     0.035 C 
ENDBRANCH   7   8
ENDBRANCH   6   7
ENDBRANCH   1   6
TORSDOF 5
ENDMDL
MODEL 7
REMARK VINA RESULT:      -4.0     11.266     12.424
REMARK  5 active torsions:
REMARK  status: ('A' for Active; 'I' for Inactive)
REMARK    1  A    between atoms: C3_3  and  C7_7 
REMARK    2  A    between atoms: C4_4  and  C8_8 
REMARK    3  A    between atoms: C7_7  and  C9_9 
REMARK    4  A    between atoms: C8_8  and  C10_10 
REMARK    5  A    between atoms: C9_9  and  C10_10 
ROOT
HETATM    1  C9  UNL     1     -32.981  17.068  -2.534  1.00 20.00     0.004 C 
ENDROOT
BRANCH   1   2
HETATM    2  C7  UNL     1     -32.454  18.492  -2.347  1.00 20.00     0.026 C 
BRANCH   2   3
HETATM    3  C3  UNL     1     -32.106  18.759  -0.911  1.00 20.00    -0.031 C 
HETATM    4  C1  UNL     1     -31.041  18.230  -0.291  1.00 20.00    -0.035 C 
HETATM    5  C5  UNL     1     -30.697  18.490   1.138  1.00 20.00     0.035 C 
ENDBRANCH   2   3
ENDBRANCH   1   2
BRANCH   1   6
HETATM    6  C10 UNL     1     -34.240  16.826  -1.699  1.00 20.00     0.004 C 
BRANCH   6   7
HETATM    7  C8  UNL     1     -35.213  15.891  -2.420  1.00 20.00     0.026 C 
BRANCH   7   8
HETATM    8  C4  UNL     1     -34.490  14.978  -3.367  1.00 20.00    -0.031 C 
HETATM    9  C2  UNL     1     -35.107  14.170  -4.241  1.00 20.00    -0.035 C 
HETATM   10  C6  UNL     1     -36.591  14.077  -4.382  1.00 20.00     0.035 C 
ENDBRANCH   7   8
ENDBRANCH   6   7
ENDBRANCH   1   6
TORSDOF 5
ENDMDL
MODEL 8
REMARK VINA RESULT:      -4.0     10.929     12.546
REMARK  5 active torsions:
REMARK  status: ('A' for Active; 'I' for Inactive)
REMARK    1  A    between atoms: C3_3  and  C7_7 
REMARK    2  A    between atoms: C4_4  and  C8_8 
REMARK    3  A    between atoms: C7_7  and  C9_9 
REMARK    4  A    between atoms: C8_8  and  C10_10 
REMARK    5  A    between atoms: C9_9  and  C10_10 
ROOT
HETATM    1  C9  UNL     1     -32.280  18.082  -1.699  1.00 20.00     0.004 C 
ENDROOT
BRANCH   1   2
HETATM    2  C7  UNL     1     -31.404  18.472  -0.507  1.00 20.00     0.026 C 
BRANCH   2   3
HETATM    3  C3  UNL     1     -32.197  18.486   0.769  1.00 20.00    -0.031 C 
HETATM    4  C1  UNL     1     -31.700  18.122   1.959  1.00 20.00    -0.035 C 
HETATM    5  C5  UNL     1     -32.488  18.129   3.227  1.00 20.00     0.035 C 
ENDBRANCH   2   3
ENDBRANCH   1   2
BRANCH   1   6
HETATM    6  C10 UNL     1     -33.684  17.675  -1.249  1.00 20.00     0.004 C 
BRANCH   6   7
HETATM    7  C8  UNL     1     -34.245  16.555  -2.126  1.00 20.00     0.026 C 
BRANCH   7   8
HETATM    8  C4  UNL     1     -33.267  16.157  -3.193  1.00 20.00    -0.031 C 
HETATM    9  C2  UNL     1     -33.427  15.091  -3.991  1.00 20.00    -0.035 C 
HETATM   10  C6  UNL     1     -34.597  14.167  -3.919  1.00 20.00     0.035 C 
ENDBRANCH   7   8
ENDBRANCH   6   7
ENDBRANCH   1   6
TORSDOF 5
ENDMDL
MODEL 9
REMARK VINA RESULT:      -4.0     14.834     16.239
REMARK  5 active torsions:
REMARK  status: ('A' for Active; 'I' for Inactive)
REMARK    1  A    between atoms: C3_3  and  C7_7 
REMARK    2  A    between atoms: C4_4  and  C8_8 
REMARK    3  A    between atoms: C7_7  and  C9_9 
REMARK    4  A    between atoms: C8_8  and  C10_10 
REMARK    5  A    between atoms: C9_9  and  C10_10 
ROOT
HETATM    1  C9  UNL     1     -23.234  17.927   8.692  1.00 20.00     0.004 C 
ENDROOT
BRANCH   1   2
HETATM    2  C7  UNL     1     -23.970  19.227   9.026  1.00 20.00     0.026 C 
BRANCH   2   3
HETATM    3  C3  UNL     1     -25.328  19.263   8.386  1.00 20.00    -0.031 C 
HETATM    4  C1  UNL     1     -25.563  18.904   7.116  1.00 20.00    -0.035 C 
HETATM    5  C5  UNL     1     -26.912  18.945   6.477  1.00 20.00     0.035 C 
ENDBRANCH   2   3
ENDBRANCH   1   2
BRANCH   1   6
HETATM    6  C10 UNL     1     -22.294  17.513   9.826  1.00 20.00     0.004 C 
BRANCH   6   7
HETATM    7  C8  UNL     1     -22.961  17.689  11.192  1.00 20.00     0.026 C 
BRANCH   7   8
HETATM    8  C4  UNL     1     -23.879  16.543  11.502  1.00 20.00    -0.031 C 
HETATM    9  C2  UNL     1     -25.153  16.693  11.891  1.00 20.00    -0.035 C 
HETATM   10  C6  UNL     1     -25.819  18.018  12.066  1.00 20.00     0.035 C 
ENDBRANCH   7   8
ENDBRANCH   6   7
ENDBRANCH   1   6
TORSDOF 5
ENDMDL
