MODEL 1
REMARK VINA RESULT:      -5.2      0.000      0.000
REMARK  1 active torsions:
REMARK  status: ('A' for Active; 'I' for Inactive)
REMARK    1  A    between atoms: N9_9  and  O10_10 
ROOT
HETATM    1  C1  UNL     1     -33.053   6.052   2.836  1.00 20.00     0.044 C 
HETATM    2  C2  UNL     1     -33.315   4.624   2.391  1.00 20.00     0.058 C 
HETATM    3  C3  UNL     1     -34.331   4.140   3.450  1.00 20.00     0.011 C 
HETATM    4  C4  UNL     1     -34.292   6.600   6.364  1.00 20.00     0.001 C 
HETATM    5  C5  UNL     1     -33.454   7.220   5.218  1.00 20.00     0.011 C 
HETATM    6  C6  UNL     1     -34.862   5.264   5.827  1.00 20.00     0.005 C 
HETATM    7  C7  UNL     1     -33.885   6.411   4.023  1.00 20.00     0.040 C 
HETATM    8  C8  UNL     1     -33.973   5.012   4.635  1.00 20.00    -0.004 C 
HETATM    9  N9  UNL     1     -32.241   6.846   2.231  1.00 20.00    -0.145 NA
ENDROOT
BRANCH   9  10
HETATM   10  O10 UNL     1     -32.241   8.072   2.900  1.00 20.00    -0.266 OA
HETATM   11  H23 UNL     1     -32.279   7.789   3.829  1.00 20.00     0.247 HD
ENDBRANCH   9  10
TORSDOF 1
ENDMDL
MODEL 2
REMARK VINA RESULT:      -5.0     11.721     12.170
REMARK  1 active torsions:
REMARK  status: ('A' for Active; 'I' for Inactive)
REMARK    1  A    between atoms: N9_9  and  O10_10 
ROOT
HETATM    1  C1  UNL     1     -34.163  14.458  -4.216  1.00 20.00     0.044 C 
HETATM    2  C2  UNL     1     -35.587  13.930  -4.222  1.00 20.00     0.058 C 
HETATM    3  C3  UNL     1     -36.362  15.096  -3.569  1.00 20.00     0.011 C 
HETATM    4  C4  UNL     1     -33.848  17.427  -1.899  1.00 20.00     0.001 C 
HETATM    5  C5  UNL     1     -33.048  16.404  -2.743  1.00 20.00     0.011 C 
HETATM    6  C6  UNL     1     -35.348  17.125  -2.138  1.00 20.00     0.005 C 
HETATM    7  C7  UNL     1     -34.100  15.843  -3.662  1.00 20.00     0.040 C 
HETATM    8  C8  UNL     1     -35.290  15.730  -2.709  1.00 20.00    -0.004 C 
HETATM    9  N9  UNL     1     -33.157  13.793  -4.669  1.00 20.00    -0.145 NA
ENDROOT
BRANCH   9  10
HETATM   10  O10 UNL     1     -32.007  14.569  -4.511  1.00 20.00    -0.266 OA
HETATM   11  H23 UNL     1     -32.152  15.270  -5.168  1.00 20.00     0.247 HD
ENDBRANCH   9  10
TORSDOF 1
ENDMDL
MODEL 3
REMARK VINA RESULT:      -5.0     12.119     12.738
REMARK  1 active torsions:
REMARK  status: ('A' for Active; 'I' for Inactive)
REMARK    1  A    between atoms: N9_9  and  O10_10 
ROOT
HETATM    1  C1  UNL     1     -36.186  14.529  -5.062  1.00 20.00     0.044 C 
HETATM    2  C2  UNL     1     -35.479  14.570  -6.405  1.00 20.00     0.058 C 
HETATM    3  C3  UNL     1     -34.031  14.917  -5.994  1.00 20.00     0.011 C 
HETATM    4  C4  UNL     1     -34.070  16.161  -2.389  1.00 20.00     0.001 C 
HETATM    5  C5  UNL     1     -35.478  15.598  -2.704  1.00 20.00     0.011 C 
HETATM    6  C6  UNL     1     -33.202  15.922  -3.649  1.00 20.00     0.005 C 
HETATM    7  C7  UNL     1     -35.231  14.772  -3.939  1.00 20.00     0.040 C 
HETATM    8  C8  UNL     1     -34.255  15.670  -4.700  1.00 20.00    -0.004 C 
HETATM    9  N9  UNL     1     -37.442  14.280  -4.928  1.00 20.00    -0.145 NA
ENDROOT
BRANCH   9  10
HETATM   10  O10 UNL     1     -37.758  14.320  -3.567  1.00 20.00    -0.266 OA
HETATM   11  H23 UNL     1     -36.919  14.623  -3.180  1.00 20.00     0.247 HD
ENDBRANCH   9  10
TORSDOF 1
ENDMDL
MODEL 4
REMARK VINA RESULT:      -4.8     16.149     16.588
REMARK  1 active torsions:
REMARK  status: ('A' for Active; 'I' for Inactive)
REMARK    1  A    between atoms: N9_9  and  O10_10 
ROOT
HETATM    1  C1  UNL     1     -23.055  17.912   8.677  1.00 20.00     0.044 C 
HETATM    2  C2  UNL     1     -22.042  17.407   9.690  1.00 20.00     0.058 C 
HETATM    3  C3  UNL     1     -22.895  17.314  10.975  1.00 20.00     0.011 C 
HETATM    4  C4  UNL     1     -26.125  19.263  10.419  1.00 20.00     0.001 C 
HETATM    5  C5  UNL     1     -25.397  19.166   9.055  1.00 20.00     0.011 C 
HETATM    6  C6  UNL     1     -25.273  18.464  11.437  1.00 20.00     0.005 C 
HETATM    7  C7  UNL     1     -24.409  18.054   9.290  1.00 20.00     0.040 C 
HETATM    8  C8  UNL     1     -23.952  18.365  10.715  1.00 20.00    -0.004 C 
HETATM    9  N9  UNL     1     -22.769  18.149   7.445  1.00 20.00    -0.145 NA
ENDROOT
BRANCH   9  10
HETATM   10  O10 UNL     1     -23.924  18.598   6.801  1.00 20.00    -0.266 OA
HETATM   11  H23 UNL     1     -24.335  17.759   6.529  1.00 20.00     0.247 HD
ENDBRANCH   9  10
TORSDOF 1
ENDMDL
MODEL 5
REMARK VINA RESULT:      -4.8     11.879     12.835
REMARK  1 active torsions:
REMARK  status: ('A' for Active; 'I' for Inactive)
REMARK    1  A    between atoms: N9_9  and  O10_10 
ROOT
HETATM    1  C1  UNL     1     -36.992  14.786  -4.257  1.00 20.00     0.044 C 
HETATM    2  C2  UNL     1     -38.060  15.848  -4.071  1.00 20.00     0.058 C 
HETATM    3  C3  UNL     1     -37.212  17.107  -3.781  1.00 20.00     0.011 C 
HETATM    4  C4  UNL     1     -33.660  15.997  -2.947  1.00 20.00     0.001 C 
HETATM    5  C5  UNL     1     -34.429  14.755  -3.463  1.00 20.00     0.011 C 
HETATM    6  C6  UNL     1     -34.633  17.198  -3.050  1.00 20.00     0.005 C 
HETATM    7  C7  UNL     1     -35.621  15.369  -4.147  1.00 20.00     0.040 C 
HETATM    8  C8  UNL     1     -35.964  16.500  -3.176  1.00 20.00    -0.004 C 
HETATM    9  N9  UNL     1     -37.255  13.552  -4.512  1.00 20.00    -0.145 NA
ENDROOT
BRANCH   9  10
HETATM   10  O10 UNL     1     -36.048  12.856  -4.622  1.00 20.00    -0.266 OA
HETATM   11  H23 UNL     1     -35.847  12.665  -3.690  1.00 20.00     0.247 HD
ENDBRANCH   9  10
TORSDOF 1
ENDMDL
MODEL 6
REMARK VINA RESULT:      -4.7     12.027     13.042
REMARK  1 active torsions:
REMARK  status: ('A' for Active; 'I' for Inactive)
REMARK    1  A    between atoms: N9_9  and  O10_10 
ROOT
HETATM    1  C1  UNL     1     -35.535  14.353  -5.584  1.00 20.00     0.044 C 
HETATM    2  C2  UNL     1     -35.548  15.236  -6.820  1.00 20.00     0.058 C 
HETATM    3  C3  UNL     1     -34.568  16.362  -6.417  1.00 20.00     0.011 C 
HETATM    4  C4  UNL     1     -34.015  16.184  -2.648  1.00 20.00     0.001 C 
HETATM    5  C5  UNL     1     -34.801  14.916  -3.065  1.00 20.00     0.011 C 
HETATM    6  C6  UNL     1     -33.714  16.970  -3.949  1.00 20.00     0.005 C 
HETATM    7  C7  UNL     1     -34.587  14.873  -4.555  1.00 20.00     0.040 C 
HETATM    8  C8  UNL     1     -34.702  16.356  -4.909  1.00 20.00    -0.004 C 
HETATM    9  N9  UNL     1     -36.235  13.278  -5.473  1.00 20.00    -0.145 NA
ENDROOT
BRANCH   9  10
HETATM   10  O10 UNL     1     -35.987  12.716  -4.219  1.00 20.00    -0.266 OA
HETATM   11  H23 UNL     1     -35.018  12.630  -4.231  1.00 20.00     0.247 HD
ENDBRANCH   9  10
TORSDOF 1
ENDMDL
MODEL 7
REMARK VINA RESULT:      -4.6     12.367     12.661
REMARK  1 active torsions:
REMARK  status: ('A' for Active; 'I' for Inactive)
REMARK    1  A    between atoms: N9_9  and  O10_10 
ROOT
HETATM    1  C1  UNL     1     -35.085  14.878  -5.139  1.00 20.00     0.044 C 
HETATM    2  C2  UNL     1     -36.560  14.631  -4.876  1.00 20.00     0.058 C 
HETATM    3  C3  UNL     1     -36.832  15.568  -3.677  1.00 20.00     0.011 C 
HETATM    4  C4  UNL     1     -33.481  16.640  -2.204  1.00 20.00     0.001 C 
HETATM    5  C5  UNL     1     -33.192  15.903  -3.536  1.00 20.00     0.011 C 
HETATM    6  C6  UNL     1     -35.022  16.701  -2.054  1.00 20.00     0.005 C 
HETATM    7  C7  UNL     1     -34.536  15.915  -4.216  1.00 20.00     0.040 C 
HETATM    8  C8  UNL     1     -35.464  15.641  -3.032  1.00 20.00    -0.004 C 
HETATM    9  N9  UNL     1     -34.420  14.283  -6.067  1.00 20.00    -0.145 NA
ENDROOT
BRANCH   9  10
HETATM   10  O10 UNL     1     -33.101  14.742  -6.030  1.00 20.00    -0.266 OA
HETATM   11  H23 UNL     1     -32.993  15.100  -6.927  1.00 20.00     0.247 HD
ENDBRANCH   9  10
TORSDOF 1
ENDMDL
MODEL 8
REMARK VINA RESULT:      -4.6     11.857     12.752
REMARK  1 active torsions:
REMARK  status: ('A' for Active; 'I' for Inactive)
REMARK    1  A    between atoms: N9_9  and  O10_10 
ROOT
HETATM    1  C1  UNL     1     -35.382  14.228  -4.145  1.00 20.00     0.044 C 
HETATM    2  C2  UNL     1     -33.863  14.258  -4.150  1.00 20.00     0.058 C 
HETATM    3  C3  UNL     1     -33.568  15.603  -3.448  1.00 20.00     0.011 C 
HETATM    4  C4  UNL     1     -36.782  17.653  -3.376  1.00 20.00     0.001 C 
HETATM    5  C5  UNL     1     -37.148  16.229  -3.863  1.00 20.00     0.011 C 
HETATM    6  C6  UNL     1     -35.268  17.638  -3.050  1.00 20.00     0.005 C 
HETATM    7  C7  UNL     1     -35.945  15.423  -3.448  1.00 20.00     0.040 C 
HETATM    8  C8  UNL     1     -34.814  16.397  -3.777  1.00 20.00    -0.004 C 
HETATM    9  N9  UNL     1     -36.074  13.269  -4.651  1.00 20.00    -0.145 NA
ENDROOT
BRANCH   9  10
HETATM   10  O10 UNL     1     -37.429  13.560  -4.475  1.00 20.00    -0.266 OA
HETATM   11  H23 UNL     1     -37.716  12.822  -3.911  1.00 20.00     0.247 HD
ENDBRANCH   9  10
TORSDOF 1
ENDMDL
MODEL 9
REMARK VINA RESULT:      -4.5      2.456      3.983
REMARK  1 active torsions:
REMARK  status: ('A' for Active; 'I' for Inactive)
REMARK    1  A    between atoms: N9_9  and  O10_10 
ROOT
HETATM    1  C1  UNL     1     -34.321   6.015   5.286  1.00 20.00     0.044 C 
HETATM    2  C2  UNL     1     -33.612   7.060   6.130  1.00 20.00     0.058 C 
HETATM    3  C3  UNL     1     -32.863   7.882   5.057  1.00 20.00     0.011 C 
HETATM    4  C4  UNL     1     -32.856   5.890   1.804  1.00 20.00     0.001 C 
HETATM    5  C5  UNL     1     -33.807   5.169   2.792  1.00 20.00     0.011 C 
HETATM    6  C6  UNL     1     -32.353   7.167   2.522  1.00 20.00     0.005 C 
HETATM    7  C7  UNL     1     -34.065   6.228   3.830  1.00 20.00     0.040 C 
HETATM    8  C8  UNL     1     -32.676   6.853   3.962  1.00 20.00    -0.004 C 
HETATM    9  N9  UNL     1     -35.071   5.092   5.781  1.00 20.00    -0.145 NA
ENDROOT
BRANCH   9  10
HETATM   10  O10 UNL     1     -35.560   4.310   4.732  1.00 20.00    -0.266 OA
HETATM   11  H23 UNL     1     -36.519   4.357   4.884  1.00 20.00     0.247 HD
ENDBRANCH   9  10
TORSDOF 1
ENDMDL
