MODEL 1
REMARK VINA RESULT:      -5.3      0.000      0.000
REMARK  0 active torsions:
REMARK  status: ('A' for Active; 'I' for Inactive)
ROOT
HETATM    1  C1  UNL     1     -32.688   7.134   3.406  1.00 20.00     0.088 C 
HETATM    2  C2  UNL     1     -34.874   5.483   6.002  1.00 20.00     0.001 C 
HETATM    3  C3  UNL     1     -33.908   6.675   5.765  1.00 20.00     0.010 C 
HETATM    4  C4  UNL     1     -34.973   4.724   4.652  1.00 20.00     0.007 C 
HETATM    5  C5  UNL     1     -33.531   5.312   2.449  1.00 20.00     0.153 C 
HETATM    6  C6  UNL     1     -33.835   6.728   4.264  1.00 20.00     0.031 C 
HETATM    7  C7  UNL     1     -33.759   5.250   3.935  1.00 20.00     0.014 C 
HETATM    8  N8  UNL     1     -32.515   6.410   2.336  1.00 20.00    -0.305 NA
ENDROOT
TORSDOF 0
ENDMDL
MODEL 2
REMARK VINA RESULT:      -5.2      0.153      1.837
REMARK  0 active torsions:
REMARK  status: ('A' for Active; 'I' for Inactive)
ROOT
HETATM    1  C1  UNL     1     -33.396   5.447   2.463  1.00 20.00     0.088 C 
HETATM    2  C2  UNL     1     -34.946   5.510   5.903  1.00 20.00     0.001 C 
HETATM    3  C3  UNL     1     -34.955   4.752   4.549  1.00 20.00     0.010 C 
HETATM    4  C4  UNL     1     -33.887   6.636   5.769  1.00 20.00     0.007 C 
HETATM    5  C5  UNL     1     -32.540   7.216   3.504  1.00 20.00     0.153 C 
HETATM    6  C6  UNL     1     -33.684   5.236   3.908  1.00 20.00     0.031 C 
HETATM    7  C7  UNL     1     -33.728   6.706   4.274  1.00 20.00     0.014 C 
HETATM    8  N8  UNL     1     -32.697   6.512   2.188  1.00 20.00    -0.305 NA
ENDROOT
TORSDOF 0
ENDMDL
MODEL 3
REMARK VINA RESULT:      -4.8      1.723      3.439
REMARK  0 active torsions:
REMARK  status: ('A' for Active; 'I' for Inactive)
ROOT
HETATM    1  C1  UNL     1     -34.882   4.853   5.016  1.00 20.00     0.088 C 
HETATM    2  C2  UNL     1     -32.706   6.330   2.309  1.00 20.00     0.001 C 
HETATM    3  C3  UNL     1     -33.554   5.084   2.682  1.00 20.00     0.010 C 
HETATM    4  C4  UNL     1     -32.839   7.322   3.495  1.00 20.00     0.007 C 
HETATM    5  C5  UNL     1     -34.132   6.792   5.804  1.00 20.00     0.153 C 
HETATM    6  C6  UNL     1     -34.381   5.597   3.828  1.00 20.00     0.031 C 
HETATM    7  C7  UNL     1     -33.344   6.410   4.580  1.00 20.00     0.014 C 
HETATM    8  N8  UNL     1     -34.826   5.506   6.142  1.00 20.00    -0.305 NA
ENDROOT
TORSDOF 0
ENDMDL
MODEL 4
REMARK VINA RESULT:      -4.5      1.694      2.955
REMARK  0 active torsions:
REMARK  status: ('A' for Active; 'I' for Inactive)
ROOT
HETATM    1  C1  UNL     1     -34.009   6.773   5.729  1.00 20.00     0.088 C 
HETATM    2  C2  UNL     1     -32.781   6.347   2.186  1.00 20.00     0.001 C 
HETATM    3  C3  UNL     1     -32.810   7.337   3.382  1.00 20.00     0.010 C 
HETATM    4  C4  UNL     1     -33.516   5.065   2.659  1.00 20.00     0.007 C 
HETATM    5  C5  UNL     1     -34.760   4.797   5.038  1.00 20.00     0.153 C 
HETATM    6  C6  UNL     1     -33.202   6.440   4.523  1.00 20.00     0.031 C 
HETATM    7  C7  UNL     1     -34.263   5.586   3.857  1.00 20.00     0.014 C 
HETATM    8  N8  UNL     1     -34.854   5.853   6.100  1.00 20.00    -0.305 NA
ENDROOT
TORSDOF 0
ENDMDL
MODEL 5
REMARK VINA RESULT:      -4.1     11.929     12.539
REMARK  0 active torsions:
REMARK  status: ('A' for Active; 'I' for Inactive)
ROOT
HETATM    1  C1  UNL     1     -35.729  14.342  -4.410  1.00 20.00     0.088 C 
HETATM    2  C2  UNL     1     -33.860  16.675  -2.107  1.00 20.00     0.001 C 
HETATM    3  C3  UNL     1     -35.188  15.889  -2.270  1.00 20.00     0.010 C 
HETATM    4  C4  UNL     1     -32.997  16.343  -3.353  1.00 20.00     0.007 C 
HETATM    5  C5  UNL     1     -33.829  14.855  -5.445  1.00 20.00     0.153 C 
HETATM    6  C6  UNL     1     -34.842  14.909  -3.357  1.00 20.00     0.031 C 
HETATM    7  C7  UNL     1     -34.040  15.795  -4.289  1.00 20.00     0.014 C 
HETATM    8  N8  UNL     1     -35.184  14.228  -5.589  1.00 20.00    -0.305 NA
ENDROOT
TORSDOF 0
ENDMDL
MODEL 6
REMARK VINA RESULT:      -4.1     11.946     12.501
REMARK  0 active torsions:
REMARK  status: ('A' for Active; 'I' for Inactive)
ROOT
HETATM    1  C1  UNL     1     -34.098  14.941  -5.286  1.00 20.00     0.088 C 
HETATM    2  C2  UNL     1     -33.786  16.797  -2.015  1.00 20.00     0.001 C 
HETATM    3  C3  UNL     1     -33.050  16.492  -3.348  1.00 20.00     0.010 C 
HETATM    4  C4  UNL     1     -35.159  16.078  -2.098  1.00 20.00     0.007 C 
HETATM    5  C5  UNL     1     -35.925  14.456  -4.114  1.00 20.00     0.153 C 
HETATM    6  C6  UNL     1     -34.164  15.967  -4.210  1.00 20.00     0.031 C 
HETATM    7  C7  UNL     1     -34.906  15.099  -3.213  1.00 20.00     0.014 C 
HETATM    8  N8  UNL     1     -35.100  14.108  -5.318  1.00 20.00    -0.305 NA
ENDROOT
TORSDOF 0
ENDMDL
MODEL 7
REMARK VINA RESULT:      -4.1     12.000     12.496
REMARK  0 active torsions:
REMARK  status: ('A' for Active; 'I' for Inactive)
ROOT
HETATM    1  C1  UNL     1     -36.134  13.531  -4.818  1.00 20.00     0.088 C 
HETATM    2  C2  UNL     1     -33.474  15.784  -3.371  1.00 20.00     0.001 C 
HETATM    3  C3  UNL     1     -33.695  14.442  -4.120  1.00 20.00     0.010 C 
HETATM    4  C4  UNL     1     -34.877  16.418  -3.182  1.00 20.00     0.007 C 
HETATM    5  C5  UNL     1     -37.203  15.229  -3.860  1.00 20.00     0.153 C 
HETATM    6  C6  UNL     1     -35.105  14.589  -4.621  1.00 20.00     0.031 C 
HETATM    7  C7  UNL     1     -35.766  15.225  -3.414  1.00 20.00     0.014 C 
HETATM    8  N8  UNL     1     -37.344  13.865  -4.469  1.00 20.00    -0.305 NA
ENDROOT
TORSDOF 0
ENDMDL
MODEL 8
REMARK VINA RESULT:      -3.9     16.453     17.003
REMARK  0 active torsions:
REMARK  status: ('A' for Active; 'I' for Inactive)
ROOT
HETATM    1  C1  UNL     1     -23.950  18.441   8.627  1.00 20.00     0.088 C 
HETATM    2  C2  UNL     1     -24.368  17.835  12.329  1.00 20.00     0.001 C 
HETATM    3  C3  UNL     1     -25.095  18.372  11.067  1.00 20.00     0.010 C 
HETATM    4  C4  UNL     1     -22.967  17.362  11.861  1.00 20.00     0.007 C 
HETATM    5  C5  UNL     1     -21.999  17.666   9.360  1.00 20.00     0.153 C 
HETATM    6  C6  UNL     1     -24.237  17.833   9.956  1.00 20.00     0.031 C 
HETATM    7  C7  UNL     1     -22.854  18.062  10.533  1.00 20.00     0.014 C 
HETATM    8  N8  UNL     1     -22.720  18.316   8.216  1.00 20.00    -0.305 NA
ENDROOT
TORSDOF 0
ENDMDL
MODEL 9
REMARK VINA RESULT:      -3.9     11.860     12.346
REMARK  0 active torsions:
REMARK  status: ('A' for Active; 'I' for Inactive)
ROOT
HETATM    1  C1  UNL     1     -37.040  15.027  -3.754  1.00 20.00     0.088 C 
HETATM    2  C2  UNL     1     -33.359  15.833  -3.552  1.00 20.00     0.001 C 
HETATM    3  C3  UNL     1     -34.774  16.393  -3.244  1.00 20.00     0.010 C 
HETATM    4  C4  UNL     1     -33.568  14.411  -4.137  1.00 20.00     0.007 C 
HETATM    5  C5  UNL     1     -35.971  13.311  -4.679  1.00 20.00     0.153 C 
HETATM    6  C6  UNL     1     -35.624  15.155  -3.312  1.00 20.00     0.031 C 
HETATM    7  C7  UNL     1     -35.021  14.467  -4.521  1.00 20.00     0.014 C 
HETATM    8  N8  UNL     1     -37.302  13.970  -4.470  1.00 20.00    -0.305 NA
ENDROOT
TORSDOF 0
ENDMDL
