MODEL 1
REMARK VINA RESULT:      -5.3      0.000      0.000
REMARK  1 active torsions:
REMARK  status: ('A' for Active; 'I' for Inactive)
REMARK    1  A    between atoms: C5_5  and  C6_6 
ROOT
HETATM    1  C1  UNL     1     -34.784   5.002   4.800  1.00 20.00     0.078 C 
HETATM    2  C2  UNL     1     -34.374   4.413   3.673  1.00 20.00    -0.018 C 
HETATM    3  C3  UNL     1     -34.171   6.265   5.251  1.00 20.00     0.283 C 
HETATM    4  C4  UNL     1     -33.351   5.039   2.787  1.00 20.00     0.061 C 
HETATM    5  C5  UNL     1     -33.401   6.550   2.970  1.00 20.00     0.149 C 
HETATM    6  O7  UNL     1     -34.378   6.696   6.380  1.00 20.00    -0.260 OA
HETATM    7  O8  UNL     1     -33.345   6.893   4.371  1.00 20.00    -0.311 OA
ENDROOT
BRANCH   5   8
HETATM    8  C6  UNL     1     -32.232   7.234   2.275  1.00 20.00     0.147 C 
HETATM    9 CL9  UNL     1     -32.825   8.407   1.084  1.00 20.00    -0.128 Cl
ENDBRANCH   5   8
TORSDOF 1
ENDMDL
MODEL 2
REMARK VINA RESULT:      -4.3     16.485     16.897
REMARK  1 active torsions:
REMARK  status: ('A' for Active; 'I' for Inactive)
REMARK    1  A    between atoms: C5_5  and  C6_6 
ROOT
HETATM    1  C1  UNL     1     -24.049  18.655   7.954  1.00 20.00     0.078 C 
HETATM    2  C2  UNL     1     -24.868  18.999   8.952  1.00 20.00    -0.018 C 
HETATM    3  C3  UNL     1     -22.876  17.797   8.209  1.00 20.00     0.283 C 
HETATM    4  C4  UNL     1     -24.686  18.469  10.335  1.00 20.00     0.061 C 
HETATM    5  C5  UNL     1     -23.983  17.121  10.257  1.00 20.00     0.149 C 
HETATM    6  O7  UNL     1     -22.004  17.657   7.359  1.00 20.00    -0.260 OA
HETATM    7  O8  UNL     1     -22.800  17.212   9.435  1.00 20.00    -0.311 OA
ENDROOT
BRANCH   5   8
HETATM    8  C6  UNL     1     -23.558  16.635  11.635  1.00 20.00     0.147 C 
HETATM    9 CL9  UNL     1     -22.348  17.731  12.328  1.00 20.00    -0.128 Cl
ENDBRANCH   5   8
TORSDOF 1
ENDMDL
MODEL 3
REMARK VINA RESULT:      -4.2     11.537     12.086
REMARK  1 active torsions:
REMARK  status: ('A' for Active; 'I' for Inactive)
REMARK    1  A    between atoms: C5_5  and  C6_6 
ROOT
HETATM    1  C1  UNL     1     -35.875  13.669  -4.492  1.00 20.00     0.078 C 
HETATM    2  C2  UNL     1     -34.709  14.055  -3.966  1.00 20.00    -0.018 C 
HETATM    3  C3  UNL     1     -37.119  14.392  -4.169  1.00 20.00     0.283 C 
HETATM    4  C4  UNL     1     -34.598  15.269  -3.108  1.00 20.00     0.061 C 
HETATM    5  C5  UNL     1     -35.708  16.241  -3.485  1.00 20.00     0.149 C 
HETATM    6  O7  UNL     1     -38.213  13.923  -4.462  1.00 20.00    -0.260 OA
HETATM    7  O8  UNL     1     -36.986  15.571  -3.502  1.00 20.00    -0.311 OA
ENDROOT
BRANCH   5   8
HETATM    8  C6  UNL     1     -35.798  17.394  -2.496  1.00 20.00     0.147 C 
HETATM    9 CL9  UNL     1     -35.281  16.863  -0.884  1.00 20.00    -0.128 Cl
ENDBRANCH   5   8
TORSDOF 1
ENDMDL
MODEL 4
REMARK VINA RESULT:      -4.1     11.331     11.963
REMARK  1 active torsions:
REMARK  status: ('A' for Active; 'I' for Inactive)
REMARK    1  A    between atoms: C5_5  and  C6_6 
ROOT
HETATM    1  C1  UNL     1     -33.902  14.133  -4.489  1.00 20.00     0.078 C 
HETATM    2  C2  UNL     1     -33.219  15.132  -3.923  1.00 20.00    -0.018 C 
HETATM    3  C3  UNL     1     -35.319  13.907  -4.150  1.00 20.00     0.283 C 
HETATM    4  C4  UNL     1     -33.871  16.105  -3.001  1.00 20.00     0.061 C 
HETATM    5  C5  UNL     1     -35.352  16.194  -3.346  1.00 20.00     0.149 C 
HETATM    6  O7  UNL     1     -35.889  12.875  -4.486  1.00 20.00    -0.260 OA
HETATM    7  O8  UNL     1     -35.935  14.876  -3.420  1.00 20.00    -0.311 OA
ENDROOT
BRANCH   5   8
HETATM    8  C6  UNL     1     -36.121  16.987  -2.299  1.00 20.00     0.147 C 
HETATM    9 CL9  UNL     1     -35.285  16.915  -0.736  1.00 20.00    -0.128 Cl
ENDBRANCH   5   8
TORSDOF 1
ENDMDL
MODEL 5
REMARK VINA RESULT:      -4.1     16.297     16.607
REMARK  1 active torsions:
REMARK  status: ('A' for Active; 'I' for Inactive)
REMARK    1  A    between atoms: C5_5  and  C6_6 
ROOT
HETATM    1  C1  UNL     1     -22.502  17.718   8.205  1.00 20.00     0.078 C 
HETATM    2  C2  UNL     1     -22.380  16.983   9.314  1.00 20.00    -0.018 C 
HETATM    3  C3  UNL     1     -23.737  18.482   7.944  1.00 20.00     0.283 C 
HETATM    4  C4  UNL     1     -23.436  16.969  10.367  1.00 20.00     0.061 C 
HETATM    5  C5  UNL     1     -24.199  18.286  10.316  1.00 20.00     0.149 C 
HETATM    6  O7  UNL     1     -23.949  18.975   6.842  1.00 20.00    -0.260 OA
HETATM    7  O8  UNL     1     -24.628  18.572   8.967  1.00 20.00    -0.311 OA
ENDROOT
BRANCH   5   8
HETATM    8  C6  UNL     1     -25.436  18.247  11.201  1.00 20.00     0.147 C 
HETATM    9 CL9  UNL     1     -25.499  16.721  12.104  1.00 20.00    -0.128 Cl
ENDBRANCH   5   8
TORSDOF 1
ENDMDL
MODEL 6
REMARK VINA RESULT:      -4.1     15.908     16.539
REMARK  1 active torsions:
REMARK  status: ('A' for Active; 'I' for Inactive)
REMARK    1  A    between atoms: C5_5  and  C6_6 
ROOT
HETATM    1  C1  UNL     1     -22.026  17.644   9.279  1.00 20.00     0.078 C 
HETATM    2  C2  UNL     1     -22.929  17.896  10.230  1.00 20.00    -0.018 C 
HETATM    3  C3  UNL     1     -22.404  17.693   7.854  1.00 20.00     0.283 C 
HETATM    4  C4  UNL     1     -24.321  18.316   9.900  1.00 20.00     0.061 C 
HETATM    5  C5  UNL     1     -24.316  19.013   8.546  1.00 20.00     0.149 C 
HETATM    6  O7  UNL     1     -21.654  17.253   6.990  1.00 20.00    -0.260 OA
HETATM    7  O8  UNL     1     -23.628  18.208   7.564  1.00 20.00    -0.311 OA
ENDROOT
BRANCH   5   8
HETATM    8  C6  UNL     1     -25.731  19.258   8.041  1.00 20.00     0.147 C 
HETATM    9 CL9  UNL     1     -25.866  18.788   6.336  1.00 20.00    -0.128 Cl
ENDBRANCH   5   8
TORSDOF 1
ENDMDL
MODEL 7
REMARK VINA RESULT:      -4.0     11.461     12.333
REMARK  1 active torsions:
REMARK  status: ('A' for Active; 'I' for Inactive)
REMARK    1  A    between atoms: C5_5  and  C6_6 
ROOT
HETATM    1  C1  UNL     1     -34.525  14.340  -3.747  1.00 20.00     0.078 C 
HETATM    2  C2  UNL     1     -34.507  15.501  -3.087  1.00 20.00    -0.018 C 
HETATM    3  C3  UNL     1     -35.798  13.770  -4.226  1.00 20.00     0.283 C 
HETATM    4  C4  UNL     1     -35.744  16.307  -2.881  1.00 20.00     0.061 C 
HETATM    5  C5  UNL     1     -36.724  16.000  -4.006  1.00 20.00     0.149 C 
HETATM    6  O7  UNL     1     -35.856  12.615  -4.632  1.00 20.00    -0.260 OA
HETATM    7  O8  UNL     1     -36.893  14.574  -4.156  1.00 20.00    -0.311 OA
ENDROOT
BRANCH   5   8
HETATM    8  C6  UNL     1     -38.092  16.607  -3.732  1.00 20.00     0.147 C 
HETATM    9 CL9  UNL     1     -39.358  15.377  -3.910  1.00 20.00    -0.128 Cl
ENDBRANCH   5   8
TORSDOF 1
ENDMDL
MODEL 8
REMARK VINA RESULT:      -3.9     15.846     16.317
REMARK  1 active torsions:
REMARK  status: ('A' for Active; 'I' for Inactive)
REMARK    1  A    between atoms: C5_5  and  C6_6 
ROOT
HETATM    1  C1  UNL     1     -23.666  16.585  10.171  1.00 20.00     0.078 C 
HETATM    2  C2  UNL     1     -24.331  16.114  11.229  1.00 20.00    -0.018 C 
HETATM    3  C3  UNL     1     -24.099  17.829   9.507  1.00 20.00     0.283 C 
HETATM    4  C4  UNL     1     -25.475  16.856  11.832  1.00 20.00     0.061 C 
HETATM    5  C5  UNL     1     -25.301  18.342  11.549  1.00 20.00     0.149 C 
HETATM    6  O7  UNL     1     -23.641  18.151   8.416  1.00 20.00    -0.260 OA
HETATM    7  O8  UNL     1     -25.049  18.564  10.145  1.00 20.00    -0.311 OA
ENDROOT
BRANCH   5   8
HETATM    8  C6  UNL     1     -26.545  19.131  11.931  1.00 20.00     0.147 C 
HETATM    9 CL9  UNL     1     -27.876  18.027  12.327  1.00 20.00    -0.128 Cl
ENDBRANCH   5   8
TORSDOF 1
ENDMDL
MODEL 9
REMARK VINA RESULT:      -3.9     11.763     12.365
REMARK  1 active torsions:
REMARK  status: ('A' for Active; 'I' for Inactive)
REMARK    1  A    between atoms: C5_5  and  C6_6 
ROOT
HETATM    1  C1  UNL     1     -33.908  17.936  -1.041  1.00 20.00     0.078 C 
HETATM    2  C2  UNL     1     -34.890  17.040  -1.172  1.00 20.00    -0.018 C 
HETATM    3  C3  UNL     1     -32.658  17.796  -1.812  1.00 20.00     0.283 C 
HETATM    4  C4  UNL     1     -34.807  15.920  -2.153  1.00 20.00     0.061 C 
HETATM    5  C5  UNL     1     -33.899  16.339  -3.302  1.00 20.00     0.149 C 
HETATM    6  O7  UNL     1     -31.674  18.475  -1.543  1.00 20.00    -0.260 OA
HETATM    7  O8  UNL     1     -32.650  16.858  -2.798  1.00 20.00    -0.311 OA
ENDROOT
BRANCH   5   8
HETATM    8  C6  UNL     1     -33.583  15.166  -4.218  1.00 20.00     0.147 C 
HETATM    9 CL9  UNL     1     -34.730  13.842  -3.939  1.00 20.00    -0.128 Cl
ENDBRANCH   5   8
TORSDOF 1
ENDMDL
