MODEL 1
REMARK VINA RESULT:      -4.7      0.000      0.000
REMARK  1 active torsions:
REMARK  status: ('A' for Active; 'I' for Inactive)
REMARK    1  A    between atoms: C7_7  and  C8_8 
ROOT
HETATM    1  C4  UNL     1     -24.607  18.489   9.333  1.00 20.00     0.038 C 
HETATM    2  C5  UNL     1     -23.847  18.973   8.099  1.00 20.00     0.270 C 
HETATM    3  C6  UNL     1     -21.756  18.135   8.969  1.00 20.00     0.307 C 
HETATM    4  C8  UNL     1     -23.695  18.429  10.561  1.00 20.00     0.027 C 
HETATM    5  C9  UNL     1     -22.431  17.629  10.240  1.00 20.00     0.202 C 
HETATM    6  N10 UNL     1     -22.675  18.138   7.834  1.00 20.00     0.086 N 
HETATM    7  F11 UNL     1     -21.553  17.769  11.272  1.00 20.00    -0.247 F 
HETATM    8  H27 UNL     1     -22.984  17.183   7.654  1.00 20.00     0.315 HD
ENDROOT
BRANCH   4   9
HETATM    9  C7  UNL     1     -24.440  17.785  11.731  1.00 20.00    -0.008 C 
HETATM   10  C2  UNL     1     -24.896  16.315  11.539  1.00 20.00     0.005 C 
HETATM   11  C1  UNL     1     -26.166  16.684  12.332  1.00 20.00     0.001 C 
HETATM   12  C3  UNL     1     -25.941  18.140  11.879  1.00 20.00     0.005 C 
ENDBRANCH   4   9
TORSDOF 1
ENDMDL
MODEL 2
REMARK VINA RESULT:      -4.5     17.210     18.427
REMARK  1 active torsions:
REMARK  status: ('A' for Active; 'I' for Inactive)
REMARK    1  A    between atoms: C7_7  and  C8_8 
ROOT
HETATM    1  C4  UNL     1     -34.466  16.672  -5.139  1.00 20.00     0.038 C 
HETATM    2  C5  UNL     1     -34.991  16.307  -6.527  1.00 20.00     0.270 C 
HETATM    3  C6  UNL     1     -35.843  14.193  -5.730  1.00 20.00     0.307 C 
HETATM    4  C8  UNL     1     -34.143  15.419  -4.319  1.00 20.00     0.027 C 
HETATM    5  C9  UNL     1     -35.342  14.469  -4.316  1.00 20.00     0.202 C 
HETATM    6  N10 UNL     1     -36.158  15.429  -6.442  1.00 20.00     0.086 N 
HETATM    7  F11 UNL     1     -34.957  13.284  -3.763  1.00 20.00    -0.247 F 
HETATM    8  H27 UNL     1     -36.903  15.917  -5.946  1.00 20.00     0.315 HD
ENDROOT
BRANCH   4   9
HETATM    9  C7  UNL     1     -33.783  15.814  -2.887  1.00 20.00    -0.008 C 
HETATM   10  C2  UNL     1     -34.954  16.266  -1.976  1.00 20.00     0.005 C 
HETATM   11  C1  UNL     1     -33.981  17.293  -1.361  1.00 20.00     0.001 C 
HETATM   12  C3  UNL     1     -33.192  17.232  -2.685  1.00 20.00     0.005 C 
ENDBRANCH   4   9
TORSDOF 1
ENDMDL
MODEL 3
REMARK VINA RESULT:      -4.5      2.401      4.232
REMARK  1 active torsions:
REMARK  status: ('A' for Active; 'I' for Inactive)
REMARK    1  A    between atoms: C7_7  and  C8_8 
ROOT
HETATM    1  C4  UNL     1     -23.931  16.681  10.140  1.00 20.00     0.038 C 
HETATM    2  C5  UNL     1     -24.063  15.680  11.288  1.00 20.00     0.270 C 
HETATM    3  C6  UNL     1     -25.802  16.992  12.329  1.00 20.00     0.307 C 
HETATM    4  C8  UNL     1     -24.348  18.088  10.578  1.00 20.00     0.027 C 
HETATM    5  C9  UNL     1     -25.731  18.048  11.231  1.00 20.00     0.202 C 
HETATM    6  N10 UNL     1     -25.420  15.672  11.834  1.00 20.00     0.086 N 
HETATM    7  F11 UNL     1     -25.982  19.263  11.793  1.00 20.00    -0.247 F 
HETATM    8  H27 UNL     1     -26.070  15.391  11.100  1.00 20.00     0.315 HD
ENDROOT
BRANCH   4   9
HETATM    9  C7  UNL     1     -24.365  19.025   9.370  1.00 20.00    -0.008 C 
HETATM   10  C2  UNL     1     -25.616  18.955   8.455  1.00 20.00     0.005 C 
HETATM   11  C1  UNL     1     -24.663  19.181   7.263  1.00 20.00     0.001 C 
HETATM   12  C3  UNL     1     -23.543  18.579   8.134  1.00 20.00     0.005 C 
ENDBRANCH   4   9
TORSDOF 1
ENDMDL
MODEL 4
REMARK VINA RESULT:      -4.5     16.935     18.144
REMARK  1 active torsions:
REMARK  status: ('A' for Active; 'I' for Inactive)
REMARK    1  A    between atoms: C7_7  and  C8_8 
ROOT
HETATM    1  C4  UNL     1     -36.367  16.297  -3.390  1.00 20.00     0.038 C 
HETATM    2  C5  UNL     1     -37.373  15.779  -4.418  1.00 20.00     0.270 C 
HETATM    3  C6  UNL     1     -36.140  13.722  -4.697  1.00 20.00     0.307 C 
HETATM    4  C8  UNL     1     -34.980  15.687  -3.613  1.00 20.00     0.027 C 
HETATM    5  C9  UNL     1     -35.082  14.162  -3.691  1.00 20.00     0.202 C 
HETATM    6  N10 UNL     1     -37.442  14.318  -4.407  1.00 20.00     0.086 N 
HETATM    7  F11 UNL     1     -33.879  13.666  -4.095  1.00 20.00    -0.247 F 
HETATM    8  H27 UNL     1     -37.751  14.009  -3.486  1.00 20.00     0.315 HD
ENDROOT
BRANCH   4   9
HETATM    9  C7  UNL     1     -34.044  16.092  -2.474  1.00 20.00    -0.008 C 
HETATM   10  C2  UNL     1     -34.625  17.062  -1.411  1.00 20.00     0.005 C 
HETATM   11  C1  UNL     1     -33.228  17.715  -1.353  1.00 20.00     0.001 C 
HETATM   12  C3  UNL     1     -33.004  17.198  -2.789  1.00 20.00     0.005 C 
ENDBRANCH   4   9
TORSDOF 1
ENDMDL
MODEL 5
REMARK VINA RESULT:      -4.4     16.441     17.646
REMARK  1 active torsions:
REMARK  status: ('A' for Active; 'I' for Inactive)
REMARK    1  A    between atoms: C7_7  and  C8_8 
ROOT
HETATM    1  C4  UNL     1     -32.958  15.536  -3.509  1.00 20.00     0.038 C 
HETATM    2  C5  UNL     1     -32.726  14.446  -4.554  1.00 20.00     0.270 C 
HETATM    3  C6  UNL     1     -34.749  15.041  -5.731  1.00 20.00     0.307 C 
HETATM    4  C8  UNL     1     -34.449  15.855  -3.358  1.00 20.00     0.027 C 
HETATM    5  C9  UNL     1     -35.066  16.145  -4.727  1.00 20.00     0.202 C 
HETATM    6  N10 UNL     1     -33.311  14.811  -5.844  1.00 20.00     0.086 N 
HETATM    7  F11 UNL     1     -36.419  16.216  -4.588  1.00 20.00    -0.247 F 
HETATM    8  H27 UNL     1     -32.864  15.664  -6.179  1.00 20.00     0.315 HD
ENDROOT
BRANCH   4   9
HETATM    9  C7  UNL     1     -34.632  17.059  -2.434  1.00 20.00    -0.008 C 
HETATM   10  C2  UNL     1     -33.365  17.569  -1.698  1.00 20.00     0.005 C 
HETATM   11  C1  UNL     1     -34.276  17.861  -0.488  1.00 20.00     0.001 C 
HETATM   12  C3  UNL     1     -35.226  16.774  -1.031  1.00 20.00     0.005 C 
ENDBRANCH   4   9
TORSDOF 1
ENDMDL
MODEL 6
REMARK VINA RESULT:      -4.3     16.752     17.928
REMARK  1 active torsions:
REMARK  status: ('A' for Active; 'I' for Inactive)
REMARK    1  A    between atoms: C7_7  and  C8_8 
ROOT
HETATM    1  C4  UNL     1     -34.570  17.260  -4.701  1.00 20.00     0.038 C 
HETATM    2  C5  UNL     1     -34.500  17.244  -6.228  1.00 20.00     0.270 C 
HETATM    3  C6  UNL     1     -33.905  14.904  -6.249  1.00 20.00     0.307 C 
HETATM    4  C8  UNL     1     -33.656  16.193  -4.091  1.00 20.00     0.027 C 
HETATM    5  C9  UNL     1     -33.941  14.830  -4.726  1.00 20.00     0.202 C 
HETATM    6  N10 UNL     1     -34.820  15.920  -6.762  1.00 20.00     0.086 N 
HETATM    7  F11 UNL     1     -32.981  13.952  -4.321  1.00 20.00    -0.247 F 
HETATM    8  H27 UNL     1     -35.772  15.676  -6.492  1.00 20.00     0.315 HD
ENDROOT
BRANCH   4   9
HETATM    9  C7  UNL     1     -33.877  16.123  -2.579  1.00 20.00    -0.008 C 
HETATM   10  C2  UNL     1     -35.349  16.145  -2.090  1.00 20.00     0.005 C 
HETATM   11  C1  UNL     1     -34.862  16.992  -0.898  1.00 20.00     0.001 C 
HETATM   12  C3  UNL     1     -33.686  17.442  -1.788  1.00 20.00     0.005 C 
ENDBRANCH   4   9
TORSDOF 1
ENDMDL
MODEL 7
REMARK VINA RESULT:      -4.3     16.104     17.308
REMARK  1 active torsions:
REMARK  status: ('A' for Active; 'I' for Inactive)
REMARK    1  A    between atoms: C7_7  and  C8_8 
ROOT
HETATM    1  C4  UNL     1     -35.535  16.666  -1.831  1.00 20.00     0.038 C 
HETATM    2  C5  UNL     1     -34.939  17.450  -0.662  1.00 20.00     0.270 C 
HETATM    3  C6  UNL     1     -32.780  17.554  -1.738  1.00 20.00     0.307 C 
HETATM    4  C8  UNL     1     -34.460  15.860  -2.566  1.00 20.00     0.027 C 
HETATM    5  C9  UNL     1     -33.287  16.766  -2.941  1.00 20.00     0.202 C 
HETATM    6  N10 UNL     1     -33.850  18.321  -1.105  1.00 20.00     0.086 N 
HETATM    7  F11 UNL     1     -32.266  15.989  -3.400  1.00 20.00    -0.247 F 
HETATM    8  H27 UNL     1     -34.218  18.994  -1.776  1.00 20.00     0.315 HD
ENDROOT
BRANCH   4   9
HETATM    9  C7  UNL     1     -35.056  15.225  -3.823  1.00 20.00    -0.008 C 
HETATM   10  C2  UNL     1     -36.583  14.949  -3.804  1.00 20.00     0.005 C 
HETATM   11  C1  UNL     1     -36.283  13.660  -4.597  1.00 20.00     0.001 C 
HETATM   12  C3  UNL     1     -34.869  13.694  -3.983  1.00 20.00     0.005 C 
ENDBRANCH   4   9
TORSDOF 1
ENDMDL
MODEL 8
REMARK VINA RESULT:      -4.3     16.927     18.168
REMARK  1 active torsions:
REMARK  status: ('A' for Active; 'I' for Inactive)
REMARK    1  A    between atoms: C7_7  and  C8_8 
ROOT
HETATM    1  C4  UNL     1     -34.445  14.621  -3.674  1.00 20.00     0.038 C 
HETATM    2  C5  UNL     1     -35.255  13.406  -4.121  1.00 20.00     0.270 C 
HETATM    3  C6  UNL     1     -37.282  14.711  -4.248  1.00 20.00     0.307 C 
HETATM    4  C8  UNL     1     -35.327  15.641  -2.947  1.00 20.00     0.027 C 
HETATM    5  C9  UNL     1     -36.555  15.974  -3.795  1.00 20.00     0.202 C 
HETATM    6  N10 UNL     1     -36.389  13.800  -4.958  1.00 20.00     0.086 N 
HETATM    7  F11 UNL     1     -37.417  16.713  -3.042  1.00 20.00    -0.247 F 
HETATM    8  H27 UNL     1     -36.036  14.264  -5.794  1.00 20.00     0.315 HD
ENDROOT
BRANCH   4   9
HETATM    9  C7  UNL     1     -34.526  16.912  -2.663  1.00 20.00    -0.008 C 
HETATM   10  C2  UNL     1     -32.980  16.780  -2.692  1.00 20.00     0.005 C 
HETATM   11  C1  UNL     1     -32.947  17.785  -1.523  1.00 20.00     0.001 C 
HETATM   12  C3  UNL     1     -34.376  17.321  -1.175  1.00 20.00     0.005 C 
ENDBRANCH   4   9
TORSDOF 1
ENDMDL
MODEL 9
REMARK VINA RESULT:      -4.2     15.461     16.716
REMARK  1 active torsions:
REMARK  status: ('A' for Active; 'I' for Inactive)
REMARK    1  A    between atoms: C7_7  and  C8_8 
ROOT
HETATM    1  C4  UNL     1     -32.934  17.053  -2.431  1.00 20.00     0.038 C 
HETATM    2  C5  UNL     1     -32.452  18.403  -1.901  1.00 20.00     0.270 C 
HETATM    3  C6  UNL     1     -34.281  18.523  -0.329  1.00 20.00     0.307 C 
HETATM    4  C8  UNL     1     -34.447  16.894  -2.253  1.00 20.00     0.027 C 
HETATM    5  C9  UNL     1     -34.840  17.185  -0.804  1.00 20.00     0.202 C 
HETATM    6  N10 UNL     1     -32.832  18.593  -0.501  1.00 20.00     0.086 N 
HETATM    7  F11 UNL     1     -36.199  17.242  -0.724  1.00 20.00    -0.247 F 
HETATM    8  H27 UNL     1     -32.395  17.864   0.061  1.00 20.00     0.315 HD
ENDROOT
BRANCH   4   9
HETATM    9  C7  UNL     1     -34.869  15.475  -2.636  1.00 20.00    -0.008 C 
HETATM   10  C2  UNL     1     -34.054  14.789  -3.764  1.00 20.00     0.005 C 
HETATM   11  C1  UNL     1     -35.380  14.157  -4.234  1.00 20.00     0.001 C 
HETATM   12  C3  UNL     1     -36.102  15.344  -3.566  1.00 20.00     0.005 C 
ENDBRANCH   4   9
TORSDOF 1
ENDMDL
