MODEL 1
REMARK VINA RESULT:      -5.3      0.000      0.000
REMARK  2 active torsions:
REMARK  status: ('A' for Active; 'I' for Inactive)
REMARK    1  A    between atoms: C1_1  and  C3_3 
REMARK    2  A    between atoms: C2_2  and  C4_4 
ROOT
HETATM    1  C4  UNL     1     -33.265   6.128   3.657  1.00 20.00     0.097 C 
HETATM    2  C5  UNL     1     -34.242   6.605   4.764  1.00 20.00     0.074 C 
HETATM    3  C6  UNL     1     -33.967   4.744   3.696  1.00 20.00     0.315 C 
HETATM    4  C7  UNL     1     -35.170   5.415   4.411  1.00 20.00     0.312 C 
HETATM    5  C8  UNL     1     -33.680   6.603   6.179  1.00 20.00     0.017 C 
HETATM    6  F10 UNL     1     -34.249   4.173   2.503  1.00 20.00    -0.199 F 
HETATM    7  F11 UNL     1     -33.327   3.803   4.429  1.00 20.00    -0.199 F 
HETATM    8  F12 UNL     1     -36.213   5.724   3.604  1.00 20.00    -0.199 F 
HETATM    9  F13 UNL     1     -35.682   4.724   5.454  1.00 20.00    -0.199 F 
ENDROOT
BRANCH   1  10
HETATM   10  C2  UNL     1     -33.367   6.853   2.370  1.00 20.00    -0.012 C 
HETATM   11  C1  UNL     1     -32.378   7.599   1.866  1.00 20.00     0.038 C 
BRANCH  11  12
HETATM   12  C3  UNL     1     -32.581   8.284   0.575  1.00 20.00     0.258 C 
HETATM   13  O9  UNL     1     -32.958   9.448   0.510  1.00 20.00    -0.302 OA
ENDBRANCH  11  12
ENDBRANCH   1  10
TORSDOF 2
ENDMDL
MODEL 2
REMARK VINA RESULT:      -5.1     11.125     12.357
REMARK  2 active torsions:
REMARK  status: ('A' for Active; 'I' for Inactive)
REMARK    1  A    between atoms: C1_1  and  C3_3 
REMARK    2  A    between atoms: C2_2  and  C4_4 
ROOT
HETATM    1  C4  UNL     1     -34.337  15.547  -3.180  1.00 20.00     0.097 C 
HETATM    2  C5  UNL     1     -35.445  15.906  -4.205  1.00 20.00     0.074 C 
HETATM    3  C6  UNL     1     -33.939  14.357  -4.093  1.00 20.00     0.315 C 
HETATM    4  C7  UNL     1     -34.704  15.041  -5.257  1.00 20.00     0.312 C 
HETATM    5  C8  UNL     1     -36.848  15.443  -3.842  1.00 20.00     0.017 C 
HETATM    6  F10 UNL     1     -32.617  14.168  -4.303  1.00 20.00    -0.199 F 
HETATM    7  F11 UNL     1     -34.441  13.158  -3.713  1.00 20.00    -0.199 F 
HETATM    8  F12 UNL     1     -33.926  15.733  -6.122  1.00 20.00    -0.199 F 
HETATM    9  F13 UNL     1     -35.474  14.219  -6.005  1.00 20.00    -0.199 F 
ENDROOT
BRANCH   1  10
HETATM   10  C2  UNL     1     -33.291  16.579  -2.995  1.00 20.00    -0.012 C 
HETATM   11  C1  UNL     1     -33.242  17.396  -1.937  1.00 20.00     0.038 C 
BRANCH  11  12
HETATM   12  C3  UNL     1     -32.158  18.393  -1.847  1.00 20.00     0.258 C 
HETATM   13  O9  UNL     1     -31.273  18.315  -1.004  1.00 20.00    -0.302 OA
ENDBRANCH  11  12
ENDBRANCH   1  10
TORSDOF 2
ENDMDL
MODEL 3
REMARK VINA RESULT:      -5.0     11.756     12.837
REMARK  2 active torsions:
REMARK  status: ('A' for Active; 'I' for Inactive)
REMARK    1  A    between atoms: C1_1  and  C3_3 
REMARK    2  A    between atoms: C2_2  and  C4_4 
ROOT
HETATM    1  C4  UNL     1     -35.310  17.083  -3.084  1.00 20.00     0.097 C 
HETATM    2  C5  UNL     1     -34.573  16.598  -1.807  1.00 20.00     0.074 C 
HETATM    3  C6  UNL     1     -34.013  17.830  -3.494  1.00 20.00     0.315 C 
HETATM    4  C7  UNL     1     -33.227  16.941  -2.495  1.00 20.00     0.312 C 
HETATM    5  C8  UNL     1     -34.881  17.378  -0.537  1.00 20.00     0.017 C 
HETATM    6  F10 UNL     1     -33.633  17.721  -4.787  1.00 20.00    -0.199 F 
HETATM    7  F11 UNL     1     -34.004  19.152  -3.204  1.00 20.00    -0.199 F 
HETATM    8  F12 UNL     1     -32.585  15.887  -3.052  1.00 20.00    -0.199 F 
HETATM    9  F13 UNL     1     -32.315  17.589  -1.736  1.00 20.00    -0.199 F 
ENDROOT
BRANCH   1  10
HETATM   10  C2  UNL     1     -35.741  16.011  -4.009  1.00 20.00    -0.012 C 
HETATM   11  C1  UNL     1     -35.837  14.725  -3.652  1.00 20.00     0.038 C 
BRANCH  11  12
HETATM   12  C3  UNL     1     -36.275  13.731  -4.650  1.00 20.00     0.258 C 
HETATM   13  O9  UNL     1     -35.887  12.570  -4.624  1.00 20.00    -0.302 OA
ENDBRANCH  11  12
ENDBRANCH   1  10
TORSDOF 2
ENDMDL
MODEL 4
REMARK VINA RESULT:      -5.0      9.094     10.147
REMARK  2 active torsions:
REMARK  status: ('A' for Active; 'I' for Inactive)
REMARK    1  A    between atoms: C1_1  and  C3_3 
REMARK    2  A    between atoms: C2_2  and  C4_4 
ROOT
HETATM    1  C4  UNL     1     -42.706   5.916  -1.493  1.00 20.00     0.097 C 
HETATM    2  C5  UNL     1     -43.129   6.646  -0.191  1.00 20.00     0.074 C 
HETATM    3  C6  UNL     1     -41.232   6.020  -1.018  1.00 20.00     0.315 C 
HETATM    4  C7  UNL     1     -41.750   6.287   0.419  1.00 20.00     0.312 C 
HETATM    5  C8  UNL     1     -43.416   8.134  -0.338  1.00 20.00     0.017 C 
HETATM    6  F10 UNL     1     -40.469   4.913  -1.161  1.00 20.00    -0.199 F 
HETATM    7  F11 UNL     1     -40.530   7.040  -1.566  1.00 20.00    -0.199 F 
HETATM    8  F12 UNL     1     -41.751   5.206   1.236  1.00 20.00    -0.199 F 
HETATM    9  F13 UNL     1     -41.116   7.275   1.090  1.00 20.00    -0.199 F 
ENDROOT
BRANCH   1  10
HETATM   10  C2  UNL     1     -43.227   4.537  -1.640  1.00 20.00    -0.012 C 
HETATM   11  C1  UNL     1     -42.835   3.703  -2.610  1.00 20.00     0.038 C 
BRANCH  11  12
HETATM   12  C3  UNL     1     -43.417   2.348  -2.671  1.00 20.00     0.258 C 
HETATM   13  O9  UNL     1     -42.766   1.379  -3.043  1.00 20.00    -0.302 OA
ENDBRANCH  11  12
ENDBRANCH   1  10
TORSDOF 2
ENDMDL
MODEL 5
REMARK VINA RESULT:      -4.9     11.587     12.768
REMARK  2 active torsions:
REMARK  status: ('A' for Active; 'I' for Inactive)
REMARK    1  A    between atoms: C1_1  and  C3_3 
REMARK    2  A    between atoms: C2_2  and  C4_4 
ROOT
HETATM    1  C4  UNL     1     -33.614  17.071  -3.784  1.00 20.00     0.097 C 
HETATM    2  C5  UNL     1     -33.535  15.574  -3.383  1.00 20.00     0.074 C 
HETATM    3  C6  UNL     1     -35.160  16.965  -3.707  1.00 20.00     0.315 C 
HETATM    4  C7  UNL     1     -34.994  15.671  -2.867  1.00 20.00     0.312 C 
HETATM    5  C8  UNL     1     -33.306  14.600  -4.530  1.00 20.00     0.017 C 
HETATM    6  F10 UNL     1     -35.809  17.977  -3.088  1.00 20.00    -0.199 F 
HETATM    7  F11 UNL     1     -35.776  16.790  -4.900  1.00 20.00    -0.199 F 
HETATM    8  F12 UNL     1     -35.117  15.840  -1.529  1.00 20.00    -0.199 F 
HETATM    9  F13 UNL     1     -35.817  14.652  -3.204  1.00 20.00    -0.199 F 
ENDROOT
BRANCH   1  10
HETATM   10  C2  UNL     1     -32.997  18.014  -2.823  1.00 20.00    -0.012 C 
HETATM   11  C1  UNL     1     -32.291  17.621  -1.757  1.00 20.00     0.038 C 
BRANCH  11  12
HETATM   12  C3  UNL     1     -31.717  18.641  -0.858  1.00 20.00     0.258 C 
HETATM   13  O9  UNL     1     -30.575  18.554  -0.424  1.00 20.00    -0.302 OA
ENDBRANCH  11  12
ENDBRANCH   1  10
TORSDOF 2
ENDMDL
MODEL 6
REMARK VINA RESULT:      -4.9     11.358     12.477
REMARK  2 active torsions:
REMARK  status: ('A' for Active; 'I' for Inactive)
REMARK    1  A    between atoms: C1_1  and  C3_3 
REMARK    2  A    between atoms: C2_2  and  C4_4 
ROOT
HETATM    1  C4  UNL     1     -35.104  15.562  -4.857  1.00 20.00     0.097 C 
HETATM    2  C5  UNL     1     -34.818  16.820  -3.995  1.00 20.00     0.074 C 
HETATM    3  C6  UNL     1     -34.037  14.803  -4.024  1.00 20.00     0.315 C 
HETATM    4  C7  UNL     1     -34.157  15.902  -2.935  1.00 20.00     0.312 C 
HETATM    5  C8  UNL     1     -33.901  17.855  -4.633  1.00 20.00     0.017 C 
HETATM    6  F10 UNL     1     -34.358  13.553  -3.621  1.00 20.00    -0.199 F 
HETATM    7  F11 UNL     1     -32.819  14.715  -4.608  1.00 20.00    -0.199 F 
HETATM    8  F12 UNL     1     -34.948  15.580  -1.885  1.00 20.00    -0.199 F 
HETATM    9  F13 UNL     1     -32.985  16.333  -2.417  1.00 20.00    -0.199 F 
ENDROOT
BRANCH   1  10
HETATM   10  C2  UNL     1     -36.482  15.029  -4.755  1.00 20.00    -0.012 C 
HETATM   11  C1  UNL     1     -37.516  15.745  -4.300  1.00 20.00     0.038 C 
BRANCH  11  12
HETATM   12  C3  UNL     1     -38.852  15.120  -4.236  1.00 20.00     0.258 C 
HETATM   13  O9  UNL     1     -39.021  13.928  -4.459  1.00 20.00    -0.302 OA
ENDBRANCH  11  12
ENDBRANCH   1  10
TORSDOF 2
ENDMDL
MODEL 7
REMARK VINA RESULT:      -4.9     11.303     12.393
REMARK  2 active torsions:
REMARK  status: ('A' for Active; 'I' for Inactive)
REMARK    1  A    between atoms: C1_1  and  C3_3 
REMARK    2  A    between atoms: C2_2  and  C4_4 
ROOT
HETATM    1  C4  UNL     1     -34.683  15.142  -3.067  1.00 20.00     0.097 C 
HETATM    2  C5  UNL     1     -35.646  15.238  -4.279  1.00 20.00     0.074 C 
HETATM    3  C6  UNL     1     -33.534  14.826  -4.062  1.00 20.00     0.315 C 
HETATM    4  C7  UNL     1     -34.413  15.402  -5.203  1.00 20.00     0.312 C 
HETATM    5  C8  UNL     1     -36.502  14.006  -4.535  1.00 20.00     0.017 C 
HETATM    6  F10 UNL     1     -32.361  15.465  -3.857  1.00 20.00    -0.199 F 
HETATM    7  F11 UNL     1     -33.237  13.511  -4.185  1.00 20.00    -0.199 F 
HETATM    8  F12 UNL     1     -34.127  16.678  -5.555  1.00 20.00    -0.199 F 
HETATM    9  F13 UNL     1     -34.422  14.681  -6.347  1.00 20.00    -0.199 F 
ENDROOT
BRANCH   1  10
HETATM   10  C2  UNL     1     -34.520  16.392  -2.290  1.00 20.00    -0.012 C 
HETATM   11  C1  UNL     1     -35.183  16.645  -1.156  1.00 20.00     0.038 C 
BRANCH  11  12
HETATM   12  C3  UNL     1     -34.951  17.924  -0.457  1.00 20.00     0.258 C 
HETATM   13  O9  UNL     1     -33.898  18.166   0.119  1.00 20.00    -0.302 OA
ENDBRANCH  11  12
ENDBRANCH   1  10
TORSDOF 2
ENDMDL
MODEL 8
REMARK VINA RESULT:      -4.8     11.070     12.449
REMARK  2 active torsions:
REMARK  status: ('A' for Active; 'I' for Inactive)
REMARK    1  A    between atoms: C1_1  and  C3_3 
REMARK    2  A    between atoms: C2_2  and  C4_4 
ROOT
HETATM    1  C4  UNL     1     -35.648  15.729  -4.189  1.00 20.00     0.097 C 
HETATM    2  C5  UNL     1     -34.592  15.301  -3.136  1.00 20.00     0.074 C 
HETATM    3  C6  UNL     1     -34.875  14.889  -5.240  1.00 20.00     0.315 C 
HETATM    4  C7  UNL     1     -34.175  14.140  -4.075  1.00 20.00     0.312 C 
HETATM    5  C8  UNL     1     -33.509  16.330  -2.840  1.00 20.00     0.017 C 
HETATM    6  F10 UNL     1     -35.617  14.113  -6.062  1.00 20.00    -0.199 F 
HETATM    7  F11 UNL     1     -34.043  15.601  -6.036  1.00 20.00    -0.199 F 
HETATM    8  F12 UNL     1     -34.711  12.936  -3.767  1.00 20.00    -0.199 F 
HETATM    9  F13 UNL     1     -32.847  13.943  -4.229  1.00 20.00    -0.199 F 
ENDROOT
BRANCH   1  10
HETATM   10  C2  UNL     1     -37.032  15.279  -3.914  1.00 20.00    -0.012 C 
HETATM   11  C1  UNL     1     -38.099  15.735  -4.578  1.00 20.00     0.038 C 
BRANCH  11  12
HETATM   12  C3  UNL     1     -39.438  15.223  -4.226  1.00 20.00     0.258 C 
HETATM   13  O9  UNL     1     -40.096  14.540  -5.001  1.00 20.00    -0.302 OA
ENDBRANCH  11  12
ENDBRANCH   1  10
TORSDOF 2
ENDMDL
MODEL 9
REMARK VINA RESULT:      -4.6     11.707     12.667
REMARK  2 active torsions:
REMARK  status: ('A' for Active; 'I' for Inactive)
REMARK    1  A    between atoms: C1_1  and  C3_3 
REMARK    2  A    between atoms: C2_2  and  C4_4 
ROOT
HETATM    1  C4  UNL     1     -35.149  16.571  -4.083  1.00 20.00     0.097 C 
HETATM    2  C5  UNL     1     -35.291  17.615  -2.943  1.00 20.00     0.074 C 
HETATM    3  C6  UNL     1     -33.972  15.936  -3.294  1.00 20.00     0.315 C 
HETATM    4  C7  UNL     1     -34.475  16.671  -2.023  1.00 20.00     0.312 C 
HETATM    5  C8  UNL     1     -34.662  18.973  -3.217  1.00 20.00     0.017 C 
HETATM    6  F10 UNL     1     -33.955  14.587  -3.212  1.00 20.00    -0.199 F 
HETATM    7  F11 UNL     1     -32.741  16.310  -3.714  1.00 20.00    -0.199 F 
HETATM    8  F12 UNL     1     -35.216  15.913  -1.181  1.00 20.00    -0.199 F 
HETATM    9  F13 UNL     1     -33.513  17.253  -1.272  1.00 20.00    -0.199 F 
ENDROOT
BRANCH   1  10
HETATM   10  C2  UNL     1     -36.324  15.692  -4.282  1.00 20.00    -0.012 C 
HETATM   11  C1  UNL     1     -37.582  16.081  -4.051  1.00 20.00     0.038 C 
BRANCH  11  12
HETATM   12  C3  UNL     1     -38.684  15.128  -4.279  1.00 20.00     0.258 C 
HETATM   13  O9  UNL     1     -38.485  13.927  -4.418  1.00 20.00    -0.302 OA
ENDBRANCH  11  12
ENDBRANCH   1  10
TORSDOF 2
ENDMDL
