MODEL 1
REMARK VINA RESULT:      -4.1      0.000      0.000
REMARK  0 active torsions:
REMARK  status: ('A' for Active; 'I' for Inactive)
ROOT
HETATM    1  C1  UNL     1     -34.019  14.690  -4.730  1.00 20.00     0.135 C 
HETATM    2  C2  UNL     1     -32.793  15.225  -4.025  1.00 20.00     0.110 C 
HETATM    3  C3  UNL     1     -35.449  15.568  -2.915  1.00 20.00     0.179 C 
HETATM    4  C4  UNL     1     -35.196  14.367  -3.823  1.00 20.00     0.075 C 
HETATM    5  C5  UNL     1     -33.179  16.344  -3.061  1.00 20.00     0.124 C 
HETATM    6  C6  UNL     1     -36.446  14.000  -4.610  1.00 20.00     0.020 C 
HETATM    7  C7  UNL     1     -33.462  17.668  -3.769  1.00 20.00     0.040 C 
HETATM    8  O8  UNL     1     -34.011  14.451  -5.935  1.00 20.00    -0.297 OA
HETATM    9  O9  UNL     1     -34.264  15.949  -2.213  1.00 20.00    -0.385 OA
ENDROOT
TORSDOF 0
ENDMDL
MODEL 2
REMARK VINA RESULT:      -4.1     10.914     12.714
REMARK  0 active torsions:
REMARK  status: ('A' for Active; 'I' for Inactive)
ROOT
HETATM    1  C1  UNL     1     -42.475   6.875   0.831  1.00 20.00     0.135 C 
HETATM    2  C2  UNL     1     -42.339   5.377   0.675  1.00 20.00     0.110 C 
HETATM    3  C3  UNL     1     -41.013   7.213  -1.133  1.00 20.00     0.179 C 
HETATM    4  C4  UNL     1     -41.312   7.688   0.287  1.00 20.00     0.075 C 
HETATM    5  C5  UNL     1     -41.930   5.025  -0.753  1.00 20.00     0.124 C 
HETATM    6  C6  UNL     1     -41.589   9.185   0.319  1.00 20.00     0.020 C 
HETATM    7  C7  UNL     1     -43.090   5.115  -1.743  1.00 20.00     0.040 C 
HETATM    8  O8  UNL     1     -43.417   7.372   1.442  1.00 20.00    -0.297 OA
HETATM    9  O9  UNL     1     -40.803   5.801  -1.177  1.00 20.00    -0.385 OA
ENDROOT
TORSDOF 0
ENDMDL
MODEL 3
REMARK VINA RESULT:      -4.1     16.364     17.951
REMARK  0 active torsions:
REMARK  status: ('A' for Active; 'I' for Inactive)
ROOT
HETATM    1  C1  UNL     1     -25.262  18.649  10.850  1.00 20.00     0.135 C 
HETATM    2  C2  UNL     1     -24.576  18.195  12.118  1.00 20.00     0.110 C 
HETATM    3  C3  UNL     1     -23.606  17.401   9.505  1.00 20.00     0.179 C 
HETATM    4  C4  UNL     1     -24.369  18.719   9.622  1.00 20.00     0.075 C 
HETATM    5  C5  UNL     1     -23.755  16.935  11.858  1.00 20.00     0.124 C 
HETATM    6  C6  UNL     1     -25.156  19.014   8.352  1.00 20.00     0.020 C 
HETATM    7  C7  UNL     1     -24.612  15.675  11.762  1.00 20.00     0.040 C 
HETATM    8  O8  UNL     1     -26.433  19.022  10.853  1.00 20.00    -0.297 OA
HETATM    9  O9  UNL     1     -22.908  17.094  10.712  1.00 20.00    -0.385 OA
ENDROOT
TORSDOF 0
ENDMDL
MODEL 4
REMARK VINA RESULT:      -4.0      1.461      3.619
REMARK  0 active torsions:
REMARK  status: ('A' for Active; 'I' for Inactive)
ROOT
HETATM    1  C1  UNL     1     -35.837  15.982  -3.493  1.00 20.00     0.135 C 
HETATM    2  C2  UNL     1     -36.823  14.940  -3.969  1.00 20.00     0.110 C 
HETATM    3  C3  UNL     1     -33.971  14.425  -3.945  1.00 20.00     0.179 C 
HETATM    4  C4  UNL     1     -34.531  15.432  -2.942  1.00 20.00     0.075 C 
HETATM    5  C5  UNL     1     -36.130  13.924  -4.874  1.00 20.00     0.124 C 
HETATM    6  C6  UNL     1     -33.522  16.532  -2.644  1.00 20.00     0.020 C 
HETATM    7  C7  UNL     1     -35.875  14.458  -6.282  1.00 20.00     0.040 C 
HETATM    8  O8  UNL     1     -36.127  17.176  -3.472  1.00 20.00    -0.297 OA
HETATM    9  O9  UNL     1     -34.934  13.421  -4.267  1.00 20.00    -0.385 OA
ENDROOT
TORSDOF 0
ENDMDL
MODEL 5
REMARK VINA RESULT:      -4.0     12.011     12.818
REMARK  0 active torsions:
REMARK  status: ('A' for Active; 'I' for Inactive)
ROOT
HETATM    1  C1  UNL     1     -33.870   5.432   3.323  1.00 20.00     0.135 C 
HETATM    2  C2  UNL     1     -35.069   5.068   4.169  1.00 20.00     0.110 C 
HETATM    3  C3  UNL     1     -33.236   7.166   4.965  1.00 20.00     0.179 C 
HETATM    4  C4  UNL     1     -33.383   6.863   3.476  1.00 20.00     0.075 C 
HETATM    5  C5  UNL     1     -34.858   5.516   5.613  1.00 20.00     0.124 C 
HETATM    6  C6  UNL     1     -32.078   7.111   2.732  1.00 20.00     0.020 C 
HETATM    7  C7  UNL     1     -33.916   4.598   6.390  1.00 20.00     0.040 C 
HETATM    8  O8  UNL     1     -33.400   4.643   2.507  1.00 20.00    -0.297 OA
HETATM    9  O9  UNL     1     -34.443   6.886   5.676  1.00 20.00    -0.385 OA
ENDROOT
TORSDOF 0
ENDMDL
MODEL 6
REMARK VINA RESULT:      -4.0     17.042     18.337
REMARK  0 active torsions:
REMARK  status: ('A' for Active; 'I' for Inactive)
ROOT
HETATM    1  C1  UNL     1     -24.213  18.284   9.708  1.00 20.00     0.135 C 
HETATM    2  C2  UNL     1     -25.120  18.513  10.896  1.00 20.00     0.110 C 
HETATM    3  C3  UNL     1     -22.425  17.499  11.223  1.00 20.00     0.179 C 
HETATM    4  C4  UNL     1     -22.725  18.371  10.007  1.00 20.00     0.075 C 
HETATM    5  C5  UNL     1     -24.661  17.676  12.087  1.00 20.00     0.124 C 
HETATM    6  C6  UNL     1     -21.872  17.962   8.813  1.00 20.00     0.020 C 
HETATM    7  C7  UNL     1     -25.045  16.203  11.961  1.00 20.00     0.040 C 
HETATM    8  O8  UNL     1     -24.666  18.136   8.576  1.00 20.00    -0.297 OA
HETATM    9  O9  UNL     1     -23.259  17.844  12.330  1.00 20.00    -0.385 OA
ENDROOT
TORSDOF 0
ENDMDL
MODEL 7
REMARK VINA RESULT:      -4.0      1.967      2.496
REMARK  0 active torsions:
REMARK  status: ('A' for Active; 'I' for Inactive)
ROOT
HETATM    1  C1  UNL     1     -35.690  13.840  -4.298  1.00 20.00     0.135 C 
HETATM    2  C2  UNL     1     -34.238  14.258  -4.263  1.00 20.00     0.110 C 
HETATM    3  C3  UNL     1     -36.329  16.117  -5.016  1.00 20.00     0.179 C 
HETATM    4  C4  UNL     1     -36.690  14.964  -4.082  1.00 20.00     0.075 C 
HETATM    5  C5  UNL     1     -34.014  15.484  -5.144  1.00 20.00     0.124 C 
HETATM    6  C6  UNL     1     -38.127  14.509  -4.300  1.00 20.00     0.020 C 
HETATM    7  C7  UNL     1     -33.977  15.148  -6.634  1.00 20.00     0.040 C 
HETATM    8  O8  UNL     1     -36.015  12.659  -4.398  1.00 20.00    -0.297 OA
HETATM    9  O9  UNL     1     -34.967  16.513  -4.852  1.00 20.00    -0.385 OA
ENDROOT
TORSDOF 0
ENDMDL
MODEL 8
REMARK VINA RESULT:      -3.8     10.709     12.439
REMARK  0 active torsions:
REMARK  status: ('A' for Active; 'I' for Inactive)
ROOT
HETATM    1  C1  UNL     1     -42.880   7.608  -1.000  1.00 20.00     0.135 C 
HETATM    2  C2  UNL     1     -43.417   6.195  -0.995  1.00 20.00     0.110 C 
HETATM    3  C3  UNL     1     -41.211   6.980   0.712  1.00 20.00     0.179 C 
HETATM    4  C4  UNL     1     -42.217   8.050   0.295  1.00 20.00     0.075 C 
HETATM    5  C5  UNL     1     -42.368   5.227  -0.456  1.00 20.00     0.124 C 
HETATM    6  C6  UNL     1     -41.549   9.412   0.165  1.00 20.00     0.020 C 
HETATM    7  C7  UNL     1     -41.276   4.905  -1.474  1.00 20.00     0.040 C 
HETATM    8  O8  UNL     1     -43.061   8.359  -1.955  1.00 20.00    -0.297 OA
HETATM    9  O9  UNL     1     -41.822   5.691   0.785  1.00 20.00    -0.385 OA
ENDROOT
TORSDOF 0
ENDMDL
MODEL 9
REMARK VINA RESULT:      -3.8     17.250     18.281
REMARK  0 active torsions:
REMARK  status: ('A' for Active; 'I' for Inactive)
ROOT
HETATM    1  C1  UNL     1     -23.113  17.503  11.198  1.00 20.00     0.135 C 
HETATM    2  C2  UNL     1     -21.787  17.923  10.606  1.00 20.00     0.110 C 
HETATM    3  C3  UNL     1     -24.302  18.780   9.449  1.00 20.00     0.179 C 
HETATM    4  C4  UNL     1     -24.267  18.458  10.941  1.00 20.00     0.075 C 
HETATM    5  C5  UNL     1     -21.961  18.329   9.144  1.00 20.00     0.124 C 
HETATM    6  C6  UNL     1     -25.600  17.893  11.413  1.00 20.00     0.020 C 
HETATM    7  C7  UNL     1     -22.105  17.131   8.207  1.00 20.00     0.040 C 
HETATM    8  O8  UNL     1     -23.208  16.508  11.914  1.00 20.00    -0.297 OA
HETATM    9  O9  UNL     1     -23.038  19.261   8.990  1.00 20.00    -0.385 OA
ENDROOT
TORSDOF 0
ENDMDL
