MODEL 1
REMARK VINA RESULT:      -4.4      0.000      0.000
REMARK  0 active torsions:
REMARK  status: ('A' for Active; 'I' for Inactive)
ROOT
HETATM    1  C1  UNL     1     -42.026   9.193   0.266  1.00 20.00     0.064 C 
HETATM    2  C2  UNL     1     -41.709   5.974   0.551  1.00 20.00     0.012 C 
HETATM    3  C3  UNL     1     -41.269   5.960  -0.715  1.00 20.00     0.090 C 
HETATM    4  C4  UNL     1     -42.737   6.947   1.056  1.00 20.00     0.049 C 
HETATM    5  C5  UNL     1     -41.775   6.893  -1.771  1.00 20.00     0.071 C 
HETATM    6  C6  UNL     1     -43.056   7.631  -1.361  1.00 20.00     0.026 C 
HETATM    7  C7  UNL     1     -43.020   8.115   0.095  1.00 20.00     0.096 C 
HETATM    8  N8  UNL     1     -41.245  10.041   0.401  1.00 20.00    -0.197 NA
HETATM    9  F9  UNL     1     -40.339   5.043  -1.061  1.00 20.00    -0.211 F 
ENDROOT
TORSDOF 0
ENDMDL
MODEL 2
REMARK VINA RESULT:      -4.2     23.004     23.925
REMARK  0 active torsions:
REMARK  status: ('A' for Active; 'I' for Inactive)
ROOT
HETATM    1  C1  UNL     1     -25.118  18.343  12.055  1.00 20.00     0.064 C 
HETATM    2  C2  UNL     1     -22.075  17.965  10.985  1.00 20.00     0.012 C 
HETATM    3  C3  UNL     1     -22.593  17.479   9.849  1.00 20.00     0.090 C 
HETATM    4  C4  UNL     1     -22.715  17.772  12.331  1.00 20.00     0.049 C 
HETATM    5  C5  UNL     1     -23.850  16.667   9.800  1.00 20.00     0.071 C 
HETATM    6  C6  UNL     1     -24.302  16.171  11.179  1.00 20.00     0.026 C 
HETATM    7  C7  UNL     1     -24.158  17.241  12.269  1.00 20.00     0.096 C 
HETATM    8  N8  UNL     1     -25.872  19.208  11.887  1.00 20.00    -0.197 NA
HETATM    9  F9  UNL     1     -21.936  17.715   8.691  1.00 20.00    -0.211 F 
ENDROOT
TORSDOF 0
ENDMDL
MODEL 3
REMARK VINA RESULT:      -4.2     10.404     11.440
REMARK  0 active torsions:
REMARK  status: ('A' for Active; 'I' for Inactive)
ROOT
HETATM    1  C1  UNL     1     -37.182  14.810  -4.497  1.00 20.00     0.064 C 
HETATM    2  C2  UNL     1     -34.157  15.043  -5.656  1.00 20.00     0.012 C 
HETATM    3  C3  UNL     1     -33.720  14.773  -4.418  1.00 20.00     0.090 C 
HETATM    4  C4  UNL     1     -35.419  15.809  -5.936  1.00 20.00     0.049 C 
HETATM    5  C5  UNL     1     -34.427  15.230  -3.180  1.00 20.00     0.071 C 
HETATM    6  C6  UNL     1     -35.494  16.297  -3.452  1.00 20.00     0.026 C 
HETATM    7  C7  UNL     1     -36.326  15.995  -4.706  1.00 20.00     0.096 C 
HETATM    8  N8  UNL     1     -37.854  13.879  -4.333  1.00 20.00    -0.197 NA
HETATM    9  F9  UNL     1     -32.572  14.072  -4.281  1.00 20.00    -0.211 F 
ENDROOT
TORSDOF 0
ENDMDL
MODEL 4
REMARK VINA RESULT:      -4.2     10.512     11.534
REMARK  0 active torsions:
REMARK  status: ('A' for Active; 'I' for Inactive)
ROOT
HETATM    1  C1  UNL     1     -37.147  14.737  -4.092  1.00 20.00     0.064 C 
HETATM    2  C2  UNL     1     -34.899  16.137  -5.971  1.00 20.00     0.012 C 
HETATM    3  C3  UNL     1     -34.102  15.096  -5.700  1.00 20.00     0.090 C 
HETATM    4  C4  UNL     1     -35.898  16.687  -4.993  1.00 20.00     0.049 C 
HETATM    5  C5  UNL     1     -34.098  14.385  -4.382  1.00 20.00     0.071 C 
HETATM    6  C6  UNL     1     -34.840  15.151  -3.281  1.00 20.00     0.026 C 
HETATM    7  C7  UNL     1     -36.150  15.780  -3.776  1.00 20.00     0.096 C 
HETATM    8  N8  UNL     1     -37.930  13.917  -4.340  1.00 20.00    -0.197 NA
HETATM    9  F9  UNL     1     -33.241  14.680  -6.655  1.00 20.00    -0.211 F 
ENDROOT
TORSDOF 0
ENDMDL
MODEL 5
REMARK VINA RESULT:      -4.2     10.565     11.571
REMARK  0 active torsions:
REMARK  status: ('A' for Active; 'I' for Inactive)
ROOT
HETATM    1  C1  UNL     1     -35.522  13.949  -4.702  1.00 20.00     0.064 C 
HETATM    2  C2  UNL     1     -33.907  15.860  -2.633  1.00 20.00     0.012 C 
HETATM    3  C3  UNL     1     -35.094  16.257  -2.157  1.00 20.00     0.090 C 
HETATM    4  C4  UNL     1     -33.677  15.489  -4.070  1.00 20.00     0.049 C 
HETATM    5  C5  UNL     1     -36.315  16.401  -3.011  1.00 20.00     0.071 C 
HETATM    6  C6  UNL     1     -36.008  16.373  -4.513  1.00 20.00     0.026 C 
HETATM    7  C7  UNL     1     -34.969  15.306  -4.885  1.00 20.00     0.096 C 
HETATM    8  N8  UNL     1     -35.955  12.882  -4.558  1.00 20.00    -0.197 NA
HETATM    9  F9  UNL     1     -35.190  16.564  -0.843  1.00 20.00    -0.211 F 
ENDROOT
TORSDOF 0
ENDMDL
MODEL 6
REMARK VINA RESULT:      -4.2      1.516      2.135
REMARK  0 active torsions:
REMARK  status: ('A' for Active; 'I' for Inactive)
ROOT
HETATM    1  C1  UNL     1     -42.796   8.304   0.217  1.00 20.00     0.064 C 
HETATM    2  C2  UNL     1     -41.100   5.793  -0.950  1.00 20.00     0.012 C 
HETATM    3  C3  UNL     1     -42.263   5.145  -1.094  1.00 20.00     0.090 C 
HETATM    4  C4  UNL     1     -40.836   6.778   0.154  1.00 20.00     0.049 C 
HETATM    5  C5  UNL     1     -43.417   5.308  -0.154  1.00 20.00     0.071 C 
HETATM    6  C6  UNL     1     -43.036   6.019   1.150  1.00 20.00     0.026 C 
HETATM    7  C7  UNL     1     -42.097   7.211   0.922  1.00 20.00     0.096 C 
HETATM    8  N8  UNL     1     -43.345   9.163  -0.337  1.00 20.00    -0.197 NA
HETATM    9  F9  UNL     1     -42.394   4.282  -2.127  1.00 20.00    -0.211 F 
ENDROOT
TORSDOF 0
ENDMDL
MODEL 7
REMARK VINA RESULT:      -4.1     12.631     13.775
REMARK  0 active torsions:
REMARK  status: ('A' for Active; 'I' for Inactive)
ROOT
HETATM    1  C1  UNL     1     -31.598  18.540  -0.926  1.00 20.00     0.064 C 
HETATM    2  C2  UNL     1     -34.498  17.112  -1.231  1.00 20.00     0.012 C 
HETATM    3  C3  UNL     1     -34.001  16.449  -2.283  1.00 20.00     0.090 C 
HETATM    4  C4  UNL     1     -34.082  18.508  -0.864  1.00 20.00     0.049 C 
HETATM    5  C5  UNL     1     -32.997  17.038  -3.225  1.00 20.00     0.071 C 
HETATM    6  C6  UNL     1     -32.842  18.556  -3.071  1.00 20.00     0.026 C 
HETATM    7  C7  UNL     1     -32.826  19.003  -1.603  1.00 20.00     0.096 C 
HETATM    8  N8  UNL     1     -30.633  18.176  -0.393  1.00 20.00    -0.197 NA
HETATM    9  F9  UNL     1     -34.444  15.194  -2.520  1.00 20.00    -0.211 F 
ENDROOT
TORSDOF 0
ENDMDL
MODEL 8
REMARK VINA RESULT:      -4.1     10.993     12.020
REMARK  0 active torsions:
REMARK  status: ('A' for Active; 'I' for Inactive)
ROOT
HETATM    1  C1  UNL     1     -36.125  14.012  -4.248  1.00 20.00     0.064 C 
HETATM    2  C2  UNL     1     -34.863  16.859  -3.330  1.00 20.00     0.012 C 
HETATM    3  C3  UNL     1     -34.756  17.169  -4.628  1.00 20.00     0.090 C 
HETATM    4  C4  UNL     1     -34.717  15.460  -2.801  1.00 20.00     0.049 C 
HETATM    5  C5  UNL     1     -34.451  16.160  -5.691  1.00 20.00     0.071 C 
HETATM    6  C6  UNL     1     -33.954  14.822  -5.129  1.00 20.00     0.026 C 
HETATM    7  C7  UNL     1     -34.739  14.373  -3.890  1.00 20.00     0.096 C 
HETATM    8  N8  UNL     1     -37.215  13.728  -4.529  1.00 20.00    -0.197 NA
HETATM    9  F9  UNL     1     -34.909  18.461  -4.995  1.00 20.00    -0.211 F 
ENDROOT
TORSDOF 0
ENDMDL
MODEL 9
REMARK VINA RESULT:      -4.0      1.388      1.942
REMARK  0 active torsions:
REMARK  status: ('A' for Active; 'I' for Inactive)
ROOT
HETATM    1  C1  UNL     1     -41.541   9.128  -0.064  1.00 20.00     0.064 C 
HETATM    2  C2  UNL     1     -43.415   6.507   0.340  1.00 20.00     0.012 C 
HETATM    3  C3  UNL     1     -42.310   5.839   0.694  1.00 20.00     0.090 C 
HETATM    4  C4  UNL     1     -43.417   7.617  -0.673  1.00 20.00     0.049 C 
HETATM    5  C5  UNL     1     -40.962   6.105   0.100  1.00 20.00     0.071 C 
HETATM    6  C6  UNL     1     -41.020   6.968  -1.166  1.00 20.00     0.026 C 
HETATM    7  C7  UNL     1     -42.015   8.131  -1.044  1.00 20.00     0.096 C 
HETATM    8  N8  UNL     1     -41.168   9.912   0.706  1.00 20.00    -0.197 NA
HETATM    9  F9  UNL     1     -42.421   4.859   1.619  1.00 20.00    -0.211 F 
ENDROOT
TORSDOF 0
ENDMDL
