MODEL 1
REMARK VINA RESULT:      -3.9      0.000      0.000
REMARK  1 active torsions:
REMARK  status: ('A' for Active; 'I' for Inactive)
REMARK    1  A    between atoms: C2_2  and  O6_6 
ROOT
HETATM    1  C1  UNL     1     -35.603   5.432   3.792  1.00 20.00     0.106 A 
HETATM    2  C2  UNL     1     -34.553   5.656   4.848  1.00 20.00     0.111 A 
HETATM    3  C3  UNL     1     -34.248   4.790   3.652  1.00 20.00     0.212 A 
HETATM    4  C4  UNL     1     -34.718   5.040   6.198  1.00 20.00     0.051 C 
HETATM    5  F7  UNL     1     -34.207   3.418   3.874  1.00 20.00    -0.222 F 
HETATM    6 CL8  UNL     1     -33.173   5.378   2.394  1.00 20.00    -0.079 Cl
ENDROOT
BRANCH   2   7
HETATM    7  O6  UNL     1     -33.975   6.973   4.884  1.00 20.00    -0.381 OA
HETATM    8  C5  UNL     1     -33.533   7.294   6.189  1.00 20.00     0.202 C 
ENDBRANCH   2   7
TORSDOF 1
ENDMDL
MODEL 2
REMARK VINA RESULT:      -3.8      1.860      2.055
REMARK  1 active torsions:
REMARK  status: ('A' for Active; 'I' for Inactive)
REMARK    1  A    between atoms: C2_2  and  O6_6 
ROOT
HETATM    1  C1  UNL     1     -35.457   5.789   4.245  1.00 20.00     0.106 A 
HETATM    2  C2  UNL     1     -34.022   6.219   4.391  1.00 20.00     0.111 A 
HETATM    3  C3  UNL     1     -34.424   4.804   4.722  1.00 20.00     0.212 A 
HETATM    4  C4  UNL     1     -33.639   7.164   5.480  1.00 20.00     0.051 C 
HETATM    5  F7  UNL     1     -34.484   4.476   6.073  1.00 20.00    -0.222 F 
HETATM    6 CL8  UNL     1     -33.970   3.488   3.652  1.00 20.00    -0.079 Cl
ENDROOT
BRANCH   2   7
HETATM    7  O6  UNL     1     -33.309   6.439   3.161  1.00 20.00    -0.381 OA
HETATM    8  C5  UNL     1     -32.228   7.330   3.358  1.00 20.00     0.202 C 
ENDBRANCH   2   7
TORSDOF 1
ENDMDL
MODEL 3
REMARK VINA RESULT:      -3.7     17.221     17.805
REMARK  1 active torsions:
REMARK  status: ('A' for Active; 'I' for Inactive)
REMARK    1  A    between atoms: C2_2  and  O6_6 
ROOT
HETATM    1  C1  UNL     1     -23.897  16.765  10.268  1.00 20.00     0.106 A 
HETATM    2  C2  UNL     1     -23.460  18.125   9.794  1.00 20.00     0.111 A 
HETATM    3  C3  UNL     1     -23.658  17.866  11.266  1.00 20.00     0.212 A 
HETATM    4  C4  UNL     1     -24.419  18.992   9.049  1.00 20.00     0.051 C 
HETATM    5  F7  UNL     1     -24.801  18.412  11.843  1.00 20.00    -0.222 F 
HETATM    6 CL8  UNL     1     -22.269  17.741  12.331  1.00 20.00    -0.079 Cl
ENDROOT
BRANCH   2   7
HETATM    7  O6  UNL     1     -22.109  18.212   9.308  1.00 20.00    -0.381 OA
HETATM    8  C5  UNL     1     -21.966  17.513   8.087  1.00 20.00     0.202 C 
ENDBRANCH   2   7
TORSDOF 1
ENDMDL
MODEL 4
REMARK VINA RESULT:      -3.6     16.495     16.985
REMARK  1 active torsions:
REMARK  status: ('A' for Active; 'I' for Inactive)
REMARK    1  A    between atoms: C2_2  and  O6_6 
ROOT
HETATM    1  C1  UNL     1     -23.019  17.766  11.264  1.00 20.00     0.106 A 
HETATM    2  C2  UNL     1     -24.320  18.138  10.604  1.00 20.00     0.111 A 
HETATM    3  C3  UNL     1     -23.854  16.704  10.599  1.00 20.00     0.212 A 
HETATM    4  C4  UNL     1     -24.309  18.935   9.342  1.00 20.00     0.051 C 
HETATM    5  F7  UNL     1     -23.358  16.217   9.394  1.00 20.00    -0.222 F 
HETATM    6 CL8  UNL     1     -24.655  15.516  11.613  1.00 20.00    -0.079 Cl
ENDROOT
BRANCH   2   7
HETATM    7  O6  UNL     1     -25.394  18.487  11.495  1.00 20.00    -0.381 OA
HETATM    8  C5  UNL     1     -26.371  19.262  10.827  1.00 20.00     0.202 C 
ENDBRANCH   2   7
TORSDOF 1
ENDMDL
MODEL 5
REMARK VINA RESULT:      -3.5      9.346      9.998
REMARK  1 active torsions:
REMARK  status: ('A' for Active; 'I' for Inactive)
REMARK    1  A    between atoms: C2_2  and  O6_6 
ROOT
HETATM    1  C1  UNL     1     -41.492   7.871  -1.312  1.00 20.00     0.106 A 
HETATM    2  C2  UNL     1     -41.916   6.465  -0.980  1.00 20.00     0.111 A 
HETATM    3  C3  UNL     1     -41.905   7.523   0.094  1.00 20.00     0.212 A 
HETATM    4  C4  UNL     1     -40.902   5.370  -0.966  1.00 20.00     0.051 C 
HETATM    5  F7  UNL     1     -40.872   7.453   1.023  1.00 20.00    -0.222 F 
HETATM    6 CL8  UNL     1     -43.417   8.172   0.704  1.00 20.00    -0.079 Cl
ENDROOT
BRANCH   2   7
HETATM    7  O6  UNL     1     -43.194   6.059  -1.503  1.00 20.00    -0.381 OA
HETATM    8  C5  UNL     1     -43.175   4.694  -1.875  1.00 20.00     0.202 C 
ENDBRANCH   2   7
TORSDOF 1
ENDMDL
MODEL 6
REMARK VINA RESULT:      -3.5     17.044     17.453
REMARK  1 active torsions:
REMARK  status: ('A' for Active; 'I' for Inactive)
REMARK    1  A    between atoms: C2_2  and  O6_6 
ROOT
HETATM    1  C1  UNL     1     -23.921  16.612  10.472  1.00 20.00     0.106 A 
HETATM    2  C2  UNL     1     -24.368  18.010  10.136  1.00 20.00     0.111 A 
HETATM    3  C3  UNL     1     -23.002  17.777  10.732  1.00 20.00     0.212 A 
HETATM    4  C4  UNL     1     -25.439  18.660  10.946  1.00 20.00     0.051 C 
HETATM    5  F7  UNL     1     -22.841  18.129  12.068  1.00 20.00    -0.222 F 
HETATM    6 CL8  UNL     1     -21.568  17.946   9.734  1.00 20.00    -0.079 Cl
ENDROOT
BRANCH   2   7
HETATM    7  O6  UNL     1     -24.439  18.321   8.733  1.00 20.00    -0.381 OA
HETATM    8  C5  UNL     1     -25.476  19.249   8.475  1.00 20.00     0.202 C 
ENDBRANCH   2   7
TORSDOF 1
ENDMDL
MODEL 7
REMARK VINA RESULT:      -3.4     12.813     13.133
REMARK  1 active torsions:
REMARK  status: ('A' for Active; 'I' for Inactive)
REMARK    1  A    between atoms: C2_2  and  O6_6 
ROOT
HETATM    1  C1  UNL     1     -34.515  16.506  -4.166  1.00 20.00     0.106 A 
HETATM    2  C2  UNL     1     -34.211  15.074  -3.817  1.00 20.00     0.111 A 
HETATM    3  C3  UNL     1     -34.012  16.159  -2.790  1.00 20.00     0.212 A 
HETATM    4  C4  UNL     1     -33.031  14.396  -4.432  1.00 20.00     0.051 C 
HETATM    5  F7  UNL     1     -32.697  16.525  -2.522  1.00 20.00    -0.222 F 
HETATM    6 CL8  UNL     1     -35.120  16.301  -1.437  1.00 20.00    -0.079 Cl
ENDROOT
BRANCH   2   7
HETATM    7  O6  UNL     1     -35.354  14.212  -3.665  1.00 20.00    -0.381 OA
HETATM    8  C5  UNL     1     -36.009  14.021  -4.904  1.00 20.00     0.202 C 
ENDBRANCH   2   7
TORSDOF 1
ENDMDL
MODEL 8
REMARK VINA RESULT:      -3.4      9.423      9.709
REMARK  1 active torsions:
REMARK  status: ('A' for Active; 'I' for Inactive)
REMARK    1  A    between atoms: C2_2  and  O6_6 
ROOT
HETATM    1  C1  UNL     1     -43.158   7.637  -1.134  1.00 20.00     0.106 A 
HETATM    2  C2  UNL     1     -42.463   6.759  -0.129  1.00 20.00     0.111 A 
HETATM    3  C3  UNL     1     -41.744   7.946  -0.719  1.00 20.00     0.212 A 
HETATM    4  C4  UNL     1     -42.060   5.373  -0.510  1.00 20.00     0.051 C 
HETATM    5  F7  UNL     1     -40.765   7.669  -1.668  1.00 20.00    -0.222 F 
HETATM    6 CL8  UNL     1     -41.455   9.373   0.261  1.00 20.00    -0.079 Cl
ENDROOT
BRANCH   2   7
HETATM    7  O6  UNL     1     -42.931   6.869   1.227  1.00 20.00    -0.381 OA
HETATM    8  C5  UNL     1     -43.414   5.624   1.696  1.00 20.00     0.202 C 
ENDBRANCH   2   7
TORSDOF 1
ENDMDL
MODEL 9
REMARK VINA RESULT:      -3.4      9.013      9.456
REMARK  1 active torsions:
REMARK  status: ('A' for Active; 'I' for Inactive)
REMARK    1  A    between atoms: C2_2  and  O6_6 
ROOT
HETATM    1  C1  UNL     1     -40.983   5.751  -0.658  1.00 20.00     0.106 A 
HETATM    2  C2  UNL     1     -41.774   7.012  -0.438  1.00 20.00     0.111 A 
HETATM    3  C3  UNL     1     -42.419   5.667  -0.215  1.00 20.00     0.212 A 
HETATM    4  C4  UNL     1     -42.172   7.850  -1.607  1.00 20.00     0.051 C 
HETATM    5  F7  UNL     1     -43.324   5.245  -1.184  1.00 20.00    -0.222 F 
HETATM    6 CL8  UNL     1     -42.758   5.116   1.417  1.00 20.00    -0.079 Cl
ENDROOT
BRANCH   2   7
HETATM    7  O6  UNL     1     -41.414   7.780   0.724  1.00 20.00    -0.381 OA
HETATM    8  C5  UNL     1     -41.474   9.167   0.450  1.00 20.00     0.202 C 
ENDBRANCH   2   7
TORSDOF 1
ENDMDL
