MODEL 1
REMARK VINA RESULT:      -4.3      0.000      0.000
REMARK  2 active torsions:
REMARK  status: ('A' for Active; 'I' for Inactive)
REMARK    1  A    between atoms: C1_1  and  C7_7 
REMARK    2  A    between atoms: C4_4  and  C7_7 
ROOT
HETATM    1  C2  UNL     1     -24.103  16.156  11.592  1.00 20.00     0.197 C 
HETATM    2  C3  UNL     1     -23.015  17.077  12.075  1.00 20.00     0.197 C 
HETATM    3  C4  UNL     1     -24.058  18.013  10.293  1.00 20.00     0.169 C 
HETATM    4  C5  UNL     1     -25.361  18.800  10.236  1.00 20.00     0.080 C 
HETATM    5  O9  UNL     1     -24.349  16.607  10.260  1.00 20.00    -0.353 OA
HETATM    6  O10 UNL     1     -23.380  18.339  11.516  1.00 20.00    -0.353 OA
ENDROOT
BRANCH   3   7
HETATM    7  C7  UNL     1     -23.156  18.350   9.112  1.00 20.00     0.105 C 
HETATM    8  C6  UNL     1     -22.373  17.126   8.653  1.00 20.00     0.023 C 
BRANCH   7   9
HETATM    9  C1  UNL     1     -23.999  18.930   7.992  1.00 20.00     0.240 C 
HETATM   10  O8  UNL     1     -23.773  18.778   6.797  1.00 20.00    -0.306 OA
ENDBRANCH   7   9
ENDBRANCH   3   7
TORSDOF 2
ENDMDL
MODEL 2
REMARK VINA RESULT:      -4.3     17.543     19.089
REMARK  2 active torsions:
REMARK  status: ('A' for Active; 'I' for Inactive)
REMARK    1  A    between atoms: C1_1  and  C7_7 
REMARK    2  A    between atoms: C4_4  and  C7_7 
ROOT
HETATM    1  C2  UNL     1     -34.255  15.440  -7.059  1.00 20.00     0.197 C 
HETATM    2  C3  UNL     1     -34.748  16.621  -6.268  1.00 20.00     0.197 C 
HETATM    3  C4  UNL     1     -34.127  14.968  -4.845  1.00 20.00     0.169 C 
HETATM    4  C5  UNL     1     -32.740  14.597  -4.337  1.00 20.00     0.080 C 
HETATM    5  O9  UNL     1     -34.342  14.360  -6.129  1.00 20.00    -0.353 OA
HETATM    6  O10 UNL     1     -34.203  16.397  -4.968  1.00 20.00    -0.353 OA
ENDROOT
BRANCH   3   7
HETATM    7  C7  UNL     1     -35.213  14.486  -3.891  1.00 20.00     0.105 C 
HETATM    8  C6  UNL     1     -35.812  15.649  -3.109  1.00 20.00     0.023 C 
BRANCH   7   9
HETATM    9  C1  UNL     1     -36.270  13.736  -4.680  1.00 20.00     0.240 C 
HETATM   10  O8  UNL     1     -37.471  13.755  -4.432  1.00 20.00    -0.306 OA
ENDBRANCH   7   9
ENDBRANCH   3   7
TORSDOF 2
ENDMDL
MODEL 3
REMARK VINA RESULT:      -4.2      1.498      3.531
REMARK  2 active torsions:
REMARK  status: ('A' for Active; 'I' for Inactive)
REMARK    1  A    between atoms: C1_1  and  C7_7 
REMARK    2  A    between atoms: C4_4  and  C7_7 
ROOT
HETATM    1  C2  UNL     1     -22.547  17.261   8.507  1.00 20.00     0.197 C 
HETATM    2  C3  UNL     1     -23.451  18.464   8.498  1.00 20.00     0.197 C 
HETATM    3  C4  UNL     1     -23.370  17.598  10.592  1.00 20.00     0.169 C 
HETATM    4  C5  UNL     1     -22.324  17.793  11.682  1.00 20.00     0.080 C 
HETATM    5  O9  UNL     1     -22.933  16.566   9.693  1.00 20.00    -0.353 OA
HETATM    6  O10 UNL     1     -23.521  18.833   9.875  1.00 20.00    -0.353 OA
ENDROOT
BRANCH   3   7
HETATM    7  C7  UNL     1     -24.714  17.191  11.183  1.00 20.00     0.105 C 
HETATM    8  C6  UNL     1     -24.674  15.758  11.701  1.00 20.00     0.023 C 
BRANCH   7   9
HETATM    9  C1  UNL     1     -25.095  18.173  12.274  1.00 20.00     0.240 C 
HETATM   10  O8  UNL     1     -25.953  19.042  12.162  1.00 20.00    -0.306 OA
ENDBRANCH   7   9
ENDBRANCH   3   7
TORSDOF 2
ENDMDL
MODEL 4
REMARK VINA RESULT:      -4.1     16.456     18.093
REMARK  2 active torsions:
REMARK  status: ('A' for Active; 'I' for Inactive)
REMARK    1  A    between atoms: C1_1  and  C7_7 
REMARK    2  A    between atoms: C4_4  and  C7_7 
ROOT
HETATM    1  C2  UNL     1     -33.615  17.268  -2.951  1.00 20.00     0.197 C 
HETATM    2  C3  UNL     1     -34.607  16.476  -2.143  1.00 20.00     0.197 C 
HETATM    3  C4  UNL     1     -34.166  15.380  -4.079  1.00 20.00     0.169 C 
HETATM    4  C5  UNL     1     -32.998  14.467  -4.431  1.00 20.00     0.080 C 
HETATM    5  O9  UNL     1     -33.774  16.749  -4.271  1.00 20.00    -0.353 OA
HETATM    6  O10 UNL     1     -34.516  15.165  -2.703  1.00 20.00    -0.353 OA
ENDROOT
BRANCH   3   7
HETATM    7  C7  UNL     1     -35.377  15.093  -4.958  1.00 20.00     0.105 C 
HETATM    8  C6  UNL     1     -34.960  14.850  -6.403  1.00 20.00     0.023 C 
BRANCH   7   9
HETATM    9  C1  UNL     1     -36.137  13.912  -4.385  1.00 20.00     0.240 C 
HETATM   10  O8  UNL     1     -35.914  12.738  -4.662  1.00 20.00    -0.306 OA
ENDBRANCH   7   9
ENDBRANCH   3   7
TORSDOF 2
ENDMDL
MODEL 5
REMARK VINA RESULT:      -4.1      1.746      3.456
REMARK  2 active torsions:
REMARK  status: ('A' for Active; 'I' for Inactive)
REMARK    1  A    between atoms: C1_1  and  C7_7 
REMARK    2  A    between atoms: C4_4  and  C7_7 
ROOT
HETATM    1  C2  UNL     1     -22.716  17.012   9.336  1.00 20.00     0.197 C 
HETATM    2  C3  UNL     1     -22.059  17.772  10.455  1.00 20.00     0.197 C 
HETATM    3  C4  UNL     1     -24.155  17.172  11.081  1.00 20.00     0.169 C 
HETATM    4  C5  UNL     1     -24.658  15.845  11.634  1.00 20.00     0.080 C 
HETATM    5  O9  UNL     1     -24.107  17.102   9.647  1.00 20.00    -0.353 OA
HETATM    6  O10 UNL     1     -22.836  17.413  11.598  1.00 20.00    -0.353 OA
ENDROOT
BRANCH   3   7
HETATM    7  C7  UNL     1     -25.070  18.322  11.481  1.00 20.00     0.105 C 
HETATM    8  C6  UNL     1     -25.589  19.062  10.254  1.00 20.00     0.023 C 
BRANCH   7   9
HETATM    9  C1  UNL     1     -26.204  17.781  12.332  1.00 20.00     0.240 C 
HETATM   10  O8  UNL     1     -27.390  18.036  12.158  1.00 20.00    -0.306 OA
ENDBRANCH   7   9
ENDBRANCH   3   7
TORSDOF 2
ENDMDL
MODEL 6
REMARK VINA RESULT:      -4.1     16.067     17.458
REMARK  2 active torsions:
REMARK  status: ('A' for Active; 'I' for Inactive)
REMARK    1  A    between atoms: C1_1  and  C7_7 
REMARK    2  A    between atoms: C4_4  and  C7_7 
ROOT
HETATM    1  C2  UNL     1     -32.882  17.955  -3.239  1.00 20.00     0.197 C 
HETATM    2  C3  UNL     1     -33.833  18.182  -4.383  1.00 20.00     0.197 C 
HETATM    3  C4  UNL     1     -34.255  16.162  -3.442  1.00 20.00     0.169 C 
HETATM    4  C5  UNL     1     -35.071  15.823  -2.201  1.00 20.00     0.080 C 
HETATM    5  O9  UNL     1     -32.926  16.541  -3.048  1.00 20.00    -0.353 OA
HETATM    6  O10 UNL     1     -34.889  17.258  -4.121  1.00 20.00    -0.353 OA
ENDROOT
BRANCH   3   7
HETATM    7  C7  UNL     1     -34.161  14.970  -4.385  1.00 20.00     0.105 C 
HETATM    8  C6  UNL     1     -32.761  14.368  -4.371  1.00 20.00     0.023 C 
BRANCH   7   9
HETATM    9  C1  UNL     1     -35.215  13.949  -4.002  1.00 20.00     0.240 C 
HETATM   10  O8  UNL     1     -35.059  12.734  -4.046  1.00 20.00    -0.306 OA
ENDBRANCH   7   9
ENDBRANCH   3   7
TORSDOF 2
ENDMDL
MODEL 7
REMARK VINA RESULT:      -4.0     22.982     23.685
REMARK  2 active torsions:
REMARK  status: ('A' for Active; 'I' for Inactive)
REMARK    1  A    between atoms: C1_1  and  C7_7 
REMARK    2  A    between atoms: C4_4  and  C7_7 
ROOT
HETATM    1  C2  UNL     1     -42.457   4.863  -1.351  1.00 20.00     0.197 C 
HETATM    2  C3  UNL     1     -41.007   5.220  -1.166  1.00 20.00     0.197 C 
HETATM    3  C4  UNL     1     -42.304   6.814  -0.207  1.00 20.00     0.169 C 
HETATM    4  C5  UNL     1     -42.978   6.821   1.160  1.00 20.00     0.080 C 
HETATM    5  O9  UNL     1     -43.133   6.102  -1.141  1.00 20.00    -0.353 OA
HETATM    6  O10 UNL     1     -41.034   6.155  -0.087  1.00 20.00    -0.353 OA
ENDROOT
BRANCH   3   7
HETATM    7  C7  UNL     1     -42.091   8.230  -0.726  1.00 20.00     0.105 C 
HETATM    8  C6  UNL     1     -43.414   8.875  -1.120  1.00 20.00     0.023 C 
BRANCH   7   9
HETATM    9  C1  UNL     1     -41.362   9.041   0.328  1.00 20.00     0.240 C 
HETATM   10  O8  UNL     1     -41.386  10.264   0.408  1.00 20.00    -0.306 OA
ENDBRANCH   7   9
ENDBRANCH   3   7
TORSDOF 2
ENDMDL
MODEL 8
REMARK VINA RESULT:      -4.0     17.204     18.700
REMARK  2 active torsions:
REMARK  status: ('A' for Active; 'I' for Inactive)
REMARK    1  A    between atoms: C1_1  and  C7_7 
REMARK    2  A    between atoms: C4_4  and  C7_7 
ROOT
HETATM    1  C2  UNL     1     -36.067  18.167  -4.328  1.00 20.00     0.197 C 
HETATM    2  C3  UNL     1     -37.255  17.261  -4.499  1.00 20.00     0.197 C 
HETATM    3  C4  UNL     1     -35.488  16.053  -3.749  1.00 20.00     0.169 C 
HETATM    4  C5  UNL     1     -34.960  15.887  -2.330  1.00 20.00     0.080 C 
HETATM    5  O9  UNL     1     -34.961  17.264  -4.315  1.00 20.00    -0.353 OA
HETATM    6  O10 UNL     1     -36.922  16.126  -3.699  1.00 20.00    -0.353 OA
ENDROOT
BRANCH   3   7
HETATM    7  C7  UNL     1     -35.075  14.883  -4.634  1.00 20.00     0.105 C 
HETATM    8  C6  UNL     1     -33.656  14.428  -4.312  1.00 20.00     0.023 C 
BRANCH   7   9
HETATM    9  C1  UNL     1     -36.078  13.757  -4.469  1.00 20.00     0.240 C 
HETATM   10  O8  UNL     1     -35.792  12.565  -4.451  1.00 20.00    -0.306 OA
ENDBRANCH   7   9
ENDBRANCH   3   7
TORSDOF 2
ENDMDL
MODEL 9
REMARK VINA RESULT:      -3.9     17.905     19.701
REMARK  2 active torsions:
REMARK  status: ('A' for Active; 'I' for Inactive)
REMARK    1  A    between atoms: C1_1  and  C7_7 
REMARK    2  A    between atoms: C4_4  and  C7_7 
ROOT
HETATM    1  C2  UNL     1     -36.887  16.206  -6.731  1.00 20.00     0.197 C 
HETATM    2  C3  UNL     1     -36.314  17.142  -5.702  1.00 20.00     0.197 C 
HETATM    3  C4  UNL     1     -34.935  15.358  -5.949  1.00 20.00     0.169 C 
HETATM    4  C5  UNL     1     -33.869  15.096  -7.005  1.00 20.00     0.080 C 
HETATM    5  O9  UNL     1     -36.220  14.973  -6.463  1.00 20.00    -0.353 OA
HETATM    6  O10 UNL     1     -34.939  16.761  -5.640  1.00 20.00    -0.353 OA
ENDROOT
BRANCH   3   7
HETATM    7  C7  UNL     1     -34.662  14.564  -4.678  1.00 20.00     0.105 C 
HETATM    8  C6  UNL     1     -34.340  15.490  -3.511  1.00 20.00     0.023 C 
BRANCH   7   9
HETATM    9  C1  UNL     1     -35.857  13.679  -4.379  1.00 20.00     0.240 C 
HETATM   10  O8  UNL     1     -35.841  12.453  -4.402  1.00 20.00    -0.306 OA
ENDBRANCH   7   9
ENDBRANCH   3   7
TORSDOF 2
ENDMDL
