MODEL 1
REMARK VINA RESULT:      -4.4      0.000      0.000
REMARK  2 active torsions:
REMARK  status: ('A' for Active; 'I' for Inactive)
REMARK    1  A    between atoms: C2_2  and  C6_6 
REMARK    2  A    between atoms: C3_3  and  C6_6 
ROOT
HETATM    1  C1  UNL     1     -32.838   8.006   1.486  1.00 20.00    -0.110 C 
HETATM    2  C2  UNL     1     -32.892   7.080   2.248  1.00 20.00    -0.092 C 
HETATM    3  C4  UNL     1     -32.769   9.135   0.559  1.00 20.00     0.112 C 
ENDROOT
BRANCH   2   4
HETATM    4  C6  UNL     1     -32.962   5.941   3.183  1.00 20.00     0.162 C 
HETATM    5  C5  UNL     1     -33.258   4.653   2.425  1.00 20.00     0.035 C 
BRANCH   4   6
HETATM    6  C3  UNL     1     -33.991   6.246   4.288  1.00 20.00     0.188 C 
HETATM    7  O7  UNL     1     -35.098   5.648   4.151  1.00 20.00    -0.647 OA
HETATM    8  O8  UNL     1     -33.625   7.045   5.193  1.00 20.00    -0.647 OA
ENDBRANCH   4   6
ENDBRANCH   2   4
TORSDOF 2
ENDMDL
MODEL 2
REMARK VINA RESULT:      -4.4      0.039      1.141
REMARK  2 active torsions:
REMARK  status: ('A' for Active; 'I' for Inactive)
REMARK    1  A    between atoms: C2_2  and  C6_6 
REMARK    2  A    between atoms: C3_3  and  C6_6 
ROOT
HETATM    1  C1  UNL     1     -32.816   7.983   1.481  1.00 20.00    -0.110 C 
HETATM    2  C2  UNL     1     -32.887   7.057   2.242  1.00 20.00    -0.092 C 
HETATM    3  C4  UNL     1     -32.729   9.112   0.555  1.00 20.00     0.112 C 
ENDROOT
BRANCH   2   4
HETATM    4  C6  UNL     1     -32.973   5.918   3.175  1.00 20.00     0.162 C 
HETATM    5  C5  UNL     1     -33.291   4.636   2.415  1.00 20.00     0.035 C 
BRANCH   4   6
HETATM    6  C3  UNL     1     -33.997   6.237   4.281  1.00 20.00     0.188 C 
HETATM    7  O7  UNL     1     -33.587   7.058   5.153  1.00 20.00    -0.647 OA
HETATM    8  O8  UNL     1     -35.115   5.657   4.198  1.00 20.00    -0.647 OA
ENDBRANCH   4   6
ENDBRANCH   2   4
TORSDOF 2
ENDMDL
MODEL 3
REMARK VINA RESULT:      -4.3     10.483     11.221
REMARK  2 active torsions:
REMARK  status: ('A' for Active; 'I' for Inactive)
REMARK    1  A    between atoms: C2_2  and  C6_6 
REMARK    2  A    between atoms: C3_3  and  C6_6 
ROOT
HETATM    1  C1  UNL     1     -35.207  16.065  -2.278  1.00 20.00    -0.110 C 
HETATM    2  C2  UNL     1     -35.271  15.485  -3.328  1.00 20.00    -0.092 C 
HETATM    3  C4  UNL     1     -35.131  16.771  -1.000  1.00 20.00     0.112 C 
ENDROOT
BRANCH   2   4
HETATM    4  C6  UNL     1     -35.347  14.774  -4.617  1.00 20.00     0.162 C 
HETATM    5  C5  UNL     1     -35.760  15.733  -5.727  1.00 20.00     0.035 C 
BRANCH   4   6
HETATM    6  C3  UNL     1     -36.290  13.563  -4.481  1.00 20.00     0.188 C 
HETATM    7  O7  UNL     1     -37.521  13.857  -4.477  1.00 20.00    -0.647 OA
HETATM    8  O8  UNL     1     -35.742  12.430  -4.391  1.00 20.00    -0.647 OA
ENDBRANCH   4   6
ENDBRANCH   2   4
TORSDOF 2
ENDMDL
MODEL 4
REMARK VINA RESULT:      -4.3     10.420     10.978
REMARK  2 active torsions:
REMARK  status: ('A' for Active; 'I' for Inactive)
REMARK    1  A    between atoms: C2_2  and  C6_6 
REMARK    2  A    between atoms: C3_3  and  C6_6 
ROOT
HETATM    1  C1  UNL     1     -34.937  16.079  -2.004  1.00 20.00    -0.110 C 
HETATM    2  C2  UNL     1     -34.778  15.342  -2.939  1.00 20.00    -0.092 C 
HETATM    3  C4  UNL     1     -35.133  16.977  -0.867  1.00 20.00     0.112 C 
ENDROOT
BRANCH   2   4
HETATM    4  C6  UNL     1     -34.579  14.436  -4.085  1.00 20.00     0.162 C 
HETATM    5  C5  UNL     1     -34.028  15.207  -5.278  1.00 20.00     0.035 C 
BRANCH   4   6
HETATM    6  C3  UNL     1     -35.898  13.702  -4.394  1.00 20.00     0.188 C 
HETATM    7  O7  UNL     1     -35.797  12.442  -4.440  1.00 20.00    -0.647 OA
HETATM    8  O8  UNL     1     -36.918  14.426  -4.564  1.00 20.00    -0.647 OA
ENDBRANCH   4   6
ENDBRANCH   2   4
TORSDOF 2
ENDMDL
MODEL 5
REMARK VINA RESULT:      -4.2      1.752      2.600
REMARK  2 active torsions:
REMARK  status: ('A' for Active; 'I' for Inactive)
REMARK    1  A    between atoms: C2_2  and  C6_6 
REMARK    2  A    between atoms: C3_3  and  C6_6 
ROOT
HETATM    1  C1  UNL     1     -32.966   6.984   2.725  1.00 20.00    -0.110 C 
HETATM    2  C2  UNL     1     -33.620   6.723   3.697  1.00 20.00    -0.092 C 
HETATM    3  C4  UNL     1     -32.168   7.299   1.540  1.00 20.00     0.112 C 
ENDROOT
BRANCH   2   4
HETATM    4  C6  UNL     1     -34.425   6.406   4.891  1.00 20.00     0.162 C 
HETATM    5  C5  UNL     1     -33.809   7.046   6.129  1.00 20.00     0.035 C 
BRANCH   4   6
HETATM    6  C3  UNL     1     -34.583   4.878   5.013  1.00 20.00     0.188 C 
HETATM    7  O7  UNL     1     -34.690   4.457   6.202  1.00 20.00    -0.647 OA
HETATM    8  O8  UNL     1     -34.589   4.225   3.933  1.00 20.00    -0.647 OA
ENDBRANCH   4   6
ENDBRANCH   2   4
TORSDOF 2
ENDMDL
MODEL 6
REMARK VINA RESULT:      -4.1      1.963      3.709
REMARK  2 active torsions:
REMARK  status: ('A' for Active; 'I' for Inactive)
REMARK    1  A    between atoms: C2_2  and  C6_6 
REMARK    2  A    between atoms: C3_3  and  C6_6 
ROOT
HETATM    1  C1  UNL     1     -34.502   5.638   5.000  1.00 20.00    -0.110 C 
HETATM    2  C2  UNL     1     -34.070   5.755   3.886  1.00 20.00    -0.092 C 
HETATM    3  C4  UNL     1     -35.028   5.496   6.357  1.00 20.00     0.112 C 
ENDROOT
BRANCH   2   4
HETATM    4  C6  UNL     1     -33.539   5.897   2.517  1.00 20.00     0.162 C 
HETATM    5  C5  UNL     1     -32.915   4.586   2.054  1.00 20.00     0.035 C 
BRANCH   4   6
HETATM    6  C3  UNL     1     -32.560   7.086   2.467  1.00 20.00     0.188 C 
HETATM    7  O7  UNL     1     -32.543   7.702   1.362  1.00 20.00    -0.647 OA
HETATM    8  O8  UNL     1     -31.894   7.311   3.515  1.00 20.00    -0.647 OA
ENDBRANCH   4   6
ENDBRANCH   2   4
TORSDOF 2
ENDMDL
MODEL 7
REMARK VINA RESULT:      -3.9     10.601     11.780
REMARK  2 active torsions:
REMARK  status: ('A' for Active; 'I' for Inactive)
REMARK    1  A    between atoms: C2_2  and  C6_6 
REMARK    2  A    between atoms: C3_3  and  C6_6 
ROOT
HETATM    1  C1  UNL     1     -34.882  15.882  -6.629  1.00 20.00    -0.110 C 
HETATM    2  C2  UNL     1     -35.360  15.544  -5.581  1.00 20.00    -0.092 C 
HETATM    3  C4  UNL     1     -34.301  16.294  -7.907  1.00 20.00     0.112 C 
ENDROOT
BRANCH   2   4
HETATM    4  C6  UNL     1     -35.945  15.129  -4.293  1.00 20.00     0.162 C 
HETATM    5  C5  UNL     1     -34.887  15.165  -3.196  1.00 20.00     0.035 C 
BRANCH   4   6
HETATM    6  C3  UNL     1     -36.608  13.747  -4.451  1.00 20.00     0.188 C 
HETATM    7  O7  UNL     1     -37.873  13.768  -4.428  1.00 20.00    -0.647 OA
HETATM    8  O8  UNL     1     -35.830  12.762  -4.585  1.00 20.00    -0.647 OA
ENDBRANCH   4   6
ENDBRANCH   2   4
TORSDOF 2
ENDMDL
MODEL 8
REMARK VINA RESULT:      -3.9     10.205     10.972
REMARK  2 active torsions:
REMARK  status: ('A' for Active; 'I' for Inactive)
REMARK    1  A    between atoms: C2_2  and  C6_6 
REMARK    2  A    between atoms: C3_3  and  C6_6 
ROOT
HETATM    1  C1  UNL     1     -35.161  16.300  -2.065  1.00 20.00    -0.110 C 
HETATM    2  C2  UNL     1     -35.504  15.676  -3.032  1.00 20.00    -0.092 C 
HETATM    3  C4  UNL     1     -34.746  17.062  -0.887  1.00 20.00     0.112 C 
ENDROOT
BRANCH   2   4
HETATM    4  C6  UNL     1     -35.922  14.907  -4.218  1.00 20.00     0.162 C 
HETATM    5  C5  UNL     1     -37.430  14.688  -4.202  1.00 20.00     0.035 C 
BRANCH   4   6
HETATM    6  C3  UNL     1     -35.120  13.594  -4.289  1.00 20.00     0.188 C 
HETATM    7  O7  UNL     1     -33.865  13.743  -4.216  1.00 20.00    -0.647 OA
HETATM    8  O8  UNL     1     -35.789  12.530  -4.407  1.00 20.00    -0.647 OA
ENDBRANCH   4   6
ENDBRANCH   2   4
TORSDOF 2
ENDMDL
MODEL 9
REMARK VINA RESULT:      -3.7     10.504     11.908
REMARK  2 active torsions:
REMARK  status: ('A' for Active; 'I' for Inactive)
REMARK    1  A    between atoms: C2_2  and  C6_6 
REMARK    2  A    between atoms: C3_3  and  C6_6 
ROOT
HETATM    1  C1  UNL     1     -35.767  16.632  -6.215  1.00 20.00    -0.110 C 
HETATM    2  C2  UNL     1     -35.814  15.923  -5.247  1.00 20.00    -0.092 C 
HETATM    3  C4  UNL     1     -35.712  17.495  -7.395  1.00 20.00     0.112 C 
ENDROOT
BRANCH   2   4
HETATM    4  C6  UNL     1     -35.868  15.054  -4.057  1.00 20.00     0.162 C 
HETATM    5  C5  UNL     1     -34.467  14.831  -3.501  1.00 20.00     0.035 C 
BRANCH   4   6
HETATM    6  C3  UNL     1     -36.596  13.743  -4.412  1.00 20.00     0.188 C 
HETATM    7  O7  UNL     1     -35.829  12.751  -4.588  1.00 20.00    -0.647 OA
HETATM    8  O8  UNL     1     -37.854  13.800  -4.486  1.00 20.00    -0.647 OA
ENDBRANCH   4   6
ENDBRANCH   2   4
TORSDOF 2
ENDMDL
