MODEL 1
REMARK VINA RESULT:      -4.7      0.000      0.000
REMARK  2 active torsions:
REMARK  status: ('A' for Active; 'I' for Inactive)
REMARK    1  A    between atoms: C4_4  and  C8_8 
REMARK    2  A    between atoms: C5_5  and  C9_9 
ROOT
HETATM    1  C1  UNL     1     -22.333  17.813  11.187  1.00 20.00     0.139 C 
HETATM    2  C6  UNL     1     -21.399  18.151  10.049  1.00 20.00     0.080 C 
HETATM    3  C7  UNL     1     -22.339  18.180   8.848  1.00 20.00     0.017 C 
HETATM    4  C8  UNL     1     -23.673  18.651   9.436  1.00 20.00     0.027 C 
HETATM    5  C9  UNL     1     -23.801  17.867  10.769  1.00 20.00     0.041 C 
HETATM    6  C10 UNL     1     -24.651  18.608  11.797  1.00 20.00     0.028 C 
HETATM    7  O11 UNL     1     -21.940  17.525  12.312  1.00 20.00    -0.297 OA
ENDROOT
BRANCH   5   8
HETATM    8  C5  UNL     1     -24.248  16.438  10.638  1.00 20.00    -0.019 C 
HETATM    9  C3  UNL     1     -24.728  15.709  11.651  1.00 20.00     0.008 C 
ENDBRANCH   5   8
BRANCH   4  10
HETATM   10  C4  UNL     1     -24.818  18.516   8.486  1.00 20.00    -0.031 C 
HETATM   11  C2  UNL     1     -24.838  19.045   7.258  1.00 20.00     0.007 C 
ENDBRANCH   4  10
TORSDOF 2
ENDMDL
MODEL 2
REMARK VINA RESULT:      -4.7      1.507      2.614
REMARK  2 active torsions:
REMARK  status: ('A' for Active; 'I' for Inactive)
REMARK    1  A    between atoms: C4_4  and  C8_8 
REMARK    2  A    between atoms: C5_5  and  C9_9 
ROOT
HETATM    1  C1  UNL     1     -23.139  18.299   9.754  1.00 20.00     0.139 C 
HETATM    2  C6  UNL     1     -23.915  19.238   8.861  1.00 20.00     0.080 C 
HETATM    3  C7  UNL     1     -25.303  19.225   9.496  1.00 20.00     0.017 C 
HETATM    4  C8  UNL     1     -25.024  19.003  10.986  1.00 20.00     0.027 C 
HETATM    5  C9  UNL     1     -23.920  17.913  11.008  1.00 20.00     0.041 C 
HETATM    6  C10 UNL     1     -23.050  17.997  12.260  1.00 20.00     0.028 C 
HETATM    7  O11 UNL     1     -22.012  17.898   9.484  1.00 20.00    -0.297 OA
ENDROOT
BRANCH   5   8
HETATM    8  C5  UNL     1     -24.396  16.505  10.785  1.00 20.00    -0.019 C 
HETATM    9  C3  UNL     1     -24.526  15.597  11.756  1.00 20.00     0.008 C 
ENDBRANCH   5   8
BRANCH   4  10
HETATM   10  C4  UNL     1     -26.254  18.704  11.778  1.00 20.00    -0.031 C 
HETATM   11  C2  UNL     1     -27.488  19.062  11.408  1.00 20.00     0.007 C 
ENDBRANCH   4  10
TORSDOF 2
ENDMDL
MODEL 3
REMARK VINA RESULT:      -4.5     16.382     18.499
REMARK  2 active torsions:
REMARK  status: ('A' for Active; 'I' for Inactive)
REMARK    1  A    between atoms: C4_4  and  C8_8 
REMARK    2  A    between atoms: C5_5  and  C9_9 
ROOT
HETATM    1  C1  UNL     1     -34.257  14.900  -4.950  1.00 20.00     0.139 C 
HETATM    2  C6  UNL     1     -32.907  15.051  -4.291  1.00 20.00     0.080 C 
HETATM    3  C7  UNL     1     -33.222  15.942  -3.093  1.00 20.00     0.017 C 
HETATM    4  C8  UNL     1     -34.660  15.566  -2.723  1.00 20.00     0.027 C 
HETATM    5  C9  UNL     1     -35.389  15.456  -4.088  1.00 20.00     0.041 C 
HETATM    6  C10 UNL     1     -36.577  14.499  -4.034  1.00 20.00     0.028 C 
HETATM    7  O11 UNL     1     -34.410  14.390  -6.055  1.00 20.00    -0.297 OA
ENDROOT
BRANCH   5   8
HETATM    8  C5  UNL     1     -35.786  16.763  -4.717  1.00 20.00    -0.019 C 
HETATM    9  C3  UNL     1     -37.016  17.034  -5.163  1.00 20.00     0.008 C 
ENDBRANCH   5   8
BRANCH   4  10
HETATM   10  C4  UNL     1     -35.275  16.493  -1.726  1.00 20.00    -0.031 C 
HETATM   11  C2  UNL     1     -34.585  17.388  -1.011  1.00 20.00     0.007 C 
ENDBRANCH   4  10
TORSDOF 2
ENDMDL
MODEL 4
REMARK VINA RESULT:      -4.2     16.966     18.655
REMARK  2 active torsions:
REMARK  status: ('A' for Active; 'I' for Inactive)
REMARK    1  A    between atoms: C4_4  and  C8_8 
REMARK    2  A    between atoms: C5_5  and  C9_9 
ROOT
HETATM    1  C1  UNL     1     -34.385  15.377  -5.769  1.00 20.00     0.139 C 
HETATM    2  C6  UNL     1     -35.045  16.735  -5.804  1.00 20.00     0.080 C 
HETATM    3  C7  UNL     1     -35.223  17.054  -4.323  1.00 20.00     0.017 C 
HETATM    4  C8  UNL     1     -34.036  16.356  -3.651  1.00 20.00     0.027 C 
HETATM    5  C9  UNL     1     -33.954  14.978  -4.359  1.00 20.00     0.041 C 
HETATM    6  C10 UNL     1     -32.539  14.405  -4.345  1.00 20.00     0.028 C 
HETATM    7  O11 UNL     1     -34.225  14.685  -6.768  1.00 20.00    -0.297 OA
ENDROOT
BRANCH   5   8
HETATM    8  C5  UNL     1     -34.949  13.951  -3.896  1.00 20.00    -0.019 C 
HETATM    9  C3  UNL     1     -36.113  13.709  -4.506  1.00 20.00     0.008 C 
ENDBRANCH   5   8
BRANCH   4  10
HETATM   10  C4  UNL     1     -34.139  16.320  -2.161  1.00 20.00    -0.031 C 
HETATM   11  C2  UNL     1     -35.226  16.691  -1.477  1.00 20.00     0.007 C 
ENDBRANCH   4  10
TORSDOF 2
ENDMDL
MODEL 5
REMARK VINA RESULT:      -4.2     17.297     19.488
REMARK  2 active torsions:
REMARK  status: ('A' for Active; 'I' for Inactive)
REMARK    1  A    between atoms: C4_4  and  C8_8 
REMARK    2  A    between atoms: C5_5  and  C9_9 
ROOT
HETATM    1  C1  UNL     1     -36.233  13.952  -4.525  1.00 20.00     0.139 C 
HETATM    2  C6  UNL     1     -37.667  14.378  -4.320  1.00 20.00     0.080 C 
HETATM    3  C7  UNL     1     -37.540  15.888  -4.139  1.00 20.00     0.017 C 
HETATM    4  C8  UNL     1     -36.328  16.260  -5.000  1.00 20.00     0.027 C 
HETATM    5  C9  UNL     1     -35.293  15.142  -4.706  1.00 20.00     0.041 C 
HETATM    6  C10 UNL     1     -34.330  14.926  -5.870  1.00 20.00     0.028 C 
HETATM    7  O11 UNL     1     -35.879  12.778  -4.538  1.00 20.00    -0.297 OA
ENDROOT
BRANCH   5   8
HETATM    8  C5  UNL     1     -34.542  15.279  -3.411  1.00 20.00    -0.019 C 
HETATM    9  C3  UNL     1     -33.301  15.764  -3.315  1.00 20.00     0.008 C 
ENDBRANCH   5   8
BRANCH   4  10
HETATM   10  C4  UNL     1     -35.857  17.661  -4.781  1.00 20.00    -0.031 C 
HETATM   11  C2  UNL     1     -36.400  18.504  -3.896  1.00 20.00     0.007 C 
ENDBRANCH   4  10
TORSDOF 2
ENDMDL
MODEL 6
REMARK VINA RESULT:      -4.2     16.617     19.043
REMARK  2 active torsions:
REMARK  status: ('A' for Active; 'I' for Inactive)
REMARK    1  A    between atoms: C4_4  and  C8_8 
REMARK    2  A    between atoms: C5_5  and  C9_9 
ROOT
HETATM    1  C1  UNL     1     -36.433  14.225  -4.247  1.00 20.00     0.139 C 
HETATM    2  C6  UNL     1     -35.364  13.169  -4.089  1.00 20.00     0.080 C 
HETATM    3  C7  UNL     1     -34.087  14.001  -4.024  1.00 20.00     0.017 C 
HETATM    4  C8  UNL     1     -34.533  15.310  -3.366  1.00 20.00     0.027 C 
HETATM    5  C9  UNL     1     -35.888  15.637  -4.048  1.00 20.00     0.041 C 
HETATM    6  C10 UNL     1     -36.800  16.471  -3.152  1.00 20.00     0.028 C 
HETATM    7  O11 UNL     1     -37.601  13.960  -4.510  1.00 20.00    -0.297 OA
ENDROOT
BRANCH   5   8
HETATM    8  C5  UNL     1     -35.791  16.243  -5.421  1.00 20.00    -0.019 C 
HETATM    9  C3  UNL     1     -36.323  17.422  -5.757  1.00 20.00     0.008 C 
ENDBRANCH   5   8
BRANCH   4  10
HETATM   10  C4  UNL     1     -33.495  16.384  -3.424  1.00 20.00    -0.031 C 
HETATM   11  C2  UNL     1     -33.115  17.115  -2.372  1.00 20.00     0.007 C 
ENDBRANCH   4  10
TORSDOF 2
ENDMDL
MODEL 7
REMARK VINA RESULT:      -4.1     16.765     18.826
REMARK  2 active torsions:
REMARK  status: ('A' for Active; 'I' for Inactive)
REMARK    1  A    between atoms: C4_4  and  C8_8 
REMARK    2  A    between atoms: C5_5  and  C9_9 
ROOT
HETATM    1  C1  UNL     1     -35.050  14.011  -4.355  1.00 20.00     0.139 C 
HETATM    2  C6  UNL     1     -36.098  14.080  -5.441  1.00 20.00     0.080 C 
HETATM    3  C7  UNL     1     -36.432  15.567  -5.484  1.00 20.00     0.017 C 
HETATM    4  C8  UNL     1     -35.118  16.251  -5.092  1.00 20.00     0.027 C 
HETATM    5  C9  UNL     1     -34.580  15.396  -3.915  1.00 20.00     0.041 C 
HETATM    6  C10 UNL     1     -33.059  15.462  -3.800  1.00 20.00     0.028 C 
HETATM    7  O11 UNL     1     -34.639  12.955  -3.888  1.00 20.00    -0.297 OA
ENDROOT
BRANCH   5   8
HETATM    8  C5  UNL     1     -35.226  15.649  -2.582  1.00 20.00    -0.019 C 
HETATM    9  C3  UNL     1     -34.735  16.482  -1.659  1.00 20.00     0.008 C 
ENDBRANCH   5   8
BRANCH   4  10
HETATM   10  C4  UNL     1     -35.271  17.713  -4.822  1.00 20.00    -0.031 C 
HETATM   11  C2  UNL     1     -36.433  18.369  -4.893  1.00 20.00     0.007 C 
ENDBRANCH   4  10
TORSDOF 2
ENDMDL
MODEL 8
REMARK VINA RESULT:      -4.1     17.144     19.505
REMARK  2 active torsions:
REMARK  status: ('A' for Active; 'I' for Inactive)
REMARK    1  A    between atoms: C4_4  and  C8_8 
REMARK    2  A    between atoms: C5_5  and  C9_9 
ROOT
HETATM    1  C1  UNL     1     -35.523  15.093  -6.090  1.00 20.00     0.139 C 
HETATM    2  C6  UNL     1     -34.477  16.172  -6.236  1.00 20.00     0.080 C 
HETATM    3  C7  UNL     1     -34.303  16.659  -4.801  1.00 20.00     0.017 C 
HETATM    4  C8  UNL     1     -34.575  15.412  -3.954  1.00 20.00     0.027 C 
HETATM    5  C9  UNL     1     -35.809  14.755  -4.629  1.00 20.00     0.041 C 
HETATM    6  C10 UNL     1     -35.858  13.247  -4.400  1.00 20.00     0.028 C 
HETATM    7  O11 UNL     1     -36.074  14.561  -7.048  1.00 20.00    -0.297 OA
ENDROOT
BRANCH   5   8
HETATM    8  C5  UNL     1     -37.135  15.386  -4.308  1.00 20.00    -0.019 C 
HETATM    9  C3  UNL     1     -38.289  14.715  -4.256  1.00 20.00     0.008 C 
ENDBRANCH   5   8
BRANCH   4  10
HETATM   10  C4  UNL     1     -34.708  15.707  -2.495  1.00 20.00    -0.031 C 
HETATM   11  C2  UNL     1     -34.311  16.848  -1.923  1.00 20.00     0.007 C 
ENDBRANCH   4  10
TORSDOF 2
ENDMDL
MODEL 9
REMARK VINA RESULT:      -4.0     16.592     18.368
REMARK  2 active torsions:
REMARK  status: ('A' for Active; 'I' for Inactive)
REMARK    1  A    between atoms: C4_4  and  C8_8 
REMARK    2  A    between atoms: C5_5  and  C9_9 
ROOT
HETATM    1  C1  UNL     1     -33.574  16.479  -3.027  1.00 20.00     0.139 C 
HETATM    2  C6  UNL     1     -34.608  16.637  -1.938  1.00 20.00     0.080 C 
HETATM    3  C7  UNL     1     -35.811  15.895  -2.514  1.00 20.00     0.017 C 
HETATM    4  C8  UNL     1     -35.185  14.789  -3.370  1.00 20.00     0.027 C 
HETATM    5  C9  UNL     1     -34.016  15.495  -4.108  1.00 20.00     0.041 C 
HETATM    6  C10 UNL     1     -32.896  14.525  -4.477  1.00 20.00     0.028 C 
HETATM    7  O11 UNL     1     -32.508  17.083  -3.030  1.00 20.00    -0.297 OA
ENDROOT
BRANCH   5   8
HETATM    8  C5  UNL     1     -34.409  16.329  -5.294  1.00 20.00    -0.019 C 
HETATM    9  C3  UNL     1     -34.241  15.950  -6.565  1.00 20.00     0.008 C 
ENDBRANCH   5   8
BRANCH   4  10
HETATM   10  C4  UNL     1     -36.175  14.083  -4.238  1.00 20.00    -0.031 C 
HETATM   11  C2  UNL     1     -37.459  14.438  -4.350  1.00 20.00     0.007 C 
ENDBRANCH   4  10
TORSDOF 2
ENDMDL
