MODEL 1
REMARK VINA RESULT:      -4.5      0.000      0.000
REMARK  2 active torsions:
REMARK  status: ('A' for Active; 'I' for Inactive)
REMARK    1  A    between atoms: C3_3  and  C4_4 
REMARK    2  A    between atoms: C4_4  and  S7_7 
ROOT
HETATM    1  C4  UNL     1     -35.891  15.492  -3.630  1.00 20.00     0.162 C 
ENDROOT
BRANCH   1   2
HETATM    2  C3  UNL     1     -34.674  15.417  -2.775  1.00 20.00     0.001 A 
HETATM    3  C1  UNL     1     -33.404  16.103  -3.203  1.00 20.00     0.006 A 
HETATM    4  C2  UNL     1     -34.190  16.635  -2.037  1.00 20.00     0.006 A 
ENDBRANCH   1   2
BRANCH   1   5
HETATM    5  S7  UNL     1     -36.172  13.989  -4.527  1.00 20.00     0.230 S 
HETATM    6  O5  UNL     1     -37.584  13.678  -4.476  1.00 20.00    -0.211 OA
HETATM    7  O6  UNL     1     -35.160  13.027  -4.143  1.00 20.00    -0.211 OA
HETATM    8 CL8  UNL     1     -35.789  14.410  -6.493  1.00 20.00     0.018 Cl
ENDBRANCH   1   5
TORSDOF 2
ENDMDL
MODEL 2
REMARK VINA RESULT:      -4.3      1.583      1.812
REMARK  2 active torsions:
REMARK  status: ('A' for Active; 'I' for Inactive)
REMARK    1  A    between atoms: C3_3  and  C4_4 
REMARK    2  A    between atoms: C4_4  and  S7_7 
ROOT
HETATM    1  C4  UNL     1     -34.839  15.195  -4.694  1.00 20.00     0.162 C 
ENDROOT
BRANCH   1   2
HETATM    2  C3  UNL     1     -34.442  15.097  -3.262  1.00 20.00     0.001 A 
HETATM    3  C1  UNL     1     -33.674  16.214  -2.610  1.00 20.00     0.006 A 
HETATM    4  C2  UNL     1     -35.107  15.966  -2.230  1.00 20.00     0.006 A 
ENDBRANCH   1   2
BRANCH   1   5
HETATM    5  S7  UNL     1     -36.065  13.992  -5.133  1.00 20.00     0.230 S 
HETATM    6  O5  UNL     1     -35.753  12.749  -4.460  1.00 20.00    -0.211 OA
HETATM    7  O6  UNL     1     -36.283  14.058  -6.563  1.00 20.00    -0.211 OA
HETATM    8 CL8  UNL     1     -37.822  14.627  -4.296  1.00 20.00     0.018 Cl
ENDBRANCH   1   5
TORSDOF 2
ENDMDL
MODEL 3
REMARK VINA RESULT:      -4.2      2.809      3.287
REMARK  2 active torsions:
REMARK  status: ('A' for Active; 'I' for Inactive)
REMARK    1  A    between atoms: C3_3  and  C4_4 
REMARK    2  A    between atoms: C4_4  and  S7_7 
ROOT
HETATM    1  C4  UNL     1     -35.935  14.405  -6.204  1.00 20.00     0.162 C 
ENDROOT
BRANCH   1   2
HETATM    2  C3  UNL     1     -34.615  15.095  -6.215  1.00 20.00     0.001 A 
HETATM    3  C1  UNL     1     -33.845  15.237  -7.499  1.00 20.00     0.006 A 
HETATM    4  C2  UNL     1     -34.472  16.445  -6.861  1.00 20.00     0.006 A 
ENDBRANCH   1   2
BRANCH   1   5
HETATM    5  S7  UNL     1     -36.358  13.795  -4.595  1.00 20.00     0.230 S 
HETATM    6  O5  UNL     1     -35.672  12.538  -4.382  1.00 20.00    -0.211 OA
HETATM    7  O6  UNL     1     -37.788  13.929  -4.412  1.00 20.00    -0.211 OA
HETATM    8 CL8  UNL     1     -35.525  15.092  -3.248  1.00 20.00     0.018 Cl
ENDBRANCH   1   5
TORSDOF 2
ENDMDL
MODEL 4
REMARK VINA RESULT:      -4.0     11.721     12.078
REMARK  2 active torsions:
REMARK  status: ('A' for Active; 'I' for Inactive)
REMARK    1  A    between atoms: C3_3  and  C4_4 
REMARK    2  A    between atoms: C4_4  and  S7_7 
ROOT
HETATM    1  C4  UNL     1     -33.561   5.526   2.940  1.00 20.00     0.162 C 
ENDROOT
BRANCH   1   2
HETATM    2  C3  UNL     1     -33.209   6.973   2.931  1.00 20.00     0.001 A 
HETATM    3  C1  UNL     1     -31.781   7.407   3.123  1.00 20.00     0.006 A 
HETATM    4  C2  UNL     1     -32.440   7.559   1.780  1.00 20.00     0.006 A 
ENDBRANCH   1   2
BRANCH   1   5
HETATM    5  S7  UNL     1     -34.642   5.108   4.280  1.00 20.00     0.230 S 
HETATM    6  O5  UNL     1     -34.324   3.770   4.730  1.00 20.00    -0.211 OA
HETATM    7  O6  UNL     1     -35.991   5.497   3.924  1.00 20.00    -0.211 OA
HETATM    8 CL8  UNL     1     -34.128   6.331   5.839  1.00 20.00     0.018 Cl
ENDBRANCH   1   5
TORSDOF 2
ENDMDL
MODEL 5
REMARK VINA RESULT:      -4.0      1.481      1.703
REMARK  2 active torsions:
REMARK  status: ('A' for Active; 'I' for Inactive)
REMARK    1  A    between atoms: C3_3  and  C4_4 
REMARK    2  A    between atoms: C4_4  and  S7_7 
ROOT
HETATM    1  C4  UNL     1     -36.184  15.759  -3.802  1.00 20.00     0.162 C 
ENDROOT
BRANCH   1   2
HETATM    2  C3  UNL     1     -35.194  15.491  -2.722  1.00 20.00     0.001 A 
HETATM    3  C1  UNL     1     -33.838  16.143  -2.758  1.00 20.00     0.006 A 
HETATM    4  C2  UNL     1     -34.849  16.566  -1.728  1.00 20.00     0.006 A 
ENDBRANCH   1   2
BRANCH   1   5
HETATM    5  S7  UNL     1     -36.575  14.299  -4.728  1.00 20.00     0.230 S 
HETATM    6  O5  UNL     1     -36.264  14.538  -6.121  1.00 20.00    -0.211 OA
HETATM    7  O6  UNL     1     -37.873  13.818  -4.303  1.00 20.00    -0.211 OA
HETATM    8 CL8  UNL     1     -35.250  12.860  -4.124  1.00 20.00     0.018 Cl
ENDBRANCH   1   5
TORSDOF 2
ENDMDL
MODEL 6
REMARK VINA RESULT:      -3.7      1.703      1.713
REMARK  2 active torsions:
REMARK  status: ('A' for Active; 'I' for Inactive)
REMARK    1  A    between atoms: C3_3  and  C4_4 
REMARK    2  A    between atoms: C4_4  and  S7_7 
ROOT
HETATM    1  C4  UNL     1     -35.859  15.848  -4.594  1.00 20.00     0.162 C 
ENDROOT
BRANCH   1   2
HETATM    2  C3  UNL     1     -35.077  15.253  -3.474  1.00 20.00     0.001 A 
HETATM    3  C1  UNL     1     -33.767  15.863  -3.057  1.00 20.00     0.006 A 
HETATM    4  C2  UNL     1     -34.968  15.975  -2.160  1.00 20.00     0.006 A 
ENDBRANCH   1   2
BRANCH   1   5
HETATM    5  S7  UNL     1     -35.834  14.829  -6.043  1.00 20.00     0.230 S 
HETATM    6  O5  UNL     1     -36.691  15.428  -7.044  1.00 20.00    -0.211 OA
HETATM    7  O6  UNL     1     -35.979  13.446  -5.637  1.00 20.00    -0.211 OA
HETATM    8 CL8  UNL     1     -33.942  14.963  -6.812  1.00 20.00     0.018 Cl
ENDBRANCH   1   5
TORSDOF 2
ENDMDL
MODEL 7
REMARK VINA RESULT:      -3.7      2.073      2.388
REMARK  2 active torsions:
REMARK  status: ('A' for Active; 'I' for Inactive)
REMARK    1  A    between atoms: C3_3  and  C4_4 
REMARK    2  A    between atoms: C4_4  and  S7_7 
ROOT
HETATM    1  C4  UNL     1     -34.156  16.083  -4.211  1.00 20.00     0.162 C 
ENDROOT
BRANCH   1   2
HETATM    2  C3  UNL     1     -33.895  15.976  -2.748  1.00 20.00     0.001 A 
HETATM    3  C1  UNL     1     -33.810  17.217  -1.902  1.00 20.00     0.006 A 
HETATM    4  C2  UNL     1     -34.985  16.289  -1.760  1.00 20.00     0.006 A 
ENDBRANCH   1   2
BRANCH   1   5
HETATM    5  S7  UNL     1     -34.226  14.495  -4.995  1.00 20.00     0.230 S 
HETATM    6  O5  UNL     1     -33.197  13.652  -4.427  1.00 20.00    -0.211 OA
HETATM    7  O6  UNL     1     -34.354  14.693  -6.425  1.00 20.00    -0.211 OA
HETATM    8 CL8  UNL     1     -35.995  13.643  -4.415  1.00 20.00     0.018 Cl
ENDBRANCH   1   5
TORSDOF 2
ENDMDL
MODEL 8
REMARK VINA RESULT:      -3.7     11.779     12.080
REMARK  2 active torsions:
REMARK  status: ('A' for Active; 'I' for Inactive)
REMARK    1  A    between atoms: C3_3  and  C4_4 
REMARK    2  A    between atoms: C4_4  and  S7_7 
ROOT
HETATM    1  C4  UNL     1     -33.842   6.790   4.258  1.00 20.00     0.162 C 
ENDROOT
BRANCH   1   2
HETATM    2  C3  UNL     1     -32.879   6.522   3.153  1.00 20.00     0.001 A 
HETATM    3  C1  UNL     1     -32.793   7.459   1.979  1.00 20.00     0.006 A 
HETATM    4  C2  UNL     1     -31.668   7.396   2.975  1.00 20.00     0.006 A 
ENDBRANCH   1   2
BRANCH   1   5
HETATM    5  S7  UNL     1     -34.827   5.369   4.646  1.00 20.00     0.230 S 
HETATM    6  O5  UNL     1     -36.117   5.513   4.006  1.00 20.00    -0.211 OA
HETATM    7  O6  UNL     1     -34.699   5.093   6.062  1.00 20.00    -0.211 OA
HETATM    8 CL8  UNL     1     -33.942   3.779   3.710  1.00 20.00     0.018 Cl
ENDBRANCH   1   5
TORSDOF 2
ENDMDL
MODEL 9
REMARK VINA RESULT:      -3.7     17.949     18.642
REMARK  2 active torsions:
REMARK  status: ('A' for Active; 'I' for Inactive)
REMARK    1  A    between atoms: C3_3  and  C4_4 
REMARK    2  A    between atoms: C4_4  and  S7_7 
ROOT
HETATM    1  C4  UNL     1     -23.839  17.374   9.405  1.00 20.00     0.162 C 
ENDROOT
BRANCH   1   2
HETATM    2  C3  UNL     1     -23.146  17.101  10.694  1.00 20.00     0.001 A 
HETATM    3  C1  UNL     1     -23.558  17.829  11.945  1.00 20.00     0.006 A 
HETATM    4  C2  UNL     1     -23.857  16.363  11.795  1.00 20.00     0.006 A 
ENDBRANCH   1   2
BRANCH   1   5
HETATM    5  S7  UNL     1     -22.812  18.265   8.268  1.00 20.00     0.230 S 
HETATM    6  O5  UNL     1     -22.058  19.256   9.006  1.00 20.00    -0.211 OA
HETATM    7  O6  UNL     1     -23.604  18.612   7.106  1.00 20.00    -0.211 OA
HETATM    8 CL8  UNL     1     -21.417  16.932   7.585  1.00 20.00     0.018 Cl
ENDBRANCH   1   5
TORSDOF 2
ENDMDL
