MODEL 1
REMARK VINA RESULT:      -3.0      0.000      0.000
REMARK  1 active torsions:
REMARK  status: ('A' for Active; 'I' for Inactive)
REMARK    1  A    between atoms: N3_3  and  P4_4 
ROOT
HETATM    1  C1  UNL     1     -33.077   4.935   2.256  1.00 20.00     0.117 C 
HETATM    2  C2  UNL     1     -32.548   7.266   2.218  1.00 20.00     0.117 C 
HETATM    3  N3  UNL     1     -32.917   6.139   3.078  1.00 20.00    -0.274 NA
ENDROOT
BRANCH   3   4
HETATM    4  P4  UNL     1     -34.211   6.450   4.159  1.00 20.00     0.158 P 
HETATM    5 CL5  UNL     1     -35.125   4.657   4.767  1.00 20.00    -0.059 Cl
HETATM    6 CL6  UNL     1     -33.488   7.046   6.040  1.00 20.00    -0.059 Cl
ENDBRANCH   3   4
TORSDOF 1
ENDMDL
MODEL 2
REMARK VINA RESULT:      -3.0      2.936      3.444
REMARK  1 active torsions:
REMARK  status: ('A' for Active; 'I' for Inactive)
REMARK    1  A    between atoms: N3_3  and  P4_4 
ROOT
HETATM    1  C1  UNL     1     -34.840   4.844   5.105  1.00 20.00     0.117 C 
HETATM    2  C2  UNL     1     -33.744   6.832   5.857  1.00 20.00     0.117 C 
HETATM    3  N3  UNL     1     -34.489   6.223   4.751  1.00 20.00    -0.274 NA
ENDROOT
BRANCH   3   4
HETATM    4  P4  UNL     1     -33.767   6.408   3.207  1.00 20.00     0.158 P 
HETATM    5 CL5  UNL     1     -31.905   7.372   3.363  1.00 20.00    -0.059 Cl
HETATM    6 CL6  UNL     1     -33.065   4.563   2.484  1.00 20.00    -0.059 Cl
ENDBRANCH   3   4
TORSDOF 1
ENDMDL
MODEL 3
REMARK VINA RESULT:      -2.9     16.047     16.713
REMARK  1 active torsions:
REMARK  status: ('A' for Active; 'I' for Inactive)
REMARK    1  A    between atoms: N3_3  and  P4_4 
ROOT
HETATM    1  C1  UNL     1     -24.978  18.876   8.983  1.00 20.00     0.117 C 
HETATM    2  C2  UNL     1     -22.632  18.518   9.271  1.00 20.00     0.117 C 
HETATM    3  N3  UNL     1     -23.967  18.018   9.610  1.00 20.00    -0.274 NA
ENDROOT
BRANCH   3   4
HETATM    4  P4  UNL     1     -24.220  17.709  11.277  1.00 20.00     0.158 P 
HETATM    5 CL5  UNL     1     -24.666  15.680  11.601  1.00 20.00    -0.059 Cl
HETATM    6 CL6  UNL     1     -22.403  17.766  12.332  1.00 20.00    -0.059 Cl
ENDBRANCH   3   4
TORSDOF 1
ENDMDL
MODEL 4
REMARK VINA RESULT:      -2.9     16.291     16.683
REMARK  1 active torsions:
REMARK  status: ('A' for Active; 'I' for Inactive)
REMARK    1  A    between atoms: N3_3  and  P4_4 
ROOT
HETATM    1  C1  UNL     1     -22.775  17.014   9.332  1.00 20.00     0.117 C 
HETATM    2  C2  UNL     1     -24.371  18.794   9.336  1.00 20.00     0.117 C 
HETATM    3  N3  UNL     1     -23.328  18.123  10.116  1.00 20.00    -0.274 NA
ENDROOT
BRANCH   3   4
HETATM    4  P4  UNL     1     -23.776  17.716  11.720  1.00 20.00     0.158 P 
HETATM    5 CL5  UNL     1     -25.453  18.827  12.332  1.00 20.00    -0.059 Cl
HETATM    6 CL6  UNL     1     -24.663  15.812  11.789  1.00 20.00    -0.059 Cl
ENDBRANCH   3   4
TORSDOF 1
ENDMDL
MODEL 5
REMARK VINA RESULT:      -2.8     16.470     17.162
REMARK  1 active torsions:
REMARK  status: ('A' for Active; 'I' for Inactive)
REMARK    1  A    between atoms: N3_3  and  P4_4 
ROOT
HETATM    1  C1  UNL     1     -23.087  17.950  12.313  1.00 20.00     0.117 C 
HETATM    2  C2  UNL     1     -24.443  16.062  11.755  1.00 20.00     0.117 C 
HETATM    3  N3  UNL     1     -23.241  16.818  11.394  1.00 20.00    -0.274 NA
ENDROOT
BRANCH   3   4
HETATM    4  P4  UNL     1     -23.113  17.218   9.732  1.00 20.00     0.158 P 
HETATM    5 CL5  UNL     1     -24.490  18.720   9.216  1.00 20.00    -0.059 Cl
HETATM    6 CL6  UNL     1     -21.356  18.311   9.359  1.00 20.00    -0.059 Cl
ENDBRANCH   3   4
TORSDOF 1
ENDMDL
MODEL 6
REMARK VINA RESULT:      -2.8     16.452     17.025
REMARK  1 active torsions:
REMARK  status: ('A' for Active; 'I' for Inactive)
REMARK    1  A    between atoms: N3_3  and  P4_4 
ROOT
HETATM    1  C1  UNL     1     -22.557  17.667  11.971  1.00 20.00     0.117 C 
HETATM    2  C2  UNL     1     -24.258  16.524  10.741  1.00 20.00     0.117 C 
HETATM    3  N3  UNL     1     -22.940  17.157  10.651  1.00 20.00    -0.274 NA
ENDROOT
BRANCH   3   4
HETATM    4  P4  UNL     1     -22.767  18.282   9.368  1.00 20.00     0.158 P 
HETATM    5 CL5  UNL     1     -21.752  17.412   7.744  1.00 20.00    -0.059 Cl
HETATM    6 CL6  UNL     1     -24.607  18.606   8.404  1.00 20.00    -0.059 Cl
ENDBRANCH   3   4
TORSDOF 1
ENDMDL
MODEL 7
REMARK VINA RESULT:      -2.8     16.552     16.924
REMARK  1 active torsions:
REMARK  status: ('A' for Active; 'I' for Inactive)
REMARK    1  A    between atoms: N3_3  and  P4_4 
ROOT
HETATM    1  C1  UNL     1     -23.971  18.920   9.155  1.00 20.00     0.117 C 
HETATM    2  C2  UNL     1     -22.569  16.990   9.000  1.00 20.00     0.117 C 
HETATM    3  N3  UNL     1     -23.817  17.518   9.557  1.00 20.00    -0.274 NA
ENDROOT
BRANCH   3   4
HETATM    4  P4  UNL     1     -24.045  17.220  11.230  1.00 20.00     0.158 P 
HETATM    5 CL5  UNL     1     -22.340  17.778  12.327  1.00 20.00    -0.059 Cl
HETATM    6 CL6  UNL     1     -25.380  18.614  12.063  1.00 20.00    -0.059 Cl
ENDBRANCH   3   4
TORSDOF 1
ENDMDL
MODEL 8
REMARK VINA RESULT:      -2.8     16.297     16.795
REMARK  1 active torsions:
REMARK  status: ('A' for Active; 'I' for Inactive)
REMARK    1  A    between atoms: N3_3  and  P4_4 
ROOT
HETATM    1  C1  UNL     1     -24.707  15.720  11.739  1.00 20.00     0.117 C 
HETATM    2  C2  UNL     1     -25.830  17.805  12.064  1.00 20.00     0.117 C 
HETATM    3  N3  UNL     1     -24.930  17.057  11.182  1.00 20.00    -0.274 NA
ENDROOT
BRANCH   3   4
HETATM    4  P4  UNL     1     -23.504  17.895  10.729  1.00 20.00     0.158 P 
HETATM    5 CL5  UNL     1     -22.034  17.729  12.222  1.00 20.00    -0.059 Cl
HETATM    6 CL6  UNL     1     -22.478  16.861   9.213  1.00 20.00    -0.059 Cl
ENDBRANCH   3   4
TORSDOF 1
ENDMDL
MODEL 9
REMARK VINA RESULT:      -2.7     12.003     12.390
REMARK  1 active torsions:
REMARK  status: ('A' for Active; 'I' for Inactive)
REMARK    1  A    between atoms: N3_3  and  P4_4 
ROOT
HETATM    1  C1  UNL     1     -36.290  13.717  -4.701  1.00 20.00     0.117 C 
HETATM    2  C2  UNL     1     -35.703  14.770  -6.765  1.00 20.00     0.117 C 
HETATM    3  N3  UNL     1     -35.183  14.263  -5.492  1.00 20.00    -0.274 NA
ENDROOT
BRANCH   3   4
HETATM    4  P4  UNL     1     -34.161  15.350  -4.647  1.00 20.00     0.158 P 
HETATM    5 CL5  UNL     1     -34.770  15.543  -2.644  1.00 20.00    -0.059 Cl
HETATM    6 CL6  UNL     1     -32.282  14.480  -4.284  1.00 20.00    -0.059 Cl
ENDBRANCH   3   4
TORSDOF 1
ENDMDL
