MODEL 1
REMARK VINA RESULT:      -3.3      0.000      0.000
REMARK  1 active torsions:
REMARK  status: ('A' for Active; 'I' for Inactive)
REMARK    1  A    between atoms: C5_5  and  P6_6 
ROOT
HETATM    1  C1  UNL     1     -22.815  17.747  12.332  1.00 20.00     0.021 C 
HETATM    2  C2  UNL     1     -25.180  18.302  11.690  1.00 20.00     0.021 C 
HETATM    3  C3  UNL     1     -24.461  15.903  11.884  1.00 20.00     0.021 C 
HETATM    4  C5  UNL     1     -24.020  17.318  11.483  1.00 20.00    -0.015 C 
ENDROOT
BRANCH   4   5
HETATM    5  P6  UNL     1     -23.524  17.331   9.666  1.00 20.00    -0.013 P 
HETATM    6  C4  UNL     1     -24.380  18.870   9.177  1.00 20.00     0.062 C 
HETATM    7 CL7  UNL     1     -21.560  18.024   9.871  1.00 20.00    -0.096 Cl
ENDBRANCH   4   5
TORSDOF 1
ENDMDL
MODEL 2
REMARK VINA RESULT:      -3.3      1.859      2.458
REMARK  1 active torsions:
REMARK  status: ('A' for Active; 'I' for Inactive)
REMARK    1  A    between atoms: C5_5  and  P6_6 
ROOT
HETATM    1  C1  UNL     1     -24.349  16.233  10.897  1.00 20.00     0.021 C 
HETATM    2  C2  UNL     1     -23.064  17.846  12.331  1.00 20.00     0.021 C 
HETATM    3  C3  UNL     1     -25.333  18.476  11.455  1.00 20.00     0.021 C 
HETATM    4  C5  UNL     1     -24.035  17.715  11.149  1.00 20.00    -0.015 C 
ENDROOT
BRANCH   4   5
HETATM    5  P6  UNL     1     -23.228  18.439   9.611  1.00 20.00    -0.013 P 
HETATM    6  C4  UNL     1     -22.499  16.898   8.952  1.00 20.00     0.062 C 
HETATM    7 CL7  UNL     1     -24.929  18.614   8.403  1.00 20.00    -0.096 Cl
ENDBRANCH   4   5
TORSDOF 1
ENDMDL
MODEL 3
REMARK VINA RESULT:      -3.1      2.662      3.090
REMARK  1 active torsions:
REMARK  status: ('A' for Active; 'I' for Inactive)
REMARK    1  A    between atoms: C5_5  and  P6_6 
ROOT
HETATM    1  C1  UNL     1     -24.274  16.238  10.980  1.00 20.00     0.021 C 
HETATM    2  C2  UNL     1     -23.454  18.416  10.033  1.00 20.00     0.021 C 
HETATM    3  C3  UNL     1     -22.726  17.689  12.325  1.00 20.00     0.021 C 
HETATM    4  C5  UNL     1     -23.881  17.684  11.314  1.00 20.00    -0.015 C 
ENDROOT
BRANCH   4   5
HETATM    5  P6  UNL     1     -25.370  18.567  12.055  1.00 20.00    -0.013 P 
HETATM    6  C4  UNL     1     -26.055  19.261  10.508  1.00 20.00     0.062 C 
HETATM    7 CL7  UNL     1     -26.624  16.914  12.331  1.00 20.00    -0.096 Cl
ENDBRANCH   4   5
TORSDOF 1
ENDMDL
MODEL 4
REMARK VINA RESULT:      -2.9     18.468     19.451
REMARK  1 active torsions:
REMARK  status: ('A' for Active; 'I' for Inactive)
REMARK    1  A    between atoms: C5_5  and  P6_6 
ROOT
HETATM    1  C1  UNL     1     -35.383  13.830  -4.045  1.00 20.00     0.021 C 
HETATM    2  C2  UNL     1     -32.981  14.510  -4.331  1.00 20.00     0.021 C 
HETATM    3  C3  UNL     1     -34.456  15.754  -2.723  1.00 20.00     0.021 C 
HETATM    4  C5  UNL     1     -34.407  15.015  -4.067  1.00 20.00    -0.015 C 
ENDROOT
BRANCH   4   5
HETATM    5  P6  UNL     1     -34.905  16.191  -5.450  1.00 20.00    -0.013 P 
HETATM    6  C4  UNL     1     -34.154  15.280  -6.846  1.00 20.00     0.062 C 
HETATM    7 CL7  UNL     1     -36.911  15.627  -5.651  1.00 20.00    -0.096 Cl
ENDBRANCH   4   5
TORSDOF 1
ENDMDL
MODEL 5
REMARK VINA RESULT:      -2.9     18.383     19.052
REMARK  1 active torsions:
REMARK  status: ('A' for Active; 'I' for Inactive)
REMARK    1  A    between atoms: C5_5  and  P6_6 
ROOT
HETATM    1  C1  UNL     1     -33.735  17.337  -4.102  1.00 20.00     0.021 C 
HETATM    2  C2  UNL     1     -34.819  15.714  -2.519  1.00 20.00     0.021 C 
HETATM    3  C3  UNL     1     -33.064  14.916  -4.130  1.00 20.00     0.021 C 
HETATM    4  C5  UNL     1     -34.230  15.894  -3.925  1.00 20.00    -0.015 C 
ENDROOT
BRANCH   4   5
HETATM    5  P6  UNL     1     -35.572  15.547  -5.200  1.00 20.00    -0.013 P 
HETATM    6  C4  UNL     1     -34.487  15.059  -6.589  1.00 20.00     0.062 C 
HETATM    7 CL7  UNL     1     -36.195  13.670  -4.514  1.00 20.00    -0.096 Cl
ENDBRANCH   4   5
TORSDOF 1
ENDMDL
MODEL 6
REMARK VINA RESULT:      -2.9     18.563     19.444
REMARK  1 active torsions:
REMARK  status: ('A' for Active; 'I' for Inactive)
REMARK    1  A    between atoms: C5_5  and  P6_6 
ROOT
HETATM    1  C1  UNL     1     -34.752  16.681  -4.847  1.00 20.00     0.021 C 
HETATM    2  C2  UNL     1     -34.856  15.739  -2.520  1.00 20.00     0.021 C 
HETATM    3  C3  UNL     1     -33.208  14.817  -4.177  1.00 20.00     0.021 C 
HETATM    4  C5  UNL     1     -34.613  15.408  -4.000  1.00 20.00    -0.015 C 
ENDROOT
BRANCH   4   5
HETATM    5  P6  UNL     1     -35.899  14.154  -4.565  1.00 20.00    -0.013 P 
HETATM    6  C4  UNL     1     -37.397  15.129  -4.177  1.00 20.00     0.062 C 
HETATM    7 CL7  UNL     1     -35.761  14.456  -6.632  1.00 20.00    -0.096 Cl
ENDBRANCH   4   5
TORSDOF 1
ENDMDL
MODEL 7
REMARK VINA RESULT:      -2.9     18.479     19.432
REMARK  1 active torsions:
REMARK  status: ('A' for Active; 'I' for Inactive)
REMARK    1  A    between atoms: C5_5  and  P6_6 
ROOT
HETATM    1  C1  UNL     1     -34.725  15.723  -2.490  1.00 20.00     0.021 C 
HETATM    2  C2  UNL     1     -33.176  14.863  -4.273  1.00 20.00     0.021 C 
HETATM    3  C3  UNL     1     -34.769  16.737  -4.788  1.00 20.00     0.021 C 
HETATM    4  C5  UNL     1     -34.571  15.439  -3.992  1.00 20.00    -0.015 C 
ENDROOT
BRANCH   4   5
HETATM    5  P6  UNL     1     -35.870  14.179  -4.512  1.00 20.00    -0.013 P 
HETATM    6  C4  UNL     1     -37.358  15.173  -4.139  1.00 20.00     0.062 C 
HETATM    7 CL7  UNL     1     -35.747  14.422  -6.587  1.00 20.00    -0.096 Cl
ENDBRANCH   4   5
TORSDOF 1
ENDMDL
MODEL 8
REMARK VINA RESULT:      -2.9     18.148     18.733
REMARK  1 active torsions:
REMARK  status: ('A' for Active; 'I' for Inactive)
REMARK    1  A    between atoms: C5_5  and  P6_6 
ROOT
HETATM    1  C1  UNL     1     -35.208  15.951  -2.268  1.00 20.00     0.021 C 
HETATM    2  C2  UNL     1     -34.724  14.087  -3.882  1.00 20.00     0.021 C 
HETATM    3  C3  UNL     1     -32.999  15.864  -3.461  1.00 20.00     0.021 C 
HETATM    4  C5  UNL     1     -34.502  15.576  -3.579  1.00 20.00    -0.015 C 
ENDROOT
BRANCH   4   5
HETATM    5  P6  UNL     1     -35.230  16.601  -4.981  1.00 20.00    -0.013 P 
HETATM    6  C4  UNL     1     -34.091  18.027  -4.876  1.00 20.00     0.062 C 
HETATM    7 CL7  UNL     1     -34.409  15.564  -6.603  1.00 20.00    -0.096 Cl
ENDBRANCH   4   5
TORSDOF 1
ENDMDL
MODEL 9
REMARK VINA RESULT:      -2.8     23.461     24.004
REMARK  1 active torsions:
REMARK  status: ('A' for Active; 'I' for Inactive)
REMARK    1  A    between atoms: C5_5  and  P6_6 
ROOT
HETATM    1  C1  UNL     1     -43.417   8.363   0.716  1.00 20.00     0.021 C 
HETATM    2  C2  UNL     1     -41.134   9.054  -0.072  1.00 20.00     0.021 C 
HETATM    3  C3  UNL     1     -42.619   7.686  -1.567  1.00 20.00     0.021 C 
HETATM    4  C5  UNL     1     -42.195   7.946  -0.114  1.00 20.00    -0.015 C 
ENDROOT
BRANCH   4   5
HETATM    5  P6  UNL     1     -41.466   6.372   0.619  1.00 20.00    -0.013 P 
HETATM    6  C4  UNL     1     -43.030   5.585   1.146  1.00 20.00     0.062 C 
HETATM    7 CL7  UNL     1     -41.085   5.332  -1.158  1.00 20.00    -0.096 Cl
ENDBRANCH   4   5
TORSDOF 1
ENDMDL
