MODEL 1
REMARK VINA RESULT:      -4.4      0.000      0.000
REMARK  1 active torsions:
REMARK  status: ('A' for Active; 'I' for Inactive)
REMARK    1  A    between atoms: C1_1  and  C3_3 
ROOT
HETATM    1  C1  UNL     1     -33.378   6.804   4.171  1.00 20.00     0.064 C 
HETATM    2  C2  UNL     1     -34.227   6.316   5.084  1.00 20.00     0.184 C 
HETATM    3  F4  UNL     1     -34.118   6.693   6.377  1.00 20.00    -0.193 F 
HETATM    4 CL5  UNL     1     -35.471   5.206   4.645  1.00 20.00    -0.052 Cl
ENDROOT
BRANCH   1   5
HETATM    5  C3  UNL     1     -33.423   6.444   2.719  1.00 20.00     0.205 C 
HETATM    6 CL6  UNL     1     -32.329   7.507   1.804  1.00 20.00    -0.104 Cl
HETATM    7 CL7  UNL     1     -32.942   4.745   2.506  1.00 20.00    -0.104 Cl
ENDBRANCH   1   5
TORSDOF 1
ENDMDL
MODEL 2
REMARK VINA RESULT:      -4.4      2.237      3.497
REMARK  1 active torsions:
REMARK  status: ('A' for Active; 'I' for Inactive)
REMARK    1  A    between atoms: C1_1  and  C3_3 
ROOT
HETATM    1  C1  UNL     1     -33.415   6.760   3.765  1.00 20.00     0.064 C 
HETATM    2  C2  UNL     1     -32.919   6.287   2.615  1.00 20.00     0.184 C 
HETATM    3  F4  UNL     1     -32.344   7.131   1.730  1.00 20.00    -0.193 F 
HETATM    4 CL5  UNL     1     -32.995   4.609   2.231  1.00 20.00    -0.052 Cl
ENDROOT
BRANCH   1   5
HETATM    5  C3  UNL     1     -34.068   5.902   4.802  1.00 20.00     0.205 C 
HETATM    6 CL6  UNL     1     -34.227   6.815   6.322  1.00 20.00    -0.104 Cl
HETATM    7 CL7  UNL     1     -35.672   5.385   4.232  1.00 20.00    -0.104 Cl
ENDBRANCH   1   5
TORSDOF 1
ENDMDL
MODEL 3
REMARK VINA RESULT:      -4.1      2.562      3.872
REMARK  1 active torsions:
REMARK  status: ('A' for Active; 'I' for Inactive)
REMARK    1  A    between atoms: C1_1  and  C3_3 
ROOT
HETATM    1  C1  UNL     1     -34.022   5.004   3.720  1.00 20.00     0.064 C 
HETATM    2  C2  UNL     1     -33.276   5.259   2.638  1.00 20.00     0.184 C 
HETATM    3  F4  UNL     1     -32.901   4.249   1.822  1.00 20.00    -0.193 F 
HETATM    4 CL5  UNL     1     -32.776   6.863   2.255  1.00 20.00    -0.052 Cl
ENDROOT
BRANCH   1   5
HETATM    5  C3  UNL     1     -34.483   6.057   4.678  1.00 20.00     0.205 C 
HETATM    6 CL6  UNL     1     -35.129   5.288   6.147  1.00 20.00    -0.104 Cl
HETATM    7 CL7  UNL     1     -33.123   7.125   5.096  1.00 20.00    -0.104 Cl
ENDBRANCH   1   5
TORSDOF 1
ENDMDL
MODEL 4
REMARK VINA RESULT:      -4.0      2.275      2.466
REMARK  1 active torsions:
REMARK  status: ('A' for Active; 'I' for Inactive)
REMARK    1  A    between atoms: C1_1  and  C3_3 
ROOT
HETATM    1  C1  UNL     1     -33.184   5.722   2.632  1.00 20.00     0.064 C 
HETATM    2  C2  UNL     1     -33.937   5.092   3.542  1.00 20.00     0.184 C 
HETATM    3  F4  UNL     1     -34.121   3.756   3.458  1.00 20.00    -0.193 F 
HETATM    4 CL5  UNL     1     -34.687   5.953   4.833  1.00 20.00    -0.052 Cl
ENDROOT
BRANCH   1   5
HETATM    5  C3  UNL     1     -32.926   7.196   2.645  1.00 20.00     0.205 C 
HETATM    6 CL6  UNL     1     -31.606   7.563   3.782  1.00 20.00    -0.104 Cl
HETATM    7 CL7  UNL     1     -32.491   7.744   1.009  1.00 20.00    -0.104 Cl
ENDBRANCH   1   5
TORSDOF 1
ENDMDL
MODEL 5
REMARK VINA RESULT:      -3.8      2.109      3.468
REMARK  1 active torsions:
REMARK  status: ('A' for Active; 'I' for Inactive)
REMARK    1  A    between atoms: C1_1  and  C3_3 
ROOT
HETATM    1  C1  UNL     1     -33.642   6.617   4.055  1.00 20.00     0.064 C 
HETATM    2  C2  UNL     1     -32.931   6.455   2.932  1.00 20.00     0.184 C 
HETATM    3  F4  UNL     1     -31.999   7.370   2.585  1.00 20.00    -0.193 F 
HETATM    4 CL5  UNL     1     -33.177   5.092   1.907  1.00 20.00    -0.052 Cl
ENDROOT
BRANCH   1   5
HETATM    5  C3  UNL     1     -34.693   5.658   4.517  1.00 20.00     0.205 C 
HETATM    6 CL6  UNL     1     -34.226   3.998   4.075  1.00 20.00    -0.104 Cl
HETATM    7 CL7  UNL     1     -34.890   5.786   6.281  1.00 20.00    -0.104 Cl
ENDBRANCH   1   5
TORSDOF 1
ENDMDL
MODEL 6
REMARK VINA RESULT:      -3.7      8.887      9.444
REMARK  1 active torsions:
REMARK  status: ('A' for Active; 'I' for Inactive)
REMARK    1  A    between atoms: C1_1  and  C3_3 
ROOT
HETATM    1  C1  UNL     1     -41.296   7.537   0.291  1.00 20.00     0.064 C 
HETATM    2  C2  UNL     1     -41.845   8.756   0.212  1.00 20.00     0.184 C 
HETATM    3  F4  UNL     1     -41.163   9.833   0.659  1.00 20.00    -0.193 F 
HETATM    4 CL5  UNL     1     -43.417   8.987  -0.454  1.00 20.00    -0.052 Cl
ENDROOT
BRANCH   1   5
HETATM    5  C3  UNL     1     -41.975   6.289  -0.177  1.00 20.00     0.205 C 
HETATM    6 CL6  UNL     1     -40.814   5.271  -1.063  1.00 20.00    -0.104 Cl
HETATM    7 CL7  UNL     1     -42.626   5.398   1.219  1.00 20.00    -0.104 Cl
ENDBRANCH   1   5
TORSDOF 1
ENDMDL
MODEL 7
REMARK VINA RESULT:      -3.6      9.211      9.831
REMARK  1 active torsions:
REMARK  status: ('A' for Active; 'I' for Inactive)
REMARK    1  A    between atoms: C1_1  and  C3_3 
ROOT
HETATM    1  C1  UNL     1     -41.183   6.725  -0.425  1.00 20.00     0.064 C 
HETATM    2  C2  UNL     1     -41.401   5.565  -1.056  1.00 20.00     0.184 C 
HETATM    3  F4  UNL     1     -40.381   4.701  -1.252  1.00 20.00    -0.193 F 
HETATM    4 CL5  UNL     1     -42.969   5.141  -1.632  1.00 20.00    -0.052 Cl
ENDROOT
BRANCH   1   5
HETATM    5  C3  UNL     1     -42.250   7.741  -0.164  1.00 20.00     0.205 C 
HETATM    6 CL6  UNL     1     -43.292   7.188   1.169  1.00 20.00    -0.104 Cl
HETATM    7 CL7  UNL     1     -41.504   9.302   0.254  1.00 20.00    -0.104 Cl
ENDBRANCH   1   5
TORSDOF 1
ENDMDL
MODEL 8
REMARK VINA RESULT:      -3.5      0.821      1.715
REMARK  1 active torsions:
REMARK  status: ('A' for Active; 'I' for Inactive)
REMARK    1  A    between atoms: C1_1  and  C3_3 
ROOT
HETATM    1  C1  UNL     1     -33.427   6.980   4.477  1.00 20.00     0.064 C 
HETATM    2  C2  UNL     1     -34.108   6.358   5.447  1.00 20.00     0.184 C 
HETATM    3  F4  UNL     1     -34.560   7.058   6.511  1.00 20.00    -0.193 F 
HETATM    4 CL5  UNL     1     -34.426   4.665   5.372  1.00 20.00    -0.052 Cl
ENDROOT
BRANCH   1   5
HETATM    5  C3  UNL     1     -32.888   6.288   3.265  1.00 20.00     0.205 C 
HETATM    6 CL6  UNL     1     -34.094   5.132   2.650  1.00 20.00    -0.104 Cl
HETATM    7 CL7  UNL     1     -32.500   7.488   2.011  1.00 20.00    -0.104 Cl
ENDBRANCH   1   5
TORSDOF 1
ENDMDL
MODEL 9
REMARK VINA RESULT:      -3.5     16.128     16.496
REMARK  1 active torsions:
REMARK  status: ('A' for Active; 'I' for Inactive)
REMARK    1  A    between atoms: C1_1  and  C3_3 
ROOT
HETATM    1  C1  UNL     1     -23.562  16.761   9.873  1.00 20.00     0.064 C 
HETATM    2  C2  UNL     1     -23.880  16.629  11.167  1.00 20.00     0.184 C 
HETATM    3  F4  UNL     1     -24.600  15.563  11.580  1.00 20.00    -0.193 F 
HETATM    4 CL5  UNL     1     -23.386  17.800  12.332  1.00 20.00    -0.052 Cl
ENDROOT
BRANCH   1   5
HETATM    5  C3  UNL     1     -22.770  17.905   9.325  1.00 20.00     0.205 C 
HETATM    6 CL6  UNL     1     -21.908  17.388   7.856  1.00 20.00    -0.104 Cl
HETATM    7 CL7  UNL     1     -23.856  19.263   8.948  1.00 20.00    -0.104 Cl
ENDBRANCH   1   5
TORSDOF 1
ENDMDL
