MODEL 1
REMARK VINA RESULT:      -5.7      0.000      0.000
REMARK  0 active torsions:
REMARK  status: ('A' for Active; 'I' for Inactive)
ROOT
HETATM    1  C1  UNL     1     -33.645  16.258  -2.782  1.00 20.00    -0.024 C 
HETATM    2  C2  UNL     1     -34.659  16.230  -1.885  1.00 20.00    -0.024 C 
HETATM    3  C3  UNL     1     -34.902  14.775  -5.952  1.00 20.00     0.272 C 
HETATM    4  C4  UNL     1     -36.675  14.114  -4.661  1.00 20.00     0.272 C 
HETATM    5  C5  UNL     1     -34.540  16.737  -3.900  1.00 20.00     0.031 C 
HETATM    6  C6  UNL     1     -35.730  16.250  -2.969  1.00 20.00     0.031 C 
HETATM    7  C7  UNL     1     -35.186  15.859  -4.933  1.00 20.00     0.108 C 
HETATM    8  C8  UNL     1     -35.751  14.954  -3.782  1.00 20.00     0.108 C 
HETATM    9  O9  UNL     1     -33.990  14.665  -6.757  1.00 20.00    -0.264 OA
HETATM   10  O10 UNL     1     -37.784  13.658  -4.425  1.00 20.00    -0.264 OA
HETATM   11  O11 UNL     1     -35.973  13.876  -5.852  1.00 20.00    -0.244 OA
ENDROOT
TORSDOF 0
ENDMDL
MODEL 2
REMARK VINA RESULT:      -5.6      0.721      2.562
REMARK  0 active torsions:
REMARK  status: ('A' for Active; 'I' for Inactive)
ROOT
HETATM    1  C1  UNL     1     -35.188  16.682  -2.448  1.00 20.00    -0.024 C 
HETATM    2  C2  UNL     1     -33.982  17.113  -2.887  1.00 20.00    -0.024 C 
HETATM    3  C3  UNL     1     -36.351  14.024  -4.774  1.00 20.00     0.272 C 
HETATM    4  C4  UNL     1     -34.625  14.755  -6.092  1.00 20.00     0.272 C 
HETATM    5  C5  UNL     1     -34.837  15.229  -2.665  1.00 20.00     0.031 C 
HETATM    6  C6  UNL     1     -33.666  15.791  -3.577  1.00 20.00     0.031 C 
HETATM    7  C7  UNL     1     -35.195  14.421  -3.879  1.00 20.00     0.108 C 
HETATM    8  C8  UNL     1     -34.573  15.541  -4.784  1.00 20.00     0.108 C 
HETATM    9  O9  UNL     1     -37.490  13.686  -4.493  1.00 20.00    -0.264 OA
HETATM   10  O10 UNL     1     -33.839  14.733  -7.028  1.00 20.00    -0.264 OA
HETATM   11  O11 UNL     1     -35.841  14.055  -6.079  1.00 20.00    -0.244 OA
ENDROOT
TORSDOF 0
ENDMDL
MODEL 3
REMARK VINA RESULT:      -5.2      1.305      1.348
REMARK  0 active torsions:
REMARK  status: ('A' for Active; 'I' for Inactive)
ROOT
HETATM    1  C1  UNL     1     -34.296  16.637  -1.813  1.00 20.00    -0.024 C 
HETATM    2  C2  UNL     1     -35.567  17.098  -1.750  1.00 20.00    -0.024 C 
HETATM    3  C3  UNL     1     -34.212  13.906  -4.336  1.00 20.00     0.272 C 
HETATM    4  C4  UNL     1     -36.495  14.044  -4.211  1.00 20.00     0.272 C 
HETATM    5  C5  UNL     1     -34.307  16.581  -3.322  1.00 20.00     0.031 C 
HETATM    6  C6  UNL     1     -35.885  16.665  -3.177  1.00 20.00     0.031 C 
HETATM    7  C7  UNL     1     -34.597  15.359  -4.145  1.00 20.00     0.108 C 
HETATM    8  C8  UNL     1     -35.916  15.143  -3.324  1.00 20.00     0.108 C 
HETATM    9  O9  UNL     1     -33.113  13.374  -4.345  1.00 20.00    -0.264 OA
HETATM   10  O10 UNL     1     -37.653  13.821  -4.533  1.00 20.00    -0.264 OA
HETATM   11  O11 UNL     1     -35.414  13.228  -4.578  1.00 20.00    -0.244 OA
ENDROOT
TORSDOF 0
ENDMDL
MODEL 4
REMARK VINA RESULT:      -5.2      1.554      1.877
REMARK  0 active torsions:
REMARK  status: ('A' for Active; 'I' for Inactive)
ROOT
HETATM    1  C1  UNL     1     -33.869  15.945  -2.745  1.00 20.00    -0.024 C 
HETATM    2  C2  UNL     1     -34.472  17.157  -2.747  1.00 20.00    -0.024 C 
HETATM    3  C3  UNL     1     -36.159  13.543  -4.423  1.00 20.00     0.272 C 
HETATM    4  C4  UNL     1     -37.691  15.235  -4.225  1.00 20.00     0.272 C 
HETATM    5  C5  UNL     1     -34.251  15.664  -4.178  1.00 20.00     0.031 C 
HETATM    6  C6  UNL     1     -35.304  16.835  -3.982  1.00 20.00     0.031 C 
HETATM    7  C7  UNL     1     -35.446  14.865  -4.618  1.00 20.00     0.108 C 
HETATM    8  C8  UNL     1     -36.355  15.759  -3.704  1.00 20.00     0.108 C 
HETATM    9  O9  UNL     1     -35.715  12.409  -4.341  1.00 20.00    -0.264 OA
HETATM   10  O10 UNL     1     -38.746  15.823  -4.415  1.00 20.00    -0.264 OA
HETATM   11  O11 UNL     1     -37.526  13.854  -4.409  1.00 20.00    -0.244 OA
ENDROOT
TORSDOF 0
ENDMDL
MODEL 5
REMARK VINA RESULT:      -5.1      1.478      2.019
REMARK  0 active torsions:
REMARK  status: ('A' for Active; 'I' for Inactive)
ROOT
HETATM    1  C1  UNL     1     -34.099  17.274  -3.639  1.00 20.00    -0.024 C 
HETATM    2  C2  UNL     1     -33.337  16.328  -3.042  1.00 20.00    -0.024 C 
HETATM    3  C3  UNL     1     -37.134  15.598  -4.983  1.00 20.00     0.272 C 
HETATM    4  C4  UNL     1     -35.980  13.672  -4.527  1.00 20.00     0.272 C 
HETATM    5  C5  UNL     1     -35.376  16.742  -3.034  1.00 20.00     0.031 C 
HETATM    6  C6  UNL     1     -34.533  15.426  -2.755  1.00 20.00     0.031 C 
HETATM    7  C7  UNL     1     -36.334  15.804  -3.713  1.00 20.00     0.108 C 
HETATM    8  C8  UNL     1     -35.135  14.844  -4.034  1.00 20.00     0.108 C 
HETATM    9  O9  UNL     1     -37.797  16.387  -5.637  1.00 20.00    -0.264 OA
HETATM   10  O10 UNL     1     -35.813  12.469  -4.389  1.00 20.00    -0.264 OA
HETATM   11  O11 UNL     1     -37.028  14.231  -5.274  1.00 20.00    -0.244 OA
ENDROOT
TORSDOF 0
ENDMDL
MODEL 6
REMARK VINA RESULT:      -4.9      1.870      2.809
REMARK  0 active torsions:
REMARK  status: ('A' for Active; 'I' for Inactive)
ROOT
HETATM    1  C1  UNL     1     -33.271  16.178  -3.873  1.00 20.00    -0.024 C 
HETATM    2  C2  UNL     1     -33.148  14.883  -4.247  1.00 20.00    -0.024 C 
HETATM    3  C3  UNL     1     -36.871  16.816  -3.189  1.00 20.00     0.272 C 
HETATM    4  C4  UNL     1     -37.176  14.782  -4.197  1.00 20.00     0.272 C 
HETATM    5  C5  UNL     1     -34.215  15.845  -2.742  1.00 20.00     0.031 C 
HETATM    6  C6  UNL     1     -34.400  14.457  -3.490  1.00 20.00     0.031 C 
HETATM    7  C7  UNL     1     -35.714  15.912  -2.813  1.00 20.00     0.108 C 
HETATM    8  C8  UNL     1     -35.673  15.033  -4.111  1.00 20.00     0.108 C 
HETATM    9  O9  UNL     1     -37.054  18.002  -2.964  1.00 20.00    -0.264 OA
HETATM   10  O10 UNL     1     -37.788  13.784  -4.550  1.00 20.00    -0.264 OA
HETATM   11  O11 UNL     1     -37.796  15.988  -3.838  1.00 20.00    -0.244 OA
ENDROOT
TORSDOF 0
ENDMDL
MODEL 7
REMARK VINA RESULT:      -4.8     12.116     12.763
REMARK  0 active torsions:
REMARK  status: ('A' for Active; 'I' for Inactive)
ROOT
HETATM    1  C1  UNL     1     -34.159   6.105   6.312  1.00 20.00    -0.024 C 
HETATM    2  C2  UNL     1     -34.946   5.024   6.100  1.00 20.00    -0.024 C 
HETATM    3  C3  UNL     1     -32.473   6.918   3.098  1.00 20.00     0.272 C 
HETATM    4  C4  UNL     1     -33.263   4.870   2.442  1.00 20.00     0.272 C 
HETATM    5  C5  UNL     1     -34.586   6.767   5.023  1.00 20.00     0.031 C 
HETATM    6  C6  UNL     1     -35.103   5.324   4.614  1.00 20.00     0.031 C 
HETATM    7  C7  UNL     1     -33.836   6.704   3.723  1.00 20.00     0.108 C 
HETATM    8  C8  UNL     1     -33.793   5.141   3.847  1.00 20.00     0.108 C 
HETATM    9  O9  UNL     1     -31.658   7.812   3.264  1.00 20.00    -0.264 OA
HETATM   10  O10 UNL     1     -33.521   3.963   1.664  1.00 20.00    -0.264 OA
HETATM   11  O11 UNL     1     -32.312   5.869   2.183  1.00 20.00    -0.244 OA
ENDROOT
TORSDOF 0
ENDMDL
MODEL 8
REMARK VINA RESULT:      -4.8      1.486      2.840
REMARK  0 active torsions:
REMARK  status: ('A' for Active; 'I' for Inactive)
ROOT
HETATM    1  C1  UNL     1     -35.264  17.855  -2.580  1.00 20.00    -0.024 C 
HETATM    2  C2  UNL     1     -33.920  18.009  -2.514  1.00 20.00    -0.024 C 
HETATM    3  C3  UNL     1     -35.945  14.420  -3.830  1.00 20.00     0.272 C 
HETATM    4  C4  UNL     1     -33.706  14.410  -4.316  1.00 20.00     0.272 C 
HETATM    5  C5  UNL     1     -35.215  16.473  -1.974  1.00 20.00     0.031 C 
HETATM    6  C6  UNL     1     -33.672  16.515  -2.345  1.00 20.00     0.031 C 
HETATM    7  C7  UNL     1     -35.213  15.185  -2.746  1.00 20.00     0.108 C 
HETATM    8  C8  UNL     1     -34.020  15.726  -3.609  1.00 20.00     0.108 C 
HETATM    9  O9  UNL     1     -37.142  14.270  -4.023  1.00 20.00    -0.264 OA
HETATM   10  O10 UNL     1     -32.631  13.933  -4.648  1.00 20.00    -0.264 OA
HETATM   11  O11 UNL     1     -34.944  13.815  -4.602  1.00 20.00    -0.244 OA
ENDROOT
TORSDOF 0
ENDMDL
MODEL 9
REMARK VINA RESULT:      -4.7      1.941      2.557
REMARK  0 active torsions:
REMARK  status: ('A' for Active; 'I' for Inactive)
ROOT
HETATM    1  C1  UNL     1     -35.049  16.176  -1.825  1.00 20.00    -0.024 C 
HETATM    2  C2  UNL     1     -35.523  17.342  -2.323  1.00 20.00    -0.024 C 
HETATM    3  C3  UNL     1     -33.390  14.351  -4.608  1.00 20.00     0.272 C 
HETATM    4  C4  UNL     1     -34.404  15.927  -5.927  1.00 20.00     0.272 C 
HETATM    5  C5  UNL     1     -33.731  16.309  -2.548  1.00 20.00     0.031 C 
HETATM    6  C6  UNL     1     -34.486  17.383  -3.440  1.00 20.00     0.031 C 
HETATM    7  C7  UNL     1     -33.394  15.672  -3.866  1.00 20.00     0.108 C 
HETATM    8  C8  UNL     1     -34.708  16.277  -4.472  1.00 20.00     0.108 C 
HETATM    9  O9  UNL     1     -33.052  13.238  -4.240  1.00 20.00    -0.264 OA
HETATM   10  O10 UNL     1     -34.642  16.549  -6.952  1.00 20.00    -0.264 OA
HETATM   11  O11 UNL     1     -33.819  14.652  -5.908  1.00 20.00    -0.244 OA
ENDROOT
TORSDOF 0
ENDMDL
