MODEL 1
REMARK VINA RESULT:      -4.5      0.000      0.000
REMARK  2 active torsions:
REMARK  status: ('A' for Active; 'I' for Inactive)
REMARK    1  A    between atoms: C1_1  and  C5_5 
REMARK    2  A    between atoms: C4_4  and  C5_5 
ROOT
HETATM    1  C2  UNL     1     -35.065  15.098  -6.078  1.00 20.00     0.032 C 
HETATM    2  C3  UNL     1     -36.235  16.102  -4.111  1.00 20.00     0.032 C 
HETATM    3  C5  UNL     1     -35.488  14.865  -4.624  1.00 20.00     0.100 C 
ENDROOT
BRANCH   3   4
HETATM    4  C1  UNL     1     -36.382  13.597  -4.505  1.00 20.00     0.186 C 
HETATM    5  O6  UNL     1     -37.631  13.801  -4.501  1.00 20.00    -0.647 OA
HETATM    6  O7  UNL     1     -35.766  12.493  -4.447  1.00 20.00    -0.647 OA
ENDBRANCH   3   4
BRANCH   3   7
HETATM    7  C4  UNL     1     -34.256  14.600  -3.756  1.00 20.00     0.371 C 
HETATM    8  F8  UNL     1     -34.294  15.351  -2.626  1.00 20.00    -0.213 F 
HETATM    9  F9  UNL     1     -33.122  14.947  -4.415  1.00 20.00    -0.213 F 
ENDBRANCH   3   7
TORSDOF 2
ENDMDL
MODEL 2
REMARK VINA RESULT:      -4.4      1.383      2.171
REMARK  2 active torsions:
REMARK  status: ('A' for Active; 'I' for Inactive)
REMARK    1  A    between atoms: C1_1  and  C5_5 
REMARK    2  A    between atoms: C4_4  and  C5_5 
ROOT
HETATM    1  C2  UNL     1     -36.399  16.152  -4.207  1.00 20.00     0.032 C 
HETATM    2  C3  UNL     1     -34.345  14.857  -3.618  1.00 20.00     0.032 C 
HETATM    3  C5  UNL     1     -35.545  14.932  -4.567  1.00 20.00     0.100 C 
ENDROOT
BRANCH   3   4
HETATM    4  C1  UNL     1     -36.389  13.626  -4.488  1.00 20.00     0.186 C 
HETATM    5  O6  UNL     1     -37.644  13.779  -4.502  1.00 20.00    -0.647 OA
HETATM    6  O7  UNL     1     -35.729  12.547  -4.440  1.00 20.00    -0.647 OA
ENDBRANCH   3   4
BRANCH   3   7
HETATM    7  C4  UNL     1     -35.063  15.039  -6.016  1.00 20.00     0.371 C 
HETATM    8  F8  UNL     1     -35.815  14.257  -6.831  1.00 20.00    -0.213 F 
HETATM    9  F9  UNL     1     -33.783  14.601  -6.128  1.00 20.00    -0.213 F 
ENDBRANCH   3   7
TORSDOF 2
ENDMDL
MODEL 3
REMARK VINA RESULT:      -4.4      1.174      2.065
REMARK  2 active torsions:
REMARK  status: ('A' for Active; 'I' for Inactive)
REMARK    1  A    between atoms: C1_1  and  C5_5 
REMARK    2  A    between atoms: C4_4  and  C5_5 
ROOT
HETATM    1  C2  UNL     1     -33.915  14.430  -4.172  1.00 20.00     0.032 C 
HETATM    2  C3  UNL     1     -35.456  15.667  -5.703  1.00 20.00     0.032 C 
HETATM    3  C5  UNL     1     -35.367  14.865  -4.400  1.00 20.00     0.100 C 
ENDROOT
BRANCH   3   4
HETATM    4  C1  UNL     1     -36.311  13.629  -4.452  1.00 20.00     0.186 C 
HETATM    5  O6  UNL     1     -35.742  12.499  -4.425  1.00 20.00    -0.647 OA
HETATM    6  O7  UNL     1     -37.550  13.884  -4.493  1.00 20.00    -0.647 OA
ENDBRANCH   3   4
BRANCH   3   7
HETATM    7  C4  UNL     1     -35.848  15.719  -3.225  1.00 20.00     0.371 C 
HETATM    8  F8  UNL     1     -35.736  17.040  -3.515  1.00 20.00    -0.213 F 
HETATM    9  F9  UNL     1     -35.085  15.496  -2.126  1.00 20.00    -0.213 F 
ENDBRANCH   3   7
TORSDOF 2
ENDMDL
MODEL 4
REMARK VINA RESULT:      -4.2      1.514      2.581
REMARK  2 active torsions:
REMARK  status: ('A' for Active; 'I' for Inactive)
REMARK    1  A    between atoms: C1_1  and  C5_5 
REMARK    2  A    between atoms: C4_4  and  C5_5 
ROOT
HETATM    1  C2  UNL     1     -35.801  15.817  -3.302  1.00 20.00     0.032 C 
HETATM    2  C3  UNL     1     -33.919  14.397  -4.132  1.00 20.00     0.032 C 
HETATM    3  C5  UNL     1     -35.362  14.840  -4.398  1.00 20.00     0.100 C 
ENDROOT
BRANCH   3   4
HETATM    4  C1  UNL     1     -36.312  13.609  -4.451  1.00 20.00     0.186 C 
HETATM    5  O6  UNL     1     -35.749  12.476  -4.426  1.00 20.00    -0.647 OA
HETATM    6  O7  UNL     1     -37.549  13.869  -4.492  1.00 20.00    -0.647 OA
ENDBRANCH   3   4
BRANCH   3   7
HETATM    7  C4  UNL     1     -35.460  15.513  -5.769  1.00 20.00     0.371 C 
HETATM    8  F8  UNL     1     -34.332  15.298  -6.491  1.00 20.00    -0.213 F 
HETATM    9  F9  UNL     1     -35.586  16.858  -5.635  1.00 20.00    -0.213 F 
ENDBRANCH   3   7
TORSDOF 2
ENDMDL
MODEL 5
REMARK VINA RESULT:      -4.0     18.386     19.104
REMARK  2 active torsions:
REMARK  status: ('A' for Active; 'I' for Inactive)
REMARK    1  A    between atoms: C1_1  and  C5_5 
REMARK    2  A    between atoms: C4_4  and  C5_5 
ROOT
HETATM    1  C2  UNL     1     -23.968  16.237  10.393  1.00 20.00     0.032 C 
HETATM    2  C3  UNL     1     -22.748  17.972  11.716  1.00 20.00     0.032 C 
HETATM    3  C5  UNL     1     -23.354  17.640  10.347  1.00 20.00     0.100 C 
ENDROOT
BRANCH   3   4
HETATM    4  C1  UNL     1     -22.272  17.733   9.232  1.00 20.00     0.186 C 
HETATM    5  O6  UNL     1     -21.986  16.646   8.651  1.00 20.00    -0.647 OA
HETATM    6  O7  UNL     1     -21.808  18.889   9.010  1.00 20.00    -0.647 OA
ENDBRANCH   3   4
BRANCH   3   7
HETATM    7  C4  UNL     1     -24.427  18.670   9.985  1.00 20.00     0.371 C 
HETATM    8  F8  UNL     1     -25.437  18.648  10.891  1.00 20.00    -0.213 F 
HETATM    9  F9  UNL     1     -24.978  18.383   8.779  1.00 20.00    -0.213 F 
ENDBRANCH   3   7
TORSDOF 2
ENDMDL
MODEL 6
REMARK VINA RESULT:      -3.9     18.684     19.368
REMARK  2 active torsions:
REMARK  status: ('A' for Active; 'I' for Inactive)
REMARK    1  A    between atoms: C1_1  and  C5_5 
REMARK    2  A    between atoms: C4_4  and  C5_5 
ROOT
HETATM    1  C2  UNL     1     -23.021  17.814  12.288  1.00 20.00     0.032 C 
HETATM    2  C3  UNL     1     -24.526  16.045  11.365  1.00 20.00     0.032 C 
HETATM    3  C5  UNL     1     -24.030  17.483  11.183  1.00 20.00     0.100 C 
ENDROOT
BRANCH   3   4
HETATM    4  C1  UNL     1     -25.224  18.482  11.209  1.00 20.00     0.186 C 
HETATM    5  O6  UNL     1     -25.509  19.029  10.105  1.00 20.00    -0.647 OA
HETATM    6  O7  UNL     1     -25.797  18.625  12.328  1.00 20.00    -0.647 OA
ENDBRANCH   3   4
BRANCH   3   7
HETATM    7  C4  UNL     1     -23.373  17.642   9.809  1.00 20.00     0.371 C 
HETATM    8  F8  UNL     1     -22.888  16.453   9.370  1.00 20.00    -0.213 F 
HETATM    9  F9  UNL     1     -22.317  18.492   9.879  1.00 20.00    -0.213 F 
ENDBRANCH   3   7
TORSDOF 2
ENDMDL
MODEL 7
REMARK VINA RESULT:      -3.9     12.160     12.931
REMARK  2 active torsions:
REMARK  status: ('A' for Active; 'I' for Inactive)
REMARK    1  A    between atoms: C1_1  and  C5_5 
REMARK    2  A    between atoms: C4_4  and  C5_5 
ROOT
HETATM    1  C2  UNL     1     -33.657   7.013   3.801  1.00 20.00     0.032 C 
HETATM    2  C3  UNL     1     -35.903   5.921   3.900  1.00 20.00     0.032 C 
HETATM    3  C5  UNL     1     -34.418   5.758   4.243  1.00 20.00     0.100 C 
ENDROOT
BRANCH   3   4
HETATM    4  C1  UNL     1     -33.833   4.489   3.559  1.00 20.00     0.186 C 
HETATM    5  O6  UNL     1     -34.122   3.385   4.106  1.00 20.00    -0.647 OA
HETATM    6  O7  UNL     1     -33.148   4.692   2.515  1.00 20.00    -0.647 OA
ENDBRANCH   3   4
BRANCH   3   7
HETATM    7  C4  UNL     1     -34.248   5.547   5.749  1.00 20.00     0.371 C 
HETATM    8  F8  UNL     1     -35.389   5.057   6.297  1.00 20.00    -0.213 F 
HETATM    9  F9  UNL     1     -33.991   6.724   6.373  1.00 20.00    -0.213 F 
ENDBRANCH   3   7
TORSDOF 2
ENDMDL
MODEL 8
REMARK VINA RESULT:      -3.8      1.255      1.672
REMARK  2 active torsions:
REMARK  status: ('A' for Active; 'I' for Inactive)
REMARK    1  A    between atoms: C1_1  and  C5_5 
REMARK    2  A    between atoms: C4_4  and  C5_5 
ROOT
HETATM    1  C2  UNL     1     -34.935  15.794  -5.238  1.00 20.00     0.032 C 
HETATM    2  C3  UNL     1     -36.847  15.332  -3.697  1.00 20.00     0.032 C 
HETATM    3  C5  UNL     1     -35.382  15.005  -4.003  1.00 20.00     0.100 C 
ENDROOT
BRANCH   3   4
HETATM    4  C1  UNL     1     -35.198  13.476  -4.230  1.00 20.00     0.186 C 
HETATM    5  O6  UNL     1     -34.070  13.003  -3.906  1.00 20.00    -0.647 OA
HETATM    6  O7  UNL     1     -36.203  12.864  -4.694  1.00 20.00    -0.647 OA
ENDBRANCH   3   4
BRANCH   3   7
HETATM    7  C4  UNL     1     -34.502  15.366  -2.804  1.00 20.00     0.371 C 
HETATM    8  F8  UNL     1     -35.234  15.974  -1.837  1.00 20.00    -0.213 F 
HETATM    9  F9  UNL     1     -33.533  16.244  -3.168  1.00 20.00    -0.213 F 
ENDBRANCH   3   7
TORSDOF 2
ENDMDL
MODEL 9
REMARK VINA RESULT:      -3.8     11.974     12.821
REMARK  2 active torsions:
REMARK  status: ('A' for Active; 'I' for Inactive)
REMARK    1  A    between atoms: C1_1  and  C5_5 
REMARK    2  A    between atoms: C4_4  and  C5_5 
ROOT
HETATM    1  C2  UNL     1     -35.719   5.928   3.995  1.00 20.00     0.032 C 
HETATM    2  C3  UNL     1     -34.143   3.988   4.037  1.00 20.00     0.032 C 
HETATM    3  C5  UNL     1     -34.283   5.491   4.304  1.00 20.00     0.100 C 
ENDROOT
BRANCH   3   4
HETATM    4  C1  UNL     1     -33.265   6.297   3.447  1.00 20.00     0.186 C 
HETATM    5  O6  UNL     1     -32.675   7.247   4.039  1.00 20.00    -0.647 OA
HETATM    6  O7  UNL     1     -33.118   5.905   2.253  1.00 20.00    -0.647 OA
ENDBRANCH   3   4
BRANCH   3   7
HETATM    7  C4  UNL     1     -33.945   5.797   5.765  1.00 20.00     0.371 C 
HETATM    8  F8  UNL     1     -34.298   4.761   6.566  1.00 20.00    -0.213 F 
HETATM    9  F9  UNL     1     -34.640   6.879   6.200  1.00 20.00    -0.213 F 
ENDBRANCH   3   7
TORSDOF 2
ENDMDL
