MODEL 1
REMARK VINA RESULT:      -3.0      0.000      0.000
REMARK  0 active torsions:
REMARK  status: ('A' for Active; 'I' for Inactive)
ROOT
HETATM    1  C1  UNL     1     -34.642   5.575   5.032  1.00 20.00     0.200 C 
HETATM    2  C2  UNL     1     -34.449   4.680   4.071  1.00 20.00     0.113 C 
HETATM    3  F3  UNL     1     -35.321   5.268   6.154  1.00 20.00    -0.219 F 
HETATM    4 CL4  UNL     1     -33.594   5.031   2.632  1.00 20.00    -0.095 Cl
ENDROOT
TORSDOF 0
ENDMDL
MODEL 2
REMARK VINA RESULT:      -3.0      1.621      1.706
REMARK  0 active torsions:
REMARK  status: ('A' for Active; 'I' for Inactive)
ROOT
HETATM    1  C1  UNL     1     -34.089   6.406   5.596  1.00 20.00     0.200 C 
HETATM    2  C2  UNL     1     -34.807   5.319   5.337  1.00 20.00     0.113 C 
HETATM    3  F3  UNL     1     -34.387   7.215   6.630  1.00 20.00    -0.219 F 
HETATM    4 CL4  UNL     1     -34.461   4.266   4.034  1.00 20.00    -0.095 Cl
ENDROOT
TORSDOF 0
ENDMDL
MODEL 3
REMARK VINA RESULT:      -3.0      2.845      2.931
REMARK  0 active torsions:
REMARK  status: ('A' for Active; 'I' for Inactive)
ROOT
HETATM    1  C1  UNL     1     -33.795   5.340   3.476  1.00 20.00     0.200 C 
HETATM    2  C2  UNL     1     -34.796   4.935   4.248  1.00 20.00     0.113 C 
HETATM    3  F3  UNL     1     -33.767   5.067   2.158  1.00 20.00    -0.219 F 
HETATM    4 CL4  UNL     1     -34.867   5.261   5.926  1.00 20.00    -0.095 Cl
ENDROOT
TORSDOF 0
ENDMDL
MODEL 4
REMARK VINA RESULT:      -2.9      1.662      1.705
REMARK  0 active torsions:
REMARK  status: ('A' for Active; 'I' for Inactive)
ROOT
HETATM    1  C1  UNL     1     -33.783   6.771   5.524  1.00 20.00     0.200 C 
HETATM    2  C2  UNL     1     -33.946   6.431   4.251  1.00 20.00     0.113 C 
HETATM    3  F3  UNL     1     -34.689   6.438   6.462  1.00 20.00    -0.219 F 
HETATM    4 CL4  UNL     1     -32.819   6.835   3.029  1.00 20.00    -0.095 Cl
ENDROOT
TORSDOF 0
ENDMDL
MODEL 5
REMARK VINA RESULT:      -2.8      2.539      2.681
REMARK  0 active torsions:
REMARK  status: ('A' for Active; 'I' for Inactive)
ROOT
HETATM    1  C1  UNL     1     -34.406   4.976   4.231  1.00 20.00     0.200 C 
HETATM    2  C2  UNL     1     -34.525   5.210   5.533  1.00 20.00     0.113 C 
HETATM    3  F3  UNL     1     -34.553   3.738   3.723  1.00 20.00    -0.219 F 
HETATM    4 CL4  UNL     1     -34.344   6.768   6.217  1.00 20.00    -0.095 Cl
ENDROOT
TORSDOF 0
ENDMDL
MODEL 6
REMARK VINA RESULT:      -2.8      2.983      2.992
REMARK  0 active torsions:
REMARK  status: ('A' for Active; 'I' for Inactive)
ROOT
HETATM    1  C1  UNL     1     -33.508   6.482   3.884  1.00 20.00     0.200 C 
HETATM    2  C2  UNL     1     -34.440   5.604   4.235  1.00 20.00     0.113 C 
HETATM    3  F3  UNL     1     -33.168   6.670   2.595  1.00 20.00    -0.219 F 
HETATM    4 CL4  UNL     1     -34.899   5.336   5.861  1.00 20.00    -0.095 Cl
ENDROOT
TORSDOF 0
ENDMDL
MODEL 7
REMARK VINA RESULT:      -2.7      3.123      3.222
REMARK  0 active torsions:
REMARK  status: ('A' for Active; 'I' for Inactive)
ROOT
HETATM    1  C1  UNL     1     -33.075   6.365   3.057  1.00 20.00     0.200 C 
HETATM    2  C2  UNL     1     -33.863   6.454   4.122  1.00 20.00     0.113 C 
HETATM    3  F3  UNL     1     -32.041   7.206   2.874  1.00 20.00    -0.219 F 
HETATM    4 CL4  UNL     1     -35.187   5.405   4.389  1.00 20.00    -0.095 Cl
ENDROOT
TORSDOF 0
ENDMDL
MODEL 8
REMARK VINA RESULT:      -2.7      2.037      2.147
REMARK  0 active torsions:
REMARK  status: ('A' for Active; 'I' for Inactive)
ROOT
HETATM    1  C1  UNL     1     -34.139   5.198   3.609  1.00 20.00     0.200 C 
HETATM    2  C2  UNL     1     -33.198   5.407   2.696  1.00 20.00     0.113 C 
HETATM    3  F3  UNL     1     -34.541   3.955   3.933  1.00 20.00    -0.219 F 
HETATM    4 CL4  UNL     1     -32.661   6.970   2.255  1.00 20.00    -0.095 Cl
ENDROOT
TORSDOF 0
ENDMDL
MODEL 9
REMARK VINA RESULT:      -2.7      1.453      1.595
REMARK  0 active torsions:
REMARK  status: ('A' for Active; 'I' for Inactive)
ROOT
HETATM    1  C1  UNL     1     -34.512   5.335   4.060  1.00 20.00     0.200 C 
HETATM    2  C2  UNL     1     -33.842   6.481   4.032  1.00 20.00     0.113 C 
HETATM    3  F3  UNL     1     -35.438   5.085   5.005  1.00 20.00    -0.219 F 
HETATM    4 CL4  UNL     1     -32.658   6.836   2.849  1.00 20.00    -0.095 Cl
ENDROOT
TORSDOF 0
ENDMDL
