MODEL 1
REMARK VINA RESULT:      -5.1      0.000      0.000
REMARK  1 active torsions:
REMARK  status: ('A' for Active; 'I' for Inactive)
REMARK    1  A    between atoms: C5_5  and  C10_10 
ROOT
HETATM    1  C1  UNL     1     -34.240  15.552  -5.250  1.00 20.00     0.027 A 
HETATM    2  C2  UNL     1     -35.734  14.278  -3.860  1.00 20.00     0.027 A 
HETATM    3  C3  UNL     1     -34.868  14.987  -6.349  1.00 20.00     0.116 A 
HETATM    4  C4  UNL     1     -36.296  13.772  -5.022  1.00 20.00     0.116 A 
HETATM    5  C5  UNL     1     -34.688  15.185  -3.986  1.00 20.00    -0.051 A 
HETATM    6  N11 UNL     1     -35.888  14.104  -6.267  1.00 20.00    -0.273 NA
ENDROOT
BRANCH   5   7
HETATM    7  C10 UNL     1     -34.005  15.801  -2.686  1.00 20.00     0.026 C 
HETATM    8  C8  UNL     1     -33.099  17.062  -2.848  1.00 20.00     0.043 C 
HETATM    9  C6  UNL     1     -33.686  17.474  -1.519  1.00 20.00    -0.088 C 
HETATM   10  C7  UNL     1     -33.286  18.315  -0.563  1.00 20.00     0.014 C 
HETATM   11  C9  UNL     1     -34.900  16.589  -1.678  1.00 20.00     0.043 C 
ENDBRANCH   5   7
TORSDOF 1
ENDMDL
MODEL 2
REMARK VINA RESULT:      -4.9      1.473      2.476
REMARK  1 active torsions:
REMARK  status: ('A' for Active; 'I' for Inactive)
REMARK    1  A    between atoms: C5_5  and  C10_10 
ROOT
HETATM    1  C1  UNL     1     -35.374  15.145  -3.136  1.00 20.00     0.027 A 
HETATM    2  C2  UNL     1     -33.090  15.819  -3.476  1.00 20.00     0.027 A 
HETATM    3  C3  UNL     1     -35.137  14.094  -4.008  1.00 20.00     0.116 A 
HETATM    4  C4  UNL     1     -32.955  14.737  -4.331  1.00 20.00     0.116 A 
HETATM    5  C5  UNL     1     -34.326  16.019  -2.871  1.00 20.00    -0.051 A 
HETATM    6  N11 UNL     1     -33.950  13.866  -4.613  1.00 20.00    -0.273 NA
ENDROOT
BRANCH   5   7
HETATM    7  C10 UNL     1     -34.540  17.245  -1.878  1.00 20.00     0.026 C 
HETATM    8  C8  UNL     1     -35.254  16.983  -0.515  1.00 20.00     0.043 C 
HETATM    9  C6  UNL     1     -34.281  18.004   0.025  1.00 20.00    -0.088 C 
HETATM   10  C7  UNL     1     -34.282  18.787   1.105  1.00 20.00     0.014 C 
HETATM   11  C9  UNL     1     -33.301  17.802  -1.107  1.00 20.00     0.043 C 
ENDBRANCH   5   7
TORSDOF 1
ENDMDL
MODEL 3
REMARK VINA RESULT:      -4.9      1.468      2.116
REMARK  1 active torsions:
REMARK  status: ('A' for Active; 'I' for Inactive)
REMARK    1  A    between atoms: C5_5  and  C10_10 
ROOT
HETATM    1  C1  UNL     1     -33.097  15.823  -3.477  1.00 20.00     0.027 A 
HETATM    2  C2  UNL     1     -35.380  15.147  -3.135  1.00 20.00     0.027 A 
HETATM    3  C3  UNL     1     -32.963  14.743  -4.335  1.00 20.00     0.116 A 
HETATM    4  C4  UNL     1     -35.144  14.099  -4.010  1.00 20.00     0.116 A 
HETATM    5  C5  UNL     1     -34.332  16.021  -2.870  1.00 20.00    -0.051 A 
HETATM    6  N11 UNL     1     -33.958  13.873  -4.619  1.00 20.00    -0.273 NA
ENDROOT
BRANCH   5   7
HETATM    7  C10 UNL     1     -34.546  17.245  -1.874  1.00 20.00     0.026 C 
HETATM    8  C8  UNL     1     -35.254  16.978  -0.508  1.00 20.00     0.043 C 
HETATM    9  C6  UNL     1     -34.282  18.003   0.029  1.00 20.00    -0.088 C 
HETATM   10  C7  UNL     1     -34.282  18.784   1.110  1.00 20.00     0.014 C 
HETATM   11  C9  UNL     1     -33.307  17.806  -1.107  1.00 20.00     0.043 C 
ENDBRANCH   5   7
TORSDOF 1
ENDMDL
MODEL 4
REMARK VINA RESULT:      -4.9      3.153      5.627
REMARK  1 active torsions:
REMARK  status: ('A' for Active; 'I' for Inactive)
REMARK    1  A    between atoms: C5_5  and  C10_10 
ROOT
HETATM    1  C1  UNL     1     -31.909  18.233  -1.331  1.00 20.00     0.027 A 
HETATM    2  C2  UNL     1     -33.930  18.128  -0.031  1.00 20.00     0.027 A 
HETATM    3  C3  UNL     1     -31.322  18.894  -0.264  1.00 20.00     0.116 A 
HETATM    4  C4  UNL     1     -33.252  18.793   0.978  1.00 20.00     0.116 A 
HETATM    5  C5  UNL     1     -33.239  17.846  -1.203  1.00 20.00    -0.051 A 
HETATM    6  N11 UNL     1     -31.961  19.184   0.892  1.00 20.00    -0.273 NA
ENDROOT
BRANCH   5   7
HETATM    7  C10 UNL     1     -33.967  17.083  -2.396  1.00 20.00     0.026 C 
HETATM    8  C8  UNL     1     -33.158  16.018  -3.202  1.00 20.00     0.043 C 
HETATM    9  C6  UNL     1     -34.470  15.270  -3.248  1.00 20.00    -0.088 C 
HETATM   10  C7  UNL     1     -34.953  14.319  -4.049  1.00 20.00     0.014 C 
HETATM   11  C9  UNL     1     -35.027  15.992  -2.044  1.00 20.00     0.043 C 
ENDBRANCH   5   7
TORSDOF 1
ENDMDL
MODEL 5
REMARK VINA RESULT:      -4.9      3.169      5.806
REMARK  1 active torsions:
REMARK  status: ('A' for Active; 'I' for Inactive)
REMARK    1  A    between atoms: C5_5  and  C10_10 
ROOT
HETATM    1  C1  UNL     1     -33.939  18.152   0.029  1.00 20.00     0.027 A 
HETATM    2  C2  UNL     1     -31.905  18.232  -1.254  1.00 20.00     0.027 A 
HETATM    3  C3  UNL     1     -33.261  18.807   1.044  1.00 20.00     0.116 A 
HETATM    4  C4  UNL     1     -31.319  18.885  -0.181  1.00 20.00     0.116 A 
HETATM    5  C5  UNL     1     -33.241  17.863  -1.139  1.00 20.00    -0.051 A 
HETATM    6  N11 UNL     1     -31.964  19.183   0.969  1.00 20.00    -0.273 NA
ENDROOT
BRANCH   5   7
HETATM    7  C10 UNL     1     -33.968  17.112  -2.340  1.00 20.00     0.026 C 
HETATM    8  C8  UNL     1     -33.162  16.047  -3.149  1.00 20.00     0.043 C 
HETATM    9  C6  UNL     1     -34.478  15.308  -3.206  1.00 20.00    -0.088 C 
HETATM   10  C7  UNL     1     -34.963  14.365  -4.016  1.00 20.00     0.014 C 
HETATM   11  C9  UNL     1     -35.036  16.025  -2.000  1.00 20.00     0.043 C 
ENDBRANCH   5   7
TORSDOF 1
ENDMDL
MODEL 6
REMARK VINA RESULT:      -4.6      3.134      5.587
REMARK  1 active torsions:
REMARK  status: ('A' for Active; 'I' for Inactive)
REMARK    1  A    between atoms: C5_5  and  C10_10 
ROOT
HETATM    1  C1  UNL     1     -35.413  17.286  -0.053  1.00 20.00     0.027 A 
HETATM    2  C2  UNL     1     -33.205  18.184  -0.378  1.00 20.00     0.027 A 
HETATM    3  C3  UNL     1     -35.365  17.781   1.240  1.00 20.00     0.116 A 
HETATM    4  C4  UNL     1     -33.257  18.640   0.930  1.00 20.00     0.116 A 
HETATM    5  C5  UNL     1     -34.307  17.496  -0.871  1.00 20.00    -0.051 A 
HETATM    6  N11 UNL     1     -34.312  18.455   1.755  1.00 20.00    -0.273 NA
ENDROOT
BRANCH   5   7
HETATM    7  C10 UNL     1     -34.305  16.951  -2.367  1.00 20.00     0.026 C 
HETATM    8  C8  UNL     1     -32.939  16.564  -3.016  1.00 20.00     0.043 C 
HETATM    9  C6  UNL     1     -33.730  15.456  -3.670  1.00 20.00    -0.088 C 
HETATM   10  C7  UNL     1     -33.530  14.707  -4.756  1.00 20.00     0.014 C 
HETATM   11  C9  UNL     1     -34.826  15.504  -2.632  1.00 20.00     0.043 C 
ENDBRANCH   5   7
TORSDOF 1
ENDMDL
MODEL 7
REMARK VINA RESULT:      -4.5     12.868     15.312
REMARK  1 active torsions:
REMARK  status: ('A' for Active; 'I' for Inactive)
REMARK    1  A    between atoms: C5_5  and  C10_10 
ROOT
HETATM    1  C1  UNL     1     -24.837  19.203   5.937  1.00 20.00     0.027 A 
HETATM    2  C2  UNL     1     -26.694  19.261   7.465  1.00 20.00     0.027 A 
HETATM    3  C3  UNL     1     -25.758  19.206   4.902  1.00 20.00     0.116 A 
HETATM    4  C4  UNL     1     -27.532  19.263   6.361  1.00 20.00     0.116 A 
HETATM    5  C5  UNL     1     -25.323  19.232   7.240  1.00 20.00    -0.051 A 
HETATM    6  N11 UNL     1     -27.098  19.236   5.081  1.00 20.00    -0.273 NA
ENDROOT
BRANCH   5   7
HETATM    7  C10 UNL     1     -24.311  19.230   8.470  1.00 20.00     0.026 C 
HETATM    8  C8  UNL     1     -24.862  18.870   9.886  1.00 20.00     0.043 C 
HETATM    9  C6  UNL     1     -23.526  18.190  10.072  1.00 20.00    -0.088 C 
HETATM   10  C7  UNL     1     -22.825  17.829  11.148  1.00 20.00     0.014 C 
HETATM   11  C9  UNL     1     -23.283  18.061   8.587  1.00 20.00     0.043 C 
ENDBRANCH   5   7
TORSDOF 1
ENDMDL
MODEL 8
REMARK VINA RESULT:      -4.4      2.179      3.724
REMARK  1 active torsions:
REMARK  status: ('A' for Active; 'I' for Inactive)
REMARK    1  A    between atoms: C5_5  and  C10_10 
ROOT
HETATM    1  C1  UNL     1     -32.929  16.848  -2.748  1.00 20.00     0.027 A 
HETATM    2  C2  UNL     1     -34.739  17.140  -1.191  1.00 20.00     0.027 A 
HETATM    3  C3  UNL     1     -33.743  15.968  -3.445  1.00 20.00     0.116 A 
HETATM    4  C4  UNL     1     -35.472  16.248  -1.958  1.00 20.00     0.116 A 
HETATM    5  C5  UNL     1     -33.445  17.440  -1.601  1.00 20.00    -0.051 A 
HETATM    6  N11 UNL     1     -35.005  15.652  -3.078  1.00 20.00    -0.273 NA
ENDROOT
BRANCH   5   7
HETATM    7  C10 UNL     1     -32.557  18.460  -0.760  1.00 20.00     0.026 C 
HETATM    8  C8  UNL     1     -32.744  18.507   0.790  1.00 20.00     0.043 C 
HETATM    9  C6  UNL     1     -31.251  18.735   0.816  1.00 20.00    -0.088 C 
HETATM   10  C7  UNL     1     -30.422  19.263   1.718  1.00 20.00     0.014 C 
HETATM   11  C9  UNL     1     -31.044  18.134  -0.554  1.00 20.00     0.043 C 
ENDBRANCH   5   7
TORSDOF 1
ENDMDL
MODEL 9
REMARK VINA RESULT:      -4.4      2.653      5.085
REMARK  1 active torsions:
REMARK  status: ('A' for Active; 'I' for Inactive)
REMARK    1  A    between atoms: C5_5  and  C10_10 
ROOT
HETATM    1  C1  UNL     1     -32.954  17.207  -2.291  1.00 20.00     0.027 A 
HETATM    2  C2  UNL     1     -34.728  17.515  -0.696  1.00 20.00     0.027 A 
HETATM    3  C3  UNL     1     -32.304  18.276  -1.693  1.00 20.00     0.116 A 
HETATM    4  C4  UNL     1     -33.998  18.569  -0.169  1.00 20.00     0.116 A 
HETATM    5  C5  UNL     1     -34.189  16.827  -1.776  1.00 20.00    -0.051 A 
HETATM    6  N11 UNL     1     -32.796  18.968  -0.641  1.00 20.00    -0.273 NA
ENDROOT
BRANCH   5   7
HETATM    7  C10 UNL     1     -34.982  15.606  -2.422  1.00 20.00     0.026 C 
HETATM    8  C8  UNL     1     -36.190  15.917  -3.361  1.00 20.00     0.043 C 
HETATM    9  C6  UNL     1     -35.704  14.719  -4.141  1.00 20.00    -0.088 C 
HETATM   10  C7  UNL     1     -36.290  13.894  -5.011  1.00 20.00     0.014 C 
HETATM   11  C9  UNL     1     -34.304  14.809  -3.581  1.00 20.00     0.043 C 
ENDBRANCH   5   7
TORSDOF 1
ENDMDL
