MODEL 1
REMARK VINA RESULT:      -3.5      0.000      0.000
REMARK  1 active torsions:
REMARK  status: ('A' for Active; 'I' for Inactive)
REMARK    1  A    between atoms: C4_4  and  S6_6 
ROOT
HETATM    1  C1  UNL     1     -34.732  16.434  -5.165  1.00 20.00     0.030 C 
HETATM    2  C2  UNL     1     -35.188  15.410  -2.916  1.00 20.00     0.030 C 
HETATM    3  C3  UNL     1     -33.382  14.460  -4.386  1.00 20.00     0.030 C 
HETATM    4  C4  UNL     1     -34.759  15.130  -4.360  1.00 20.00     0.042 C 
ENDROOT
BRANCH   4   5
HETATM    5  S6  UNL     1     -36.004  13.999  -5.127  1.00 20.00     0.120 S 
HETATM    6  O5  UNL     1     -35.815  12.677  -4.469  1.00 20.00    -0.240 OA
HETATM    7 CL7  UNL     1     -37.652  14.636  -4.179  1.00 20.00    -0.010 Cl
ENDBRANCH   4   5
TORSDOF 1
ENDMDL
MODEL 2
REMARK VINA RESULT:      -3.5      0.050      1.647
REMARK  1 active torsions:
REMARK  status: ('A' for Active; 'I' for Inactive)
REMARK    1  A    between atoms: C4_4  and  S6_6 
ROOT
HETATM    1  C1  UNL     1     -33.432  14.486  -4.374  1.00 20.00     0.030 C 
HETATM    2  C2  UNL     1     -34.769  16.466  -5.151  1.00 20.00     0.030 C 
HETATM    3  C3  UNL     1     -35.231  15.443  -2.901  1.00 20.00     0.030 C 
HETATM    4  C4  UNL     1     -34.806  15.164  -4.346  1.00 20.00     0.042 C 
ENDROOT
BRANCH   4   5
HETATM    5  S6  UNL     1     -36.032  14.027  -5.135  1.00 20.00     0.120 S 
HETATM    6  O5  UNL     1     -35.829  12.699  -4.494  1.00 20.00    -0.240 OA
HETATM    7 CL7  UNL     1     -37.692  14.629  -4.188  1.00 20.00    -0.010 Cl
ENDBRANCH   4   5
TORSDOF 1
ENDMDL
MODEL 3
REMARK VINA RESULT:      -3.5      0.056      1.632
REMARK  1 active torsions:
REMARK  status: ('A' for Active; 'I' for Inactive)
REMARK    1  A    between atoms: C4_4  and  S6_6 
ROOT
HETATM    1  C1  UNL     1     -35.161  15.469  -2.943  1.00 20.00     0.030 C 
HETATM    2  C2  UNL     1     -33.373  14.440  -4.377  1.00 20.00     0.030 C 
HETATM    3  C3  UNL     1     -34.645  16.447  -5.201  1.00 20.00     0.030 C 
HETATM    4  C4  UNL     1     -34.727  15.157  -4.378  1.00 20.00     0.042 C 
ENDROOT
BRANCH   4   5
HETATM    5  S6  UNL     1     -35.982  14.029  -5.134  1.00 20.00     0.120 S 
HETATM    6  O5  UNL     1     -35.784  12.704  -4.484  1.00 20.00    -0.240 OA
HETATM    7 CL7  UNL     1     -37.617  14.663  -4.163  1.00 20.00    -0.010 Cl
ENDBRANCH   4   5
TORSDOF 1
ENDMDL
MODEL 4
REMARK VINA RESULT:      -3.4     18.752     19.136
REMARK  1 active torsions:
REMARK  status: ('A' for Active; 'I' for Inactive)
REMARK    1  A    between atoms: C4_4  and  S6_6 
ROOT
HETATM    1  C1  UNL     1     -22.983  17.773  12.317  1.00 20.00     0.030 C 
HETATM    2  C2  UNL     1     -25.069  18.478  11.107  1.00 20.00     0.030 C 
HETATM    3  C3  UNL     1     -24.350  16.068  11.072  1.00 20.00     0.030 C 
HETATM    4  C4  UNL     1     -23.871  17.523  11.093  1.00 20.00     0.042 C 
ENDROOT
BRANCH   4   5
HETATM    5  S6  UNL     1     -22.875  17.861   9.573  1.00 20.00     0.120 S 
HETATM    6  O5  UNL     1     -22.582  16.531   8.973  1.00 20.00    -0.240 OA
HETATM    7 CL7  UNL     1     -24.339  18.488   8.356  1.00 20.00    -0.010 Cl
ENDBRANCH   4   5
TORSDOF 1
ENDMDL
MODEL 5
REMARK VINA RESULT:      -3.4     19.282     19.604
REMARK  1 active torsions:
REMARK  status: ('A' for Active; 'I' for Inactive)
REMARK    1  A    between atoms: C4_4  and  S6_6 
ROOT
HETATM    1  C1  UNL     1     -24.539  15.934  11.746  1.00 20.00     0.030 C 
HETATM    2  C2  UNL     1     -22.714  17.620  12.118  1.00 20.00     0.030 C 
HETATM    3  C3  UNL     1     -25.123  18.310  12.326  1.00 20.00     0.030 C 
HETATM    4  C4  UNL     1     -24.134  17.403  11.587  1.00 20.00     0.042 C 
ENDROOT
BRANCH   4   5
HETATM    5  S6  UNL     1     -24.152  17.819   9.786  1.00 20.00     0.120 S 
HETATM    6  O5  UNL     1     -24.891  19.107   9.671  1.00 20.00    -0.240 OA
HETATM    7 CL7  UNL     1     -22.267  18.471   9.583  1.00 20.00    -0.010 Cl
ENDBRANCH   4   5
TORSDOF 1
ENDMDL
MODEL 6
REMARK VINA RESULT:      -3.2     11.210     11.542
REMARK  1 active torsions:
REMARK  status: ('A' for Active; 'I' for Inactive)
REMARK    1  A    between atoms: C4_4  and  S6_6 
ROOT
HETATM    1  C1  UNL     1     -40.932   5.087  -1.149  1.00 20.00     0.030 C 
HETATM    2  C2  UNL     1     -42.316   5.894   0.786  1.00 20.00     0.030 C 
HETATM    3  C3  UNL     1     -43.417   5.364  -1.412  1.00 20.00     0.030 C 
HETATM    4  C4  UNL     1     -42.155   5.912  -0.737  1.00 20.00     0.042 C 
ENDROOT
BRANCH   4   5
HETATM    5  S6  UNL     1     -41.885   7.660  -1.273  1.00 20.00     0.120 S 
HETATM    6  O5  UNL     1     -43.160   8.094  -1.909  1.00 20.00    -0.240 OA
HETATM    7 CL7  UNL     1     -42.043   8.575   0.503  1.00 20.00    -0.010 Cl
ENDBRANCH   4   5
TORSDOF 1
ENDMDL
MODEL 7
REMARK VINA RESULT:      -3.2      2.352      2.387
REMARK  1 active torsions:
REMARK  status: ('A' for Active; 'I' for Inactive)
REMARK    1  A    between atoms: C4_4  and  S6_6 
ROOT
HETATM    1  C1  UNL     1     -34.598  17.045  -4.675  1.00 20.00     0.030 C 
HETATM    2  C2  UNL     1     -35.197  15.665  -2.663  1.00 20.00     0.030 C 
HETATM    3  C3  UNL     1     -32.944  16.774  -2.799  1.00 20.00     0.030 C 
HETATM    4  C4  UNL     1     -34.063  16.096  -3.598  1.00 20.00     0.042 C 
ENDROOT
BRANCH   4   5
HETATM    5  S6  UNL     1     -33.391  14.589  -4.432  1.00 20.00     0.120 S 
HETATM    6  O5  UNL     1     -34.334  13.486  -4.103  1.00 20.00    -0.240 OA
HETATM    7 CL7  UNL     1     -33.947  14.984  -6.316  1.00 20.00    -0.010 Cl
ENDBRANCH   4   5
TORSDOF 1
ENDMDL
MODEL 8
REMARK VINA RESULT:      -3.2     11.219     11.571
REMARK  1 active torsions:
REMARK  status: ('A' for Active; 'I' for Inactive)
REMARK    1  A    between atoms: C4_4  and  S6_6 
ROOT
HETATM    1  C1  UNL     1     -42.397   5.825   0.735  1.00 20.00     0.030 C 
HETATM    2  C2  UNL     1     -43.417   5.380  -1.517  1.00 20.00     0.030 C 
HETATM    3  C3  UNL     1     -40.938   5.114  -1.186  1.00 20.00     0.030 C 
HETATM    4  C4  UNL     1     -42.183   5.909  -0.779  1.00 20.00     0.042 C 
ENDROOT
BRANCH   4   5
HETATM    5  S6  UNL     1     -41.950   7.685  -1.236  1.00 20.00     0.120 S 
HETATM    6  O5  UNL     1     -43.147   8.062  -2.036  1.00 20.00    -0.240 OA
HETATM    7 CL7  UNL     1     -42.410   8.537   0.518  1.00 20.00    -0.010 Cl
ENDBRANCH   4   5
TORSDOF 1
ENDMDL
MODEL 9
REMARK VINA RESULT:      -3.1      1.781      2.074
REMARK  1 active torsions:
REMARK  status: ('A' for Active; 'I' for Inactive)
REMARK    1  A    between atoms: C4_4  and  S6_6 
ROOT
HETATM    1  C1  UNL     1     -37.156  16.408  -3.705  1.00 20.00     0.030 C 
HETATM    2  C2  UNL     1     -35.058  15.663  -2.541  1.00 20.00     0.030 C 
HETATM    3  C3  UNL     1     -34.950  16.506  -4.908  1.00 20.00     0.030 C 
HETATM    4  C4  UNL     1     -35.791  15.736  -3.884  1.00 20.00     0.042 C 
ENDROOT
BRANCH   4   5
HETATM    5  S6  UNL     1     -36.066  14.013  -4.492  1.00 20.00     0.120 S 
HETATM    6  O5  UNL     1     -37.538  13.793  -4.445  1.00 20.00    -0.240 OA
HETATM    7 CL7  UNL     1     -35.814  14.315  -6.457  1.00 20.00    -0.010 Cl
ENDBRANCH   4   5
TORSDOF 1
ENDMDL
