MODEL 1
REMARK VINA RESULT:      -5.5      0.000      0.000
REMARK  0 active torsions:
REMARK  status: ('A' for Active; 'I' for Inactive)
ROOT
HETATM    1  C1  UNL     1     -34.397  14.276  -3.790  1.00 20.00     0.099 A 
HETATM    2  C2  UNL     1     -35.440  16.423  -3.368  1.00 20.00     0.063 A 
HETATM    3  C3  UNL     1     -38.910  15.116  -4.293  1.00 20.00     0.167 A 
HETATM    4  C4  UNL     1     -36.793  14.521  -4.113  1.00 20.00     0.124 A 
HETATM    5  C5  UNL     1     -35.630  13.721  -4.144  1.00 20.00     0.204 A 
HETATM    6  C6  UNL     1     -34.305  15.610  -3.407  1.00 20.00     0.121 A 
HETATM    7  C7  UNL     1     -36.676  15.859  -3.725  1.00 20.00     0.042 A 
HETATM    8  N8  UNL     1     -38.078  14.110  -4.436  1.00 20.00    -0.249 NA
HETATM    9  O9  UNL     1     -35.808  12.512  -4.507  1.00 20.00    -0.286 OA
HETATM   10  F10 UNL     1     -33.114  16.123  -3.072  1.00 20.00    -0.206 F 
HETATM   11  S11 UNL     1     -38.233  16.598  -3.774  1.00 20.00    -0.080 SA
ENDROOT
TORSDOF 0
ENDMDL
MODEL 2
REMARK VINA RESULT:      -4.8      2.583      2.816
REMARK  0 active torsions:
REMARK  status: ('A' for Active; 'I' for Inactive)
ROOT
HETATM    1  C1  UNL     1     -35.545  14.743  -3.312  1.00 20.00     0.099 A 
HETATM    2  C2  UNL     1     -33.912  15.978  -4.611  1.00 20.00     0.063 A 
HETATM    3  C3  UNL     1     -35.597  15.069  -7.918  1.00 20.00     0.167 A 
HETATM    4  C4  UNL     1     -35.742  14.797  -5.733  1.00 20.00     0.124 A 
HETATM    5  C5  UNL     1     -36.219  14.366  -4.477  1.00 20.00     0.204 A 
HETATM    6  C6  UNL     1     -34.406  15.539  -3.380  1.00 20.00     0.121 A 
HETATM    7  C7  UNL     1     -34.595  15.595  -5.777  1.00 20.00     0.042 A 
HETATM    8  N8  UNL     1     -36.304  14.503  -6.967  1.00 20.00    -0.249 NA
HETATM    9  O9  UNL     1     -37.267  13.641  -4.510  1.00 20.00    -0.286 OA
HETATM   10  F10 UNL     1     -33.773  15.889  -2.253  1.00 20.00    -0.206 F 
HETATM   11  S11 UNL     1     -34.235  15.975  -7.420  1.00 20.00    -0.080 SA
ENDROOT
TORSDOF 0
ENDMDL
MODEL 3
REMARK VINA RESULT:      -4.7     13.387     14.476
REMARK  0 active torsions:
REMARK  status: ('A' for Active; 'I' for Inactive)
ROOT
HETATM    1  C1  UNL     1     -27.022  19.087   3.494  1.00 20.00     0.099 A 
HETATM    2  C2  UNL     1     -27.926  19.263   5.736  1.00 20.00     0.063 A 
HETATM    3  C3  UNL     1     -24.459  19.110   7.336  1.00 20.00     0.167 A 
HETATM    4  C4  UNL     1     -25.507  19.082   5.395  1.00 20.00     0.124 A 
HETATM    5  C5  UNL     1     -25.721  19.025   4.000  1.00 20.00     0.204 A 
HETATM    6  C6  UNL     1     -28.110  19.205   4.353  1.00 20.00     0.121 A 
HETATM    7  C7  UNL     1     -26.616  19.199   6.238  1.00 20.00     0.042 A 
HETATM    8  N8  UNL     1     -24.280  19.031   6.038  1.00 20.00    -0.249 NA
HETATM    9  O9  UNL     1     -24.667  18.917   3.291  1.00 20.00    -0.286 OA
HETATM   10  F10 UNL     1     -29.349  19.263   3.849  1.00 20.00    -0.206 F 
HETATM   11  S11 UNL     1     -26.076  19.247   7.875  1.00 20.00    -0.080 SA
ENDROOT
TORSDOF 0
ENDMDL
MODEL 4
REMARK VINA RESULT:      -4.4      2.694      3.537
REMARK  0 active torsions:
REMARK  status: ('A' for Active; 'I' for Inactive)
ROOT
HETATM    1  C1  UNL     1     -37.436  14.403  -4.336  1.00 20.00     0.099 A 
HETATM    2  C2  UNL     1     -36.439  16.560  -3.860  1.00 20.00     0.063 A 
HETATM    3  C3  UNL     1     -32.889  15.156  -4.045  1.00 20.00     0.167 A 
HETATM    4  C4  UNL     1     -35.017  14.599  -4.224  1.00 20.00     0.124 A 
HETATM    5  C5  UNL     1     -36.172  13.813  -4.420  1.00 20.00     0.204 A 
HETATM    6  C6  UNL     1     -37.566  15.760  -4.059  1.00 20.00     0.121 A 
HETATM    7  C7  UNL     1     -35.171  15.960  -3.946  1.00 20.00     0.042 A 
HETATM    8  N8  UNL     1     -33.704  14.153  -4.276  1.00 20.00    -0.249 NA
HETATM    9  O9  UNL     1     -35.958  12.580  -4.668  1.00 20.00    -0.286 OA
HETATM   10  F10 UNL     1     -38.786  16.307  -3.982  1.00 20.00    -0.206 F 
HETATM   11  S11 UNL     1     -33.615  16.677  -3.753  1.00 20.00    -0.080 SA
ENDROOT
TORSDOF 0
ENDMDL
MODEL 5
REMARK VINA RESULT:      -4.4      1.695      2.025
REMARK  0 active torsions:
REMARK  status: ('A' for Active; 'I' for Inactive)
ROOT
HETATM    1  C1  UNL     1     -35.455  13.715  -4.296  1.00 20.00     0.099 A 
HETATM    2  C2  UNL     1     -34.320  15.761  -3.661  1.00 20.00     0.063 A 
HETATM    3  C3  UNL     1     -37.602  17.693  -3.355  1.00 20.00     0.167 A 
HETATM    4  C4  UNL     1     -36.762  15.712  -3.839  1.00 20.00     0.124 A 
HETATM    5  C5  UNL     1     -36.696  14.350  -4.206  1.00 20.00     0.204 A 
HETATM    6  C6  UNL     1     -34.282  14.413  -4.026  1.00 20.00     0.121 A 
HETATM    7  C7  UNL     1     -35.571  16.393  -3.573  1.00 20.00     0.042 A 
HETATM    8  N8  UNL     1     -37.917  16.469  -3.710  1.00 20.00    -0.249 NA
HETATM    9  O9  UNL     1     -37.819  13.791  -4.435  1.00 20.00    -0.286 OA
HETATM   10  F10 UNL     1     -33.101  13.787  -4.118  1.00 20.00    -0.206 F 
HETATM   11  S11 UNL     1     -35.937  18.025  -3.152  1.00 20.00    -0.080 SA
ENDROOT
TORSDOF 0
ENDMDL
MODEL 6
REMARK VINA RESULT:      -4.3      4.309      5.121
REMARK  0 active torsions:
REMARK  status: ('A' for Active; 'I' for Inactive)
ROOT
HETATM    1  C1  UNL     1     -32.924  16.711  -2.825  1.00 20.00     0.099 A 
HETATM    2  C2  UNL     1     -35.045  16.095  -1.826  1.00 20.00     0.063 A 
HETATM    3  C3  UNL     1     -34.903  18.978   0.678  1.00 20.00     0.167 A 
HETATM    4  C4  UNL     1     -33.804  18.032  -0.984  1.00 20.00     0.124 A 
HETATM    5  C5  UNL     1     -32.797  17.788  -1.943  1.00 20.00     0.204 A 
HETATM    6  C6  UNL     1     -34.035  15.876  -2.766  1.00 20.00     0.121 A 
HETATM    7  C7  UNL     1     -34.911  17.179  -0.943  1.00 20.00     0.042 A 
HETATM    8  N8  UNL     1     -33.813  19.056  -0.050  1.00 20.00    -0.249 NA
HETATM    9  O9  UNL     1     -31.816  18.602  -1.925  1.00 20.00    -0.286 OA
HETATM   10  F10 UNL     1     -34.139  14.849  -3.619  1.00 20.00    -0.206 F 
HETATM   11  S11 UNL     1     -35.977  17.700   0.308  1.00 20.00    -0.080 SA
ENDROOT
TORSDOF 0
ENDMDL
MODEL 7
REMARK VINA RESULT:      -4.2     17.593     18.638
REMARK  0 active torsions:
REMARK  status: ('A' for Active; 'I' for Inactive)
ROOT
HETATM    1  C1  UNL     1     -25.734  19.152   8.636  1.00 20.00     0.099 A 
HETATM    2  C2  UNL     1     -23.539  18.560   7.795  1.00 20.00     0.063 A 
HETATM    3  C3  UNL     1     -22.217  17.778  11.294  1.00 20.00     0.167 A 
HETATM    4  C4  UNL     1     -24.009  18.450  10.197  1.00 20.00     0.124 A 
HETATM    5  C5  UNL     1     -25.328  18.886   9.947  1.00 20.00     0.204 A 
HETATM    6  C6  UNL     1     -24.849  18.990   7.575  1.00 20.00     0.121 A 
HETATM    7  C7  UNL     1     -23.137  18.296   9.115  1.00 20.00     0.042 A 
HETATM    8  N8  UNL     1     -23.467  18.151  11.438  1.00 20.00    -0.249 NA
HETATM    9  O9  UNL     1     -26.068  19.007  10.978  1.00 20.00    -0.286 OA
HETATM   10  F10 UNL     1     -25.258  19.250   6.326  1.00 20.00    -0.206 F 
HETATM   11  S11 UNL     1     -21.606  17.758   9.697  1.00 20.00    -0.080 SA
ENDROOT
TORSDOF 0
ENDMDL
MODEL 8
REMARK VINA RESULT:      -4.2      2.219      2.560
REMARK  0 active torsions:
REMARK  status: ('A' for Active; 'I' for Inactive)
ROOT
HETATM    1  C1  UNL     1     -33.205  16.327  -2.730  1.00 20.00     0.099 A 
HETATM    2  C2  UNL     1     -35.607  16.518  -2.467  1.00 20.00     0.063 A 
HETATM    3  C3  UNL     1     -36.286  13.867  -5.135  1.00 20.00     0.167 A 
HETATM    4  C4  UNL     1     -34.667  14.943  -4.091  1.00 20.00     0.124 A 
HETATM    5  C5  UNL     1     -33.369  15.350  -3.716  1.00 20.00     0.204 A 
HETATM    6  C6  UNL     1     -34.312  16.903  -2.115  1.00 20.00     0.121 A 
HETATM    7  C7  UNL     1     -35.764  15.536  -3.459  1.00 20.00     0.042 A 
HETATM    8  N8  UNL     1     -34.982  13.990  -5.048  1.00 20.00    -0.249 NA
HETATM    9  O9  UNL     1     -32.415  14.769  -4.332  1.00 20.00    -0.286 OA
HETATM   10  F10 UNL     1     -34.134  17.838  -1.172  1.00 20.00    -0.206 F 
HETATM   11  S11 UNL     1     -37.216  14.861  -4.100  1.00 20.00    -0.080 SA
ENDROOT
TORSDOF 0
ENDMDL
MODEL 9
REMARK VINA RESULT:      -4.2      2.792      3.615
REMARK  0 active torsions:
REMARK  status: ('A' for Active; 'I' for Inactive)
ROOT
HETATM    1  C1  UNL     1     -35.873  13.712  -4.345  1.00 20.00     0.099 A 
HETATM    2  C2  UNL     1     -36.709  15.888  -3.681  1.00 20.00     0.063 A 
HETATM    3  C3  UNL     1     -33.203  17.192  -2.901  1.00 20.00     0.167 A 
HETATM    4  C4  UNL     1     -34.306  15.419  -3.612  1.00 20.00     0.124 A 
HETATM    5  C5  UNL     1     -34.560  14.112  -4.082  1.00 20.00     0.204 A 
HETATM    6  C6  UNL     1     -36.933  14.590  -4.146  1.00 20.00     0.121 A 
HETATM    7  C7  UNL     1     -35.387  16.283  -3.419  1.00 20.00     0.042 A 
HETATM    8  N8  UNL     1     -33.062  15.953  -3.311  1.00 20.00    -0.249 NA
HETATM    9  O9  UNL     1     -33.529  13.377  -4.235  1.00 20.00    -0.286 OA
HETATM   10  F10 UNL     1     -38.184  14.187  -4.402  1.00 20.00    -0.206 F 
HETATM   11  S11 UNL     1     -34.800  17.800  -2.846  1.00 20.00    -0.080 SA
ENDROOT
TORSDOF 0
ENDMDL
