MODEL 1
REMARK VINA RESULT:      -6.4      0.000      0.000
REMARK  1 active torsions:
REMARK  status: ('A' for Active; 'I' for Inactive)
REMARK    1  A    between atoms: C1_1  and  C7_7 
ROOT
HETATM    1  C2  UNL     1     -35.725  17.385  -4.213  1.00 20.00     0.007 C 
HETATM    2  C3  UNL     1     -36.459  16.047  -4.302  1.00 20.00     0.020 C 
HETATM    3  C4  UNL     1     -34.453  14.725  -3.548  1.00 20.00     0.026 C 
HETATM    4  C5  UNL     1     -34.325  17.323  -3.681  1.00 20.00    -0.002 A 
HETATM    5  C6  UNL     1     -33.676  15.994  -3.367  1.00 20.00    -0.000 A 
HETATM    6  C7  UNL     1     -35.538  14.867  -4.619  1.00 20.00     0.045 C 
HETATM    7  C8  UNL     1     -33.946  16.995  -2.245  1.00 20.00    -0.040 A 
HETATM    8  C9  UNL     1     -34.972  14.917  -6.035  1.00 20.00     0.027 C 
HETATM    9  C10 UNL     1     -32.741  17.714  -1.680  1.00 20.00     0.015 C 
HETATM   10  C11 UNL     1     -35.011  16.751  -1.210  1.00 20.00     0.015 C 
ENDROOT
BRANCH   6  11
HETATM   11  C1  UNL     1     -36.412  13.619  -4.526  1.00 20.00     0.181 C 
HETATM   12  O12 UNL     1     -35.784  12.525  -4.486  1.00 20.00    -0.647 OA
HETATM   13  O13 UNL     1     -37.655  13.843  -4.502  1.00 20.00    -0.647 OA
ENDBRANCH   6  11
TORSDOF 1
ENDMDL
MODEL 2
REMARK VINA RESULT:      -5.3      0.729      1.153
REMARK  1 active torsions:
REMARK  status: ('A' for Active; 'I' for Inactive)
REMARK    1  A    between atoms: C1_1  and  C7_7 
ROOT
HETATM    1  C2  UNL     1     -36.670  17.528  -3.809  1.00 20.00     0.007 C 
HETATM    2  C3  UNL     1     -37.208  16.103  -3.945  1.00 20.00     0.020 C 
HETATM    3  C4  UNL     1     -34.917  15.065  -3.812  1.00 20.00     0.026 C 
HETATM    4  C5  UNL     1     -35.192  17.645  -3.585  1.00 20.00    -0.002 A 
HETATM    5  C6  UNL     1     -34.308  16.419  -3.607  1.00 20.00    -0.000 A 
HETATM    6  C7  UNL     1     -36.222  15.142  -4.610  1.00 20.00     0.045 C 
HETATM    7  C8  UNL     1     -34.462  17.226  -2.319  1.00 20.00    -0.040 A 
HETATM    8  C9  UNL     1     -35.997  15.448  -6.088  1.00 20.00     0.027 C 
HETATM    9  C10 UNL     1     -33.277  18.070  -1.908  1.00 20.00     0.015 C 
HETATM   10  C11 UNL     1     -35.225  16.688  -1.138  1.00 20.00     0.015 C 
ENDROOT
BRANCH   6  11
HETATM   11  C1  UNL     1     -36.867  13.760  -4.529  1.00 20.00     0.181 C 
HETATM   12  O12 UNL     1     -38.121  13.759  -4.390  1.00 20.00    -0.647 OA
HETATM   13  O13 UNL     1     -36.059  12.793  -4.612  1.00 20.00    -0.647 OA
ENDBRANCH   6  11
TORSDOF 1
ENDMDL
MODEL 3
REMARK VINA RESULT:      -5.2      1.275      1.994
REMARK  1 active torsions:
REMARK  status: ('A' for Active; 'I' for Inactive)
REMARK    1  A    between atoms: C1_1  and  C7_7 
ROOT
HETATM    1  C2  UNL     1     -33.471  15.398  -5.066  1.00 20.00     0.007 C 
HETATM    2  C3  UNL     1     -34.935  15.213  -5.469  1.00 20.00     0.020 C 
HETATM    3  C4  UNL     1     -35.776  15.509  -3.113  1.00 20.00     0.026 C 
HETATM    4  C5  UNL     1     -33.232  15.733  -3.624  1.00 20.00    -0.002 A 
HETATM    5  C6  UNL     1     -34.378  15.769  -2.639  1.00 20.00    -0.000 A 
HETATM    6  C7  UNL     1     -35.800  14.616  -4.357  1.00 20.00     0.045 C 
HETATM    7  C8  UNL     1     -33.604  17.047  -2.956  1.00 20.00    -0.040 A 
HETATM    8  C9  UNL     1     -35.457  13.161  -4.051  1.00 20.00     0.027 C 
HETATM    9  C10 UNL     1     -32.668  17.551  -1.881  1.00 20.00     0.015 C 
HETATM   10  C11 UNL     1     -34.221  18.164  -3.755  1.00 20.00     0.015 C 
ENDROOT
BRANCH   6  11
HETATM   11  C1  UNL     1     -37.232  14.639  -4.885  1.00 20.00     0.181 C 
HETATM   12  O12 UNL     1     -38.021  13.819  -4.340  1.00 20.00    -0.647 OA
HETATM   13  O13 UNL     1     -37.445  15.480  -5.804  1.00 20.00    -0.647 OA
ENDBRANCH   6  11
TORSDOF 1
ENDMDL
MODEL 4
REMARK VINA RESULT:      -5.2      1.292      1.494
REMARK  1 active torsions:
REMARK  status: ('A' for Active; 'I' for Inactive)
REMARK    1  A    between atoms: C1_1  and  C7_7 
ROOT
HETATM    1  C2  UNL     1     -34.193  17.416  -4.475  1.00 20.00     0.007 C 
HETATM    2  C3  UNL     1     -35.031  16.303  -5.106  1.00 20.00     0.020 C 
HETATM    3  C4  UNL     1     -35.168  14.987  -2.963  1.00 20.00     0.026 C 
HETATM    4  C5  UNL     1     -33.942  17.285  -3.003  1.00 20.00    -0.002 A 
HETATM    5  C6  UNL     1     -34.408  16.062  -2.246  1.00 20.00    -0.000 A 
HETATM    6  C7  UNL     1     -34.817  14.937  -4.453  1.00 20.00     0.045 C 
HETATM    7  C8  UNL     1     -34.996  17.433  -1.917  1.00 20.00    -0.040 A 
HETATM    8  C9  UNL     1     -33.428  14.362  -4.716  1.00 20.00     0.027 C 
HETATM    9  C10 UNL     1     -34.548  18.063  -0.617  1.00 20.00     0.015 C 
HETATM   10  C11 UNL     1     -36.415  17.788  -2.271  1.00 20.00     0.015 C 
ENDROOT
BRANCH   6  11
HETATM   11  C1  UNL     1     -35.825  13.998  -5.109  1.00 20.00     0.181 C 
HETATM   12  O12 UNL     1     -35.931  12.861  -4.572  1.00 20.00    -0.647 OA
HETATM   13  O13 UNL     1     -36.426  14.481  -6.110  1.00 20.00    -0.647 OA
ENDBRANCH   6  11
TORSDOF 1
ENDMDL
MODEL 5
REMARK VINA RESULT:      -5.1      1.629      2.247
REMARK  1 active torsions:
REMARK  status: ('A' for Active; 'I' for Inactive)
REMARK    1  A    between atoms: C1_1  and  C7_7 
ROOT
HETATM    1  C2  UNL     1     -33.529  17.373  -3.645  1.00 20.00     0.007 C 
HETATM    2  C3  UNL     1     -34.152  16.714  -4.877  1.00 20.00     0.020 C 
HETATM    3  C4  UNL     1     -35.399  15.000  -3.516  1.00 20.00     0.026 C 
HETATM    4  C5  UNL     1     -33.972  16.823  -2.322  1.00 20.00    -0.002 A 
HETATM    5  C6  UNL     1     -34.889  15.624  -2.252  1.00 20.00    -0.000 A 
HETATM    6  C7  UNL     1     -34.440  15.224  -4.689  1.00 20.00     0.045 C 
HETATM    7  C8  UNL     1     -35.363  16.978  -1.729  1.00 20.00    -0.040 A 
HETATM    8  C9  UNL     1     -33.172  14.380  -4.589  1.00 20.00     0.027 C 
HETATM    9  C10 UNL     1     -35.447  17.128  -0.226  1.00 20.00     0.015 C 
HETATM   10  C11 UNL     1     -36.417  17.776  -2.448  1.00 20.00     0.015 C 
ENDROOT
BRANCH   6  11
HETATM   11  C1  UNL     1     -35.179  14.780  -5.949  1.00 20.00     0.181 C 
HETATM   12  O12 UNL     1     -34.889  15.420  -6.997  1.00 20.00    -0.647 OA
HETATM   13  O13 UNL     1     -35.987  13.824  -5.780  1.00 20.00    -0.647 OA
ENDBRANCH   6  11
TORSDOF 1
ENDMDL
MODEL 6
REMARK VINA RESULT:      -5.0      1.455      2.190
REMARK  1 active torsions:
REMARK  status: ('A' for Active; 'I' for Inactive)
REMARK    1  A    between atoms: C1_1  and  C7_7 
ROOT
HETATM    1  C2  UNL     1     -33.145  15.945  -3.853  1.00 20.00     0.007 C 
HETATM    2  C3  UNL     1     -34.176  15.591  -4.926  1.00 20.00     0.020 C 
HETATM    3  C4  UNL     1     -36.090  15.556  -3.289  1.00 20.00     0.026 C 
HETATM    4  C5  UNL     1     -33.695  16.182  -2.478  1.00 20.00    -0.002 A 
HETATM    5  C6  UNL     1     -35.162  15.968  -2.186  1.00 20.00    -0.000 A 
HETATM    6  C7  UNL     1     -35.359  14.783  -4.390  1.00 20.00     0.045 C 
HETATM    7  C8  UNL     1     -34.557  17.366  -2.070  1.00 20.00    -0.040 A 
HETATM    8  C9  UNL     1     -34.971  13.369  -3.965  1.00 20.00     0.027 C 
HETATM    9  C10 UNL     1     -34.358  17.900  -0.670  1.00 20.00     0.015 C 
HETATM   10  C11 UNL     1     -34.884  18.451  -3.061  1.00 20.00     0.015 C 
ENDROOT
BRANCH   6  11
HETATM   11  C1  UNL     1     -36.336  14.650  -5.555  1.00 20.00     0.181 C 
HETATM   12  O12 UNL     1     -37.465  15.185  -5.374  1.00 20.00    -0.647 OA
HETATM   13  O13 UNL     1     -35.887  14.021  -6.554  1.00 20.00    -0.647 OA
ENDBRANCH   6  11
TORSDOF 1
ENDMDL
MODEL 7
REMARK VINA RESULT:      -5.0      0.907      1.098
REMARK  1 active torsions:
REMARK  status: ('A' for Active; 'I' for Inactive)
REMARK    1  A    between atoms: C1_1  and  C7_7 
ROOT
HETATM    1  C2  UNL     1     -35.512  17.769  -4.134  1.00 20.00     0.007 C 
HETATM    2  C3  UNL     1     -36.070  16.413  -4.569  1.00 20.00     0.020 C 
HETATM    3  C4  UNL     1     -34.017  15.160  -3.823  1.00 20.00     0.026 C 
HETATM    4  C5  UNL     1     -34.180  17.732  -3.445  1.00 20.00    -0.002 A 
HETATM    5  C6  UNL     1     -33.419  16.433  -3.306  1.00 20.00    -0.000 A 
HETATM    6  C7  UNL     1     -34.987  15.413  -4.979  1.00 20.00     0.045 C 
HETATM    7  C8  UNL     1     -33.925  17.158  -2.060  1.00 20.00    -0.040 A 
HETATM    8  C9  UNL     1     -34.279  15.801  -6.275  1.00 20.00     0.027 C 
HETATM    9  C10 UNL     1     -32.883  17.857  -1.217  1.00 20.00     0.015 C 
HETATM   10  C11 UNL     1     -35.061  16.612  -1.237  1.00 20.00     0.015 C 
ENDROOT
BRANCH   6  11
HETATM   11  C1  UNL     1     -35.713  14.096  -5.239  1.00 20.00     0.181 C 
HETATM   12  O12 UNL     1     -36.320  14.024  -6.344  1.00 20.00    -0.647 OA
HETATM   13  O13 UNL     1     -35.613  13.244  -4.312  1.00 20.00    -0.647 OA
ENDBRANCH   6  11
TORSDOF 1
ENDMDL
MODEL 8
REMARK VINA RESULT:      -4.8      2.318      3.245
REMARK  1 active torsions:
REMARK  status: ('A' for Active; 'I' for Inactive)
REMARK    1  A    between atoms: C1_1  and  C7_7 
ROOT
HETATM    1  C2  UNL     1     -34.114  14.240  -3.824  1.00 20.00     0.007 C 
HETATM    2  C3  UNL     1     -33.731  14.757  -5.212  1.00 20.00     0.020 C 
HETATM    3  C4  UNL     1     -35.106  16.854  -4.976  1.00 20.00     0.026 C 
HETATM    4  C5  UNL     1     -34.965  15.161  -3.001  1.00 20.00    -0.002 A 
HETATM    5  C6  UNL     1     -35.481  16.459  -3.580  1.00 20.00    -0.000 A 
HETATM    6  C7  UNL     1     -34.807  15.635  -5.853  1.00 20.00     0.045 C 
HETATM    7  C8  UNL     1     -34.504  16.482  -2.405  1.00 20.00    -0.040 A 
HETATM    8  C9  UNL     1     -36.063  14.855  -6.233  1.00 20.00     0.027 C 
HETATM    9  C10 UNL     1     -35.079  16.857  -1.058  1.00 20.00     0.015 C 
HETATM   10  C11 UNL     1     -33.081  16.942  -2.573  1.00 20.00     0.015 C 
ENDROOT
BRANCH   6  11
HETATM   11  C1  UNL     1     -34.197  16.165  -7.147  1.00 20.00     0.181 C 
HETATM   12  O12 UNL     1     -34.233  17.419  -7.286  1.00 20.00    -0.647 OA
HETATM   13  O13 UNL     1     -33.732  15.277  -7.917  1.00 20.00    -0.647 OA
ENDBRANCH   6  11
TORSDOF 1
ENDMDL
MODEL 9
REMARK VINA RESULT:      -4.7      3.305      4.856
REMARK  1 active torsions:
REMARK  status: ('A' for Active; 'I' for Inactive)
REMARK    1  A    between atoms: C1_1  and  C7_7 
ROOT
HETATM    1  C2  UNL     1     -34.395  17.454  -4.817  1.00 20.00     0.007 C 
HETATM    2  C3  UNL     1     -33.350  18.064  -3.883  1.00 20.00     0.020 C 
HETATM    3  C4  UNL     1     -33.972  16.560  -1.960  1.00 20.00     0.026 C 
HETATM    4  C5  UNL     1     -35.167  16.295  -4.260  1.00 20.00    -0.002 A 
HETATM    5  C6  UNL     1     -34.975  15.858  -2.825  1.00 20.00    -0.000 A 
HETATM    6  C7  UNL     1     -33.747  18.008  -2.407  1.00 20.00     0.045 C 
HETATM    7  C8  UNL     1     -34.592  14.918  -3.967  1.00 20.00    -0.040 A 
HETATM    8  C9  UNL     1     -34.923  18.922  -2.071  1.00 20.00     0.027 C 
HETATM    9  C10 UNL     1     -35.507  13.737  -4.202  1.00 20.00     0.015 C 
HETATM   10  C11 UNL     1     -33.154  14.606  -4.283  1.00 20.00     0.015 C 
ENDROOT
BRANCH   6  11
HETATM   11  C1  UNL     1     -32.539  18.524  -1.629  1.00 20.00     0.181 C 
HETATM   12  O12 UNL     1     -32.476  18.154  -0.424  1.00 20.00    -0.647 OA
HETATM   13  O13 UNL     1     -31.755  19.258  -2.294  1.00 20.00    -0.647 OA
ENDBRANCH   6  11
TORSDOF 1
ENDMDL
