MODEL 1
REMARK VINA RESULT:      -4.6      0.000      0.000
REMARK  3 active torsions:
REMARK  status: ('A' for Active; 'I' for Inactive)
REMARK    1  A    between atoms: C3_3  and  C4_4 
REMARK    2  A    between atoms: C4_4  and  C5_5 
REMARK    3  A    between atoms: C7_7  and  O10_10 
ROOT
HETATM    1  C1  UNL     1     -35.268  15.812  -2.117  1.00 20.00     0.006 C 
HETATM    2  C2  UNL     1     -34.858  16.839  -1.369  1.00 20.00    -0.023 C 
HETATM    3  C3  UNL     1     -34.300  15.506  -3.137  1.00 20.00    -0.027 C 
HETATM    4  C6  UNL     1     -33.517  17.346  -1.794  1.00 20.00     0.064 C 
HETATM    5  C7  UNL     1     -33.202  16.532  -3.059  1.00 20.00     0.157 C 
ENDROOT
BRANCH   3   6
HETATM    6  C4  UNL     1     -34.365  14.478  -3.989  1.00 20.00     0.051 C 
BRANCH   6   7
HETATM    7  C5  UNL     1     -35.690  13.882  -4.246  1.00 20.00     0.259 C 
HETATM    8  O9  UNL     1     -35.829  12.698  -4.529  1.00 20.00    -0.302 OA
ENDBRANCH   6   7
ENDBRANCH   3   6
BRANCH   5   9
HETATM    9  O10 UNL     1     -33.267  17.373  -4.206  1.00 20.00    -0.386 OA
HETATM   10  C8  UNL     1     -32.892  18.707  -3.895  1.00 20.00     0.202 C 
ENDBRANCH   5   9
TORSDOF 3
ENDMDL
MODEL 2
REMARK VINA RESULT:      -4.6      1.680      2.340
REMARK  3 active torsions:
REMARK  status: ('A' for Active; 'I' for Inactive)
REMARK    1  A    between atoms: C3_3  and  C4_4 
REMARK    2  A    between atoms: C4_4  and  C5_5 
REMARK    3  A    between atoms: C7_7  and  O10_10 
ROOT
HETATM    1  C1  UNL     1     -35.131  15.619  -2.550  1.00 20.00     0.006 C 
HETATM    2  C2  UNL     1     -34.000  16.311  -2.390  1.00 20.00    -0.023 C 
HETATM    3  C3  UNL     1     -35.082  14.832  -3.753  1.00 20.00    -0.027 C 
HETATM    4  C6  UNL     1     -33.018  16.046  -3.488  1.00 20.00     0.064 C 
HETATM    5  C7  UNL     1     -33.796  15.151  -4.466  1.00 20.00     0.157 C 
ENDROOT
BRANCH   3   6
HETATM    6  C4  UNL     1     -36.014  13.960  -4.151  1.00 20.00     0.051 C 
BRANCH   6   7
HETATM    7  C5  UNL     1     -37.323  14.496  -4.567  1.00 20.00     0.259 C 
HETATM    8  O9  UNL     1     -38.371  13.895  -4.359  1.00 20.00    -0.302 OA
ENDBRANCH   6   7
ENDBRANCH   3   6
BRANCH   5   9
HETATM    9  O10 UNL     1     -34.089  15.874  -5.656  1.00 20.00    -0.386 OA
HETATM   10  C8  UNL     1     -33.931  15.061  -6.810  1.00 20.00     0.202 C 
ENDBRANCH   5   9
TORSDOF 3
ENDMDL
MODEL 3
REMARK VINA RESULT:      -4.5      1.400      1.839
REMARK  3 active torsions:
REMARK  status: ('A' for Active; 'I' for Inactive)
REMARK    1  A    between atoms: C3_3  and  C4_4 
REMARK    2  A    between atoms: C4_4  and  C5_5 
REMARK    3  A    between atoms: C7_7  and  O10_10 
ROOT
HETATM    1  C1  UNL     1     -35.069  16.018  -2.155  1.00 20.00     0.006 C 
HETATM    2  C2  UNL     1     -33.853  16.567  -2.110  1.00 20.00    -0.023 C 
HETATM    3  C3  UNL     1     -35.336  15.474  -3.460  1.00 20.00    -0.027 C 
HETATM    4  C6  UNL     1     -33.128  16.436  -3.411  1.00 20.00     0.064 C 
HETATM    5  C7  UNL     1     -34.172  15.814  -4.351  1.00 20.00     0.157 C 
ENDROOT
BRANCH   3   6
HETATM    6  C4  UNL     1     -36.423  14.777  -3.805  1.00 20.00     0.051 C 
BRANCH   6   7
HETATM    7  C5  UNL     1     -36.254  13.674  -4.771  1.00 20.00     0.259 C 
HETATM    8  O9  UNL     1     -35.811  12.580  -4.441  1.00 20.00    -0.302 OA
ENDBRANCH   6   7
ENDBRANCH   3   6
BRANCH   5   9
HETATM    9  O10 UNL     1     -34.589  16.774  -5.316  1.00 20.00    -0.386 OA
HETATM   10  C8  UNL     1     -34.445  16.277  -6.639  1.00 20.00     0.202 C 
ENDBRANCH   5   9
TORSDOF 3
ENDMDL
MODEL 4
REMARK VINA RESULT:      -4.3      1.582      2.439
REMARK  3 active torsions:
REMARK  status: ('A' for Active; 'I' for Inactive)
REMARK    1  A    between atoms: C3_3  and  C4_4 
REMARK    2  A    between atoms: C4_4  and  C5_5 
REMARK    3  A    between atoms: C7_7  and  O10_10 
ROOT
HETATM    1  C1  UNL     1     -33.751  15.274  -3.716  1.00 20.00     0.006 C 
HETATM    2  C2  UNL     1     -32.911  16.204  -3.258  1.00 20.00    -0.023 C 
HETATM    3  C3  UNL     1     -35.094  15.535  -3.274  1.00 20.00    -0.027 C 
HETATM    4  C6  UNL     1     -33.614  17.246  -2.446  1.00 20.00     0.064 C 
HETATM    5  C7  UNL     1     -35.057  16.725  -2.353  1.00 20.00     0.157 C 
ENDROOT
BRANCH   3   6
HETATM    6  C4  UNL     1     -36.181  14.845  -3.634  1.00 20.00     0.051 C 
BRANCH   6   7
HETATM    7  C5  UNL     1     -36.038  13.854  -4.717  1.00 20.00     0.259 C 
HETATM    8  O9  UNL     1     -35.919  12.655  -4.493  1.00 20.00    -0.302 OA
ENDBRANCH   6   7
ENDBRANCH   3   6
BRANCH   5   9
HETATM    9  O10 UNL     1     -35.334  16.297  -1.025  1.00 20.00    -0.386 OA
HETATM   10  C8  UNL     1     -35.351  17.390  -0.119  1.00 20.00     0.202 C 
ENDBRANCH   5   9
TORSDOF 3
ENDMDL
MODEL 5
REMARK VINA RESULT:      -4.3     16.542     17.144
REMARK  3 active torsions:
REMARK  status: ('A' for Active; 'I' for Inactive)
REMARK    1  A    between atoms: C3_3  and  C4_4 
REMARK    2  A    between atoms: C4_4  and  C5_5 
REMARK    3  A    between atoms: C7_7  and  O10_10 
ROOT
HETATM    1  C1  UNL     1     -23.949  16.385  10.369  1.00 20.00     0.006 C 
HETATM    2  C2  UNL     1     -24.695  16.056  11.427  1.00 20.00    -0.023 C 
HETATM    3  C3  UNL     1     -23.898  17.813  10.205  1.00 20.00    -0.027 C 
HETATM    4  C6  UNL     1     -25.232  17.261  12.133  1.00 20.00     0.064 C 
HETATM    5  C7  UNL     1     -24.801  18.432  11.238  1.00 20.00     0.157 C 
ENDROOT
BRANCH   3   6
HETATM    6  C4  UNL     1     -23.164  18.467   9.299  1.00 20.00     0.051 C 
BRANCH   6   7
HETATM    7  C5  UNL     1     -22.453  17.668   8.284  1.00 20.00     0.259 C 
HETATM    8  O9  UNL     1     -22.420  17.993   7.103  1.00 20.00    -0.302 OA
ENDBRANCH   6   7
ENDBRANCH   3   6
BRANCH   5   9
HETATM    9  O10 UNL     1     -25.937  18.992  10.589  1.00 20.00    -0.386 OA
HETATM   10  C8  UNL     1     -27.019  19.166  11.494  1.00 20.00     0.202 C 
ENDBRANCH   5   9
TORSDOF 3
ENDMDL
MODEL 6
REMARK VINA RESULT:      -4.2     11.128     12.317
REMARK  3 active torsions:
REMARK  status: ('A' for Active; 'I' for Inactive)
REMARK    1  A    between atoms: C3_3  and  C4_4 
REMARK    2  A    between atoms: C4_4  and  C5_5 
REMARK    3  A    between atoms: C7_7  and  O10_10 
ROOT
HETATM    1  C1  UNL     1     -33.474   6.897   5.421  1.00 20.00     0.006 C 
HETATM    2  C2  UNL     1     -34.481   6.137   5.855  1.00 20.00    -0.023 C 
HETATM    3  C3  UNL     1     -33.227   6.667   4.022  1.00 20.00    -0.027 C 
HETATM    4  C6  UNL     1     -35.063   5.296   4.764  1.00 20.00     0.064 C 
HETATM    5  C7  UNL     1     -34.138   5.560   3.566  1.00 20.00     0.157 C 
ENDROOT
BRANCH   3   6
HETATM    6  C4  UNL     1     -32.350   7.335   3.266  1.00 20.00     0.051 C 
BRANCH   6   7
HETATM    7  C5  UNL     1     -32.656   7.488   1.831  1.00 20.00     0.259 C 
HETATM    8  O9  UNL     1     -32.726   8.586   1.292  1.00 20.00    -0.302 OA
ENDBRANCH   6   7
ENDBRANCH   3   6
BRANCH   5   9
HETATM    9  O10 UNL     1     -33.361   4.400   3.287  1.00 20.00    -0.386 OA
HETATM   10  C8  UNL     1     -33.244   4.176   1.890  1.00 20.00     0.202 C 
ENDBRANCH   5   9
TORSDOF 3
ENDMDL
MODEL 7
REMARK VINA RESULT:      -4.1      2.591      4.581
REMARK  3 active torsions:
REMARK  status: ('A' for Active; 'I' for Inactive)
REMARK    1  A    between atoms: C3_3  and  C4_4 
REMARK    2  A    between atoms: C4_4  and  C5_5 
REMARK    3  A    between atoms: C7_7  and  O10_10 
ROOT
HETATM    1  C1  UNL     1     -33.081  16.430  -3.076  1.00 20.00     0.006 C 
HETATM    2  C2  UNL     1     -34.139  15.622  -2.981  1.00 20.00    -0.023 C 
HETATM    3  C3  UNL     1     -33.162  17.493  -2.110  1.00 20.00    -0.027 C 
HETATM    4  C6  UNL     1     -35.075  16.046  -1.893  1.00 20.00     0.064 C 
HETATM    5  C7  UNL     1     -34.481  17.372  -1.395  1.00 20.00     0.157 C 
ENDROOT
BRANCH   3   6
HETATM    6  C4  UNL     1     -32.219  18.414  -1.883  1.00 20.00     0.051 C 
BRANCH   6   7
HETATM    7  C5  UNL     1     -31.591  18.441  -0.549  1.00 20.00     0.259 C 
HETATM    8  O9  UNL     1     -30.397  18.216  -0.385  1.00 20.00    -0.302 OA
ENDBRANCH   6   7
ENDBRANCH   3   6
BRANCH   5   9
HETATM    9  O10 UNL     1     -35.320  18.455  -1.779  1.00 20.00    -0.386 OA
HETATM   10  C8  UNL     1     -36.692  18.088  -1.742  1.00 20.00     0.202 C 
ENDBRANCH   5   9
TORSDOF 3
ENDMDL
MODEL 8
REMARK VINA RESULT:      -4.1     15.492     16.974
REMARK  3 active torsions:
REMARK  status: ('A' for Active; 'I' for Inactive)
REMARK    1  A    between atoms: C3_3  and  C4_4 
REMARK    2  A    between atoms: C4_4  and  C5_5 
REMARK    3  A    between atoms: C7_7  and  O10_10 
ROOT
HETATM    1  C1  UNL     1     -25.417  18.504  11.287  1.00 20.00     0.006 C 
HETATM    2  C2  UNL     1     -25.103  17.487  12.093  1.00 20.00    -0.023 C 
HETATM    3  C3  UNL     1     -24.651  18.447  10.071  1.00 20.00    -0.027 C 
HETATM    4  C6  UNL     1     -24.075  16.585  11.487  1.00 20.00     0.064 C 
HETATM    5  C7  UNL     1     -23.682  17.301  10.185  1.00 20.00     0.157 C 
ENDROOT
BRANCH   3   6
HETATM    6  C4  UNL     1     -24.794  19.263   9.021  1.00 20.00     0.051 C 
BRANCH   6   7
HETATM    7  C5  UNL     1     -24.737  18.667   7.674  1.00 20.00     0.259 C 
HETATM    8  O9  UNL     1     -23.896  19.001   6.847  1.00 20.00    -0.302 OA
ENDBRANCH   6   7
ENDBRANCH   3   6
BRANCH   5   9
HETATM    9  O10 UNL     1     -22.360  17.818  10.295  1.00 20.00    -0.386 OA
HETATM   10  C8  UNL     1     -21.550  17.409   9.203  1.00 20.00     0.202 C 
ENDBRANCH   5   9
TORSDOF 3
ENDMDL
MODEL 9
REMARK VINA RESULT:      -4.1      1.970      4.338
REMARK  3 active torsions:
REMARK  status: ('A' for Active; 'I' for Inactive)
REMARK    1  A    between atoms: C3_3  and  C4_4 
REMARK    2  A    between atoms: C4_4  and  C5_5 
REMARK    3  A    between atoms: C7_7  and  O10_10 
ROOT
HETATM    1  C1  UNL     1     -34.249  17.358  -0.979  1.00 20.00     0.006 C 
HETATM    2  C2  UNL     1     -35.229  16.544  -1.376  1.00 20.00    -0.023 C 
HETATM    3  C3  UNL     1     -33.320  17.601  -2.050  1.00 20.00    -0.027 C 
HETATM    4  C6  UNL     1     -35.083  16.146  -2.811  1.00 20.00     0.064 C 
HETATM    5  C7  UNL     1     -33.734  16.755  -3.224  1.00 20.00     0.157 C 
ENDROOT
BRANCH   3   6
HETATM    6  C4  UNL     1     -32.282  18.443  -2.006  1.00 20.00     0.051 C 
BRANCH   6   7
HETATM    7  C5  UNL     1     -31.611  18.638  -0.708  1.00 20.00     0.259 C 
HETATM    8  O9  UNL     1     -30.462  18.262  -0.504  1.00 20.00    -0.302 OA
ENDBRANCH   6   7
ENDBRANCH   3   6
BRANCH   5   9
HETATM    9  O10 UNL     1     -32.774  15.722  -3.417  1.00 20.00    -0.386 OA
HETATM   10  C8  UNL     1     -33.251  14.729  -4.314  1.00 20.00     0.202 C 
ENDBRANCH   5   9
TORSDOF 3
ENDMDL
