MODEL 1
REMARK VINA RESULT:      -3.5      0.000      0.000
REMARK  1 active torsions:
REMARK  status: ('A' for Active; 'I' for Inactive)
REMARK    1  A    between atoms: C1_1  and  C3_3 
ROOT
HETATM    1  C1  UNL     1     -33.941   6.783   3.974  1.00 20.00     0.181 A 
HETATM    2  C2  UNL     1     -32.682   6.692   3.159  1.00 20.00     0.247 A 
HETATM    3  O4  UNL     1     -33.612   5.604   3.228  1.00 20.00    -0.358 OA
HETATM    4 CL5  UNL     1     -32.543   7.588   1.672  1.00 20.00    -0.092 Cl
ENDROOT
BRANCH   1   5
HETATM    5  C3  UNL     1     -33.912   6.605   5.448  1.00 20.00     0.150 C 
HETATM    6 CL6  UNL     1     -34.826   5.152   5.946  1.00 20.00    -0.128 Cl
ENDBRANCH   1   5
TORSDOF 1
ENDMDL
MODEL 2
REMARK VINA RESULT:      -3.5      1.580      3.666
REMARK  1 active torsions:
REMARK  status: ('A' for Active; 'I' for Inactive)
REMARK    1  A    between atoms: C1_1  and  C3_3 
ROOT
HETATM    1  C1  UNL     1     -33.564   5.016   3.773  1.00 20.00     0.181 A 
HETATM    2  C2  UNL     1     -34.898   5.166   4.445  1.00 20.00     0.247 A 
HETATM    3  O4  UNL     1     -34.446   3.900   3.950  1.00 20.00    -0.358 OA
HETATM    4 CL5  UNL     1     -34.980   5.417   6.167  1.00 20.00    -0.092 Cl
ENDROOT
BRANCH   1   5
HETATM    5  C3  UNL     1     -33.369   5.427   2.359  1.00 20.00     0.150 C 
HETATM    6 CL6  UNL     1     -32.582   7.027   2.249  1.00 20.00    -0.128 Cl
ENDBRANCH   1   5
TORSDOF 1
ENDMDL
MODEL 3
REMARK VINA RESULT:      -3.3      2.077      2.077
REMARK  1 active torsions:
REMARK  status: ('A' for Active; 'I' for Inactive)
REMARK    1  A    between atoms: C1_1  and  C3_3 
ROOT
HETATM    1  C1  UNL     1     -34.835   5.107   4.364  1.00 20.00     0.181 A 
HETATM    2  C2  UNL     1     -33.560   4.809   3.630  1.00 20.00     0.247 A 
HETATM    3  O4  UNL     1     -34.461   3.766   4.021  1.00 20.00    -0.358 OA
HETATM    4 CL5  UNL     1     -33.415   5.209   1.940  1.00 20.00    -0.092 Cl
ENDROOT
BRANCH   1   5
HETATM    5  C3  UNL     1     -34.831   5.391   5.822  1.00 20.00     0.150 C 
HETATM    6 CL6  UNL     1     -34.012   6.939   6.180  1.00 20.00    -0.128 Cl
ENDBRANCH   1   5
TORSDOF 1
ENDMDL
MODEL 4
REMARK VINA RESULT:      -3.2     11.384     11.781
REMARK  1 active torsions:
REMARK  status: ('A' for Active; 'I' for Inactive)
REMARK    1  A    between atoms: C1_1  and  C3_3 
ROOT
HETATM    1  C1  UNL     1     -35.256  13.965  -3.909  1.00 20.00     0.181 A 
HETATM    2  C2  UNL     1     -36.406  14.021  -4.874  1.00 20.00     0.247 A 
HETATM    3  O4  UNL     1     -35.799  12.778  -4.500  1.00 20.00    -0.358 OA
HETATM    4 CL5  UNL     1     -38.008  14.385  -4.296  1.00 20.00    -0.092 Cl
ENDROOT
BRANCH   1   5
HETATM    5  C3  UNL     1     -33.874  14.292  -4.345  1.00 20.00     0.150 C 
HETATM    6 CL6  UNL     1     -33.231  15.708  -3.465  1.00 20.00    -0.128 Cl
ENDBRANCH   1   5
TORSDOF 1
ENDMDL
MODEL 5
REMARK VINA RESULT:      -3.0      1.497      1.688
REMARK  1 active torsions:
REMARK  status: ('A' for Active; 'I' for Inactive)
REMARK    1  A    between atoms: C1_1  and  C3_3 
ROOT
HETATM    1  C1  UNL     1     -32.962   6.521   2.957  1.00 20.00     0.181 A 
HETATM    2  C2  UNL     1     -32.736   7.848   2.290  1.00 20.00     0.247 A 
HETATM    3  O4  UNL     1     -31.810   7.322   3.248  1.00 20.00    -0.358 OA
HETATM    4 CL5  UNL     1     -32.270   7.909   0.613  1.00 20.00    -0.092 Cl
ENDROOT
BRANCH   1   5
HETATM    5  C3  UNL     1     -33.918   6.385   4.086  1.00 20.00     0.150 C 
HETATM    6 CL6  UNL     1     -34.666   4.762   4.114  1.00 20.00    -0.128 Cl
ENDBRANCH   1   5
TORSDOF 1
ENDMDL
MODEL 6
REMARK VINA RESULT:      -3.0      2.269      4.061
REMARK  1 active torsions:
REMARK  status: ('A' for Active; 'I' for Inactive)
REMARK    1  A    between atoms: C1_1  and  C3_3 
ROOT
HETATM    1  C1  UNL     1     -32.946   7.509   2.160  1.00 20.00     0.181 A 
HETATM    2  C2  UNL     1     -32.810   6.080   2.602  1.00 20.00     0.247 A 
HETATM    3  O4  UNL     1     -32.078   7.135   3.238  1.00 20.00    -0.358 OA
HETATM    4 CL5  UNL     1     -34.109   5.311   3.472  1.00 20.00    -0.092 Cl
ENDROOT
BRANCH   1   5
HETATM    5  C3  UNL     1     -32.244   8.006   0.950  1.00 20.00     0.150 C 
HETATM    6 CL6  UNL     1     -33.384   8.760  -0.201  1.00 20.00    -0.128 Cl
ENDBRANCH   1   5
TORSDOF 1
ENDMDL
MODEL 7
REMARK VINA RESULT:      -2.9     16.771     16.852
REMARK  1 active torsions:
REMARK  status: ('A' for Active; 'I' for Inactive)
REMARK    1  A    between atoms: C1_1  and  C3_3 
ROOT
HETATM    1  C1  UNL     1     -22.703  18.035   9.416  1.00 20.00     0.181 A 
HETATM    2  C2  UNL     1     -23.566  19.154   8.905  1.00 20.00     0.247 A 
HETATM    3  O4  UNL     1     -22.137  19.262   8.938  1.00 20.00    -0.358 OA
HETATM    4 CL5  UNL     1     -24.364  19.001   7.364  1.00 20.00    -0.092 Cl
ENDROOT
BRANCH   1   5
HETATM    5  C3  UNL     1     -22.531  17.806  10.873  1.00 20.00     0.150 C 
HETATM    6 CL6  UNL     1     -23.627  16.523  11.464  1.00 20.00    -0.128 Cl
ENDBRANCH   1   5
TORSDOF 1
ENDMDL
MODEL 8
REMARK VINA RESULT:      -2.9     15.931     16.378
REMARK  1 active torsions:
REMARK  status: ('A' for Active; 'I' for Inactive)
REMARK    1  A    between atoms: C1_1  and  C3_3 
ROOT
HETATM    1  C1  UNL     1     -23.890  18.305   8.198  1.00 20.00     0.181 A 
HETATM    2  C2  UNL     1     -24.591  19.219   7.234  1.00 20.00     0.247 A 
HETATM    3  O4  UNL     1     -23.391  18.524   6.873  1.00 20.00    -0.358 OA
HETATM    4 CL5  UNL     1     -26.099  18.729   6.512  1.00 20.00    -0.092 Cl
ENDROOT
BRANCH   1   5
HETATM    5  C3  UNL     1     -23.027  18.850   9.278  1.00 20.00     0.150 C 
HETATM    6 CL6  UNL     1     -21.363  18.205   9.167  1.00 20.00    -0.128 Cl
ENDBRANCH   1   5
TORSDOF 1
ENDMDL
MODEL 9
REMARK VINA RESULT:      -2.8     16.401     16.612
REMARK  1 active torsions:
REMARK  status: ('A' for Active; 'I' for Inactive)
REMARK    1  A    between atoms: C1_1  and  C3_3 
ROOT
HETATM    1  C1  UNL     1     -22.507  17.968   9.841  1.00 20.00     0.181 A 
HETATM    2  C2  UNL     1     -22.610  17.861   8.347  1.00 20.00     0.247 A 
HETATM    3  O4  UNL     1     -22.419  19.123   8.997  1.00 20.00    -0.358 OA
HETATM    4 CL5  UNL     1     -21.294  17.177   7.432  1.00 20.00    -0.092 Cl
ENDROOT
BRANCH   1   5
HETATM    5  C3  UNL     1     -23.721  17.923  10.697  1.00 20.00     0.150 C 
HETATM    6 CL6  UNL     1     -24.262  16.242  10.971  1.00 20.00    -0.128 Cl
ENDBRANCH   1   5
TORSDOF 1
ENDMDL
