MODEL 1
REMARK VINA RESULT:      -5.1      0.000      0.000
REMARK  0 active torsions:
REMARK  status: ('A' for Active; 'I' for Inactive)
ROOT
HETATM    1  C1  UNL     1     -32.368   8.190   0.944  1.00 20.00     0.012 C 
HETATM    2  C2  UNL     1     -32.576   7.456   1.870  1.00 20.00    -0.113 C 
HETATM    3  C3  UNL     1     -34.575   5.097   4.824  1.00 20.00     0.127 C 
HETATM    4  C4  UNL     1     -33.895   4.361   3.692  1.00 20.00     0.079 C 
HETATM    5  C5  UNL     1     -33.923   6.380   5.285  1.00 20.00     0.079 C 
HETATM    6  C6  UNL     1     -33.597   5.311   2.538  1.00 20.00     0.024 C 
HETATM    7  C7  UNL     1     -33.624   7.287   4.098  1.00 20.00     0.024 C 
HETATM    8  C8  UNL     1     -32.831   6.556   3.006  1.00 20.00     0.065 C 
HETATM    9  O9  UNL     1     -35.546   4.621   5.411  1.00 20.00    -0.298 OA
ENDROOT
TORSDOF 0
ENDMDL
MODEL 2
REMARK VINA RESULT:      -5.0     11.020     11.850
REMARK  0 active torsions:
REMARK  status: ('A' for Active; 'I' for Inactive)
ROOT
HETATM    1  C1  UNL     1     -32.276  18.054  -1.445  1.00 20.00     0.012 C 
HETATM    2  C2  UNL     1     -32.913  17.363  -2.191  1.00 20.00    -0.113 C 
HETATM    3  C3  UNL     1     -34.792  13.967  -3.987  1.00 20.00     0.127 C 
HETATM    4  C4  UNL     1     -35.683  14.955  -3.269  1.00 20.00     0.079 C 
HETATM    5  C5  UNL     1     -33.575  14.535  -4.680  1.00 20.00     0.079 C 
HETATM    6  C6  UNL     1     -34.860  15.856  -2.357  1.00 20.00     0.024 C 
HETATM    7  C7  UNL     1     -32.796  15.444  -3.738  1.00 20.00     0.024 C 
HETATM    8  C8  UNL     1     -33.694  16.515  -3.106  1.00 20.00     0.065 C 
HETATM    9  O9  UNL     1     -35.099  12.780  -4.093  1.00 20.00    -0.298 OA
ENDROOT
TORSDOF 0
ENDMDL
MODEL 3
REMARK VINA RESULT:      -4.6     11.744     12.287
REMARK  0 active torsions:
REMARK  status: ('A' for Active; 'I' for Inactive)
ROOT
HETATM    1  C1  UNL     1     -35.088  17.903  -0.631  1.00 20.00     0.012 C 
HETATM    2  C2  UNL     1     -34.814  16.997  -1.369  1.00 20.00    -0.113 C 
HETATM    3  C3  UNL     1     -34.082  14.706  -4.906  1.00 20.00     0.127 C 
HETATM    4  C4  UNL     1     -32.882  15.116  -4.083  1.00 20.00     0.079 C 
HETATM    5  C5  UNL     1     -35.357  14.422  -4.146  1.00 20.00     0.079 C 
HETATM    6  C6  UNL     1     -33.249  16.238  -3.120  1.00 20.00     0.024 C 
HETATM    7  C7  UNL     1     -35.673  15.558  -3.182  1.00 20.00     0.024 C 
HETATM    8  C8  UNL     1     -34.480  15.884  -2.274  1.00 20.00     0.065 C 
HETATM    9  O9  UNL     1     -33.997  14.510  -6.118  1.00 20.00    -0.298 OA
ENDROOT
TORSDOF 0
ENDMDL
MODEL 4
REMARK VINA RESULT:      -4.6     16.172     16.905
REMARK  0 active torsions:
REMARK  status: ('A' for Active; 'I' for Inactive)
ROOT
HETATM    1  C1  UNL     1     -26.442  17.237  12.332  1.00 20.00     0.012 C 
HETATM    2  C2  UNL     1     -25.509  17.555  11.647  1.00 20.00    -0.113 C 
HETATM    3  C3  UNL     1     -22.901  18.047   8.293  1.00 20.00     0.127 C 
HETATM    4  C4  UNL     1     -23.671  19.262   8.759  1.00 20.00     0.079 C 
HETATM    5  C5  UNL     1     -22.481  17.063   9.361  1.00 20.00     0.079 C 
HETATM    6  C6  UNL     1     -24.828  18.851   9.661  1.00 20.00     0.024 C 
HETATM    7  C7  UNL     1     -23.664  16.698  10.250  1.00 20.00     0.024 C 
HETATM    8  C8  UNL     1     -24.363  17.944  10.809  1.00 20.00     0.065 C 
HETATM    9  O9  UNL     1     -22.543  17.920   7.123  1.00 20.00    -0.298 OA
ENDROOT
TORSDOF 0
ENDMDL
MODEL 5
REMARK VINA RESULT:      -4.4     11.291     12.282
REMARK  0 active torsions:
REMARK  status: ('A' for Active; 'I' for Inactive)
ROOT
HETATM    1  C1  UNL     1     -32.927  17.023  -2.271  1.00 20.00     0.012 C 
HETATM    2  C2  UNL     1     -33.751  16.540  -2.999  1.00 20.00    -0.113 C 
HETATM    3  C3  UNL     1     -37.213  14.475  -4.425  1.00 20.00     0.127 C 
HETATM    4  C4  UNL     1     -37.209  15.982  -4.535  1.00 20.00     0.079 C 
HETATM    5  C5  UNL     1     -35.879  13.783  -4.581  1.00 20.00     0.079 C 
HETATM    6  C6  UNL     1     -36.133  16.583  -3.639  1.00 20.00     0.024 C 
HETATM    7  C7  UNL     1     -34.831  14.430  -3.684  1.00 20.00     0.024 C 
HETATM    8  C8  UNL     1     -34.760  15.948  -3.892  1.00 20.00     0.065 C 
HETATM    9  O9  UNL     1     -38.261  13.838  -4.322  1.00 20.00    -0.298 OA
ENDROOT
TORSDOF 0
ENDMDL
MODEL 6
REMARK VINA RESULT:      -4.3     11.924     12.514
REMARK  0 active torsions:
REMARK  status: ('A' for Active; 'I' for Inactive)
ROOT
HETATM    1  C1  UNL     1     -34.769  17.011  -1.174  1.00 20.00     0.012 C 
HETATM    2  C2  UNL     1     -34.794  16.238  -2.091  1.00 20.00    -0.113 C 
HETATM    3  C3  UNL     1     -35.554  14.486  -5.918  1.00 20.00     0.127 C 
HETATM    4  C4  UNL     1     -34.142  14.940  -5.630  1.00 20.00     0.079 C 
HETATM    5  C5  UNL     1     -36.347  13.960  -4.743  1.00 20.00     0.079 C 
HETATM    6  C6  UNL     1     -34.115  15.889  -4.438  1.00 20.00     0.024 C 
HETATM    7  C7  UNL     1     -36.274  14.928  -3.569  1.00 20.00     0.024 C 
HETATM    8  C8  UNL     1     -34.825  15.289  -3.217  1.00 20.00     0.065 C 
HETATM    9  O9  UNL     1     -35.998  14.445  -7.065  1.00 20.00    -0.298 OA
ENDROOT
TORSDOF 0
ENDMDL
MODEL 7
REMARK VINA RESULT:      -4.3      9.654     10.187
REMARK  0 active torsions:
REMARK  status: ('A' for Active; 'I' for Inactive)
ROOT
HETATM    1  C1  UNL     1     -42.741   4.012  -2.317  1.00 20.00     0.012 C 
HETATM    2  C2  UNL     1     -42.719   4.923  -1.536  1.00 20.00    -0.113 C 
HETATM    3  C3  UNL     1     -41.981   8.741   0.246  1.00 20.00     0.127 C 
HETATM    4  C4  UNL     1     -43.395   8.444  -0.200  1.00 20.00     0.079 C 
HETATM    5  C5  UNL     1     -41.173   7.569   0.755  1.00 20.00     0.079 C 
HETATM    6  C6  UNL     1     -43.417   7.260  -1.159  1.00 20.00     0.024 C 
HETATM    7  C7  UNL     1     -41.242   6.403  -0.224  1.00 20.00     0.024 C 
HETATM    8  C8  UNL     1     -42.691   6.040  -0.577  1.00 20.00     0.065 C 
HETATM    9  O9  UNL     1     -41.548   9.891   0.293  1.00 20.00    -0.298 OA
ENDROOT
TORSDOF 0
ENDMDL
MODEL 8
REMARK VINA RESULT:      -4.2     11.502     12.559
REMARK  0 active torsions:
REMARK  status: ('A' for Active; 'I' for Inactive)
ROOT
HETATM    1  C1  UNL     1     -33.157  17.641  -1.615  1.00 20.00     0.012 C 
HETATM    2  C2  UNL     1     -33.419  16.829  -2.460  1.00 20.00    -0.113 C 
HETATM    3  C3  UNL     1     -35.491  14.619  -5.478  1.00 20.00     0.127 C 
HETATM    4  C4  UNL     1     -34.371  15.528  -5.929  1.00 20.00     0.079 C 
HETATM    5  C5  UNL     1     -35.326  13.962  -4.127  1.00 20.00     0.079 C 
HETATM    6  C6  UNL     1     -34.018  16.528  -4.835  1.00 20.00     0.024 C 
HETATM    7  C7  UNL     1     -34.952  14.995  -3.070  1.00 20.00     0.024 C 
HETATM    8  C8  UNL     1     -33.740  15.833  -3.495  1.00 20.00     0.065 C 
HETATM    9  O9  UNL     1     -36.436  14.343  -6.217  1.00 20.00    -0.298 OA
ENDROOT
TORSDOF 0
ENDMDL
MODEL 9
REMARK VINA RESULT:      -4.2      9.117      9.437
REMARK  0 active torsions:
REMARK  status: ('A' for Active; 'I' for Inactive)
ROOT
HETATM    1  C1  UNL     1     -41.174   9.898   0.363  1.00 20.00     0.012 C 
HETATM    2  C2  UNL     1     -41.302   8.705   0.333  1.00 20.00    -0.113 C 
HETATM    3  C3  UNL     1     -42.709   4.785  -0.639  1.00 20.00     0.127 C 
HETATM    4  C4  UNL     1     -41.366   5.199  -1.197  1.00 20.00     0.079 C 
HETATM    5  C5  UNL     1     -43.075   5.337   0.719  1.00 20.00     0.079 C 
HETATM    6  C6  UNL     1     -41.196   6.711  -1.117  1.00 20.00     0.024 C 
HETATM    7  C7  UNL     1     -42.869   6.846   0.759  1.00 20.00     0.024 C 
HETATM    8  C8  UNL     1     -41.460   7.241   0.298  1.00 20.00     0.065 C 
HETATM    9  O9  UNL     1     -43.417   3.957  -1.211  1.00 20.00    -0.298 OA
ENDROOT
TORSDOF 0
ENDMDL
