@<TRIPOS>MOLECULE
toluene-a.pdb
   15    15     0     0     0
SMALL
NO_CHARGES

@<TRIPOS>ATOM
      1 C1        -32.4650    7.4660    2.4210 C.3       1 <0>         0.0000
      2 C2        -33.3020    6.7890    3.4910 C.ar      1 <0>         0.0000
      3 C3        -33.9510    5.5960    3.2190 C.ar      1 <0>         0.0000
      4 C4        -34.7170    4.9990    4.2070 C.ar      1 <0>         0.0000
      5 C5        -34.8340    5.5910    5.4550 C.ar      1 <0>         0.0000
      6 C6        -34.1750    6.7830    5.7240 C.ar      1 <0>         0.0000
      7 C7        -33.4140    7.3850    4.7400 C.ar      1 <0>         0.0000
      8 H1        -33.8608    5.1357    2.2462 H         1 <0>         0.0000
      9 H2        -35.2254    4.0680    4.0040 H         1 <0>         0.0000
     10 H3        -35.4384    5.1245    6.2188 H         1 <0>         0.0000
     11 H4        -34.2569    7.2386    6.6998 H         1 <0>         0.0000
     12 H5        -32.9074    8.3172    4.9421 H         1 <0>         0.0000
     13 H6        -32.4855    6.8676    1.5102 H         1 <0>         0.0000
     14 H7        -32.8716    8.4560    2.2143 H         1 <0>         0.0000
     15 H8        -31.4368    7.5612    2.7701 H         1 <0>         0.0000
@<TRIPOS>BOND
     1    1    2 1
     2    2    3 ar
     3    2    7 ar
     4    3    4 ar
     5    4    5 ar
     6    5    6 ar
     7    6    7 ar
     8    3    8 1
     9    4    9 1
    10    5   10 1
    11    6   11 1
    12    7   12 1
    13    1   13 1
    14    1   14 1
    15    1   15 1
