MODEL 1
REMARK VINA RESULT:      -4.8      0.000      0.000
REMARK  2 active torsions:
REMARK  status: ('A' for Active; 'I' for Inactive)
REMARK    1  A    between atoms: C6_6  and  C8_8 
REMARK    2  A    between atoms: C8_8  and  N10_10 
ROOT
HETATM    1  N9  UNL     1     -32.792   9.463   0.144  1.00 20.00     0.068 N 
HETATM    2  N10 UNL     1     -32.199   8.134   2.030  1.00 20.00    -0.111 NA
HETATM    3  N11 UNL     1     -32.510   8.831   1.050  1.00 20.00    -0.167 NA
ENDROOT
BRANCH   2   4
HETATM    4  C8  UNL     1     -32.425   8.750   3.345  1.00 20.00     0.227 C 
BRANCH   4   5
HETATM    5  C6  UNL     1     -33.108   7.823   4.293  1.00 20.00    -0.035 A 
HETATM    6  C3  UNL     1     -33.502   8.278   5.550  1.00 20.00     0.009 A 
HETATM    7  C1  UNL     1     -34.141   7.411   6.438  1.00 20.00     0.001 A 
HETATM    8  C2  UNL     1     -34.386   6.089   6.066  1.00 20.00     0.007 A 
HETATM    9  C5  UNL     1     -33.992   5.634   4.808  1.00 20.00    -0.061 A 
HETATM   10  C4  UNL     1     -33.353   6.500   3.921  1.00 20.00     0.015 A 
HETATM   11  C7  UNL     1     -34.255   4.220   4.410  1.00 20.00     0.048 C 
ENDBRANCH   4   5
ENDBRANCH   2   4
TORSDOF 2
ENDMDL
MODEL 2
REMARK VINA RESULT:      -4.8      1.000      2.095
REMARK  2 active torsions:
REMARK  status: ('A' for Active; 'I' for Inactive)
REMARK    1  A    between atoms: C6_6  and  C8_8 
REMARK    2  A    between atoms: C8_8  and  N10_10 
ROOT
HETATM    1  N9  UNL     1     -32.827   9.498   0.261  1.00 20.00     0.068 N 
HETATM    2  N10 UNL     1     -32.847   9.448   2.644  1.00 20.00    -0.111 NA
HETATM    3  N11 UNL     1     -32.833   9.470   1.401  1.00 20.00    -0.167 NA
ENDROOT
BRANCH   2   4
HETATM    4  C8  UNL     1     -32.003   8.423   3.271  1.00 20.00     0.227 C 
BRANCH   4   5
HETATM    5  C6  UNL     1     -32.779   7.208   3.653  1.00 20.00    -0.035 A 
HETATM    6  C3  UNL     1     -32.811   6.105   2.802  1.00 20.00     0.009 A 
HETATM    7  C1  UNL     1     -33.538   4.968   3.159  1.00 20.00     0.001 A 
HETATM    8  C2  UNL     1     -34.232   4.937   4.369  1.00 20.00     0.007 A 
HETATM    9  C5  UNL     1     -34.200   6.041   5.220  1.00 20.00    -0.061 A 
HETATM   10  C4  UNL     1     -33.474   7.177   4.863  1.00 20.00     0.015 A 
HETATM   11  C7  UNL     1     -34.942   6.006   6.515  1.00 20.00     0.048 C 
ENDBRANCH   4   5
ENDBRANCH   2   4
TORSDOF 2
ENDMDL
MODEL 3
REMARK VINA RESULT:      -4.5     11.644     12.671
REMARK  2 active torsions:
REMARK  status: ('A' for Active; 'I' for Inactive)
REMARK    1  A    between atoms: C6_6  and  C8_8 
REMARK    2  A    between atoms: C8_8  and  N10_10 
ROOT
HETATM    1  N9  UNL     1     -30.066  18.951   1.747  1.00 20.00     0.068 N 
HETATM    2  N10 UNL     1     -30.989  18.732  -0.439  1.00 20.00    -0.111 NA
HETATM    3  N11 UNL     1     -30.513  18.846   0.703  1.00 20.00    -0.167 NA
ENDROOT
BRANCH   2   4
HETATM    4  C8  UNL     1     -32.421  18.413  -0.501  1.00 20.00     0.227 C 
BRANCH   4   5
HETATM    5  C6  UNL     1     -32.870  18.094  -1.888  1.00 20.00    -0.035 A 
HETATM    6  C3  UNL     1     -33.011  19.114  -2.827  1.00 20.00     0.009 A 
HETATM    7  C1  UNL     1     -33.431  18.815  -4.124  1.00 20.00     0.001 A 
HETATM    8  C2  UNL     1     -33.710  17.495  -4.480  1.00 20.00     0.007 A 
HETATM    9  C5  UNL     1     -33.569  16.475  -3.539  1.00 20.00    -0.061 A 
HETATM   10  C4  UNL     1     -33.149  16.774  -2.243  1.00 20.00     0.015 A 
HETATM   11  C7  UNL     1     -33.866  15.063  -3.921  1.00 20.00     0.048 C 
ENDBRANCH   4   5
ENDBRANCH   2   4
TORSDOF 2
ENDMDL
MODEL 4
REMARK VINA RESULT:      -4.4     11.097     12.029
REMARK  2 active torsions:
REMARK  status: ('A' for Active; 'I' for Inactive)
REMARK    1  A    between atoms: C6_6  and  C8_8 
REMARK    2  A    between atoms: C8_8  and  N10_10 
ROOT
HETATM    1  N9  UNL     1     -35.963  13.622  -4.623  1.00 20.00     0.068 N 
HETATM    2  N10 UNL     1     -33.702  13.998  -3.970  1.00 20.00    -0.111 NA
HETATM    3  N11 UNL     1     -34.882  13.807  -4.313  1.00 20.00    -0.167 NA
ENDROOT
BRANCH   2   4
HETATM    4  C8  UNL     1     -33.118  15.278  -4.391  1.00 20.00     0.227 C 
BRANCH   4   5
HETATM    5  C6  UNL     1     -33.711  16.437  -3.661  1.00 20.00    -0.035 A 
HETATM    6  C3  UNL     1     -34.554  17.323  -4.329  1.00 20.00     0.009 A 
HETATM    7  C1  UNL     1     -35.108  18.408  -3.647  1.00 20.00     0.001 A 
HETATM    8  C2  UNL     1     -34.818  18.604  -2.297  1.00 20.00     0.007 A 
HETATM    9  C5  UNL     1     -33.973  17.716  -1.629  1.00 20.00    -0.061 A 
HETATM   10  C4  UNL     1     -33.420  16.633  -2.311  1.00 20.00     0.015 A 
HETATM   11  C7  UNL     1     -33.664  17.926  -0.184  1.00 20.00     0.048 C 
ENDBRANCH   4   5
ENDBRANCH   2   4
TORSDOF 2
ENDMDL
MODEL 5
REMARK VINA RESULT:      -4.3      1.302      1.823
REMARK  2 active torsions:
REMARK  status: ('A' for Active; 'I' for Inactive)
REMARK    1  A    between atoms: C6_6  and  C8_8 
REMARK    2  A    between atoms: C8_8  and  N10_10 
ROOT
HETATM    1  N9  UNL     1     -32.888   9.498   2.011  1.00 20.00     0.068 N 
HETATM    2  N10 UNL     1     -32.162   9.119   4.249  1.00 20.00    -0.111 NA
HETATM    3  N11 UNL     1     -32.546   9.315   3.083  1.00 20.00    -0.167 NA
ENDROOT
BRANCH   2   4
HETATM    4  C8  UNL     1     -33.211   8.746   5.208  1.00 20.00     0.227 C 
BRANCH   4   5
HETATM    5  C6  UNL     1     -33.620   7.318   5.071  1.00 20.00    -0.035 A 
HETATM    6  C3  UNL     1     -34.343   6.699   6.089  1.00 20.00     0.009 A 
HETATM    7  C1  UNL     1     -34.725   5.363   5.961  1.00 20.00     0.001 A 
HETATM    8  C2  UNL     1     -34.384   4.647   4.814  1.00 20.00     0.007 A 
HETATM    9  C5  UNL     1     -33.660   5.266   3.795  1.00 20.00    -0.061 A 
HETATM   10  C4  UNL     1     -33.278   6.601   3.923  1.00 20.00     0.015 A 
HETATM   11  C7  UNL     1     -33.296   4.500   2.568  1.00 20.00     0.048 C 
ENDBRANCH   4   5
ENDBRANCH   2   4
TORSDOF 2
ENDMDL
MODEL 6
REMARK VINA RESULT:      -4.3     12.041     12.255
REMARK  2 active torsions:
REMARK  status: ('A' for Active; 'I' for Inactive)
REMARK    1  A    between atoms: C6_6  and  C8_8 
REMARK    2  A    between atoms: C8_8  and  N10_10 
ROOT
HETATM    1  N9  UNL     1     -28.256  18.512   3.789  1.00 20.00     0.068 N 
HETATM    2  N10 UNL     1     -30.389  18.940   2.815  1.00 20.00    -0.111 NA
HETATM    3  N11 UNL     1     -29.274  18.717   3.318  1.00 20.00    -0.167 NA
ENDROOT
BRANCH   2   4
HETATM    4  C8  UNL     1     -30.392  19.206   1.371  1.00 20.00     0.227 C 
BRANCH   4   5
HETATM    5  C6  UNL     1     -31.682  18.822   0.729  1.00 20.00    -0.035 A 
HETATM    6  C3  UNL     1     -32.883  19.003   1.413  1.00 20.00     0.009 A 
HETATM    7  C1  UNL     1     -34.090  18.643   0.813  1.00 20.00     0.001 A 
HETATM    8  C2  UNL     1     -34.095  18.102  -0.473  1.00 20.00     0.007 A 
HETATM    9  C5  UNL     1     -32.893  17.921  -1.158  1.00 20.00    -0.061 A 
HETATM   10  C4  UNL     1     -31.687  18.280  -0.558  1.00 20.00     0.015 A 
HETATM   11  C7  UNL     1     -32.899  17.344  -2.534  1.00 20.00     0.048 C 
ENDBRANCH   4   5
ENDBRANCH   2   4
TORSDOF 2
ENDMDL
MODEL 7
REMARK VINA RESULT:      -4.2      0.997      2.251
REMARK  2 active torsions:
REMARK  status: ('A' for Active; 'I' for Inactive)
REMARK    1  A    between atoms: C6_6  and  C8_8 
REMARK    2  A    between atoms: C8_8  and  N10_10 
ROOT
HETATM    1  N9  UNL     1     -32.858   9.571   0.683  1.00 20.00     0.068 N 
HETATM    2  N10 UNL     1     -32.042   8.176   2.434  1.00 20.00    -0.111 NA
HETATM    3  N11 UNL     1     -32.470   8.899   1.519  1.00 20.00    -0.167 NA
ENDROOT
BRANCH   2   4
HETATM    4  C8  UNL     1     -32.421   6.759   2.354  1.00 20.00     0.227 C 
BRANCH   4   5
HETATM    5  C6  UNL     1     -33.185   6.309   3.554  1.00 20.00    -0.035 A 
HETATM    6  C3  UNL     1     -33.747   5.034   3.585  1.00 20.00     0.009 A 
HETATM    7  C1  UNL     1     -34.462   4.614   4.708  1.00 20.00     0.001 A 
HETATM    8  C2  UNL     1     -34.613   5.470   5.798  1.00 20.00     0.007 A 
HETATM    9  C5  UNL     1     -34.051   6.746   5.767  1.00 20.00    -0.061 A 
HETATM   10  C4  UNL     1     -33.337   7.166   4.645  1.00 20.00     0.015 A 
HETATM   11  C7  UNL     1     -34.212   7.660   6.935  1.00 20.00     0.048 C 
ENDBRANCH   4   5
ENDBRANCH   2   4
TORSDOF 2
ENDMDL
MODEL 8
REMARK VINA RESULT:      -4.1     11.644     11.956
REMARK  2 active torsions:
REMARK  status: ('A' for Active; 'I' for Inactive)
REMARK    1  A    between atoms: C6_6  and  C8_8 
REMARK    2  A    between atoms: C8_8  and  N10_10 
ROOT
HETATM    1  N9  UNL     1     -33.830  15.355  -4.847  1.00 20.00     0.068 N 
HETATM    2  N10 UNL     1     -33.598  16.254  -2.653  1.00 20.00    -0.111 NA
HETATM    3  N11 UNL     1     -33.717  15.790  -3.799  1.00 20.00    -0.167 NA
ENDROOT
BRANCH   2   4
HETATM    4  C8  UNL     1     -32.967  17.577  -2.565  1.00 20.00     0.227 C 
BRANCH   4   5
HETATM    5  C6  UNL     1     -32.918  18.089  -1.165  1.00 20.00    -0.035 A 
HETATM    6  C3  UNL     1     -34.096  18.231  -0.433  1.00 20.00     0.009 A 
HETATM    7  C1  UNL     1     -34.050  18.710   0.877  1.00 20.00     0.001 A 
HETATM    8  C2  UNL     1     -32.826  19.046   1.454  1.00 20.00     0.007 A 
HETATM    9  C5  UNL     1     -31.647  18.904   0.721  1.00 20.00    -0.061 A 
HETATM   10  C4  UNL     1     -31.693  18.426  -0.588  1.00 20.00     0.015 A 
HETATM   11  C7  UNL     1     -30.337  19.263   1.339  1.00 20.00     0.048 C 
ENDBRANCH   4   5
ENDBRANCH   2   4
TORSDOF 2
ENDMDL
MODEL 9
REMARK VINA RESULT:      -4.0     11.123     12.284
REMARK  2 active torsions:
REMARK  status: ('A' for Active; 'I' for Inactive)
REMARK    1  A    between atoms: C6_6  and  C8_8 
REMARK    2  A    between atoms: C8_8  and  N10_10 
ROOT
HETATM    1  N9  UNL     1     -35.930  13.576  -4.553  1.00 20.00     0.068 N 
HETATM    2  N10 UNL     1     -33.639  13.985  -4.037  1.00 20.00    -0.111 NA
HETATM    3  N11 UNL     1     -34.834  13.777  -4.308  1.00 20.00    -0.167 NA
ENDROOT
BRANCH   2   4
HETATM    4  C8  UNL     1     -33.117  15.298  -4.436  1.00 20.00     0.227 C 
BRANCH   4   5
HETATM    5  C6  UNL     1     -33.714  16.410  -3.640  1.00 20.00    -0.035 A 
HETATM    6  C3  UNL     1     -33.365  16.572  -2.300  1.00 20.00     0.009 A 
HETATM    7  C1  UNL     1     -33.923  17.611  -1.554  1.00 20.00     0.001 A 
HETATM    8  C2  UNL     1     -34.831  18.487  -2.150  1.00 20.00     0.007 A 
HETATM    9  C5  UNL     1     -35.180  18.324  -3.491  1.00 20.00    -0.061 A 
HETATM   10  C4  UNL     1     -34.622  17.285  -4.236  1.00 20.00     0.015 A 
HETATM   11  C7  UNL     1     -36.150  19.262  -4.128  1.00 20.00     0.048 C 
ENDBRANCH   4   5
ENDBRANCH   2   4
TORSDOF 2
ENDMDL
