MODEL 1
REMARK VINA RESULT:      -3.6      0.000      0.000
REMARK  3 active torsions:
REMARK  status: ('A' for Active; 'I' for Inactive)
REMARK    1  A    between atoms: C2_2  and  C4_4 
REMARK    2  A    between atoms: C4_4  and  S6_6 
REMARK    3  A    between atoms: C5_5  and  S6_6 
ROOT
HETATM    1  C4  UNL     1     -33.745   6.884   6.377  1.00 20.00     0.100 C 
ENDROOT
BRANCH   1   2
HETATM    2  C2  UNL     1     -34.582   5.674   6.103  1.00 20.00    -0.027 C 
HETATM    3  C1  UNL     1     -34.860   5.224   4.874  1.00 20.00     0.007 C 
ENDBRANCH   1   2
BRANCH   1   4
HETATM    4  S6  UNL     1     -33.964   8.105   5.056  1.00 20.00    -0.166 SA
BRANCH   4   5
HETATM    5  C5  UNL     1     -32.271   8.117   4.422  1.00 20.00     0.069 C 
HETATM    6  C3  UNL     1     -32.194   7.386   3.096  1.00 20.00     0.016 C 
ENDBRANCH   4   5
ENDBRANCH   1   4
TORSDOF 3
ENDMDL
MODEL 2
REMARK VINA RESULT:      -3.6      1.170      3.217
REMARK  3 active torsions:
REMARK  status: ('A' for Active; 'I' for Inactive)
REMARK    1  A    between atoms: C2_2  and  C4_4 
REMARK    2  A    between atoms: C4_4  and  S6_6 
REMARK    3  A    between atoms: C5_5  and  S6_6 
ROOT
HETATM    1  C4  UNL     1     -33.632   8.260   5.125  1.00 20.00     0.100 C 
ENDROOT
BRANCH   1   2
HETATM    2  C2  UNL     1     -32.329   8.076   4.415  1.00 20.00    -0.027 C 
HETATM    3  C1  UNL     1     -32.217   7.565   3.183  1.00 20.00     0.007 C 
ENDBRANCH   1   2
BRANCH   1   4
HETATM    4  S6  UNL     1     -33.956   6.845   6.211  1.00 20.00    -0.166 SA
BRANCH   4   5
HETATM    5  C5  UNL     1     -35.016   5.893   5.099  1.00 20.00     0.069 C 
HETATM    6  C3  UNL     1     -34.273   4.686   4.558  1.00 20.00     0.016 C 
ENDBRANCH   4   5
ENDBRANCH   1   4
TORSDOF 3
ENDMDL
MODEL 3
REMARK VINA RESULT:      -3.5      1.150      1.512
REMARK  3 active torsions:
REMARK  status: ('A' for Active; 'I' for Inactive)
REMARK    1  A    between atoms: C2_2  and  C4_4 
REMARK    2  A    between atoms: C4_4  and  S6_6 
REMARK    3  A    between atoms: C5_5  and  S6_6 
ROOT
HETATM    1  C4  UNL     1     -34.109   7.376   4.879  1.00 20.00     0.100 C 
ENDROOT
BRANCH   1   2
HETATM    2  C2  UNL     1     -34.087   6.710   6.218  1.00 20.00    -0.027 C 
HETATM    3  C1  UNL     1     -34.496   5.454   6.432  1.00 20.00     0.007 C 
ENDBRANCH   1   2
BRANCH   1   4
HETATM    4  S6  UNL     1     -32.520   8.187   4.559  1.00 20.00    -0.166 SA
BRANCH   4   5
HETATM    5  C5  UNL     1     -32.148   7.423   2.964  1.00 20.00     0.069 C 
HETATM    6  C3  UNL     1     -32.787   6.051   2.868  1.00 20.00     0.016 C 
ENDBRANCH   4   5
ENDBRANCH   1   4
TORSDOF 3
ENDMDL
MODEL 4
REMARK VINA RESULT:      -3.4      1.722      2.665
REMARK  3 active torsions:
REMARK  status: ('A' for Active; 'I' for Inactive)
REMARK    1  A    between atoms: C2_2  and  C4_4 
REMARK    2  A    between atoms: C4_4  and  S6_6 
REMARK    3  A    between atoms: C5_5  and  S6_6 
ROOT
HETATM    1  C4  UNL     1     -34.466   5.898   6.280  1.00 20.00     0.100 C 
ENDROOT
BRANCH   1   2
HETATM    2  C2  UNL     1     -33.723   7.193   6.365  1.00 20.00    -0.027 C 
HETATM    3  C1  UNL     1     -33.523   8.008   5.322  1.00 20.00     0.007 C 
ENDBRANCH   1   2
BRANCH   1   4
HETATM    4  S6  UNL     1     -35.132   5.672   4.609  1.00 20.00    -0.166 SA
BRANCH   4   5
HETATM    5  C5  UNL     1     -33.856   4.568   3.961  1.00 20.00     0.069 C 
HETATM    6  C3  UNL     1     -33.086   5.243   2.843  1.00 20.00     0.016 C 
ENDBRANCH   4   5
ENDBRANCH   1   4
TORSDOF 3
ENDMDL
MODEL 5
REMARK VINA RESULT:      -3.3      0.598      3.172
REMARK  3 active torsions:
REMARK  status: ('A' for Active; 'I' for Inactive)
REMARK    1  A    between atoms: C2_2  and  C4_4 
REMARK    2  A    between atoms: C4_4  and  S6_6 
REMARK    3  A    between atoms: C5_5  and  S6_6 
ROOT
HETATM    1  C4  UNL     1     -32.326   8.047   4.329  1.00 20.00     0.100 C 
ENDROOT
BRANCH   1   2
HETATM    2  C2  UNL     1     -32.238   7.304   3.035  1.00 20.00    -0.027 C 
HETATM    3  C1  UNL     1     -32.737   6.076   2.845  1.00 20.00     0.007 C 
ENDBRANCH   1   2
BRANCH   1   4
HETATM    4  S6  UNL     1     -34.021   7.987   4.970  1.00 20.00    -0.166 SA
BRANCH   4   5
HETATM    5  C5  UNL     1     -33.755   6.810   6.315  1.00 20.00     0.069 C 
HETATM    6  C3  UNL     1     -34.625   5.582   6.129  1.00 20.00     0.016 C 
ENDBRANCH   4   5
ENDBRANCH   1   4
TORSDOF 3
ENDMDL
MODEL 6
REMARK VINA RESULT:      -3.3      1.393      1.914
REMARK  3 active torsions:
REMARK  status: ('A' for Active; 'I' for Inactive)
REMARK    1  A    between atoms: C2_2  and  C4_4 
REMARK    2  A    between atoms: C4_4  and  S6_6 
REMARK    3  A    between atoms: C5_5  and  S6_6 
ROOT
HETATM    1  C4  UNL     1     -35.009   5.820   5.093  1.00 20.00     0.100 C 
ENDROOT
BRANCH   1   2
HETATM    2  C2  UNL     1     -34.198   4.809   4.346  1.00 20.00    -0.027 C 
HETATM    3  C1  UNL     1     -33.465   5.095   3.263  1.00 20.00     0.007 C 
ENDBRANCH   1   2
BRANCH   1   4
HETATM    4  S6  UNL     1     -33.938   6.798   6.181  1.00 20.00    -0.166 SA
BRANCH   4   5
HETATM    5  C5  UNL     1     -33.743   8.252   5.125  1.00 20.00     0.069 C 
HETATM    6  C3  UNL     1     -32.308   8.379   4.651  1.00 20.00     0.016 C 
ENDBRANCH   4   5
ENDBRANCH   1   4
TORSDOF 3
ENDMDL
MODEL 7
REMARK VINA RESULT:      -3.2      1.544      2.088
REMARK  3 active torsions:
REMARK  status: ('A' for Active; 'I' for Inactive)
REMARK    1  A    between atoms: C2_2  and  C4_4 
REMARK    2  A    between atoms: C4_4  and  S6_6 
REMARK    3  A    between atoms: C5_5  and  S6_6 
ROOT
HETATM    1  C4  UNL     1     -34.479   6.010   4.076  1.00 20.00     0.100 C 
ENDROOT
BRANCH   1   2
HETATM    2  C2  UNL     1     -34.574   5.052   5.221  1.00 20.00    -0.027 C 
HETATM    3  C1  UNL     1     -34.546   5.424   6.507  1.00 20.00     0.007 C 
ENDBRANCH   1   2
BRANCH   1   4
HETATM    4  S6  UNL     1     -33.016   5.637   3.071  1.00 20.00    -0.166 SA
BRANCH   4   5
HETATM    5  C5  UNL     1     -32.259   7.278   3.084  1.00 20.00     0.069 C 
HETATM    6  C3  UNL     1     -32.601   8.012   4.366  1.00 20.00     0.016 C 
ENDBRANCH   4   5
ENDBRANCH   1   4
TORSDOF 3
ENDMDL
MODEL 8
REMARK VINA RESULT:      -3.2      1.142      1.526
REMARK  3 active torsions:
REMARK  status: ('A' for Active; 'I' for Inactive)
REMARK    1  A    between atoms: C2_2  and  C4_4 
REMARK    2  A    between atoms: C4_4  and  S6_6 
REMARK    3  A    between atoms: C5_5  and  S6_6 
ROOT
HETATM    1  C4  UNL     1     -33.959   7.907   5.239  1.00 20.00     0.100 C 
ENDROOT
BRANCH   1   2
HETATM    2  C2  UNL     1     -33.763   6.813   6.239  1.00 20.00    -0.027 C 
HETATM    3  C1  UNL     1     -34.576   5.755   6.355  1.00 20.00     0.007 C 
ENDBRANCH   1   2
BRANCH   1   4
HETATM    4  S6  UNL     1     -32.358   8.436   4.573  1.00 20.00    -0.166 SA
BRANCH   4   5
HETATM    5  C5  UNL     1     -32.248   7.275   3.192  1.00 20.00     0.069 C 
HETATM    6  C3  UNL     1     -32.225   8.020   1.871  1.00 20.00     0.016 C 
ENDBRANCH   4   5
ENDBRANCH   1   4
TORSDOF 3
ENDMDL
MODEL 9
REMARK VINA RESULT:      -3.2      1.631      3.390
REMARK  3 active torsions:
REMARK  status: ('A' for Active; 'I' for Inactive)
REMARK    1  A    between atoms: C2_2  and  C4_4 
REMARK    2  A    between atoms: C4_4  and  S6_6 
REMARK    3  A    between atoms: C5_5  and  S6_6 
ROOT
HETATM    1  C4  UNL     1     -33.780   4.645   3.962  1.00 20.00     0.100 C 
ENDROOT
BRANCH   1   2
HETATM    2  C2  UNL     1     -33.107   5.337   2.820  1.00 20.00    -0.027 C 
HETATM    3  C1  UNL     1     -32.544   6.548   2.911  1.00 20.00     0.007 C 
ENDBRANCH   1   2
BRANCH   1   4
HETATM    4  S6  UNL     1     -35.125   5.673   4.609  1.00 20.00    -0.166 SA
BRANCH   4   5
HETATM    5  C5  UNL     1     -34.499   5.904   6.288  1.00 20.00     0.069 C 
HETATM    6  C3  UNL     1     -33.726   7.205   6.394  1.00 20.00     0.016 C 
ENDBRANCH   4   5
ENDBRANCH   1   4
TORSDOF 3
ENDMDL
