MODEL 1
REMARK VINA RESULT:      -4.1      0.000      0.000
REMARK  2 active torsions:
REMARK  status: ('A' for Active; 'I' for Inactive)
REMARK    1  A    between atoms: C5_5  and  N8_8 
REMARK    2  A    between atoms: C6_6  and  S11_11 
ROOT
HETATM    1  C1  UNL     1     -34.912  16.926  -5.385  1.00 20.00     0.037 A 
HETATM    2  C2  UNL     1     -33.655  14.948  -4.797  1.00 20.00     0.037 A 
HETATM    3  C3  UNL     1     -34.506  17.537  -4.199  1.00 20.00     0.021 A 
HETATM    4  C4  UNL     1     -33.250  15.559  -3.611  1.00 20.00     0.021 A 
HETATM    5  C5  UNL     1     -34.485  15.632  -5.685  1.00 20.00     0.102 A 
HETATM    6  C6  UNL     1     -33.675  16.853  -3.312  1.00 20.00    -0.000 A 
ENDROOT
BRANCH   5   7
HETATM    7  N8  UNL     1     -34.898  15.010  -6.893  1.00 20.00    -0.116 N 
HETATM    8  O9  UNL     1     -34.185  15.138  -7.918  1.00 20.00    -0.532 OA
HETATM    9  O10 UNL     1     -35.965  14.349  -6.903  1.00 20.00    -0.532 OA
ENDBRANCH   5   7
BRANCH   6  10
HETATM   10  S11 UNL     1     -33.157  17.633  -1.795  1.00 20.00    -0.134 SA
HETATM   11  C7  UNL     1     -34.587  18.698  -1.501  1.00 20.00     0.095 C 
ENDBRANCH   6  10
TORSDOF 2
ENDMDL
MODEL 2
REMARK VINA RESULT:      -4.1      0.669      1.602
REMARK  2 active torsions:
REMARK  status: ('A' for Active; 'I' for Inactive)
REMARK    1  A    between atoms: C5_5  and  N8_8 
REMARK    2  A    between atoms: C6_6  and  S11_11 
ROOT
HETATM    1  C1  UNL     1     -33.707  14.944  -4.631  1.00 20.00     0.037 A 
HETATM    2  C2  UNL     1     -34.846  16.956  -5.335  1.00 20.00     0.037 A 
HETATM    3  C3  UNL     1     -33.337  15.570  -3.441  1.00 20.00     0.021 A 
HETATM    4  C4  UNL     1     -34.475  17.581  -4.145  1.00 20.00     0.021 A 
HETATM    5  C5  UNL     1     -34.463  15.637  -5.578  1.00 20.00     0.102 A 
HETATM    6  C6  UNL     1     -33.721  16.889  -3.198  1.00 20.00    -0.000 A 
ENDROOT
BRANCH   5   7
HETATM    7  N8  UNL     1     -34.840  15.000  -6.789  1.00 20.00    -0.116 N 
HETATM    8  O9  UNL     1     -34.092  15.106  -7.792  1.00 20.00    -0.532 OA
HETATM    9  O10 UNL     1     -35.911  14.347  -6.825  1.00 20.00    -0.532 OA
ENDBRANCH   5   7
BRANCH   6  10
HETATM   10  S11 UNL     1     -33.247  17.688  -1.677  1.00 20.00    -0.134 SA
HETATM   11  C7  UNL     1     -32.656  19.263  -2.335  1.00 20.00     0.095 C 
ENDBRANCH   6  10
TORSDOF 2
ENDMDL
MODEL 3
REMARK VINA RESULT:      -4.1      4.872      5.670
REMARK  2 active torsions:
REMARK  status: ('A' for Active; 'I' for Inactive)
REMARK    1  A    between atoms: C5_5  and  N8_8 
REMARK    2  A    between atoms: C6_6  and  S11_11 
ROOT
HETATM    1  C1  UNL     1     -33.092  17.064  -1.933  1.00 20.00     0.037 A 
HETATM    2  C2  UNL     1     -32.778  19.256  -2.899  1.00 20.00     0.037 A 
HETATM    3  C3  UNL     1     -33.718  16.637  -3.104  1.00 20.00     0.021 A 
HETATM    4  C4  UNL     1     -33.405  18.829  -4.070  1.00 20.00     0.021 A 
HETATM    5  C5  UNL     1     -32.622  18.374  -1.831  1.00 20.00     0.102 A 
HETATM    6  C6  UNL     1     -33.874  17.520  -4.172  1.00 20.00    -0.000 A 
ENDROOT
BRANCH   5   7
HETATM    7  N8  UNL     1     -31.984  18.808  -0.639  1.00 20.00    -0.116 N 
HETATM    8  O9  UNL     1     -30.735  18.726  -0.552  1.00 20.00    -0.532 OA
HETATM    9  O10 UNL     1     -32.687  19.263   0.296  1.00 20.00    -0.532 OA
ENDBRANCH   5   7
BRANCH   6  10
HETATM   10  S11 UNL     1     -34.675  16.975  -5.668  1.00 20.00    -0.134 SA
HETATM   11  C7  UNL     1     -34.192  15.234  -5.651  1.00 20.00     0.095 C 
ENDBRANCH   6  10
TORSDOF 2
ENDMDL
MODEL 4
REMARK VINA RESULT:      -4.0      4.848      5.586
REMARK  2 active torsions:
REMARK  status: ('A' for Active; 'I' for Inactive)
REMARK    1  A    between atoms: C5_5  and  N8_8 
REMARK    2  A    between atoms: C6_6  and  S11_11 
ROOT
HETATM    1  C1  UNL     1     -32.671  19.262  -2.700  1.00 20.00     0.037 A 
HETATM    2  C2  UNL     1     -33.146  16.992  -2.026  1.00 20.00     0.037 A 
HETATM    3  C3  UNL     1     -33.310  19.035  -3.918  1.00 20.00     0.021 A 
HETATM    4  C4  UNL     1     -33.785  16.764  -3.244  1.00 20.00     0.021 A 
HETATM    5  C5  UNL     1     -32.589  18.240  -1.753  1.00 20.00     0.102 A 
HETATM    6  C6  UNL     1     -33.868  17.785  -4.190  1.00 20.00    -0.000 A 
ENDROOT
BRANCH   5   7
HETATM    7  N8  UNL     1     -31.938  18.472  -0.513  1.00 20.00    -0.116 N 
HETATM    8  O9  UNL     1     -32.606  18.404   0.548  1.00 20.00    -0.532 OA
HETATM    9  O10 UNL     1     -30.712  18.739  -0.510  1.00 20.00    -0.532 OA
ENDBRANCH   5   7
BRANCH   6  10
HETATM   10  S11 UNL     1     -34.685  17.495  -5.747  1.00 20.00    -0.134 SA
HETATM   11  C7  UNL     1     -34.420  15.715  -5.900  1.00 20.00     0.095 C 
ENDBRANCH   6  10
TORSDOF 2
ENDMDL
MODEL 5
REMARK VINA RESULT:      -4.0      4.645      5.749
REMARK  2 active torsions:
REMARK  status: ('A' for Active; 'I' for Inactive)
REMARK    1  A    between atoms: C5_5  and  N8_8 
REMARK    2  A    between atoms: C6_6  and  S11_11 
ROOT
HETATM    1  C1  UNL     1     -33.696  18.191  -0.112  1.00 20.00     0.037 A 
HETATM    2  C2  UNL     1     -31.367  18.329  -0.739  1.00 20.00     0.037 A 
HETATM    3  C3  UNL     1     -33.366  18.552   1.194  1.00 20.00     0.021 A 
HETATM    4  C4  UNL     1     -31.037  18.690   0.567  1.00 20.00     0.021 A 
HETATM    5  C5  UNL     1     -32.696  18.080  -1.079  1.00 20.00     0.102 A 
HETATM    6  C6  UNL     1     -32.036  18.802   1.533  1.00 20.00    -0.000 A 
ENDROOT
BRANCH   5   7
HETATM    7  N8  UNL     1     -33.032  17.712  -2.408  1.00 20.00    -0.116 N 
HETATM    8  O9  UNL     1     -33.424  16.541  -2.636  1.00 20.00    -0.532 OA
HETATM    9  O10 UNL     1     -32.929  18.568  -3.321  1.00 20.00    -0.532 OA
ENDBRANCH   5   7
BRANCH   6  10
HETATM   10  S11 UNL     1     -31.614  19.263   3.202  1.00 20.00    -0.134 SA
HETATM   11  C7  UNL     1     -29.854  18.857   3.192  1.00 20.00     0.095 C 
ENDBRANCH   6  10
TORSDOF 2
ENDMDL
MODEL 6
REMARK VINA RESULT:      -3.9      6.621      7.708
REMARK  2 active torsions:
REMARK  status: ('A' for Active; 'I' for Inactive)
REMARK    1  A    between atoms: C5_5  and  N8_8 
REMARK    2  A    between atoms: C6_6  and  S11_11 
ROOT
HETATM    1  C1  UNL     1     -30.995  18.494   0.185  1.00 20.00     0.037 A 
HETATM    2  C2  UNL     1     -32.999  18.724   1.514  1.00 20.00     0.037 A 
HETATM    3  C3  UNL     1     -31.774  18.285  -0.954  1.00 20.00     0.021 A 
HETATM    4  C4  UNL     1     -33.778  18.514   0.377  1.00 20.00     0.021 A 
HETATM    5  C5  UNL     1     -31.608  18.714   1.419  1.00 20.00     0.102 A 
HETATM    6  C6  UNL     1     -33.166  18.296  -0.857  1.00 20.00    -0.000 A 
ENDROOT
BRANCH   5   7
HETATM    7  N8  UNL     1     -30.815  18.927   2.577  1.00 20.00    -0.116 N 
HETATM    8  O9  UNL     1     -29.592  19.177   2.440  1.00 20.00    -0.532 OA
HETATM    9  O10 UNL     1     -31.358  18.862   3.706  1.00 20.00    -0.532 OA
ENDBRANCH   5   7
BRANCH   6  10
HETATM   10  S11 UNL     1     -34.160  18.028  -2.311  1.00 20.00    -0.134 SA
HETATM   11  C7  UNL     1     -33.388  16.518  -2.932  1.00 20.00     0.095 C 
ENDBRANCH   6  10
TORSDOF 2
ENDMDL
MODEL 7
REMARK VINA RESULT:      -3.8     12.330     13.214
REMARK  2 active torsions:
REMARK  status: ('A' for Active; 'I' for Inactive)
REMARK    1  A    between atoms: C5_5  and  N8_8 
REMARK    2  A    between atoms: C6_6  and  S11_11 
ROOT
HETATM    1  C1  UNL     1     -33.214   8.003   4.808  1.00 20.00     0.037 A 
HETATM    2  C2  UNL     1     -33.500   5.817   3.821  1.00 20.00     0.037 A 
HETATM    3  C3  UNL     1     -32.642   8.464   3.623  1.00 20.00     0.021 A 
HETATM    4  C4  UNL     1     -32.927   6.277   2.636  1.00 20.00     0.021 A 
HETATM    5  C5  UNL     1     -33.644   6.679   4.907  1.00 20.00     0.102 A 
HETATM    6  C6  UNL     1     -32.498   7.600   2.536  1.00 20.00    -0.000 A 
ENDROOT
BRANCH   5   7
HETATM    7  N8  UNL     1     -34.227   6.211   6.114  1.00 20.00    -0.116 N 
HETATM    8  O9  UNL     1     -34.430   4.980   6.255  1.00 20.00    -0.532 OA
HETATM    9  O10 UNL     1     -34.524   7.040   7.008  1.00 20.00    -0.532 OA
ENDBRANCH   5   7
BRANCH   6  10
HETATM   10  S11 UNL     1     -31.766   8.189   1.022  1.00 20.00    -0.134 SA
HETATM   11  C7  UNL     1     -32.871   9.573   0.671  1.00 20.00     0.095 C 
ENDBRANCH   6  10
TORSDOF 2
ENDMDL
MODEL 8
REMARK VINA RESULT:      -3.8     12.324     13.255
REMARK  2 active torsions:
REMARK  status: ('A' for Active; 'I' for Inactive)
REMARK    1  A    between atoms: C5_5  and  N8_8 
REMARK    2  A    between atoms: C6_6  and  S11_11 
ROOT
HETATM    1  C1  UNL     1     -33.512   5.827   3.829  1.00 20.00     0.037 A 
HETATM    2  C2  UNL     1     -33.233   8.017   4.810  1.00 20.00     0.037 A 
HETATM    3  C3  UNL     1     -32.931   6.283   2.646  1.00 20.00     0.021 A 
HETATM    4  C4  UNL     1     -32.653   8.473   3.627  1.00 20.00     0.021 A 
HETATM    5  C5  UNL     1     -33.662   6.695   4.912  1.00 20.00     0.102 A 
HETATM    6  C6  UNL     1     -32.502   7.607   2.545  1.00 20.00    -0.000 A 
ENDROOT
BRANCH   5   7
HETATM    7  N8  UNL     1     -34.253   6.230   6.116  1.00 20.00    -0.116 N 
HETATM    8  O9  UNL     1     -34.481   5.003   6.249  1.00 20.00    -0.532 OA
HETATM    9  O10 UNL     1     -34.531   7.059   7.017  1.00 20.00    -0.532 OA
ENDBRANCH   5   7
BRANCH   6  10
HETATM   10  S11 UNL     1     -31.760   8.189   1.033  1.00 20.00    -0.134 SA
HETATM   11  C7  UNL     1     -32.856   9.580   0.676  1.00 20.00     0.095 C 
ENDBRANCH   6  10
TORSDOF 2
ENDMDL
MODEL 9
REMARK VINA RESULT:      -3.7      1.756      2.202
REMARK  2 active torsions:
REMARK  status: ('A' for Active; 'I' for Inactive)
REMARK    1  A    between atoms: C5_5  and  N8_8 
REMARK    2  A    between atoms: C6_6  and  S11_11 
ROOT
HETATM    1  C1  UNL     1     -35.011  17.811  -4.056  1.00 20.00     0.037 A 
HETATM    2  C2  UNL     1     -33.417  16.272  -3.092  1.00 20.00     0.037 A 
HETATM    3  C3  UNL     1     -35.039  18.530  -2.861  1.00 20.00     0.021 A 
HETATM    4  C4  UNL     1     -33.446  16.990  -1.897  1.00 20.00     0.021 A 
HETATM    5  C5  UNL     1     -34.199  16.682  -4.172  1.00 20.00     0.102 A 
HETATM    6  C6  UNL     1     -34.257  18.119  -1.782  1.00 20.00    -0.000 A 
ENDROOT
BRANCH   5   7
HETATM    7  N8  UNL     1     -34.170  15.950  -5.388  1.00 20.00    -0.116 N 
HETATM    8  O9  UNL     1     -33.741  14.771  -5.379  1.00 20.00    -0.532 OA
HETATM    9  O10 UNL     1     -34.574  16.503  -6.440  1.00 20.00    -0.532 OA
ENDBRANCH   5   7
BRANCH   6  10
HETATM   10  S11 UNL     1     -34.294  19.038  -0.255  1.00 20.00    -0.134 SA
HETATM   11  C7  UNL     1     -32.705  18.533   0.440  1.00 20.00     0.095 C 
ENDBRANCH   6  10
TORSDOF 2
ENDMDL
