MODEL 1
REMARK VINA RESULT:      -6.1      0.000      0.000
REMARK  2 active torsions:
REMARK  status: ('A' for Active; 'I' for Inactive)
REMARK    1  A    between atoms: C6_6  and  C10_10 
REMARK    2  A    between atoms: C9_9  and  C10_10 
ROOT
HETATM    1  C1  UNL     1     -34.794   5.091   6.055  1.00 20.00     0.000 A 
HETATM    2  C2  UNL     1     -34.537   4.890   4.699  1.00 20.00     0.001 A 
HETATM    3  C3  UNL     1     -34.443   6.297   6.660  1.00 20.00     0.001 A 
HETATM    4  C4  UNL     1     -33.928   5.896   3.948  1.00 20.00     0.007 A 
HETATM    5  C5  UNL     1     -33.833   7.303   5.909  1.00 20.00     0.007 A 
HETATM    6  C6  UNL     1     -33.576   7.101   4.553  1.00 20.00    -0.054 A 
ENDROOT
BRANCH   6   7
HETATM    7  C10 UNL     1     -32.911   8.197   3.737  1.00 20.00     0.014 C 
HETATM    8  C8  UNL     1     -32.088   9.118   4.644  1.00 20.00     0.015 C 
BRANCH   7   9
HETATM    9  C9  UNL     1     -32.036   7.652   2.590  1.00 20.00     0.004 C 
HETATM   10  C7  UNL     1     -32.241   8.395   1.276  1.00 20.00     0.006 C 
ENDBRANCH   7   9
ENDBRANCH   6   7
TORSDOF 2
ENDMDL
MODEL 2
REMARK VINA RESULT:      -6.1      0.006      1.528
REMARK  2 active torsions:
REMARK  status: ('A' for Active; 'I' for Inactive)
REMARK    1  A    between atoms: C6_6  and  C10_10 
REMARK    2  A    between atoms: C9_9  and  C10_10 
ROOT
HETATM    1  C1  UNL     1     -34.794   5.089   6.052  1.00 20.00     0.000 A 
HETATM    2  C2  UNL     1     -34.443   6.294   6.660  1.00 20.00     0.001 A 
HETATM    3  C3  UNL     1     -34.536   4.891   4.696  1.00 20.00     0.001 A 
HETATM    4  C4  UNL     1     -33.834   7.302   5.912  1.00 20.00     0.007 A 
HETATM    5  C5  UNL     1     -33.927   5.899   3.947  1.00 20.00     0.007 A 
HETATM    6  C6  UNL     1     -33.576   7.104   4.556  1.00 20.00    -0.054 A 
ENDROOT
BRANCH   6   7
HETATM    7  C10 UNL     1     -32.914   8.200   3.739  1.00 20.00     0.014 C 
HETATM    8  C8  UNL     1     -32.086   9.119   4.645  1.00 20.00     0.015 C 
BRANCH   7   9
HETATM    9  C9  UNL     1     -32.043   7.656   2.588  1.00 20.00     0.004 C 
HETATM   10  C7  UNL     1     -32.246   8.408   1.278  1.00 20.00     0.006 C 
ENDBRANCH   7   9
ENDBRANCH   6   7
TORSDOF 2
ENDMDL
MODEL 3
REMARK VINA RESULT:      -5.6      0.860      2.020
REMARK  2 active torsions:
REMARK  status: ('A' for Active; 'I' for Inactive)
REMARK    1  A    between atoms: C6_6  and  C10_10 
REMARK    2  A    between atoms: C9_9  and  C10_10 
ROOT
HETATM    1  C1  UNL     1     -34.859   5.661   6.131  1.00 20.00     0.000 A 
HETATM    2  C2  UNL     1     -34.265   6.858   6.527  1.00 20.00     0.001 A 
HETATM    3  C3  UNL     1     -34.633   5.160   4.849  1.00 20.00     0.001 A 
HETATM    4  C4  UNL     1     -33.444   7.557   5.641  1.00 20.00     0.007 A 
HETATM    5  C5  UNL     1     -33.813   5.860   3.962  1.00 20.00     0.007 A 
HETATM    6  C6  UNL     1     -33.219   7.057   4.359  1.00 20.00    -0.054 A 
ENDROOT
BRANCH   6   7
HETATM    7  C10 UNL     1     -32.327   7.817   3.392  1.00 20.00     0.014 C 
HETATM    8  C8  UNL     1     -32.124   7.013   2.103  1.00 20.00     0.015 C 
BRANCH   7   9
HETATM    9  C9  UNL     1     -32.853   9.230   3.065  1.00 20.00     0.004 C 
HETATM   10  C7  UNL     1     -32.863   9.534   1.572  1.00 20.00     0.006 C 
ENDBRANCH   7   9
ENDBRANCH   6   7
TORSDOF 2
ENDMDL
MODEL 4
REMARK VINA RESULT:      -5.5      0.881      1.346
REMARK  2 active torsions:
REMARK  status: ('A' for Active; 'I' for Inactive)
REMARK    1  A    between atoms: C6_6  and  C10_10 
REMARK    2  A    between atoms: C9_9  and  C10_10 
ROOT
HETATM    1  C1  UNL     1     -34.856   5.745   6.171  1.00 20.00     0.000 A 
HETATM    2  C2  UNL     1     -34.677   5.247   4.880  1.00 20.00     0.001 A 
HETATM    3  C3  UNL     1     -34.221   6.924   6.559  1.00 20.00     0.001 A 
HETATM    4  C4  UNL     1     -33.861   5.929   3.977  1.00 20.00     0.007 A 
HETATM    5  C5  UNL     1     -33.404   7.605   5.655  1.00 20.00     0.007 A 
HETATM    6  C6  UNL     1     -33.225   7.108   4.365  1.00 20.00    -0.054 A 
ENDROOT
BRANCH   6   7
HETATM    7  C10 UNL     1     -32.335   7.850   3.383  1.00 20.00     0.014 C 
HETATM    8  C8  UNL     1     -32.121   7.016   2.115  1.00 20.00     0.015 C 
BRANCH   7   9
HETATM    9  C9  UNL     1     -32.870   9.251   3.020  1.00 20.00     0.004 C 
HETATM   10  C7  UNL     1     -32.820   9.541   1.524  1.00 20.00     0.006 C 
ENDBRANCH   7   9
ENDBRANCH   6   7
TORSDOF 2
ENDMDL
MODEL 5
REMARK VINA RESULT:      -4.4      0.971      4.381
REMARK  2 active torsions:
REMARK  status: ('A' for Active; 'I' for Inactive)
REMARK    1  A    between atoms: C6_6  and  C10_10 
REMARK    2  A    between atoms: C9_9  and  C10_10 
ROOT
HETATM    1  C1  UNL     1     -32.059   8.891   3.733  1.00 20.00     0.000 A 
HETATM    2  C2  UNL     1     -32.938   8.917   4.815  1.00 20.00     0.001 A 
HETATM    3  C3  UNL     1     -32.012   7.775   2.899  1.00 20.00     0.001 A 
HETATM    4  C4  UNL     1     -33.770   7.824   5.065  1.00 20.00     0.007 A 
HETATM    5  C5  UNL     1     -32.843   6.682   3.149  1.00 20.00     0.007 A 
HETATM    6  C6  UNL     1     -33.721   6.707   4.231  1.00 20.00    -0.054 A 
ENDROOT
BRANCH   6   7
HETATM    7  C10 UNL     1     -34.625   5.517   4.502  1.00 20.00     0.014 C 
HETATM    8  C8  UNL     1     -33.984   4.225   3.981  1.00 20.00     0.015 C 
BRANCH   7   9
HETATM    9  C9  UNL     1     -35.000   5.366   5.991  1.00 20.00     0.004 C 
HETATM   10  C7  UNL     1     -33.804   5.045   6.879  1.00 20.00     0.006 C 
ENDBRANCH   7   9
ENDBRANCH   6   7
TORSDOF 2
ENDMDL
MODEL 6
REMARK VINA RESULT:      -4.2     11.875     12.606
REMARK  2 active torsions:
REMARK  status: ('A' for Active; 'I' for Inactive)
REMARK    1  A    between atoms: C6_6  and  C10_10 
REMARK    2  A    between atoms: C9_9  and  C10_10 
ROOT
HETATM    1  C1  UNL     1     -31.788  19.167   1.332  1.00 20.00     0.000 A 
HETATM    2  C2  UNL     1     -33.147  18.881   1.461  1.00 20.00     0.001 A 
HETATM    3  C3  UNL     1     -31.122  18.869   0.143  1.00 20.00     0.001 A 
HETATM    4  C4  UNL     1     -33.841  18.297   0.401  1.00 20.00     0.007 A 
HETATM    5  C5  UNL     1     -31.816  18.284  -0.917  1.00 20.00     0.007 A 
HETATM    6  C6  UNL     1     -33.175  17.998  -0.787  1.00 20.00    -0.054 A 
ENDROOT
BRANCH   6   7
HETATM    7  C10 UNL     1     -33.929  17.361  -1.942  1.00 20.00     0.014 C 
HETATM    8  C8  UNL     1     -34.843  18.388  -2.619  1.00 20.00     0.015 C 
BRANCH   7   9
HETATM    9  C9  UNL     1     -33.000  16.702  -2.983  1.00 20.00     0.004 C 
HETATM   10  C7  UNL     1     -33.643  15.518  -3.695  1.00 20.00     0.006 C 
ENDBRANCH   7   9
ENDBRANCH   6   7
TORSDOF 2
ENDMDL
MODEL 7
REMARK VINA RESULT:      -4.2      0.981      1.949
REMARK  2 active torsions:
REMARK  status: ('A' for Active; 'I' for Inactive)
REMARK    1  A    between atoms: C6_6  and  C10_10 
REMARK    2  A    between atoms: C9_9  and  C10_10 
ROOT
HETATM    1  C1  UNL     1     -34.906   5.830   6.657  1.00 20.00     0.000 A 
HETATM    2  C2  UNL     1     -34.261   7.061   6.777  1.00 20.00     0.001 A 
HETATM    3  C3  UNL     1     -34.931   5.171   5.429  1.00 20.00     0.001 A 
HETATM    4  C4  UNL     1     -33.640   7.634   5.666  1.00 20.00     0.007 A 
HETATM    5  C5  UNL     1     -34.310   5.745   4.318  1.00 20.00     0.007 A 
HETATM    6  C6  UNL     1     -33.665   6.975   4.437  1.00 20.00    -0.054 A 
ENDROOT
BRANCH   6   7
HETATM    7  C10 UNL     1     -32.991   7.598   3.227  1.00 20.00     0.014 C 
HETATM    8  C8  UNL     1     -32.203   8.848   3.635  1.00 20.00     0.015 C 
BRANCH   7   9
HETATM    9  C9  UNL     1     -32.078   6.613   2.468  1.00 20.00     0.004 C 
HETATM   10  C7  UNL     1     -32.750   5.276   2.180  1.00 20.00     0.006 C 
ENDBRANCH   7   9
ENDBRANCH   6   7
TORSDOF 2
ENDMDL
MODEL 8
REMARK VINA RESULT:      -4.1      1.048      3.818
REMARK  2 active torsions:
REMARK  status: ('A' for Active; 'I' for Inactive)
REMARK    1  A    between atoms: C6_6  and  C10_10 
REMARK    2  A    between atoms: C9_9  and  C10_10 
ROOT
HETATM    1  C1  UNL     1     -32.126   8.660   2.690  1.00 20.00     0.000 A 
HETATM    2  C2  UNL     1     -32.257   7.303   2.397  1.00 20.00     0.001 A 
HETATM    3  C3  UNL     1     -32.557   9.153   3.921  1.00 20.00     0.001 A 
HETATM    4  C4  UNL     1     -32.822   6.438   3.335  1.00 20.00     0.007 A 
HETATM    5  C5  UNL     1     -33.123   8.288   4.859  1.00 20.00     0.007 A 
HETATM    6  C6  UNL     1     -33.255   6.931   4.565  1.00 20.00    -0.054 A 
ENDROOT
BRANCH   6   7
HETATM    7  C10 UNL     1     -33.871   5.991   5.588  1.00 20.00     0.014 C 
HETATM    8  C8  UNL     1     -34.380   6.776   6.801  1.00 20.00     0.015 C 
BRANCH   7   9
HETATM    9  C9  UNL     1     -34.999   5.116   5.003  1.00 20.00     0.004 C 
HETATM   10  C7  UNL     1     -36.007   5.910   4.181  1.00 20.00     0.006 C 
ENDBRANCH   7   9
ENDBRANCH   6   7
TORSDOF 2
ENDMDL
MODEL 9
REMARK VINA RESULT:      -4.1      1.049      4.097
REMARK  2 active torsions:
REMARK  status: ('A' for Active; 'I' for Inactive)
REMARK    1  A    between atoms: C6_6  and  C10_10 
REMARK    2  A    between atoms: C9_9  and  C10_10 
ROOT
HETATM    1  C1  UNL     1     -32.108   8.595   2.621  1.00 20.00     0.000 A 
HETATM    2  C2  UNL     1     -32.568   9.121   3.828  1.00 20.00     0.001 A 
HETATM    3  C3  UNL     1     -32.215   7.228   2.369  1.00 20.00     0.001 A 
HETATM    4  C4  UNL     1     -33.136   8.278   4.784  1.00 20.00     0.007 A 
HETATM    5  C5  UNL     1     -32.782   6.385   3.326  1.00 20.00     0.007 A 
HETATM    6  C6  UNL     1     -33.242   6.910   4.533  1.00 20.00    -0.054 A 
ENDROOT
BRANCH   6   7
HETATM    7  C10 UNL     1     -33.859   5.992   5.573  1.00 20.00     0.014 C 
HETATM    8  C8  UNL     1     -34.353   6.800   6.779  1.00 20.00     0.015 C 
BRANCH   7   9
HETATM    9  C9  UNL     1     -34.999   5.118   5.011  1.00 20.00     0.004 C 
HETATM   10  C7  UNL     1     -36.002   5.907   4.178  1.00 20.00     0.006 C 
ENDBRANCH   7   9
ENDBRANCH   6   7
TORSDOF 2
ENDMDL
