MODEL 1
REMARK VINA RESULT:      -5.9      0.000      0.000
REMARK  0 active torsions:
REMARK  status: ('A' for Active; 'I' for Inactive)
ROOT
HETATM    1  C1  UNL     1     -34.759   5.366   6.065  1.00 20.00     0.002 A 
HETATM    2  C2  UNL     1     -34.437   6.656   6.485  1.00 20.00     0.002 A 
HETATM    3  C3  UNL     1     -34.340   4.916   4.813  1.00 20.00     0.025 A 
HETATM    4  C4  UNL     1     -33.697   7.498   5.653  1.00 20.00     0.025 A 
HETATM    5  C5  UNL     1     -33.601   5.756   3.980  1.00 20.00     0.055 A 
HETATM    6  C6  UNL     1     -33.278   7.047   4.400  1.00 20.00     0.055 A 
HETATM    7 CL7  UNL     1     -33.109   5.141   2.441  1.00 20.00    -0.083 Cl
HETATM    8 CL8  UNL     1     -32.365   8.135   3.416  1.00 20.00    -0.083 Cl
ENDROOT
TORSDOF 0
ENDMDL
MODEL 2
REMARK VINA RESULT:      -5.9      0.052      2.353
REMARK  0 active torsions:
REMARK  status: ('A' for Active; 'I' for Inactive)
ROOT
HETATM    1  C1  UNL     1     -34.399   6.689   6.467  1.00 20.00     0.002 A 
HETATM    2  C2  UNL     1     -34.760   5.407   6.055  1.00 20.00     0.002 A 
HETATM    3  C3  UNL     1     -33.639   7.504   5.627  1.00 20.00     0.025 A 
HETATM    4  C4  UNL     1     -34.362   4.938   4.802  1.00 20.00     0.025 A 
HETATM    5  C5  UNL     1     -33.240   7.036   4.375  1.00 20.00     0.055 A 
HETATM    6  C6  UNL     1     -33.602   5.753   3.962  1.00 20.00     0.055 A 
HETATM    7 CL7  UNL     1     -32.302   8.091   3.378  1.00 20.00    -0.083 Cl
HETATM    8 CL8  UNL     1     -33.139   5.116   2.423  1.00 20.00    -0.083 Cl
ENDROOT
TORSDOF 0
ENDMDL
MODEL 3
REMARK VINA RESULT:      -5.8      1.024      1.197
REMARK  0 active torsions:
REMARK  status: ('A' for Active; 'I' for Inactive)
ROOT
HETATM    1  C1  UNL     1     -34.683   5.075   5.187  1.00 20.00     0.002 A 
HETATM    2  C2  UNL     1     -34.666   5.939   6.280  1.00 20.00     0.002 A 
HETATM    3  C3  UNL     1     -33.986   5.407   4.024  1.00 20.00     0.025 A 
HETATM    4  C4  UNL     1     -33.953   7.137   6.213  1.00 20.00     0.025 A 
HETATM    5  C5  UNL     1     -33.274   6.604   3.956  1.00 20.00     0.055 A 
HETATM    6  C6  UNL     1     -33.257   7.469   5.050  1.00 20.00     0.055 A 
HETATM    7 CL7  UNL     1     -32.429   6.959   2.490  1.00 20.00    -0.083 Cl
HETATM    8 CL8  UNL     1     -32.392   8.966   5.028  1.00 20.00    -0.083 Cl
ENDROOT
TORSDOF 0
ENDMDL
MODEL 4
REMARK VINA RESULT:      -5.7      1.022      2.437
REMARK  0 active torsions:
REMARK  status: ('A' for Active; 'I' for Inactive)
ROOT
HETATM    1  C1  UNL     1     -34.667   5.916   6.251  1.00 20.00     0.002 A 
HETATM    2  C2  UNL     1     -34.672   5.062   5.149  1.00 20.00     0.002 A 
HETATM    3  C3  UNL     1     -33.960   7.118   6.200  1.00 20.00     0.025 A 
HETATM    4  C4  UNL     1     -33.969   5.409   3.994  1.00 20.00     0.025 A 
HETATM    5  C5  UNL     1     -33.258   7.465   5.046  1.00 20.00     0.055 A 
HETATM    6  C6  UNL     1     -33.262   6.611   3.943  1.00 20.00     0.055 A 
HETATM    7 CL7  UNL     1     -32.403   8.967   5.042  1.00 20.00    -0.083 Cl
HETATM    8 CL8  UNL     1     -32.412   6.985   2.485  1.00 20.00    -0.083 Cl
ENDROOT
TORSDOF 0
ENDMDL
MODEL 5
REMARK VINA RESULT:      -5.5      1.594      2.831
REMARK  0 active torsions:
REMARK  status: ('A' for Active; 'I' for Inactive)
ROOT
HETATM    1  C1  UNL     1     -33.132   8.554   5.299  1.00 20.00     0.002 A 
HETATM    2  C2  UNL     1     -32.292   8.596   4.187  1.00 20.00     0.002 A 
HETATM    3  C3  UNL     1     -33.918   7.427   5.537  1.00 20.00     0.025 A 
HETATM    4  C4  UNL     1     -32.237   7.510   3.312  1.00 20.00     0.025 A 
HETATM    5  C5  UNL     1     -33.864   6.341   4.663  1.00 20.00     0.055 A 
HETATM    6  C6  UNL     1     -33.024   6.382   3.550  1.00 20.00     0.055 A 
HETATM    7 CL7  UNL     1     -34.861   4.972   5.012  1.00 20.00    -0.083 Cl
HETATM    8 CL8  UNL     1     -32.912   5.070   2.431  1.00 20.00    -0.083 Cl
ENDROOT
TORSDOF 0
ENDMDL
MODEL 6
REMARK VINA RESULT:      -5.5      1.589      2.757
REMARK  0 active torsions:
REMARK  status: ('A' for Active; 'I' for Inactive)
ROOT
HETATM    1  C1  UNL     1     -32.316   8.619   4.210  1.00 20.00     0.002 A 
HETATM    2  C2  UNL     1     -33.170   8.584   5.311  1.00 20.00     0.002 A 
HETATM    3  C3  UNL     1     -32.248   7.526   3.344  1.00 20.00     0.025 A 
HETATM    4  C4  UNL     1     -33.958   7.456   5.548  1.00 20.00     0.025 A 
HETATM    5  C5  UNL     1     -33.035   6.399   3.581  1.00 20.00     0.055 A 
HETATM    6  C6  UNL     1     -33.890   6.364   4.682  1.00 20.00     0.055 A 
HETATM    7 CL7  UNL     1     -32.908   5.078   2.472  1.00 20.00    -0.083 Cl
HETATM    8 CL8  UNL     1     -34.890   4.997   5.029  1.00 20.00    -0.083 Cl
ENDROOT
TORSDOF 0
ENDMDL
MODEL 7
REMARK VINA RESULT:      -5.1      2.072      3.685
REMARK  0 active torsions:
REMARK  status: ('A' for Active; 'I' for Inactive)
ROOT
HETATM    1  C1  UNL     1     -32.225   8.494   3.799  1.00 20.00     0.002 A 
HETATM    2  C2  UNL     1     -32.223   7.474   2.848  1.00 20.00     0.002 A 
HETATM    3  C3  UNL     1     -32.916   8.327   4.999  1.00 20.00     0.025 A 
HETATM    4  C4  UNL     1     -32.913   6.286   3.096  1.00 20.00     0.025 A 
HETATM    5  C5  UNL     1     -33.605   7.140   5.248  1.00 20.00     0.055 A 
HETATM    6  C6  UNL     1     -33.604   6.120   4.297  1.00 20.00     0.055 A 
HETATM    7 CL7  UNL     1     -34.441   6.992   6.754  1.00 20.00    -0.083 Cl
HETATM    8 CL8  UNL     1     -34.439   4.627   4.547  1.00 20.00    -0.083 Cl
ENDROOT
TORSDOF 0
ENDMDL
MODEL 8
REMARK VINA RESULT:      -5.0      1.965      2.813
REMARK  0 active torsions:
REMARK  status: ('A' for Active; 'I' for Inactive)
ROOT
HETATM    1  C1  UNL     1     -33.795   4.920   3.399  1.00 20.00     0.002 A 
HETATM    2  C2  UNL     1     -32.917   5.690   2.637  1.00 20.00     0.002 A 
HETATM    3  C3  UNL     1     -34.241   5.389   4.634  1.00 20.00     0.025 A 
HETATM    4  C4  UNL     1     -32.484   6.930   3.110  1.00 20.00     0.025 A 
HETATM    5  C5  UNL     1     -33.809   6.628   5.108  1.00 20.00     0.055 A 
HETATM    6  C6  UNL     1     -32.931   7.399   4.346  1.00 20.00     0.055 A 
HETATM    7 CL7  UNL     1     -34.398   7.156   6.645  1.00 20.00    -0.083 Cl
HETATM    8 CL8  UNL     1     -32.360   8.942   4.877  1.00 20.00    -0.083 Cl
ENDROOT
TORSDOF 0
ENDMDL
MODEL 9
REMARK VINA RESULT:      -5.0      1.956      3.252
REMARK  0 active torsions:
REMARK  status: ('A' for Active; 'I' for Inactive)
ROOT
HETATM    1  C1  UNL     1     -32.931   5.664   2.649  1.00 20.00     0.002 A 
HETATM    2  C2  UNL     1     -33.809   4.901   3.417  1.00 20.00     0.002 A 
HETATM    3  C3  UNL     1     -32.496   6.906   3.114  1.00 20.00     0.025 A 
HETATM    4  C4  UNL     1     -34.254   5.379   4.651  1.00 20.00     0.025 A 
HETATM    5  C5  UNL     1     -32.940   7.384   4.346  1.00 20.00     0.055 A 
HETATM    6  C6  UNL     1     -33.819   6.621   5.116  1.00 20.00     0.055 A 
HETATM    7 CL7  UNL     1     -32.365   8.928   4.869  1.00 20.00    -0.083 Cl
HETATM    8 CL8  UNL     1     -34.404   7.158   6.651  1.00 20.00    -0.083 Cl
ENDROOT
TORSDOF 0
ENDMDL
