MODEL 1
REMARK VINA RESULT:      -5.2      0.000      0.000
REMARK  1 active torsions:
REMARK  status: ('A' for Active; 'I' for Inactive)
REMARK    1  A    between atoms: C6_6  and  N8_8 
ROOT
HETATM    1  C1  UNL     1     -34.796   5.356   5.998  1.00 20.00     0.000 A 
HETATM    2  C2  UNL     1     -34.505   5.009   4.678  1.00 20.00     0.002 A 
HETATM    3  C3  UNL     1     -34.333   6.563   6.520  1.00 20.00     0.002 A 
HETATM    4  C4  UNL     1     -33.751   5.870   3.880  1.00 20.00     0.029 A 
HETATM    5  C5  UNL     1     -33.579   7.424   5.722  1.00 20.00     0.029 A 
HETATM    6  C6  UNL     1     -33.288   7.078   4.403  1.00 20.00     0.027 A 
ENDROOT
BRANCH   6   7
HETATM    7  N8  UNL     1     -32.526   7.949   3.596  1.00 20.00    -0.394 N 
HETATM    8  C7  UNL     1     -32.218   7.670   2.228  1.00 20.00     0.146 C 
HETATM    9  H17 UNL     1     -32.196   8.793   4.026  1.00 20.00     0.159 HD
ENDBRANCH   6   7
TORSDOF 1
ENDMDL
MODEL 2
REMARK VINA RESULT:      -5.2      0.004      1.709
REMARK  1 active torsions:
REMARK  status: ('A' for Active; 'I' for Inactive)
REMARK    1  A    between atoms: C6_6  and  N8_8 
ROOT
HETATM    1  C1  UNL     1     -34.797   5.353   5.997  1.00 20.00     0.000 A 
HETATM    2  C2  UNL     1     -34.333   6.559   6.522  1.00 20.00     0.002 A 
HETATM    3  C3  UNL     1     -34.507   5.010   4.676  1.00 20.00     0.002 A 
HETATM    4  C4  UNL     1     -33.580   7.423   5.727  1.00 20.00     0.029 A 
HETATM    5  C5  UNL     1     -33.753   5.873   3.882  1.00 20.00     0.029 A 
HETATM    6  C6  UNL     1     -33.289   7.079   4.406  1.00 20.00     0.027 A 
ENDROOT
BRANCH   6   7
HETATM    7  N8  UNL     1     -32.527   7.951   3.601  1.00 20.00    -0.394 N 
HETATM    8  C7  UNL     1     -32.220   7.675   2.231  1.00 20.00     0.146 C 
HETATM    9  H17 UNL     1     -32.196   8.794   4.032  1.00 20.00     0.159 HD
ENDBRANCH   6   7
TORSDOF 1
ENDMDL
MODEL 3
REMARK VINA RESULT:      -4.5      1.629      3.777
REMARK  1 active torsions:
REMARK  status: ('A' for Active; 'I' for Inactive)
REMARK    1  A    between atoms: C6_6  and  N8_8 
ROOT
HETATM    1  C1  UNL     1     -32.161   7.596   2.972  1.00 20.00     0.000 A 
HETATM    2  C2  UNL     1     -32.736   8.221   4.079  1.00 20.00     0.002 A 
HETATM    3  C3  UNL     1     -32.538   6.297   2.630  1.00 20.00     0.002 A 
HETATM    4  C4  UNL     1     -33.688   7.548   4.844  1.00 20.00     0.029 A 
HETATM    5  C5  UNL     1     -33.490   5.624   3.395  1.00 20.00     0.029 A 
HETATM    6  C6  UNL     1     -34.065   6.248   4.501  1.00 20.00     0.027 A 
ENDROOT
BRANCH   6   7
HETATM    7  N8  UNL     1     -35.028   5.566   5.275  1.00 20.00    -0.394 N 
HETATM    8  C7  UNL     1     -34.840   5.266   6.661  1.00 20.00     0.146 C 
HETATM    9  H17 UNL     1     -35.871   5.289   4.809  1.00 20.00     0.159 HD
ENDBRANCH   6   7
TORSDOF 1
ENDMDL
MODEL 4
REMARK VINA RESULT:      -4.5      1.632      3.383
REMARK  1 active torsions:
REMARK  status: ('A' for Active; 'I' for Inactive)
REMARK    1  A    between atoms: C6_6  and  N8_8 
ROOT
HETATM    1  C1  UNL     1     -32.162   7.625   3.001  1.00 20.00     0.000 A 
HETATM    2  C2  UNL     1     -32.531   6.327   2.645  1.00 20.00     0.002 A 
HETATM    3  C3  UNL     1     -32.745   8.236   4.111  1.00 20.00     0.002 A 
HETATM    4  C4  UNL     1     -33.484   5.642   3.398  1.00 20.00     0.029 A 
HETATM    5  C5  UNL     1     -33.697   7.550   4.864  1.00 20.00     0.029 A 
HETATM    6  C6  UNL     1     -34.067   6.254   4.509  1.00 20.00     0.027 A 
ENDROOT
BRANCH   6   7
HETATM    7  N8  UNL     1     -35.031   5.561   5.271  1.00 20.00    -0.394 N 
HETATM    8  C7  UNL     1     -34.859   5.270   6.661  1.00 20.00     0.146 C 
HETATM    9  H17 UNL     1     -35.863   5.268   4.794  1.00 20.00     0.159 HD
ENDBRANCH   6   7
TORSDOF 1
ENDMDL
MODEL 5
REMARK VINA RESULT:      -4.3      1.273      1.754
REMARK  1 active torsions:
REMARK  status: ('A' for Active; 'I' for Inactive)
REMARK    1  A    between atoms: C6_6  and  N8_8 
ROOT
HETATM    1  C1  UNL     1     -34.492   6.647   6.633  1.00 20.00     0.000 A 
HETATM    2  C2  UNL     1     -34.798   5.442   6.001  1.00 20.00     0.002 A 
HETATM    3  C3  UNL     1     -33.732   7.610   5.969  1.00 20.00     0.002 A 
HETATM    4  C4  UNL     1     -34.345   5.200   4.704  1.00 20.00     0.029 A 
HETATM    5  C5  UNL     1     -33.280   7.368   4.673  1.00 20.00     0.029 A 
HETATM    6  C6  UNL     1     -33.585   6.164   4.040  1.00 20.00     0.027 A 
ENDROOT
BRANCH   6   7
HETATM    7  N8  UNL     1     -33.125   5.920   2.729  1.00 20.00    -0.394 N 
HETATM    8  C7  UNL     1     -32.812   4.610   2.247  1.00 20.00     0.146 C 
HETATM    9  H17 UNL     1     -33.021   6.716   2.128  1.00 20.00     0.159 HD
ENDBRANCH   6   7
TORSDOF 1
ENDMDL
MODEL 6
REMARK VINA RESULT:      -4.3      1.280      2.184
REMARK  1 active torsions:
REMARK  status: ('A' for Active; 'I' for Inactive)
REMARK    1  A    between atoms: C6_6  and  N8_8 
ROOT
HETATM    1  C1  UNL     1     -34.514   6.634   6.666  1.00 20.00     0.000 A 
HETATM    2  C2  UNL     1     -33.758   7.613   6.020  1.00 20.00     0.002 A 
HETATM    3  C3  UNL     1     -34.798   5.432   6.019  1.00 20.00     0.002 A 
HETATM    4  C4  UNL     1     -33.286   7.388   4.727  1.00 20.00     0.029 A 
HETATM    5  C5  UNL     1     -34.325   5.208   4.726  1.00 20.00     0.029 A 
HETATM    6  C6  UNL     1     -33.570   6.185   4.080  1.00 20.00     0.027 A 
ENDROOT
BRANCH   6   7
HETATM    7  N8  UNL     1     -33.093   5.957   2.772  1.00 20.00    -0.394 N 
HETATM    8  C7  UNL     1     -32.810   4.650   2.265  1.00 20.00     0.146 C 
HETATM    9  H17 UNL     1     -32.953   6.764   2.193  1.00 20.00     0.159 HD
ENDBRANCH   6   7
TORSDOF 1
ENDMDL
MODEL 7
REMARK VINA RESULT:      -3.8     15.300     16.318
REMARK  1 active torsions:
REMARK  status: ('A' for Active; 'I' for Inactive)
REMARK    1  A    between atoms: C6_6  and  N8_8 
ROOT
HETATM    1  C1  UNL     1     -23.447  19.225   8.006  1.00 20.00     0.000 A 
HETATM    2  C2  UNL     1     -24.494  19.263   8.928  1.00 20.00     0.002 A 
HETATM    3  C3  UNL     1     -22.402  18.317   8.176  1.00 20.00     0.002 A 
HETATM    4  C4  UNL     1     -24.496  18.392  10.018  1.00 20.00     0.029 A 
HETATM    5  C5  UNL     1     -22.404  17.446   9.265  1.00 20.00     0.029 A 
HETATM    6  C6  UNL     1     -23.451  17.484  10.186  1.00 20.00     0.027 A 
ENDROOT
BRANCH   6   7
HETATM    7  N8  UNL     1     -23.452  16.603  11.289  1.00 20.00    -0.394 N 
HETATM    8  C7  UNL     1     -24.637  16.277  12.021  1.00 20.00     0.146 C 
HETATM    9  H17 UNL     1     -22.571  16.203  11.551  1.00 20.00     0.159 HD
ENDBRANCH   6   7
TORSDOF 1
ENDMDL
MODEL 8
REMARK VINA RESULT:      -3.8     15.309     15.837
REMARK  1 active torsions:
REMARK  status: ('A' for Active; 'I' for Inactive)
REMARK    1  A    between atoms: C6_6  and  N8_8 
ROOT
HETATM    1  C1  UNL     1     -25.893  17.990  12.247  1.00 20.00     0.000 A 
HETATM    2  C2  UNL     1     -25.351  18.924  11.365  1.00 20.00     0.002 A 
HETATM    3  C3  UNL     1     -25.344  16.710  12.332  1.00 20.00     0.002 A 
HETATM    4  C4  UNL     1     -24.260  18.579  10.566  1.00 20.00     0.029 A 
HETATM    5  C5  UNL     1     -24.254  16.365  11.534  1.00 20.00     0.029 A 
HETATM    6  C6  UNL     1     -23.711  17.298  10.652  1.00 20.00     0.027 A 
ENDROOT
BRANCH   6   7
HETATM    7  N8  UNL     1     -22.608  16.948   9.845  1.00 20.00    -0.394 N 
HETATM    8  C7  UNL     1     -22.298  17.619   8.620  1.00 20.00     0.146 C 
HETATM    9  H17 UNL     1     -22.034  16.192  10.164  1.00 20.00     0.159 HD
ENDBRANCH   6   7
TORSDOF 1
ENDMDL
MODEL 9
REMARK VINA RESULT:      -3.7     15.313     16.293
REMARK  1 active torsions:
REMARK  status: ('A' for Active; 'I' for Inactive)
REMARK    1  A    between atoms: C6_6  and  N8_8 
ROOT
HETATM    1  C1  UNL     1     -23.381  19.042   8.072  1.00 20.00     0.000 A 
HETATM    2  C2  UNL     1     -22.427  18.038   8.239  1.00 20.00     0.002 A 
HETATM    3  C3  UNL     1     -24.346  19.258   9.056  1.00 20.00     0.002 A 
HETATM    4  C4  UNL     1     -22.439  17.249   9.389  1.00 20.00     0.029 A 
HETATM    5  C5  UNL     1     -24.357  18.469  10.206  1.00 20.00     0.029 A 
HETATM    6  C6  UNL     1     -23.404  17.465  10.373  1.00 20.00     0.027 A 
ENDROOT
BRANCH   6   7
HETATM    7  N8  UNL     1     -23.417  16.667  11.537  1.00 20.00    -0.394 N 
HETATM    8  C7  UNL     1     -24.622  16.168  12.123  1.00 20.00     0.146 C 
HETATM    9  H17 UNL     1     -22.529  16.456  11.952  1.00 20.00     0.159 HD
ENDBRANCH   6   7
TORSDOF 1
ENDMDL
