MODEL 1
REMARK VINA RESULT:      -3.9      0.000      0.000
REMARK  4 active torsions:
REMARK  status: ('A' for Active; 'I' for Inactive)
REMARK    1  A    between atoms: C3_3  and  C5_5 
REMARK    2  A    between atoms: C4_4  and  C6_6 
REMARK    3  A    between atoms: C5_5  and  S7_7 
REMARK    4  A    between atoms: C6_6  and  S7_7 
ROOT
HETATM    1  S7  UNL     1     -34.571   5.574   6.160  1.00 20.00    -0.162 SA
ENDROOT
BRANCH   1   2
HETATM    2  C5  UNL     1     -33.760   7.172   6.434  1.00 20.00     0.100 C 
BRANCH   2   3
HETATM    3  C3  UNL     1     -33.635   7.916   5.143  1.00 20.00    -0.027 C 
HETATM    4  C1  UNL     1     -32.513   8.516   4.733  1.00 20.00     0.007 C 
ENDBRANCH   2   3
ENDBRANCH   1   2
BRANCH   1   5
HETATM    5  C6  UNL     1     -34.779   5.687   4.367  1.00 20.00     0.100 C 
BRANCH   5   6
HETATM    6  C4  UNL     1     -33.792   4.801   3.677  1.00 20.00    -0.027 C 
HETATM    7  C2  UNL     1     -32.970   5.216   2.707  1.00 20.00     0.007 C 
ENDBRANCH   5   6
ENDBRANCH   1   5
TORSDOF 4
ENDMDL
MODEL 2
REMARK VINA RESULT:      -3.9      0.011      3.144
REMARK  4 active torsions:
REMARK  status: ('A' for Active; 'I' for Inactive)
REMARK    1  A    between atoms: C3_3  and  C5_5 
REMARK    2  A    between atoms: C4_4  and  C6_6 
REMARK    3  A    between atoms: C5_5  and  S7_7 
REMARK    4  A    between atoms: C6_6  and  S7_7 
ROOT
HETATM    1  S7  UNL     1     -34.569   5.581   6.166  1.00 20.00    -0.162 SA
ENDROOT
BRANCH   1   2
HETATM    2  C5  UNL     1     -34.784   5.683   4.369  1.00 20.00     0.100 C 
BRANCH   2   3
HETATM    3  C3  UNL     1     -33.800   4.793   3.680  1.00 20.00    -0.027 C 
HETATM    4  C1  UNL     1     -32.969   5.204   2.715  1.00 20.00     0.007 C 
ENDBRANCH   2   3
ENDBRANCH   1   2
BRANCH   1   5
HETATM    5  C6  UNL     1     -33.762   7.177   6.427  1.00 20.00     0.100 C 
BRANCH   5   6
HETATM    6  C4  UNL     1     -33.635   7.909   5.130  1.00 20.00    -0.027 C 
HETATM    7  C2  UNL     1     -32.516   8.521   4.726  1.00 20.00     0.007 C 
ENDBRANCH   5   6
ENDBRANCH   1   5
TORSDOF 4
ENDMDL
MODEL 3
REMARK VINA RESULT:      -3.9      1.568      2.813
REMARK  4 active torsions:
REMARK  status: ('A' for Active; 'I' for Inactive)
REMARK    1  A    between atoms: C3_3  and  C5_5 
REMARK    2  A    between atoms: C4_4  and  C6_6 
REMARK    3  A    between atoms: C5_5  and  S7_7 
REMARK    4  A    between atoms: C6_6  and  S7_7 
ROOT
HETATM    1  S7  UNL     1     -33.973   8.005   4.947  1.00 20.00    -0.162 SA
ENDROOT
BRANCH   1   2
HETATM    2  C5  UNL     1     -32.256   8.107   4.373  1.00 20.00     0.100 C 
BRANCH   2   3
HETATM    3  C3  UNL     1     -32.127   7.490   3.018  1.00 20.00    -0.027 C 
HETATM    4  C1  UNL     1     -32.576   6.269   2.708  1.00 20.00     0.007 C 
ENDBRANCH   2   3
ENDBRANCH   1   2
BRANCH   1   5
HETATM    5  C6  UNL     1     -33.712   6.927   6.374  1.00 20.00     0.100 C 
BRANCH   5   6
HETATM    6  C4  UNL     1     -34.549   5.694   6.249  1.00 20.00    -0.027 C 
HETATM    7  C2  UNL     1     -34.924   5.164   5.079  1.00 20.00     0.007 C 
ENDBRANCH   5   6
ENDBRANCH   1   5
TORSDOF 4
ENDMDL
MODEL 4
REMARK VINA RESULT:      -3.9      1.573      2.815
REMARK  4 active torsions:
REMARK  status: ('A' for Active; 'I' for Inactive)
REMARK    1  A    between atoms: C3_3  and  C5_5 
REMARK    2  A    between atoms: C4_4  and  C6_6 
REMARK    3  A    between atoms: C5_5  and  S7_7 
REMARK    4  A    between atoms: C6_6  and  S7_7 
ROOT
HETATM    1  S7  UNL     1     -33.962   8.014   4.930  1.00 20.00    -0.162 SA
ENDROOT
BRANCH   1   2
HETATM    2  C5  UNL     1     -33.705   6.957   6.380  1.00 20.00     0.100 C 
BRANCH   2   3
HETATM    3  C3  UNL     1     -34.549   5.728   6.278  1.00 20.00    -0.027 C 
HETATM    4  C1  UNL     1     -34.894   5.152   5.121  1.00 20.00     0.007 C 
ENDBRANCH   2   3
ENDBRANCH   1   2
BRANCH   1   5
HETATM    5  C6  UNL     1     -32.251   8.089   4.350  1.00 20.00     0.100 C 
BRANCH   5   6
HETATM    6  C4  UNL     1     -32.135   7.450   3.003  1.00 20.00    -0.027 C 
HETATM    7  C2  UNL     1     -32.602   6.230   2.715  1.00 20.00     0.007 C 
ENDBRANCH   5   6
ENDBRANCH   1   5
TORSDOF 4
ENDMDL
MODEL 5
REMARK VINA RESULT:      -3.8      1.877      3.452
REMARK  4 active torsions:
REMARK  status: ('A' for Active; 'I' for Inactive)
REMARK    1  A    between atoms: C3_3  and  C5_5 
REMARK    2  A    between atoms: C4_4  and  C6_6 
REMARK    3  A    between atoms: C5_5  and  S7_7 
REMARK    4  A    between atoms: C6_6  and  S7_7 
ROOT
HETATM    1  S7  UNL     1     -32.474   8.365   4.720  1.00 20.00    -0.162 SA
ENDROOT
BRANCH   1   2
HETATM    2  C5  UNL     1     -32.123   7.450   3.195  1.00 20.00     0.100 C 
BRANCH   2   3
HETATM    3  C3  UNL     1     -33.135   6.367   2.999  1.00 20.00    -0.027 C 
HETATM    4  C1  UNL     1     -32.833   5.123   2.613  1.00 20.00     0.007 C 
ENDBRANCH   2   3
ENDBRANCH   1   2
BRANCH   1   5
HETATM    5  C6  UNL     1     -34.100   7.663   5.083  1.00 20.00     0.100 C 
BRANCH   5   6
HETATM    6  C4  UNL     1     -34.042   6.853   6.338  1.00 20.00    -0.027 C 
HETATM    7  C2  UNL     1     -34.483   5.593   6.433  1.00 20.00     0.007 C 
ENDBRANCH   5   6
ENDBRANCH   1   5
TORSDOF 4
ENDMDL
MODEL 6
REMARK VINA RESULT:      -3.8      1.878      2.650
REMARK  4 active torsions:
REMARK  status: ('A' for Active; 'I' for Inactive)
REMARK    1  A    between atoms: C3_3  and  C5_5 
REMARK    2  A    between atoms: C4_4  and  C6_6 
REMARK    3  A    between atoms: C5_5  and  S7_7 
REMARK    4  A    between atoms: C6_6  and  S7_7 
ROOT
HETATM    1  S7  UNL     1     -32.466   8.349   4.691  1.00 20.00    -0.162 SA
ENDROOT
BRANCH   1   2
HETATM    2  C5  UNL     1     -34.109   7.671   5.046  1.00 20.00     0.100 C 
BRANCH   2   3
HETATM    3  C3  UNL     1     -34.079   6.885   6.318  1.00 20.00    -0.027 C 
HETATM    4  C1  UNL     1     -34.489   5.616   6.422  1.00 20.00     0.007 C 
ENDBRANCH   2   3
ENDBRANCH   1   2
BRANCH   1   5
HETATM    5  C6  UNL     1     -32.117   7.421   3.179  1.00 20.00     0.100 C 
BRANCH   5   6
HETATM    6  C4  UNL     1     -33.116   6.322   3.008  1.00 20.00    -0.027 C 
HETATM    7  C2  UNL     1     -32.800   5.081   2.618  1.00 20.00     0.007 C 
ENDBRANCH   5   6
ENDBRANCH   1   5
TORSDOF 4
ENDMDL
MODEL 7
REMARK VINA RESULT:      -3.8      1.323      1.834
REMARK  4 active torsions:
REMARK  status: ('A' for Active; 'I' for Inactive)
REMARK    1  A    between atoms: C3_3  and  C5_5 
REMARK    2  A    between atoms: C4_4  and  C6_6 
REMARK    3  A    between atoms: C5_5  and  S7_7 
REMARK    4  A    between atoms: C6_6  and  S7_7 
ROOT
HETATM    1  S7  UNL     1     -33.565   7.135   6.358  1.00 20.00    -0.162 SA
ENDROOT
BRANCH   1   2
HETATM    2  C5  UNL     1     -33.801   7.999   4.782  1.00 20.00     0.100 C 
BRANCH   2   3
HETATM    3  C3  UNL     1     -32.494   8.144   4.073  1.00 20.00    -0.027 C 
HETATM    4  C1  UNL     1     -32.134   7.410   3.014  1.00 20.00     0.007 C 
ENDBRANCH   2   3
ENDBRANCH   1   2
BRANCH   1   5
HETATM    5  C6  UNL     1     -34.816   5.847   6.145  1.00 20.00     0.100 C 
BRANCH   5   6
HETATM    6  C4  UNL     1     -34.832   5.375   4.726  1.00 20.00    -0.027 C 
HETATM    7  C2  UNL     1     -34.025   4.422   4.248  1.00 20.00     0.007 C 
ENDBRANCH   5   6
ENDBRANCH   1   5
TORSDOF 4
ENDMDL
MODEL 8
REMARK VINA RESULT:      -3.8      1.844      3.485
REMARK  4 active torsions:
REMARK  status: ('A' for Active; 'I' for Inactive)
REMARK    1  A    between atoms: C3_3  and  C5_5 
REMARK    2  A    between atoms: C4_4  and  C6_6 
REMARK    3  A    between atoms: C5_5  and  S7_7 
REMARK    4  A    between atoms: C6_6  and  S7_7 
ROOT
HETATM    1  S7  UNL     1     -33.025   5.495   3.028  1.00 20.00    -0.162 SA
ENDROOT
BRANCH   1   2
HETATM    2  C5  UNL     1     -34.497   5.875   4.015  1.00 20.00     0.100 C 
BRANCH   2   3
HETATM    3  C3  UNL     1     -34.533   5.016   5.238  1.00 20.00    -0.027 C 
HETATM    4  C1  UNL     1     -34.540   5.495   6.487  1.00 20.00     0.007 C 
ENDBRANCH   2   3
ENDBRANCH   1   2
BRANCH   1   5
HETATM    5  C6  UNL     1     -32.286   7.145   3.007  1.00 20.00     0.100 C 
BRANCH   5   6
HETATM    6  C4  UNL     1     -32.988   8.036   3.980  1.00 20.00    -0.027 C 
HETATM    7  C2  UNL     1     -32.362   8.755   4.919  1.00 20.00     0.007 C 
ENDBRANCH   5   6
ENDBRANCH   1   5
TORSDOF 4
ENDMDL
MODEL 9
REMARK VINA RESULT:      -3.7      1.824      2.598
REMARK  4 active torsions:
REMARK  status: ('A' for Active; 'I' for Inactive)
REMARK    1  A    between atoms: C3_3  and  C5_5 
REMARK    2  A    between atoms: C4_4  and  C6_6 
REMARK    3  A    between atoms: C5_5  and  S7_7 
REMARK    4  A    between atoms: C6_6  and  S7_7 
ROOT
HETATM    1  S7  UNL     1     -33.068   5.464   3.035  1.00 20.00    -0.162 SA
ENDROOT
BRANCH   1   2
HETATM    2  C5  UNL     1     -32.303   7.107   3.085  1.00 20.00     0.100 C 
BRANCH   2   3
HETATM    3  C3  UNL     1     -32.965   7.952   4.126  1.00 20.00    -0.027 C 
HETATM    4  C1  UNL     1     -32.334   8.897   4.832  1.00 20.00     0.007 C 
ENDBRANCH   2   3
ENDBRANCH   1   2
BRANCH   1   5
HETATM    5  C6  UNL     1     -34.533   5.823   4.031  1.00 20.00     0.100 C 
BRANCH   5   6
HETATM    6  C4  UNL     1     -34.540   4.973   5.261  1.00 20.00    -0.027 C 
HETATM    7  C2  UNL     1     -34.521   5.464   6.506  1.00 20.00     0.007 C 
ENDBRANCH   5   6
ENDBRANCH   1   5
TORSDOF 4
ENDMDL
