MODEL 1
REMARK VINA RESULT:      -6.4      0.000      0.000
REMARK  0 active torsions:
REMARK  status: ('A' for Active; 'I' for Inactive)
ROOT
HETATM    1  C1  UNL     1     -34.739   5.625   6.278  1.00 20.00     0.001 A 
HETATM    2  C2  UNL     1     -34.631   4.916   5.080  1.00 20.00     0.003 A 
HETATM    3  C3  UNL     1     -34.148   6.888   6.425  1.00 20.00     0.014 A 
HETATM    4  C4  UNL     1     -33.931   5.438   3.988  1.00 20.00     0.038 A 
HETATM    5  C5  UNL     1     -32.724   8.633   5.093  1.00 20.00     0.039 A 
HETATM    6  C6  UNL     1     -32.258   8.549   3.802  1.00 20.00     0.143 A 
HETATM    7  C7  UNL     1     -33.440   7.432   5.340  1.00 20.00    -0.001 A 
HETATM    8  C8  UNL     1     -33.355   6.694   4.165  1.00 20.00     0.085 A 
HETATM    9  O9  UNL     1     -32.635   7.376   3.230  1.00 20.00    -0.322 OA
ENDROOT
TORSDOF 0
ENDMDL
MODEL 2
REMARK VINA RESULT:      -6.3      0.899      1.949
REMARK  0 active torsions:
REMARK  status: ('A' for Active; 'I' for Inactive)
ROOT
HETATM    1  C1  UNL     1     -34.607   4.925   4.971  1.00 20.00     0.001 A 
HETATM    2  C2  UNL     1     -34.742   5.597   6.188  1.00 20.00     0.003 A 
HETATM    3  C3  UNL     1     -33.873   5.484   3.915  1.00 20.00     0.014 A 
HETATM    4  C4  UNL     1     -34.153   6.848   6.395  1.00 20.00     0.038 A 
HETATM    5  C5  UNL     1     -32.479   7.614   3.313  1.00 20.00     0.039 A 
HETATM    6  C6  UNL     1     -32.210   8.710   4.100  1.00 20.00     0.143 A 
HETATM    7  C7  UNL     1     -33.272   6.740   4.101  1.00 20.00    -0.001 A 
HETATM    8  C8  UNL     1     -33.431   7.377   5.328  1.00 20.00     0.085 A 
HETATM    9  O9  UNL     1     -32.784   8.576   5.323  1.00 20.00    -0.322 OA
ENDROOT
TORSDOF 0
ENDMDL
MODEL 3
REMARK VINA RESULT:      -6.1      0.962      2.170
REMARK  0 active torsions:
REMARK  status: ('A' for Active; 'I' for Inactive)
ROOT
HETATM    1  C1  UNL     1     -34.824   5.364   5.970  1.00 20.00     0.001 A 
HETATM    2  C2  UNL     1     -34.460   6.607   6.490  1.00 20.00     0.003 A 
HETATM    3  C3  UNL     1     -34.392   4.957   4.699  1.00 20.00     0.014 A 
HETATM    4  C4  UNL     1     -33.653   7.489   5.764  1.00 20.00     0.038 A 
HETATM    5  C5  UNL     1     -32.958   5.793   2.677  1.00 20.00     0.039 A 
HETATM    6  C6  UNL     1     -32.289   6.987   2.539  1.00 20.00     0.143 A 
HETATM    7  C7  UNL     1     -33.580   5.827   3.952  1.00 20.00    -0.001 A 
HETATM    8  C8  UNL     1     -33.240   7.057   4.506  1.00 20.00     0.085 A 
HETATM    9  O9  UNL     1     -32.454   7.761   3.643  1.00 20.00    -0.322 OA
ENDROOT
TORSDOF 0
ENDMDL
MODEL 4
REMARK VINA RESULT:      -6.0      1.302      3.094
REMARK  0 active torsions:
REMARK  status: ('A' for Active; 'I' for Inactive)
ROOT
HETATM    1  C1  UNL     1     -32.305   8.485   3.946  1.00 20.00     0.001 A 
HETATM    2  C2  UNL     1     -32.281   7.500   2.956  1.00 20.00     0.003 A 
HETATM    3  C3  UNL     1     -32.998   8.283   5.149  1.00 20.00     0.014 A 
HETATM    4  C4  UNL     1     -32.945   6.282   3.127  1.00 20.00     0.038 A 
HETATM    5  C5  UNL     1     -34.459   6.493   6.376  1.00 20.00     0.039 A 
HETATM    6  C6  UNL     1     -34.832   5.245   5.934  1.00 20.00     0.143 A 
HETATM    7  C7  UNL     1     -33.673   7.066   5.343  1.00 20.00    -0.001 A 
HETATM    8  C8  UNL     1     -33.625   6.112   4.332  1.00 20.00     0.085 A 
HETATM    9  O9  UNL     1     -34.332   5.004   4.695  1.00 20.00    -0.322 OA
ENDROOT
TORSDOF 0
ENDMDL
MODEL 5
REMARK VINA RESULT:      -5.9      1.019      1.384
REMARK  0 active torsions:
REMARK  status: ('A' for Active; 'I' for Inactive)
ROOT
HETATM    1  C1  UNL     1     -34.356   6.833   6.476  1.00 20.00     0.001 A 
HETATM    2  C2  UNL     1     -34.773   5.611   5.944  1.00 20.00     0.003 A 
HETATM    3  C3  UNL     1     -33.509   7.685   5.752  1.00 20.00     0.014 A 
HETATM    4  C4  UNL     1     -34.361   5.194   4.675  1.00 20.00     0.038 A 
HETATM    5  C5  UNL     1     -32.257   7.838   3.460  1.00 20.00     0.039 A 
HETATM    6  C6  UNL     1     -32.246   6.926   2.429  1.00 20.00     0.143 A 
HETATM    7  C7  UNL     1     -33.083   7.286   4.474  1.00 20.00    -0.001 A 
HETATM    8  C8  UNL     1     -33.520   6.061   3.980  1.00 20.00     0.085 A 
HETATM    9  O9  UNL     1     -33.009   5.845   2.736  1.00 20.00    -0.322 OA
ENDROOT
TORSDOF 0
ENDMDL
MODEL 6
REMARK VINA RESULT:      -5.9      1.409      3.633
REMARK  0 active torsions:
REMARK  status: ('A' for Active; 'I' for Inactive)
ROOT
HETATM    1  C1  UNL     1     -32.283   7.524   3.016  1.00 20.00     0.001 A 
HETATM    2  C2  UNL     1     -32.304   8.492   4.023  1.00 20.00     0.003 A 
HETATM    3  C3  UNL     1     -32.977   6.315   3.161  1.00 20.00     0.014 A 
HETATM    4  C4  UNL     1     -33.015   8.289   5.210  1.00 20.00     0.038 A 
HETATM    5  C5  UNL     1     -34.502   5.039   4.862  1.00 20.00     0.039 A 
HETATM    6  C6  UNL     1     -34.929   5.450   6.103  1.00 20.00     0.143 A 
HETATM    7  C7  UNL     1     -33.699   6.089   4.345  1.00 20.00    -0.001 A 
HETATM    8  C8  UNL     1     -33.695   7.077   5.325  1.00 20.00     0.085 A 
HETATM    9  O9  UNL     1     -34.444   6.685   6.393  1.00 20.00    -0.322 OA
ENDROOT
TORSDOF 0
ENDMDL
MODEL 7
REMARK VINA RESULT:      -5.3      0.891      2.601
REMARK  0 active torsions:
REMARK  status: ('A' for Active; 'I' for Inactive)
ROOT
HETATM    1  C1  UNL     1     -34.367   7.066   6.470  1.00 20.00     0.001 A 
HETATM    2  C2  UNL     1     -33.588   8.108   5.963  1.00 20.00     0.003 A 
HETATM    3  C3  UNL     1     -34.521   5.867   5.759  1.00 20.00     0.014 A 
HETATM    4  C4  UNL     1     -32.938   7.995   4.731  1.00 20.00     0.038 A 
HETATM    5  C5  UNL     1     -33.782   4.719   3.527  1.00 20.00     0.039 A 
HETATM    6  C6  UNL     1     -32.976   5.224   2.532  1.00 20.00     0.143 A 
HETATM    7  C7  UNL     1     -33.875   5.731   4.518  1.00 20.00    -0.001 A 
HETATM    8  C8  UNL     1     -33.110   6.792   4.047  1.00 20.00     0.085 A 
HETATM    9  O9  UNL     1     -32.564   6.481   2.838  1.00 20.00    -0.322 OA
ENDROOT
TORSDOF 0
ENDMDL
MODEL 8
REMARK VINA RESULT:      -5.0      1.376      2.410
REMARK  0 active torsions:
REMARK  status: ('A' for Active; 'I' for Inactive)
ROOT
HETATM    1  C1  UNL     1     -32.993   5.265   2.614  1.00 20.00     0.001 A 
HETATM    2  C2  UNL     1     -33.944   4.833   3.541  1.00 20.00     0.003 A 
HETATM    3  C3  UNL     1     -32.374   6.516   2.742  1.00 20.00     0.014 A 
HETATM    4  C4  UNL     1     -34.313   5.633   4.627  1.00 20.00     0.038 A 
HETATM    5  C5  UNL     1     -32.351   8.621   4.296  1.00 20.00     0.039 A 
HETATM    6  C6  UNL     1     -33.086   8.850   5.437  1.00 20.00     0.143 A 
HETATM    7  C7  UNL     1     -32.729   7.336   3.827  1.00 20.00    -0.001 A 
HETATM    8  C8  UNL     1     -33.681   6.871   4.728  1.00 20.00     0.085 A 
HETATM    9  O9  UNL     1     -33.896   7.794   5.706  1.00 20.00    -0.322 OA
ENDROOT
TORSDOF 0
ENDMDL
MODEL 9
REMARK VINA RESULT:      -4.0     16.032     16.869
REMARK  0 active torsions:
REMARK  status: ('A' for Active; 'I' for Inactive)
ROOT
HETATM    1  C1  UNL     1     -21.702  18.625   8.505  1.00 20.00     0.001 A 
HETATM    2  C2  UNL     1     -22.973  18.891   7.991  1.00 20.00     0.003 A 
HETATM    3  C3  UNL     1     -21.507  18.409   9.877  1.00 20.00     0.014 A 
HETATM    4  C4  UNL     1     -24.094  18.953   8.824  1.00 20.00     0.038 A 
HETATM    5  C5  UNL     1     -22.839  18.313  12.127  1.00 20.00     0.039 A 
HETATM    6  C6  UNL     1     -24.187  18.494  12.331  1.00 20.00     0.143 A 
HETATM    7  C7  UNL     1     -22.620  18.467  10.733  1.00 20.00    -0.001 A 
HETATM    8  C8  UNL     1     -23.869  18.735  10.182  1.00 20.00     0.085 A 
HETATM    9  O9  UNL     1     -24.821  18.752  11.157  1.00 20.00    -0.322 OA
ENDROOT
TORSDOF 0
ENDMDL
