MODEL 1
REMARK VINA RESULT:      -5.7      0.000      0.000
REMARK  1 active torsions:
REMARK  status: ('A' for Active; 'I' for Inactive)
REMARK    1  A    between atoms: C6_6  and  C9_9 
ROOT
HETATM    1  C1  UNL     1     -34.735   5.260   5.923  1.00 20.00     0.001 A 
HETATM    2  C2  UNL     1     -34.344   4.703   4.704  1.00 20.00     0.007 A 
HETATM    3  C3  UNL     1     -34.397   6.578   6.228  1.00 20.00     0.007 A 
HETATM    4  C4  UNL     1     -33.278   6.784   4.097  1.00 20.00     0.013 A 
HETATM    5  C5  UNL     1     -33.616   5.466   3.792  1.00 20.00    -0.061 A 
HETATM    6  C6  UNL     1     -33.669   7.340   5.315  1.00 20.00    -0.058 A 
HETATM    7  C7  UNL     1     -33.200   4.870   2.488  1.00 20.00     0.048 C 
ENDROOT
BRANCH   6   8
HETATM    8  C9  UNL     1     -33.306   8.750   5.642  1.00 20.00     0.034 C 
HETATM    9  C8  UNL     1     -32.145   9.262   4.793  1.00 20.00     0.010 C 
ENDBRANCH   6   8
TORSDOF 1
ENDMDL
MODEL 2
REMARK VINA RESULT:      -5.6      1.066      3.717
REMARK  1 active torsions:
REMARK  status: ('A' for Active; 'I' for Inactive)
REMARK    1  A    between atoms: C6_6  and  C9_9 
ROOT
HETATM    1  C1  UNL     1     -32.480   6.303   2.542  1.00 20.00     0.001 A 
HETATM    2  C2  UNL     1     -32.071   7.534   3.056  1.00 20.00     0.007 A 
HETATM    3  C3  UNL     1     -33.435   5.546   3.221  1.00 20.00     0.007 A 
HETATM    4  C4  UNL     1     -33.571   7.250   4.928  1.00 20.00     0.013 A 
HETATM    5  C5  UNL     1     -32.617   8.007   4.249  1.00 20.00    -0.061 A 
HETATM    6  C6  UNL     1     -33.980   6.020   4.414  1.00 20.00    -0.058 A 
HETATM    7  C7  UNL     1     -32.180   9.325   4.797  1.00 20.00     0.048 C 
ENDROOT
BRANCH   6   8
HETATM    8  C9  UNL     1     -35.000   5.210   5.141  1.00 20.00     0.034 C 
HETATM    9  C8  UNL     1     -34.800   5.248   6.654  1.00 20.00     0.010 C 
ENDBRANCH   6   8
TORSDOF 1
ENDMDL
MODEL 3
REMARK VINA RESULT:      -5.5      1.002      2.910
REMARK  1 active torsions:
REMARK  status: ('A' for Active; 'I' for Inactive)
REMARK    1  A    between atoms: C6_6  and  C9_9 
ROOT
HETATM    1  C1  UNL     1     -32.242   8.446   3.770  1.00 20.00     0.001 A 
HETATM    2  C2  UNL     1     -32.213   7.418   2.828  1.00 20.00     0.007 A 
HETATM    3  C3  UNL     1     -32.942   8.279   4.964  1.00 20.00     0.007 A 
HETATM    4  C4  UNL     1     -33.586   6.055   4.275  1.00 20.00     0.013 A 
HETATM    5  C5  UNL     1     -32.885   6.222   3.080  1.00 20.00    -0.061 A 
HETATM    6  C6  UNL     1     -33.614   7.084   5.217  1.00 20.00    -0.058 A 
HETATM    7  C7  UNL     1     -32.853   5.122   2.073  1.00 20.00     0.048 C 
ENDROOT
BRANCH   6   8
HETATM    8  C9  UNL     1     -34.364   6.905   6.494  1.00 20.00     0.034 C 
HETATM    9  C8  UNL     1     -34.825   5.464   6.699  1.00 20.00     0.010 C 
ENDBRANCH   6   8
TORSDOF 1
ENDMDL
MODEL 4
REMARK VINA RESULT:      -5.2      1.617      2.998
REMARK  1 active torsions:
REMARK  status: ('A' for Active; 'I' for Inactive)
REMARK    1  A    between atoms: C6_6  and  C9_9 
ROOT
HETATM    1  C1  UNL     1     -33.091   8.436   5.526  1.00 20.00     0.001 A 
HETATM    2  C2  UNL     1     -33.854   7.332   5.908  1.00 20.00     0.007 A 
HETATM    3  C3  UNL     1     -32.496   8.470   4.265  1.00 20.00     0.007 A 
HETATM    4  C4  UNL     1     -33.427   6.297   3.767  1.00 20.00     0.013 A 
HETATM    5  C5  UNL     1     -34.022   6.263   5.028  1.00 20.00    -0.061 A 
HETATM    6  C6  UNL     1     -32.664   7.401   3.386  1.00 20.00    -0.058 A 
HETATM    7  C7  UNL     1     -34.840   5.084   5.436  1.00 20.00     0.048 C 
ENDROOT
BRANCH   6   8
HETATM    8  C9  UNL     1     -32.027   7.437   2.038  1.00 20.00     0.034 C 
HETATM    9  C8  UNL     1     -32.434   8.671   1.236  1.00 20.00     0.010 C 
ENDBRANCH   6   8
TORSDOF 1
ENDMDL
MODEL 5
REMARK VINA RESULT:      -5.2      0.664      3.338
REMARK  1 active torsions:
REMARK  status: ('A' for Active; 'I' for Inactive)
REMARK    1  A    between atoms: C6_6  and  C9_9 
ROOT
HETATM    1  C1  UNL     1     -34.593   6.459   6.576  1.00 20.00     0.001 A 
HETATM    2  C2  UNL     1     -33.890   7.648   6.377  1.00 20.00     0.007 A 
HETATM    3  C3  UNL     1     -34.604   5.480   5.583  1.00 20.00     0.007 A 
HETATM    4  C4  UNL     1     -33.209   6.877   4.191  1.00 20.00     0.013 A 
HETATM    5  C5  UNL     1     -33.199   7.856   5.184  1.00 20.00    -0.061 A 
HETATM    6  C6  UNL     1     -33.912   5.689   4.390  1.00 20.00    -0.058 A 
HETATM    7  C7  UNL     1     -32.446   9.127   4.972  1.00 20.00     0.048 C 
ENDROOT
BRANCH   6   8
HETATM    8  C9  UNL     1     -33.925   4.642   3.328  1.00 20.00     0.034 C 
HETATM    9  C8  UNL     1     -32.847   4.875   2.271  1.00 20.00     0.010 C 
ENDBRANCH   6   8
TORSDOF 1
ENDMDL
MODEL 6
REMARK VINA RESULT:      -5.2      0.877      2.472
REMARK  1 active torsions:
REMARK  status: ('A' for Active; 'I' for Inactive)
REMARK    1  A    between atoms: C6_6  and  C9_9 
ROOT
HETATM    1  C1  UNL     1     -33.316   4.985   2.973  1.00 20.00     0.001 A 
HETATM    2  C2  UNL     1     -34.040   4.686   4.128  1.00 20.00     0.007 A 
HETATM    3  C3  UNL     1     -32.779   6.260   2.797  1.00 20.00     0.007 A 
HETATM    4  C4  UNL     1     -33.690   6.938   4.929  1.00 20.00     0.013 A 
HETATM    5  C5  UNL     1     -34.227   5.663   5.106  1.00 20.00    -0.061 A 
HETATM    6  C6  UNL     1     -32.966   7.237   3.775  1.00 20.00    -0.058 A 
HETATM    7  C7  UNL     1     -35.000   5.342   6.341  1.00 20.00     0.048 C 
ENDROOT
BRANCH   6   8
HETATM    8  C9  UNL     1     -32.393   8.600   3.586  1.00 20.00     0.034 C 
HETATM    9  C8  UNL     1     -32.127   9.307   4.914  1.00 20.00     0.010 C 
ENDBRANCH   6   8
TORSDOF 1
ENDMDL
MODEL 7
REMARK VINA RESULT:      -5.2      1.301      3.315
REMARK  1 active torsions:
REMARK  status: ('A' for Active; 'I' for Inactive)
REMARK    1  A    between atoms: C6_6  and  C9_9 
ROOT
HETATM    1  C1  UNL     1     -32.846   8.645   5.228  1.00 20.00     0.001 A 
HETATM    2  C2  UNL     1     -32.313   8.749   3.943  1.00 20.00     0.007 A 
HETATM    3  C3  UNL     1     -33.597   7.525   5.583  1.00 20.00     0.007 A 
HETATM    4  C4  UNL     1     -33.281   6.612   3.369  1.00 20.00     0.013 A 
HETATM    5  C5  UNL     1     -32.530   7.732   3.014  1.00 20.00    -0.061 A 
HETATM    6  C6  UNL     1     -33.814   6.508   4.654  1.00 20.00    -0.058 A 
HETATM    7  C7  UNL     1     -31.957   7.844   1.641  1.00 20.00     0.048 C 
ENDROOT
BRANCH   6   8
HETATM    8  C9  UNL     1     -34.617   5.310   5.033  1.00 20.00     0.034 C 
HETATM    9  C8  UNL     1     -34.735   5.145   6.546  1.00 20.00     0.010 C 
ENDBRANCH   6   8
TORSDOF 1
ENDMDL
MODEL 8
REMARK VINA RESULT:      -4.7      0.971      3.570
REMARK  1 active torsions:
REMARK  status: ('A' for Active; 'I' for Inactive)
REMARK    1  A    between atoms: C6_6  and  C9_9 
ROOT
HETATM    1  C1  UNL     1     -32.896   8.668   5.224  1.00 20.00     0.001 A 
HETATM    2  C2  UNL     1     -33.697   7.907   6.075  1.00 20.00     0.007 A 
HETATM    3  C3  UNL     1     -32.501   8.151   3.990  1.00 20.00     0.007 A 
HETATM    4  C4  UNL     1     -33.710   6.113   4.458  1.00 20.00     0.013 A 
HETATM    5  C5  UNL     1     -34.105   6.630   5.692  1.00 20.00    -0.061 A 
HETATM    6  C6  UNL     1     -32.908   6.874   3.607  1.00 20.00    -0.058 A 
HETATM    7  C7  UNL     1     -34.963   5.817   6.602  1.00 20.00     0.048 C 
ENDROOT
BRANCH   6   8
HETATM    8  C9  UNL     1     -32.486   6.321   2.288  1.00 20.00     0.034 C 
HETATM    9  C8  UNL     1     -32.901   4.862   2.111  1.00 20.00     0.010 C 
ENDBRANCH   6   8
TORSDOF 1
ENDMDL
MODEL 9
REMARK VINA RESULT:      -4.0     12.462     13.273
REMARK  1 active torsions:
REMARK  status: ('A' for Active; 'I' for Inactive)
REMARK    1  A    between atoms: C6_6  and  C9_9 
ROOT
HETATM    1  C1  UNL     1     -34.106  18.498   0.707  1.00 20.00     0.001 A 
HETATM    2  C2  UNL     1     -32.908  18.848   1.331  1.00 20.00     0.007 A 
HETATM    3  C3  UNL     1     -34.107  18.114  -0.634  1.00 20.00     0.007 A 
HETATM    4  C4  UNL     1     -31.714  18.430  -0.727  1.00 20.00     0.013 A 
HETATM    5  C5  UNL     1     -31.713  18.814   0.614  1.00 20.00    -0.061 A 
HETATM    6  C6  UNL     1     -32.912  18.079  -1.351  1.00 20.00    -0.058 A 
HETATM    7  C7  UNL     1     -30.432  19.187   1.282  1.00 20.00     0.048 C 
ENDROOT
BRANCH   6   8
HETATM    8  C9  UNL     1     -32.914  17.670  -2.785  1.00 20.00     0.034 C 
HETATM    9  C8  UNL     1     -33.401  16.235  -2.978  1.00 20.00     0.010 C 
ENDBRANCH   6   8
TORSDOF 1
ENDMDL
