MODEL 1
REMARK VINA RESULT:      -5.0      0.000      0.000
REMARK  1 active torsions:
REMARK  status: ('A' for Active; 'I' for Inactive)
REMARK    1  A    between atoms: C6_6  and  N9_9 
ROOT
HETATM    1  N8  UNL     1     -32.826   9.515   0.702  1.00 20.00     0.068 N 
HETATM    2  N9  UNL     1     -31.810   7.666   1.828  1.00 20.00    -0.073 NA
HETATM    3  N10 UNL     1     -32.344   8.632   1.242  1.00 20.00    -0.162 NA
ENDROOT
BRANCH   2   4
HETATM    4  C6  UNL     1     -32.544   7.231   2.937  1.00 20.00     0.093 A 
HETATM    5  C3  UNL     1     -32.667   8.053   4.058  1.00 20.00     0.035 A 
HETATM    6  C1  UNL     1     -33.399   7.619   5.162  1.00 20.00     0.009 A 
HETATM    7  C5  UNL     1     -34.008   6.364   5.148  1.00 20.00    -0.062 A 
HETATM    8  C2  UNL     1     -33.885   5.542   4.027  1.00 20.00     0.009 A 
HETATM    9  C7  UNL     1     -34.791   5.901   6.329  1.00 20.00     0.048 C 
HETATM   10  C4  UNL     1     -33.152   5.976   2.922  1.00 20.00     0.035 A 
ENDBRANCH   2   4
TORSDOF 1
ENDMDL
MODEL 2
REMARK VINA RESULT:      -4.0     15.035     15.727
REMARK  1 active torsions:
REMARK  status: ('A' for Active; 'I' for Inactive)
REMARK    1  A    between atoms: C6_6  and  N9_9 
ROOT
HETATM    1  N8  UNL     1     -26.551  19.148   6.378  1.00 20.00     0.068 N 
HETATM    2  N9  UNL     1     -24.219  19.262   6.899  1.00 20.00    -0.073 NA
HETATM    3  N10 UNL     1     -25.439  19.202   6.630  1.00 20.00    -0.162 NA
ENDROOT
BRANCH   2   4
HETATM    4  C6  UNL     1     -23.938  18.923   8.226  1.00 20.00     0.093 A 
HETATM    5  C3  UNL     1     -22.640  18.566   8.594  1.00 20.00     0.035 A 
HETATM    6  C1  UNL     1     -22.360  18.228   9.917  1.00 20.00     0.009 A 
HETATM    7  C5  UNL     1     -23.375  18.246  10.873  1.00 20.00    -0.062 A 
HETATM    8  C2  UNL     1     -24.673  18.603  10.505  1.00 20.00     0.009 A 
HETATM    9  C7  UNL     1     -23.075  17.884  12.288  1.00 20.00     0.048 C 
HETATM   10  C4  UNL     1     -24.954  18.940   9.181  1.00 20.00     0.035 A 
ENDBRANCH   2   4
TORSDOF 1
ENDMDL
MODEL 3
REMARK VINA RESULT:      -4.0      3.168      4.599
REMARK  1 active torsions:
REMARK  status: ('A' for Active; 'I' for Inactive)
REMARK    1  A    between atoms: C6_6  and  N9_9 
ROOT
HETATM    1  N8  UNL     1     -34.805   5.016   6.416  1.00 20.00     0.068 N 
HETATM    2  N9  UNL     1     -33.657   7.105   6.227  1.00 20.00    -0.073 NA
HETATM    3  N10 UNL     1     -34.256   6.012   6.322  1.00 20.00    -0.162 NA
ENDROOT
BRANCH   2   4
HETATM    4  C6  UNL     1     -33.226   7.376   4.924  1.00 20.00     0.093 A 
HETATM    5  C3  UNL     1     -33.164   6.348   3.982  1.00 20.00     0.035 A 
HETATM    6  C1  UNL     1     -32.735   6.619   2.683  1.00 20.00     0.009 A 
HETATM    7  C5  UNL     1     -32.368   7.916   2.325  1.00 20.00    -0.062 A 
HETATM    8  C2  UNL     1     -32.430   8.944   3.267  1.00 20.00     0.009 A 
HETATM    9  C7  UNL     1     -31.908   8.205   0.936  1.00 20.00     0.048 C 
HETATM   10  C4  UNL     1     -32.858   8.673   4.567  1.00 20.00     0.035 A 
ENDBRANCH   2   4
TORSDOF 1
ENDMDL
MODEL 4
REMARK VINA RESULT:      -4.0      3.169      4.348
REMARK  1 active torsions:
REMARK  status: ('A' for Active; 'I' for Inactive)
REMARK    1  A    between atoms: C6_6  and  N9_9 
ROOT
HETATM    1  N8  UNL     1     -34.793   5.010   6.406  1.00 20.00     0.068 N 
HETATM    2  N9  UNL     1     -33.664   7.111   6.224  1.00 20.00    -0.073 NA
HETATM    3  N10 UNL     1     -34.253   6.012   6.315  1.00 20.00    -0.162 NA
ENDROOT
BRANCH   2   4
HETATM    4  C6  UNL     1     -33.233   7.388   4.923  1.00 20.00     0.093 A 
HETATM    5  C3  UNL     1     -32.887   8.693   4.566  1.00 20.00     0.035 A 
HETATM    6  C1  UNL     1     -32.456   8.969   3.270  1.00 20.00     0.009 A 
HETATM    7  C5  UNL     1     -32.369   7.943   2.328  1.00 20.00    -0.062 A 
HETATM    8  C2  UNL     1     -32.715   6.639   2.685  1.00 20.00     0.009 A 
HETATM    9  C7  UNL     1     -31.909   8.239   0.942  1.00 20.00     0.048 C 
HETATM   10  C4  UNL     1     -33.147   6.363   3.983  1.00 20.00     0.035 A 
ENDBRANCH   2   4
TORSDOF 1
ENDMDL
MODEL 5
REMARK VINA RESULT:      -4.0     11.340     11.789
REMARK  1 active torsions:
REMARK  status: ('A' for Active; 'I' for Inactive)
REMARK    1  A    between atoms: C6_6  and  N9_9 
ROOT
HETATM    1  N8  UNL     1     -33.301  15.897  -3.371  1.00 20.00     0.068 N 
HETATM    2  N9  UNL     1     -34.054  17.805  -2.141  1.00 20.00    -0.073 NA
HETATM    3  N10 UNL     1     -33.658  16.807  -2.781  1.00 20.00    -0.162 NA
ENDROOT
BRANCH   2   4
HETATM    4  C6  UNL     1     -33.253  18.090  -1.031  1.00 20.00     0.093 A 
HETATM    5  C3  UNL     1     -33.828  18.187   0.237  1.00 20.00     0.035 A 
HETATM    6  C1  UNL     1     -33.029  18.470   1.344  1.00 20.00     0.009 A 
HETATM    7  C5  UNL     1     -31.656  18.658   1.186  1.00 20.00    -0.062 A 
HETATM    8  C2  UNL     1     -31.082  18.562  -0.082  1.00 20.00     0.009 A 
HETATM    9  C7  UNL     1     -30.803  18.961   2.370  1.00 20.00     0.048 C 
HETATM   10  C4  UNL     1     -31.881  18.279  -1.190  1.00 20.00     0.035 A 
ENDBRANCH   2   4
TORSDOF 1
ENDMDL
MODEL 6
REMARK VINA RESULT:      -3.8     11.482     12.327
REMARK  1 active torsions:
REMARK  status: ('A' for Active; 'I' for Inactive)
REMARK    1  A    between atoms: C6_6  and  N9_9 
ROOT
HETATM    1  N8  UNL     1     -35.904  14.583  -5.850  1.00 20.00     0.068 N 
HETATM    2  N9  UNL     1     -34.755  16.670  -5.650  1.00 20.00    -0.073 NA
HETATM    3  N10 UNL     1     -35.356  15.579  -5.751  1.00 20.00    -0.162 NA
ENDROOT
BRANCH   2   4
HETATM    4  C6  UNL     1     -34.485  17.021  -4.323  1.00 20.00     0.093 A 
HETATM    5  C3  UNL     1     -33.583  16.266  -3.572  1.00 20.00     0.035 A 
HETATM    6  C1  UNL     1     -33.313  16.616  -2.249  1.00 20.00     0.009 A 
HETATM    7  C5  UNL     1     -33.945  17.720  -1.676  1.00 20.00    -0.062 A 
HETATM    8  C2  UNL     1     -34.846  18.475  -2.428  1.00 20.00     0.009 A 
HETATM    9  C7  UNL     1     -33.657  18.094  -0.262  1.00 20.00     0.048 C 
HETATM   10  C4  UNL     1     -35.116  18.124  -3.751  1.00 20.00     0.035 A 
ENDBRANCH   2   4
TORSDOF 1
ENDMDL
MODEL 7
REMARK VINA RESULT:      -3.8     11.439     12.251
REMARK  1 active torsions:
REMARK  status: ('A' for Active; 'I' for Inactive)
REMARK    1  A    between atoms: C6_6  and  N9_9 
ROOT
HETATM    1  N8  UNL     1     -35.838  14.491  -5.811  1.00 20.00     0.068 N 
HETATM    2  N9  UNL     1     -34.792  16.634  -5.631  1.00 20.00    -0.073 NA
HETATM    3  N10 UNL     1     -35.339  15.514  -5.721  1.00 20.00    -0.162 NA
ENDROOT
BRANCH   2   4
HETATM    4  C6  UNL     1     -34.503  16.993  -4.311  1.00 20.00     0.093 A 
HETATM    5  C3  UNL     1     -35.119  18.107  -3.739  1.00 20.00     0.035 A 
HETATM    6  C1  UNL     1     -34.832  18.463  -2.422  1.00 20.00     0.009 A 
HETATM    7  C5  UNL     1     -33.928  17.707  -1.675  1.00 20.00    -0.062 A 
HETATM    8  C2  UNL     1     -33.312  16.593  -2.246  1.00 20.00     0.009 A 
HETATM    9  C7  UNL     1     -33.620  18.089  -0.267  1.00 20.00     0.048 C 
HETATM   10  C4  UNL     1     -33.600  16.237  -3.564  1.00 20.00     0.035 A 
ENDBRANCH   2   4
TORSDOF 1
ENDMDL
MODEL 8
REMARK VINA RESULT:      -3.8     11.516     12.556
REMARK  1 active torsions:
REMARK  status: ('A' for Active; 'I' for Inactive)
REMARK    1  A    between atoms: C6_6  and  N9_9 
ROOT
HETATM    1  N8  UNL     1     -36.299  15.227  -7.918  1.00 20.00     0.068 N 
HETATM    2  N9  UNL     1     -34.165  14.924  -6.882  1.00 20.00    -0.073 NA
HETATM    3  N10 UNL     1     -35.281  15.085  -7.421  1.00 20.00    -0.162 NA
ENDROOT
BRANCH   2   4
HETATM    4  C6  UNL     1     -34.052  15.587  -5.656  1.00 20.00     0.093 A 
HETATM    5  C3  UNL     1     -33.461  14.944  -4.567  1.00 20.00     0.035 A 
HETATM    6  C1  UNL     1     -33.349  15.606  -3.345  1.00 20.00     0.009 A 
HETATM    7  C5  UNL     1     -33.827  16.909  -3.210  1.00 20.00    -0.062 A 
HETATM    8  C2  UNL     1     -34.418  17.552  -4.299  1.00 20.00     0.009 A 
HETATM    9  C7  UNL     1     -33.707  17.617  -1.903  1.00 20.00     0.048 C 
HETATM   10  C4  UNL     1     -34.531  16.889  -5.521  1.00 20.00     0.035 A 
ENDBRANCH   2   4
TORSDOF 1
ENDMDL
MODEL 9
REMARK VINA RESULT:      -3.8     15.971     16.762
REMARK  1 active torsions:
REMARK  status: ('A' for Active; 'I' for Inactive)
REMARK    1  A    between atoms: C6_6  and  N9_9 
ROOT
HETATM    1  N8  UNL     1     -26.345  17.383  12.332  1.00 20.00     0.068 N 
HETATM    2  N9  UNL     1     -24.449  18.836  12.212  1.00 20.00    -0.073 NA
HETATM    3  N10 UNL     1     -25.439  18.075  12.272  1.00 20.00    -0.162 NA
ENDROOT
BRANCH   2   4
HETATM    4  C6  UNL     1     -23.708  18.673  11.037  1.00 20.00     0.093 A 
HETATM    5  C3  UNL     1     -22.362  18.311  11.106  1.00 20.00     0.035 A 
HETATM    6  C1  UNL     1     -21.625  18.148   9.934  1.00 20.00     0.009 A 
HETATM    7  C5  UNL     1     -22.231  18.346   8.693  1.00 20.00    -0.062 A 
HETATM    8  C2  UNL     1     -23.577  18.708   8.625  1.00 20.00     0.009 A 
HETATM    9  C7  UNL     1     -21.441  18.172   7.440  1.00 20.00     0.048 C 
HETATM   10  C4  UNL     1     -24.315  18.872   9.797  1.00 20.00     0.035 A 
ENDBRANCH   2   4
TORSDOF 1
ENDMDL
