MODEL 1
REMARK VINA RESULT:      -5.0      0.000      0.000
REMARK  0 active torsions:
REMARK  status: ('A' for Active; 'I' for Inactive)
ROOT
HETATM    1  C1  UNL     1     -34.840   5.252   6.049  1.00 20.00     0.000 A 
HETATM    2  C2  UNL     1     -34.544   4.931   4.724  1.00 20.00     0.001 A 
HETATM    3  C3  UNL     1     -34.408   6.465   6.586  1.00 20.00     0.001 A 
HETATM    4  C4  UNL     1     -33.818   5.823   3.935  1.00 20.00     0.018 A 
HETATM    5  C5  UNL     1     -33.682   7.357   5.797  1.00 20.00     0.018 A 
HETATM    6  C6  UNL     1     -33.386   7.037   4.473  1.00 20.00     0.006 A 
HETATM    7  I7  UNL     1     -32.304   8.365   3.299  1.00 20.00    -0.045 I 
ENDROOT
TORSDOF 0
ENDMDL
MODEL 2
REMARK VINA RESULT:      -5.0      0.004      1.826
REMARK  0 active torsions:
REMARK  status: ('A' for Active; 'I' for Inactive)
ROOT
HETATM    1  C1  UNL     1     -34.842   5.252   6.052  1.00 20.00     0.000 A 
HETATM    2  C2  UNL     1     -34.409   6.466   6.586  1.00 20.00     0.001 A 
HETATM    3  C3  UNL     1     -34.547   4.930   4.727  1.00 20.00     0.001 A 
HETATM    4  C4  UNL     1     -33.682   7.357   5.797  1.00 20.00     0.018 A 
HETATM    5  C5  UNL     1     -33.818   5.820   3.938  1.00 20.00     0.018 A 
HETATM    6  C6  UNL     1     -33.387   7.033   4.473  1.00 20.00     0.006 A 
HETATM    7  I7  UNL     1     -32.303   8.359   3.297  1.00 20.00    -0.045 I 
ENDROOT
TORSDOF 0
ENDMDL
MODEL 3
REMARK VINA RESULT:      -4.2      2.300      3.320
REMARK  0 active torsions:
REMARK  status: ('A' for Active; 'I' for Inactive)
ROOT
HETATM    1  C1  UNL     1     -32.047   8.357   3.105  1.00 20.00     0.000 A 
HETATM    2  C2  UNL     1     -32.380   7.076   2.664  1.00 20.00     0.001 A 
HETATM    3  C3  UNL     1     -32.484   8.799   4.355  1.00 20.00     0.001 A 
HETATM    4  C4  UNL     1     -33.147   6.237   3.471  1.00 20.00     0.018 A 
HETATM    5  C5  UNL     1     -33.251   7.959   5.162  1.00 20.00     0.018 A 
HETATM    6  C6  UNL     1     -33.583   6.679   4.720  1.00 20.00     0.006 A 
HETATM    7  I7  UNL     1     -34.726   5.429   5.923  1.00 20.00    -0.045 I 
ENDROOT
TORSDOF 0
ENDMDL
MODEL 4
REMARK VINA RESULT:      -4.2      2.297      3.780
REMARK  0 active torsions:
REMARK  status: ('A' for Active; 'I' for Inactive)
ROOT
HETATM    1  C1  UNL     1     -32.066   8.362   3.112  1.00 20.00     0.000 A 
HETATM    2  C2  UNL     1     -32.490   8.822   4.359  1.00 20.00     0.001 A 
HETATM    3  C3  UNL     1     -32.399   7.073   2.696  1.00 20.00     0.001 A 
HETATM    4  C4  UNL     1     -33.247   7.995   5.189  1.00 20.00     0.018 A 
HETATM    5  C5  UNL     1     -33.157   6.246   3.525  1.00 20.00     0.018 A 
HETATM    6  C6  UNL     1     -33.580   6.706   4.771  1.00 20.00     0.006 A 
HETATM    7  I7  UNL     1     -34.707   5.474   6.005  1.00 20.00    -0.045 I 
ENDROOT
TORSDOF 0
ENDMDL
MODEL 5
REMARK VINA RESULT:      -3.9      1.350      1.934
REMARK  0 active torsions:
REMARK  status: ('A' for Active; 'I' for Inactive)
ROOT
HETATM    1  C1  UNL     1     -34.409   6.859   6.632  1.00 20.00     0.000 A 
HETATM    2  C2  UNL     1     -34.752   5.558   6.265  1.00 20.00     0.001 A 
HETATM    3  C3  UNL     1     -33.700   7.669   5.744  1.00 20.00     0.001 A 
HETATM    4  C4  UNL     1     -34.387   5.066   5.011  1.00 20.00     0.018 A 
HETATM    5  C5  UNL     1     -33.336   7.178   4.490  1.00 20.00     0.018 A 
HETATM    6  C6  UNL     1     -33.679   5.877   4.124  1.00 20.00     0.006 A 
HETATM    7  I7  UNL     1     -33.136   5.146   2.257  1.00 20.00    -0.045 I 
ENDROOT
TORSDOF 0
ENDMDL
MODEL 6
REMARK VINA RESULT:      -3.9      1.346      2.261
REMARK  0 active torsions:
REMARK  status: ('A' for Active; 'I' for Inactive)
ROOT
HETATM    1  C1  UNL     1     -34.411   6.852   6.633  1.00 20.00     0.000 A 
HETATM    2  C2  UNL     1     -33.699   7.664   5.749  1.00 20.00     0.001 A 
HETATM    3  C3  UNL     1     -34.756   5.553   6.260  1.00 20.00     0.001 A 
HETATM    4  C4  UNL     1     -33.332   7.177   4.495  1.00 20.00     0.018 A 
HETATM    5  C5  UNL     1     -34.388   5.066   5.006  1.00 20.00     0.018 A 
HETATM    6  C6  UNL     1     -33.677   5.877   4.124  1.00 20.00     0.006 A 
HETATM    7  I7  UNL     1     -33.130   5.152   2.256  1.00 20.00    -0.045 I 
ENDROOT
TORSDOF 0
ENDMDL
MODEL 7
REMARK VINA RESULT:      -3.4     16.263     16.987
REMARK  0 active torsions:
REMARK  status: ('A' for Active; 'I' for Inactive)
ROOT
HETATM    1  C1  UNL     1     -24.345  18.557  12.234  1.00 20.00     0.000 A 
HETATM    2  C2  UNL     1     -24.959  18.489  10.983  1.00 20.00     0.001 A 
HETATM    3  C3  UNL     1     -22.955  18.504  12.332  1.00 20.00     0.001 A 
HETATM    4  C4  UNL     1     -24.183  18.367   9.830  1.00 20.00     0.018 A 
HETATM    5  C5  UNL     1     -22.179  18.384  11.179  1.00 20.00     0.018 A 
HETATM    6  C6  UNL     1     -22.792  18.315   9.929  1.00 20.00     0.006 A 
HETATM    7  I7  UNL     1     -21.636  18.135   8.213  1.00 20.00    -0.045 I 
ENDROOT
TORSDOF 0
ENDMDL
MODEL 8
REMARK VINA RESULT:      -3.3     12.804     13.241
REMARK  0 active torsions:
REMARK  status: ('A' for Active; 'I' for Inactive)
ROOT
HETATM    1  C1  UNL     1     -33.665  17.962  -1.027  1.00 20.00     0.000 A 
HETATM    2  C2  UNL     1     -34.021  18.157   0.307  1.00 20.00     0.001 A 
HETATM    3  C3  UNL     1     -32.340  18.141  -1.428  1.00 20.00     0.001 A 
HETATM    4  C4  UNL     1     -33.055  18.530   1.241  1.00 20.00     0.018 A 
HETATM    5  C5  UNL     1     -31.374  18.513  -0.494  1.00 20.00     0.018 A 
HETATM    6  C6  UNL     1     -31.730  18.708   0.840  1.00 20.00     0.006 A 
HETATM    7  I7  UNL     1     -30.291  19.263   2.230  1.00 20.00    -0.045 I 
ENDROOT
TORSDOF 0
ENDMDL
MODEL 9
REMARK VINA RESULT:      -3.3     15.535     15.954
REMARK  0 active torsions:
REMARK  status: ('A' for Active; 'I' for Inactive)
ROOT
HETATM    1  C1  UNL     1     -25.282  17.030  12.323  1.00 20.00     0.000 A 
HETATM    2  C2  UNL     1     -24.290  16.375  11.592  1.00 20.00     0.001 A 
HETATM    3  C3  UNL     1     -25.664  18.325  11.973  1.00 20.00     0.001 A 
HETATM    4  C4  UNL     1     -23.680  17.014  10.513  1.00 20.00     0.018 A 
HETATM    5  C5  UNL     1     -25.054  18.964  10.894  1.00 20.00     0.018 A 
HETATM    6  C6  UNL     1     -24.063  18.310  10.164  1.00 20.00     0.006 A 
HETATM    7  I7  UNL     1     -23.155  19.263   8.557  1.00 20.00    -0.045 I 
ENDROOT
TORSDOF 0
ENDMDL
