MODEL 1
REMARK VINA RESULT:      -5.8      0.000      0.000
REMARK  2 active torsions:
REMARK  status: ('A' for Active; 'I' for Inactive)
REMARK    1  A    between atoms: C6_6  and  C10_10 
REMARK    2  A    between atoms: C9_9  and  C10_10 
ROOT
HETATM    1  C1  UNL     1     -34.898   5.369   5.952  1.00 20.00     0.000 A 
HETATM    2  C2  UNL     1     -34.388   6.563   6.461  1.00 20.00     0.001 A 
HETATM    3  C3  UNL     1     -34.544   4.951   4.668  1.00 20.00     0.001 A 
HETATM    4  C4  UNL     1     -33.524   7.340   5.688  1.00 20.00     0.007 A 
HETATM    5  C5  UNL     1     -33.681   5.728   3.895  1.00 20.00     0.007 A 
HETATM    6  C6  UNL     1     -33.170   6.922   4.405  1.00 20.00    -0.054 A 
ENDROOT
BRANCH   6   7
HETATM    7  C10 UNL     1     -32.231   7.767   3.563  1.00 20.00     0.014 C 
HETATM    8  C8  UNL     1     -32.537   9.258   3.747  1.00 20.00     0.015 C 
BRANCH   7   9
HETATM    9  C9  UNL     1     -32.263   7.405   2.064  1.00 20.00     0.004 C 
HETATM   10  C7  UNL     1     -32.383   8.624   1.157  1.00 20.00     0.006 C 
ENDBRANCH   7   9
ENDBRANCH   6   7
TORSDOF 2
ENDMDL
MODEL 2
REMARK VINA RESULT:      -5.7      0.073      1.530
REMARK  2 active torsions:
REMARK  status: ('A' for Active; 'I' for Inactive)
REMARK    1  A    between atoms: C6_6  and  C10_10 
REMARK    2  A    between atoms: C9_9  and  C10_10 
ROOT
HETATM    1  C1  UNL     1     -34.909   5.342   5.932  1.00 20.00     0.000 A 
HETATM    2  C2  UNL     1     -34.539   4.948   4.646  1.00 20.00     0.001 A 
HETATM    3  C3  UNL     1     -34.415   6.534   6.464  1.00 20.00     0.001 A 
HETATM    4  C4  UNL     1     -33.676   5.744   3.892  1.00 20.00     0.007 A 
HETATM    5  C5  UNL     1     -33.552   7.329   5.711  1.00 20.00     0.007 A 
HETATM    6  C6  UNL     1     -33.183   6.935   4.424  1.00 20.00    -0.054 A 
ENDROOT
BRANCH   6   7
HETATM    7  C10 UNL     1     -32.243   7.802   3.604  1.00 20.00     0.014 C 
HETATM    8  C8  UNL     1     -32.538   9.288   3.842  1.00 20.00     0.015 C 
BRANCH   7   9
HETATM    9  C9  UNL     1     -32.289   7.492   2.095  1.00 20.00     0.004 C 
HETATM   10  C7  UNL     1     -32.466   8.737   1.233  1.00 20.00     0.006 C 
ENDBRANCH   7   9
ENDBRANCH   6   7
TORSDOF 2
ENDMDL
MODEL 3
REMARK VINA RESULT:      -5.3      0.950      2.214
REMARK  2 active torsions:
REMARK  status: ('A' for Active; 'I' for Inactive)
REMARK    1  A    between atoms: C6_6  and  C10_10 
REMARK    2  A    between atoms: C9_9  and  C10_10 
ROOT
HETATM    1  C1  UNL     1     -34.701   6.194   6.806  1.00 20.00     0.000 A 
HETATM    2  C2  UNL     1     -34.902   5.120   5.940  1.00 20.00     0.001 A 
HETATM    3  C3  UNL     1     -34.010   7.324   6.367  1.00 20.00     0.001 A 
HETATM    4  C4  UNL     1     -34.414   5.175   4.634  1.00 20.00     0.007 A 
HETATM    5  C5  UNL     1     -33.521   7.379   5.063  1.00 20.00     0.007 A 
HETATM    6  C6  UNL     1     -33.723   6.304   4.195  1.00 20.00    -0.054 A 
ENDROOT
BRANCH   6   7
HETATM    7  C10 UNL     1     -33.190   6.365   2.774  1.00 20.00     0.014 C 
HETATM    8  C8  UNL     1     -32.767   4.969   2.298  1.00 20.00     0.015 C 
BRANCH   7   9
HETATM    9  C9  UNL     1     -32.020   7.355   2.603  1.00 20.00     0.004 C 
HETATM   10  C7  UNL     1     -32.113   8.175   1.322  1.00 20.00     0.006 C 
ENDBRANCH   7   9
ENDBRANCH   6   7
TORSDOF 2
ENDMDL
MODEL 4
REMARK VINA RESULT:      -5.3      0.953      1.774
REMARK  2 active torsions:
REMARK  status: ('A' for Active; 'I' for Inactive)
REMARK    1  A    between atoms: C6_6  and  C10_10 
REMARK    2  A    between atoms: C9_9  and  C10_10 
ROOT
HETATM    1  C1  UNL     1     -34.705   6.234   6.807  1.00 20.00     0.000 A 
HETATM    2  C2  UNL     1     -34.017   7.359   6.352  1.00 20.00     0.001 A 
HETATM    3  C3  UNL     1     -34.902   5.146   5.956  1.00 20.00     0.001 A 
HETATM    4  C4  UNL     1     -33.527   7.397   5.046  1.00 20.00     0.007 A 
HETATM    5  C5  UNL     1     -34.413   5.185   4.651  1.00 20.00     0.007 A 
HETATM    6  C6  UNL     1     -33.725   6.310   4.195  1.00 20.00    -0.054 A 
ENDROOT
BRANCH   6   7
HETATM    7  C10 UNL     1     -33.192   6.351   2.774  1.00 20.00     0.014 C 
HETATM    8  C8  UNL     1     -32.766   4.949   2.318  1.00 20.00     0.015 C 
BRANCH   7   9
HETATM    9  C9  UNL     1     -32.024   7.341   2.588  1.00 20.00     0.004 C 
HETATM   10  C7  UNL     1     -32.164   8.204   1.340  1.00 20.00     0.006 C 
ENDBRANCH   7   9
ENDBRANCH   6   7
TORSDOF 2
ENDMDL
MODEL 5
REMARK VINA RESULT:      -4.2     11.793     12.546
REMARK  2 active torsions:
REMARK  status: ('A' for Active; 'I' for Inactive)
REMARK    1  A    between atoms: C6_6  and  C10_10 
REMARK    2  A    between atoms: C9_9  and  C10_10 
ROOT
HETATM    1  C1  UNL     1     -31.911  19.169   1.989  1.00 20.00     0.000 A 
HETATM    2  C2  UNL     1     -30.818  18.869   1.176  1.00 20.00     0.001 A 
HETATM    3  C3  UNL     1     -33.207  19.047   1.488  1.00 20.00     0.001 A 
HETATM    4  C4  UNL     1     -31.021  18.446  -0.138  1.00 20.00     0.007 A 
HETATM    5  C5  UNL     1     -33.410  18.626   0.174  1.00 20.00     0.007 A 
HETATM    6  C6  UNL     1     -32.317  18.325  -0.639  1.00 20.00    -0.054 A 
ENDROOT
BRANCH   6   7
HETATM    7  C10 UNL     1     -32.539  17.866  -2.070  1.00 20.00     0.014 C 
HETATM    8  C8  UNL     1     -33.032  19.031  -2.938  1.00 20.00     0.015 C 
BRANCH   7   9
HETATM    9  C9  UNL     1     -33.513  16.677  -2.185  1.00 20.00     0.004 C 
HETATM   10  C7  UNL     1     -33.396  15.934  -3.510  1.00 20.00     0.006 C 
ENDBRANCH   7   9
ENDBRANCH   6   7
TORSDOF 2
ENDMDL
MODEL 6
REMARK VINA RESULT:      -4.2      1.029      3.879
REMARK  2 active torsions:
REMARK  status: ('A' for Active; 'I' for Inactive)
REMARK    1  A    between atoms: C6_6  and  C10_10 
REMARK    2  A    between atoms: C9_9  and  C10_10 
ROOT
HETATM    1  C1  UNL     1     -31.824   8.786   3.604  1.00 20.00     0.000 A 
HETATM    2  C2  UNL     1     -32.416   9.064   4.836  1.00 20.00     0.001 A 
HETATM    3  C3  UNL     1     -32.201   7.647   2.890  1.00 20.00     0.001 A 
HETATM    4  C4  UNL     1     -33.384   8.204   5.356  1.00 20.00     0.007 A 
HETATM    5  C5  UNL     1     -33.167   6.787   3.410  1.00 20.00     0.007 A 
HETATM    6  C6  UNL     1     -33.760   7.065   4.643  1.00 20.00    -0.054 A 
ENDROOT
BRANCH   6   7
HETATM    7  C10 UNL     1     -34.812   6.128   5.208  1.00 20.00     0.014 C 
HETATM    8  C8  UNL     1     -34.540   5.845   6.691  1.00 20.00     0.015 C 
BRANCH   7   9
HETATM    9  C9  UNL     1     -34.927   4.801   4.432  1.00 20.00     0.004 C 
HETATM   10  C7  UNL     1     -33.726   3.885   4.633  1.00 20.00     0.006 C 
ENDBRANCH   7   9
ENDBRANCH   6   7
TORSDOF 2
ENDMDL
MODEL 7
REMARK VINA RESULT:      -4.2      1.033      4.166
REMARK  2 active torsions:
REMARK  status: ('A' for Active; 'I' for Inactive)
REMARK    1  A    between atoms: C6_6  and  C10_10 
REMARK    2  A    between atoms: C9_9  and  C10_10 
ROOT
HETATM    1  C1  UNL     1     -31.849   8.807   3.620  1.00 20.00     0.000 A 
HETATM    2  C2  UNL     1     -32.205   7.658   2.915  1.00 20.00     0.001 A 
HETATM    3  C3  UNL     1     -32.446   9.083   4.851  1.00 20.00     0.001 A 
HETATM    4  C4  UNL     1     -33.157   6.783   3.440  1.00 20.00     0.007 A 
HETATM    5  C5  UNL     1     -33.398   8.209   5.375  1.00 20.00     0.007 A 
HETATM    6  C6  UNL     1     -33.753   7.058   4.670  1.00 20.00    -0.054 A 
ENDROOT
BRANCH   6   7
HETATM    7  C10 UNL     1     -34.790   6.107   5.242  1.00 20.00     0.014 C 
HETATM    8  C8  UNL     1     -34.488   5.806   6.716  1.00 20.00     0.015 C 
BRANCH   7   9
HETATM    9  C9  UNL     1     -34.910   4.789   4.451  1.00 20.00     0.004 C 
HETATM   10  C7  UNL     1     -33.706   3.873   4.628  1.00 20.00     0.006 C 
ENDBRANCH   7   9
ENDBRANCH   6   7
TORSDOF 2
ENDMDL
MODEL 8
REMARK VINA RESULT:      -4.2     11.738     12.472
REMARK  2 active torsions:
REMARK  status: ('A' for Active; 'I' for Inactive)
REMARK    1  A    between atoms: C6_6  and  C10_10 
REMARK    2  A    between atoms: C9_9  and  C10_10 
ROOT
HETATM    1  C1  UNL     1     -32.383  18.962   1.510  1.00 20.00     0.000 A 
HETATM    2  C2  UNL     1     -33.633  18.586   1.020  1.00 20.00     0.001 A 
HETATM    3  C3  UNL     1     -31.261  18.898   0.682  1.00 20.00     0.001 A 
HETATM    4  C4  UNL     1     -33.764  18.145  -0.297  1.00 20.00     0.007 A 
HETATM    5  C5  UNL     1     -31.391  18.457  -0.635  1.00 20.00     0.007 A 
HETATM    6  C6  UNL     1     -32.643  18.081  -1.125  1.00 20.00    -0.054 A 
ENDROOT
BRANCH   6   7
HETATM    7  C10 UNL     1     -32.783  17.600  -2.559  1.00 20.00     0.014 C 
HETATM    8  C8  UNL     1     -33.401  18.697  -3.435  1.00 20.00     0.015 C 
BRANCH   7   9
HETATM    9  C9  UNL     1     -33.603  16.300  -2.689  1.00 20.00     0.004 C 
HETATM   10  C7  UNL     1     -33.233  15.482  -3.920  1.00 20.00     0.006 C 
ENDBRANCH   7   9
ENDBRANCH   6   7
TORSDOF 2
ENDMDL
MODEL 9
REMARK VINA RESULT:      -4.1      1.138      4.305
REMARK  2 active torsions:
REMARK  status: ('A' for Active; 'I' for Inactive)
REMARK    1  A    between atoms: C6_6  and  C10_10 
REMARK    2  A    between atoms: C9_9  and  C10_10 
ROOT
HETATM    1  C1  UNL     1     -31.800   8.494   3.680  1.00 20.00     0.000 A 
HETATM    2  C2  UNL     1     -31.961   7.364   2.879  1.00 20.00     0.001 A 
HETATM    3  C3  UNL     1     -32.640   8.697   4.776  1.00 20.00     0.001 A 
HETATM    4  C4  UNL     1     -32.961   6.436   3.173  1.00 20.00     0.007 A 
HETATM    5  C5  UNL     1     -33.639   7.770   5.070  1.00 20.00     0.007 A 
HETATM    6  C6  UNL     1     -33.800   6.638   4.268  1.00 20.00    -0.054 A 
ENDROOT
BRANCH   6   7
HETATM    7  C10 UNL     1     -34.888   5.629   4.589  1.00 20.00     0.014 C 
HETATM    8  C8  UNL     1     -36.242   6.109   4.050  1.00 20.00     0.015 C 
BRANCH   7   9
HETATM    9  C9  UNL     1     -35.004   5.315   6.094  1.00 20.00     0.004 C 
HETATM   10  C7  UNL     1     -33.656   5.057   6.757  1.00 20.00     0.006 C 
ENDBRANCH   7   9
ENDBRANCH   6   7
TORSDOF 2
ENDMDL
