MODEL 1
REMARK VINA RESULT:      -5.2      0.000      0.000
REMARK  0 active torsions:
REMARK  status: ('A' for Active; 'I' for Inactive)
ROOT
HETATM    1  C1  UNL     1     -34.812   5.263   5.984  1.00 20.00     0.000 A 
HETATM    2  C2  UNL     1     -34.402   6.458   6.574  1.00 20.00     0.001 A 
HETATM    3  C3  UNL     1     -34.503   5.002   4.649  1.00 20.00     0.001 A 
HETATM    4  C4  UNL     1     -33.682   7.393   5.829  1.00 20.00     0.019 A 
HETATM    5  C5  UNL     1     -33.784   5.937   3.904  1.00 20.00     0.019 A 
HETATM    6  C6  UNL     1     -33.373   7.132   4.495  1.00 20.00     0.011 A 
HETATM    7  S7  UNL     1     -32.444   8.337   3.532  1.00 20.00    -0.053 SA
ENDROOT
TORSDOF 0
ENDMDL
MODEL 2
REMARK VINA RESULT:      -5.2      0.002      1.826
REMARK  0 active torsions:
REMARK  status: ('A' for Active; 'I' for Inactive)
ROOT
HETATM    1  C1  UNL     1     -34.812   5.263   5.983  1.00 20.00     0.000 A 
HETATM    2  C2  UNL     1     -34.502   5.002   4.648  1.00 20.00     0.001 A 
HETATM    3  C3  UNL     1     -34.403   6.458   6.573  1.00 20.00     0.001 A 
HETATM    4  C4  UNL     1     -33.781   5.936   3.905  1.00 20.00     0.019 A 
HETATM    5  C5  UNL     1     -33.683   7.393   5.829  1.00 20.00     0.019 A 
HETATM    6  C6  UNL     1     -33.372   7.132   4.495  1.00 20.00     0.011 A 
HETATM    7  S7  UNL     1     -32.443   8.339   3.536  1.00 20.00    -0.053 SA
ENDROOT
TORSDOF 0
ENDMDL
MODEL 3
REMARK VINA RESULT:      -4.6      1.304      2.232
REMARK  0 active torsions:
REMARK  status: ('A' for Active; 'I' for Inactive)
ROOT
HETATM    1  C1  UNL     1     -34.386   6.872   6.522  1.00 20.00     0.000 A 
HETATM    2  C2  UNL     1     -34.733   5.573   6.153  1.00 20.00     0.001 A 
HETATM    3  C3  UNL     1     -33.639   7.668   5.654  1.00 20.00     0.001 A 
HETATM    4  C4  UNL     1     -34.333   5.070   4.916  1.00 20.00     0.019 A 
HETATM    5  C5  UNL     1     -33.238   7.164   4.416  1.00 20.00     0.019 A 
HETATM    6  C6  UNL     1     -33.586   5.865   4.047  1.00 20.00     0.011 A 
HETATM    7  S7  UNL     1     -33.069   5.216   2.449  1.00 20.00    -0.053 SA
ENDROOT
TORSDOF 0
ENDMDL
MODEL 4
REMARK VINA RESULT:      -4.6      1.304      1.928
REMARK  0 active torsions:
REMARK  status: ('A' for Active; 'I' for Inactive)
ROOT
HETATM    1  C1  UNL     1     -34.386   6.864   6.523  1.00 20.00     0.000 A 
HETATM    2  C2  UNL     1     -33.641   7.662   5.655  1.00 20.00     0.001 A 
HETATM    3  C3  UNL     1     -34.730   5.564   6.152  1.00 20.00     0.001 A 
HETATM    4  C4  UNL     1     -33.241   7.162   4.417  1.00 20.00     0.019 A 
HETATM    5  C5  UNL     1     -34.330   5.063   4.913  1.00 20.00     0.019 A 
HETATM    6  C6  UNL     1     -33.585   5.862   4.046  1.00 20.00     0.011 A 
HETATM    7  S7  UNL     1     -33.069   5.214   2.447  1.00 20.00    -0.053 SA
ENDROOT
TORSDOF 0
ENDMDL
MODEL 5
REMARK VINA RESULT:      -4.4      2.101      3.055
REMARK  0 active torsions:
REMARK  status: ('A' for Active; 'I' for Inactive)
ROOT
HETATM    1  C1  UNL     1     -32.156   7.833   3.099  1.00 20.00     0.000 A 
HETATM    2  C2  UNL     1     -32.482   8.425   4.318  1.00 20.00     0.001 A 
HETATM    3  C3  UNL     1     -32.630   6.556   2.795  1.00 20.00     0.001 A 
HETATM    4  C4  UNL     1     -33.280   7.741   5.235  1.00 20.00     0.019 A 
HETATM    5  C5  UNL     1     -33.428   5.872   3.711  1.00 20.00     0.019 A 
HETATM    6  C6  UNL     1     -33.754   6.465   4.931  1.00 20.00     0.011 A 
HETATM    7  S7  UNL     1     -34.785   5.581   6.113  1.00 20.00    -0.053 SA
ENDROOT
TORSDOF 0
ENDMDL
MODEL 6
REMARK VINA RESULT:      -4.4      2.101      3.545
REMARK  0 active torsions:
REMARK  status: ('A' for Active; 'I' for Inactive)
ROOT
HETATM    1  C1  UNL     1     -32.162   7.833   3.098  1.00 20.00     0.000 A 
HETATM    2  C2  UNL     1     -32.633   6.557   2.793  1.00 20.00     0.001 A 
HETATM    3  C3  UNL     1     -32.487   8.424   4.319  1.00 20.00     0.001 A 
HETATM    4  C4  UNL     1     -33.431   5.871   3.708  1.00 20.00     0.019 A 
HETATM    5  C5  UNL     1     -33.286   7.739   5.234  1.00 20.00     0.019 A 
HETATM    6  C6  UNL     1     -33.757   6.462   4.930  1.00 20.00     0.011 A 
HETATM    7  S7  UNL     1     -34.787   5.578   6.112  1.00 20.00    -0.053 SA
ENDROOT
TORSDOF 0
ENDMDL
MODEL 7
REMARK VINA RESULT:      -4.0      1.586      2.477
REMARK  0 active torsions:
REMARK  status: ('A' for Active; 'I' for Inactive)
ROOT
HETATM    1  C1  UNL     1     -33.664   8.121   5.951  1.00 20.00     0.000 A 
HETATM    2  C2  UNL     1     -32.800   8.438   4.903  1.00 20.00     0.001 A 
HETATM    3  C3  UNL     1     -34.335   6.897   5.956  1.00 20.00     0.001 A 
HETATM    4  C4  UNL     1     -32.607   7.533   3.860  1.00 20.00     0.019 A 
HETATM    5  C5  UNL     1     -34.142   5.992   4.912  1.00 20.00     0.019 A 
HETATM    6  C6  UNL     1     -33.278   6.310   3.865  1.00 20.00     0.011 A 
HETATM    7  S7  UNL     1     -33.029   5.140   2.518  1.00 20.00    -0.053 SA
ENDROOT
TORSDOF 0
ENDMDL
MODEL 8
REMARK VINA RESULT:      -3.3     15.392     15.896
REMARK  0 active torsions:
REMARK  status: ('A' for Active; 'I' for Inactive)
ROOT
HETATM    1  C1  UNL     1     -25.430  17.121  12.332  1.00 20.00     0.000 A 
HETATM    2  C2  UNL     1     -24.476  16.408  11.605  1.00 20.00     0.001 A 
HETATM    3  C3  UNL     1     -25.769  18.419  11.953  1.00 20.00     0.001 A 
HETATM    4  C4  UNL     1     -23.861  16.995  10.499  1.00 20.00     0.019 A 
HETATM    5  C5  UNL     1     -25.154  19.006  10.847  1.00 20.00     0.019 A 
HETATM    6  C6  UNL     1     -24.200  18.294  10.120  1.00 20.00     0.011 A 
HETATM    7  S7  UNL     1     -23.407  19.052   8.693  1.00 20.00    -0.053 SA
ENDROOT
TORSDOF 0
ENDMDL
MODEL 9
REMARK VINA RESULT:      -3.2     16.123     17.064
REMARK  0 active torsions:
REMARK  status: ('A' for Active; 'I' for Inactive)
ROOT
HETATM    1  C1  UNL     1     -22.179  18.410  10.315  1.00 20.00     0.000 A 
HETATM    2  C2  UNL     1     -23.335  18.403   9.536  1.00 20.00     0.001 A 
HETATM    3  C3  UNL     1     -22.276  18.468  11.706  1.00 20.00     0.001 A 
HETATM    4  C4  UNL     1     -24.588  18.455  10.146  1.00 20.00     0.019 A 
HETATM    5  C5  UNL     1     -23.529  18.521  12.316  1.00 20.00     0.019 A 
HETATM    6  C6  UNL     1     -24.685  18.513  11.536  1.00 20.00     0.011 A 
HETATM    7  S7  UNL     1     -26.302  18.580  12.325  1.00 20.00    -0.053 SA
ENDROOT
TORSDOF 0
ENDMDL
