MODEL 1
REMARK VINA RESULT:      -5.5      0.000      0.000
REMARK  0 active torsions:
REMARK  status: ('A' for Active; 'I' for Inactive)
ROOT
HETATM    1  C1  UNL     1     -34.316   6.669   6.438  1.00 20.00     0.000 A 
HETATM    2  C2  UNL     1     -33.612   7.493   5.559  1.00 20.00     0.003 A 
HETATM    3  C3  UNL     1     -34.721   5.399   6.031  1.00 20.00     0.003 A 
HETATM    4  C4  UNL     1     -33.313   7.046   4.273  1.00 20.00     0.042 A 
HETATM    5  C5  UNL     1     -34.422   4.951   4.743  1.00 20.00     0.042 A 
HETATM    6  C6  UNL     1     -33.718   5.775   3.865  1.00 20.00     0.116 A 
HETATM    7  F7  UNL     1     -33.431   5.345   2.629  1.00 20.00    -0.206 F 
ENDROOT
TORSDOF 0
ENDMDL
MODEL 2
REMARK VINA RESULT:      -5.5      0.005      1.827
REMARK  0 active torsions:
REMARK  status: ('A' for Active; 'I' for Inactive)
ROOT
HETATM    1  C1  UNL     1     -34.314   6.676   6.436  1.00 20.00     0.000 A 
HETATM    2  C2  UNL     1     -34.722   5.405   6.031  1.00 20.00     0.003 A 
HETATM    3  C3  UNL     1     -33.610   7.496   5.557  1.00 20.00     0.003 A 
HETATM    4  C4  UNL     1     -34.425   4.955   4.745  1.00 20.00     0.042 A 
HETATM    5  C5  UNL     1     -33.312   7.046   4.269  1.00 20.00     0.042 A 
HETATM    6  C6  UNL     1     -33.720   5.775   3.864  1.00 20.00     0.116 A 
HETATM    7  F7  UNL     1     -33.434   5.343   2.629  1.00 20.00    -0.206 F 
ENDROOT
TORSDOF 0
ENDMDL
MODEL 3
REMARK VINA RESULT:      -5.5      0.940      2.041
REMARK  0 active torsions:
REMARK  status: ('A' for Active; 'I' for Inactive)
ROOT
HETATM    1  C1  UNL     1     -34.713   5.634   6.186  1.00 20.00     0.000 A 
HETATM    2  C2  UNL     1     -34.595   5.040   4.930  1.00 20.00     0.003 A 
HETATM    3  C3  UNL     1     -34.125   6.874   6.430  1.00 20.00     0.003 A 
HETATM    4  C4  UNL     1     -33.888   5.686   3.917  1.00 20.00     0.042 A 
HETATM    5  C5  UNL     1     -33.417   7.522   5.417  1.00 20.00     0.042 A 
HETATM    6  C6  UNL     1     -33.298   6.927   4.160  1.00 20.00     0.116 A 
HETATM    7  F7  UNL     1     -32.619   7.548   3.187  1.00 20.00    -0.206 F 
ENDROOT
TORSDOF 0
ENDMDL
MODEL 4
REMARK VINA RESULT:      -5.4      0.932      1.426
REMARK  0 active torsions:
REMARK  status: ('A' for Active; 'I' for Inactive)
ROOT
HETATM    1  C1  UNL     1     -34.728   5.645   6.205  1.00 20.00     0.000 A 
HETATM    2  C2  UNL     1     -34.152   6.895   6.431  1.00 20.00     0.003 A 
HETATM    3  C3  UNL     1     -34.596   5.029   4.961  1.00 20.00     0.003 A 
HETATM    4  C4  UNL     1     -33.443   7.529   5.412  1.00 20.00     0.042 A 
HETATM    5  C5  UNL     1     -33.886   5.664   3.941  1.00 20.00     0.042 A 
HETATM    6  C6  UNL     1     -33.310   6.914   4.166  1.00 20.00     0.116 A 
HETATM    7  F7  UNL     1     -32.628   7.524   3.188  1.00 20.00    -0.206 F 
ENDROOT
TORSDOF 0
ENDMDL
MODEL 5
REMARK VINA RESULT:      -5.4      1.691      2.609
REMARK  0 active torsions:
REMARK  status: ('A' for Active; 'I' for Inactive)
ROOT
HETATM    1  C1  UNL     1     -34.616   5.010   5.154  1.00 20.00     0.000 A 
HETATM    2  C2  UNL     1     -34.608   5.737   6.345  1.00 20.00     0.003 A 
HETATM    3  C3  UNL     1     -34.047   5.551   4.002  1.00 20.00     0.003 A 
HETATM    4  C4  UNL     1     -34.029   7.005   6.383  1.00 20.00     0.042 A 
HETATM    5  C5  UNL     1     -33.468   6.820   4.040  1.00 20.00     0.042 A 
HETATM    6  C6  UNL     1     -33.459   7.547   5.230  1.00 20.00     0.116 A 
HETATM    7  F7  UNL     1     -32.904   8.765   5.267  1.00 20.00    -0.206 F 
ENDROOT
TORSDOF 0
ENDMDL
MODEL 6
REMARK VINA RESULT:      -5.1      1.974      3.243
REMARK  0 active torsions:
REMARK  status: ('A' for Active; 'I' for Inactive)
ROOT
HETATM    1  C1  UNL     1     -33.665   5.539   3.635  1.00 20.00     0.000 A 
HETATM    2  C2  UNL     1     -34.406   4.863   4.605  1.00 20.00     0.003 A 
HETATM    3  C3  UNL     1     -33.210   6.834   3.881  1.00 20.00     0.003 A 
HETATM    4  C4  UNL     1     -34.689   5.483   5.821  1.00 20.00     0.042 A 
HETATM    5  C5  UNL     1     -33.494   7.454   5.098  1.00 20.00     0.042 A 
HETATM    6  C6  UNL     1     -34.234   6.778   6.069  1.00 20.00     0.116 A 
HETATM    7  F7  UNL     1     -34.507   7.372   7.237  1.00 20.00    -0.206 F 
ENDROOT
TORSDOF 0
ENDMDL
MODEL 7
REMARK VINA RESULT:      -5.1      1.976      2.685
REMARK  0 active torsions:
REMARK  status: ('A' for Active; 'I' for Inactive)
ROOT
HETATM    1  C1  UNL     1     -33.662   5.545   3.639  1.00 20.00     0.000 A 
HETATM    2  C2  UNL     1     -33.199   6.837   3.890  1.00 20.00     0.003 A 
HETATM    3  C3  UNL     1     -34.411   4.872   4.604  1.00 20.00     0.003 A 
HETATM    4  C4  UNL     1     -33.487   7.457   5.105  1.00 20.00     0.042 A 
HETATM    5  C5  UNL     1     -34.699   5.492   5.821  1.00 20.00     0.042 A 
HETATM    6  C6  UNL     1     -34.237   6.785   6.071  1.00 20.00     0.116 A 
HETATM    7  F7  UNL     1     -34.513   7.380   7.238  1.00 20.00    -0.206 F 
ENDROOT
TORSDOF 0
ENDMDL
MODEL 8
REMARK VINA RESULT:      -5.1      0.926      2.042
REMARK  0 active torsions:
REMARK  status: ('A' for Active; 'I' for Inactive)
ROOT
HETATM    1  C1  UNL     1     -33.636   7.833   5.665  1.00 20.00     0.000 A 
HETATM    2  C2  UNL     1     -34.264   6.886   6.474  1.00 20.00     0.003 A 
HETATM    3  C3  UNL     1     -33.258   7.500   4.365  1.00 20.00     0.003 A 
HETATM    4  C4  UNL     1     -34.514   5.605   5.982  1.00 20.00     0.042 A 
HETATM    5  C5  UNL     1     -33.508   6.218   3.872  1.00 20.00     0.042 A 
HETATM    6  C6  UNL     1     -34.135   5.271   4.682  1.00 20.00     0.116 A 
HETATM    7  F7  UNL     1     -34.375   4.041   4.210  1.00 20.00    -0.206 F 
ENDROOT
TORSDOF 0
ENDMDL
MODEL 9
REMARK VINA RESULT:      -5.0      0.931      1.526
REMARK  0 active torsions:
REMARK  status: ('A' for Active; 'I' for Inactive)
ROOT
HETATM    1  C1  UNL     1     -33.605   7.825   5.568  1.00 20.00     0.000 A 
HETATM    2  C2  UNL     1     -33.224   7.448   4.280  1.00 20.00     0.003 A 
HETATM    3  C3  UNL     1     -34.250   6.911   6.400  1.00 20.00     0.003 A 
HETATM    4  C4  UNL     1     -33.489   6.157   3.825  1.00 20.00     0.042 A 
HETATM    5  C5  UNL     1     -34.515   5.619   5.945  1.00 20.00     0.042 A 
HETATM    6  C6  UNL     1     -34.134   5.242   4.657  1.00 20.00     0.116 A 
HETATM    7  F7  UNL     1     -34.388   4.002   4.220  1.00 20.00    -0.206 F 
ENDROOT
TORSDOF 0
ENDMDL
