MODEL 1
REMARK VINA RESULT:      -4.7      0.000      0.000
REMARK  1 active torsions:
REMARK  status: ('A' for Active; 'I' for Inactive)
REMARK    1  A    between atoms: C6_6  and  S8_8 
ROOT
HETATM    1  C1  UNL     1     -34.528   6.620   6.580  1.00 20.00     0.001 A 
HETATM    2  C2  UNL     1     -34.807   5.343   6.094  1.00 20.00     0.001 A 
HETATM    3  C3  UNL     1     -33.784   7.512   5.809  1.00 20.00     0.021 A 
HETATM    4  C4  UNL     1     -34.342   4.958   4.836  1.00 20.00     0.019 A 
HETATM    5  C5  UNL     1     -33.318   7.128   4.552  1.00 20.00     0.028 A 
HETATM    6  C6  UNL     1     -33.598   5.850   4.066  1.00 20.00     0.015 A 
HETATM    7  S7  UNL     1     -32.359   8.362   3.626  1.00 20.00    -0.051 SA
ENDROOT
BRANCH   6   8
HETATM    8  S8  UNL     1     -33.057   5.233   2.466  1.00 20.00    -0.142 SA
HETATM    9  H13 UNL     1     -33.510   3.982   2.621  1.00 20.00     0.107 HD
ENDBRANCH   6   8
TORSDOF 1
ENDMDL
MODEL 2
REMARK VINA RESULT:      -4.6      0.134      2.414
REMARK  1 active torsions:
REMARK  status: ('A' for Active; 'I' for Inactive)
REMARK    1  A    between atoms: C6_6  and  S8_8 
ROOT
HETATM    1  C1  UNL     1     -34.792   5.388   6.206  1.00 20.00     0.001 A 
HETATM    2  C2  UNL     1     -34.419   6.634   6.707  1.00 20.00     0.001 A 
HETATM    3  C3  UNL     1     -34.417   5.013   4.917  1.00 20.00     0.021 A 
HETATM    4  C4  UNL     1     -33.667   7.506   5.918  1.00 20.00     0.019 A 
HETATM    5  C5  UNL     1     -33.668   5.885   4.127  1.00 20.00     0.028 A 
HETATM    6  C6  UNL     1     -33.292   7.131   4.628  1.00 20.00     0.015 A 
HETATM    7  S7  UNL     1     -33.229   5.304   2.463  1.00 20.00    -0.051 SA
ENDROOT
BRANCH   6   8
HETATM    8  S8  UNL     1     -32.329   8.344   3.715  1.00 20.00    -0.142 SA
HETATM    9  H13 UNL     1     -32.694   7.942   2.490  1.00 20.00     0.107 HD
ENDBRANCH   6   8
TORSDOF 1
ENDMDL
MODEL 3
REMARK VINA RESULT:      -4.1      1.723      3.084
REMARK  1 active torsions:
REMARK  status: ('A' for Active; 'I' for Inactive)
REMARK    1  A    between atoms: C6_6  and  S8_8 
ROOT
HETATM    1  C1  UNL     1     -32.200   8.721   4.089  1.00 20.00     0.001 A 
HETATM    2  C2  UNL     1     -32.954   8.781   5.260  1.00 20.00     0.001 A 
HETATM    3  C3  UNL     1     -32.241   7.579   3.290  1.00 20.00     0.021 A 
HETATM    4  C4  UNL     1     -33.751   7.698   5.632  1.00 20.00     0.019 A 
HETATM    5  C5  UNL     1     -33.037   6.496   3.662  1.00 20.00     0.028 A 
HETATM    6  C6  UNL     1     -33.792   6.556   4.833  1.00 20.00     0.015 A 
HETATM    7  S7  UNL     1     -33.022   5.057   2.554  1.00 20.00    -0.051 SA
ENDROOT
BRANCH   6   8
HETATM    8  S8  UNL     1     -34.855   5.231   5.423  1.00 20.00    -0.142 SA
HETATM    9  H13 UNL     1     -35.958   5.976   5.581  1.00 20.00     0.107 HD
ENDBRANCH   6   8
TORSDOF 1
ENDMDL
MODEL 4
REMARK VINA RESULT:      -4.1      1.723      2.872
REMARK  1 active torsions:
REMARK  status: ('A' for Active; 'I' for Inactive)
REMARK    1  A    between atoms: C6_6  and  S8_8 
ROOT
HETATM    1  C1  UNL     1     -32.945   8.794   5.240  1.00 20.00     0.001 A 
HETATM    2  C2  UNL     1     -32.192   8.719   4.069  1.00 20.00     0.001 A 
HETATM    3  C3  UNL     1     -33.749   7.720   5.622  1.00 20.00     0.021 A 
HETATM    4  C4  UNL     1     -32.240   7.568   3.281  1.00 20.00     0.019 A 
HETATM    5  C5  UNL     1     -33.798   6.570   4.834  1.00 20.00     0.028 A 
HETATM    6  C6  UNL     1     -33.043   6.495   3.664  1.00 20.00     0.015 A 
HETATM    7  S7  UNL     1     -34.873   5.228   5.419  1.00 20.00    -0.051 SA
ENDROOT
BRANCH   6   8
HETATM    8  S8  UNL     1     -33.018   5.073   2.562  1.00 20.00    -0.142 SA
HETATM    9  H13 UNL     1     -33.437   5.719   1.465  1.00 20.00     0.107 HD
ENDBRANCH   6   8
TORSDOF 1
ENDMDL
MODEL 5
REMARK VINA RESULT:      -3.7      1.909      2.853
REMARK  1 active torsions:
REMARK  status: ('A' for Active; 'I' for Inactive)
REMARK    1  A    between atoms: C6_6  and  S8_8 
ROOT
HETATM    1  C1  UNL     1     -32.914   5.433   2.478  1.00 20.00     0.001 A 
HETATM    2  C2  UNL     1     -33.741   4.633   3.264  1.00 20.00     0.001 A 
HETATM    3  C3  UNL     1     -32.527   6.694   2.932  1.00 20.00     0.021 A 
HETATM    4  C4  UNL     1     -34.180   5.091   4.507  1.00 20.00     0.019 A 
HETATM    5  C5  UNL     1     -32.966   7.153   4.174  1.00 20.00     0.028 A 
HETATM    6  C6  UNL     1     -33.793   6.352   4.961  1.00 20.00     0.015 A 
HETATM    7  S7  UNL     1     -32.405   8.807   4.675  1.00 20.00    -0.051 SA
ENDROOT
BRANCH   6   8
HETATM    8  S8  UNL     1     -34.426   6.825   6.576  1.00 20.00    -0.142 SA
HETATM    9  H13 UNL     1     -33.267   7.282   7.070  1.00 20.00     0.107 HD
ENDBRANCH   6   8
TORSDOF 1
ENDMDL
MODEL 6
REMARK VINA RESULT:      -3.6      1.881      3.261
REMARK  1 active torsions:
REMARK  status: ('A' for Active; 'I' for Inactive)
REMARK    1  A    between atoms: C6_6  and  S8_8 
ROOT
HETATM    1  C1  UNL     1     -33.757   4.595   3.305  1.00 20.00     0.001 A 
HETATM    2  C2  UNL     1     -32.930   5.378   2.501  1.00 20.00     0.001 A 
HETATM    3  C3  UNL     1     -34.190   5.078   4.540  1.00 20.00     0.021 A 
HETATM    4  C4  UNL     1     -32.537   6.646   2.930  1.00 20.00     0.019 A 
HETATM    5  C5  UNL     1     -33.797   6.346   4.970  1.00 20.00     0.028 A 
HETATM    6  C6  UNL     1     -32.970   7.129   4.164  1.00 20.00     0.015 A 
HETATM    7  S7  UNL     1     -34.415   6.884   6.590  1.00 20.00    -0.051 SA
ENDROOT
BRANCH   6   8
HETATM    8  S8  UNL     1     -32.393   8.775   4.601  1.00 20.00    -0.142 SA
HETATM    9  H13 UNL     1     -33.041   8.861   5.772  1.00 20.00     0.107 HD
ENDBRANCH   6   8
TORSDOF 1
ENDMDL
MODEL 7
REMARK VINA RESULT:      -3.4      2.066      2.971
REMARK  1 active torsions:
REMARK  status: ('A' for Active; 'I' for Inactive)
REMARK    1  A    between atoms: C6_6  and  S8_8 
ROOT
HETATM    1  C1  UNL     1     -32.300   6.602   2.384  1.00 20.00     0.001 A 
HETATM    2  C2  UNL     1     -32.925   5.368   2.558  1.00 20.00     0.001 A 
HETATM    3  C3  UNL     1     -32.439   7.597   3.351  1.00 20.00     0.021 A 
HETATM    4  C4  UNL     1     -33.690   5.128   3.700  1.00 20.00     0.019 A 
HETATM    5  C5  UNL     1     -33.204   7.359   4.493  1.00 20.00     0.028 A 
HETATM    6  C6  UNL     1     -33.829   6.124   4.667  1.00 20.00     0.015 A 
HETATM    7  S7  UNL     1     -33.322   8.717   5.692  1.00 20.00    -0.051 SA
ENDROOT
BRANCH   6   8
HETATM    8  S8  UNL     1     -34.839   5.691   6.090  1.00 20.00    -0.142 SA
HETATM    9  H13 UNL     1     -34.595   6.802   6.798  1.00 20.00     0.107 HD
ENDBRANCH   6   8
TORSDOF 1
ENDMDL
MODEL 8
REMARK VINA RESULT:      -3.4     16.455     17.186
REMARK  1 active torsions:
REMARK  status: ('A' for Active; 'I' for Inactive)
REMARK    1  A    between atoms: C6_6  and  S8_8 
ROOT
HETATM    1  C1  UNL     1     -24.003  19.246   8.114  1.00 20.00     0.001 A 
HETATM    2  C2  UNL     1     -22.665  18.947   8.365  1.00 20.00     0.001 A 
HETATM    3  C3  UNL     1     -24.926  19.245   9.160  1.00 20.00     0.021 A 
HETATM    4  C4  UNL     1     -22.247  18.648   9.662  1.00 20.00     0.019 A 
HETATM    5  C5  UNL     1     -24.510  18.946  10.457  1.00 20.00     0.028 A 
HETATM    6  C6  UNL     1     -23.170  18.647  10.708  1.00 20.00     0.015 A 
HETATM    7  S7  UNL     1     -25.786  18.972  11.748  1.00 20.00    -0.051 SA
ENDROOT
BRANCH   6   8
HETATM    8  S8  UNL     1     -22.507  18.245  12.330  1.00 20.00    -0.142 SA
HETATM    9  H13 UNL     1     -21.401  18.997  12.237  1.00 20.00     0.107 HD
ENDBRANCH   6   8
TORSDOF 1
ENDMDL
MODEL 9
REMARK VINA RESULT:      -3.2     16.281     17.011
REMARK  1 active torsions:
REMARK  status: ('A' for Active; 'I' for Inactive)
REMARK    1  A    between atoms: C6_6  and  S8_8 
ROOT
HETATM    1  C1  UNL     1     -24.601  18.523  12.113  1.00 20.00     0.001 A 
HETATM    2  C2  UNL     1     -23.245  18.286  12.331  1.00 20.00     0.001 A 
HETATM    3  C3  UNL     1     -25.061  18.816  10.829  1.00 20.00     0.021 A 
HETATM    4  C4  UNL     1     -22.347  18.340  11.264  1.00 20.00     0.019 A 
HETATM    5  C5  UNL     1     -24.164  18.871   9.763  1.00 20.00     0.028 A 
HETATM    6  C6  UNL     1     -22.807  18.633   9.980  1.00 20.00     0.015 A 
HETATM    7  S7  UNL     1     -24.861  19.259   8.131  1.00 20.00    -0.051 SA
ENDROOT
BRANCH   6   8
HETATM    8  S8  UNL     1     -21.550  18.674   8.695  1.00 20.00    -0.142 SA
HETATM    9  H13 UNL     1     -21.323  19.994   8.741  1.00 20.00     0.107 HD
ENDBRANCH   6   8
TORSDOF 1
ENDMDL
