MODEL 1
REMARK VINA RESULT:      -6.0      0.000      0.000
REMARK  1 active torsions:
REMARK  status: ('A' for Active; 'I' for Inactive)
REMARK    1  A    between atoms: C2_2  and  C8_8 
ROOT
HETATM    1  C1  UNL     1     -33.039   6.501   3.525  1.00 20.00    -0.081 C 
HETATM    2  C2  UNL     1     -33.881   6.742   4.543  1.00 20.00    -0.078 C 
HETATM    3  C3  UNL     1     -32.126   7.665   3.283  1.00 20.00     0.034 C 
HETATM    4  C4  UNL     1     -33.654   8.103   5.129  1.00 20.00     0.034 C 
HETATM    5  C5  UNL     1     -32.310   8.515   4.536  1.00 20.00     0.009 C 
HETATM    6  C6  UNL     1     -32.941   5.301   2.651  1.00 20.00     0.043 C 
ENDROOT
BRANCH   2   7
HETATM    7  C8  UNL     1     -34.962   5.881   5.095  1.00 20.00     0.030 C 
HETATM    8  C7  UNL     1     -34.567   5.330   6.451  1.00 20.00     0.010 C 
ENDBRANCH   2   7
TORSDOF 1
ENDMDL
MODEL 2
REMARK VINA RESULT:      -5.6      0.847      3.327
REMARK  1 active torsions:
REMARK  status: ('A' for Active; 'I' for Inactive)
REMARK    1  A    between atoms: C2_2  and  C8_8 
ROOT
HETATM    1  C1  UNL     1     -33.434   7.382   5.158  1.00 20.00    -0.081 C 
HETATM    2  C2  UNL     1     -33.564   6.401   4.249  1.00 20.00    -0.078 C 
HETATM    3  C3  UNL     1     -34.252   7.105   6.383  1.00 20.00     0.034 C 
HETATM    4  C4  UNL     1     -34.490   5.326   4.736  1.00 20.00     0.034 C 
HETATM    5  C5  UNL     1     -34.627   5.635   6.224  1.00 20.00     0.009 C 
HETATM    6  C6  UNL     1     -32.646   8.642   5.074  1.00 20.00     0.043 C 
ENDROOT
BRANCH   2   7
HETATM    7  C8  UNL     1     -32.961   6.286   2.894  1.00 20.00     0.030 C 
HETATM    8  C7  UNL     1     -32.903   4.836   2.456  1.00 20.00     0.010 C 
ENDBRANCH   2   7
TORSDOF 1
ENDMDL
MODEL 3
REMARK VINA RESULT:      -5.6      0.915      2.911
REMARK  1 active torsions:
REMARK  status: ('A' for Active; 'I' for Inactive)
REMARK    1  A    between atoms: C2_2  and  C8_8 
ROOT
HETATM    1  C1  UNL     1     -33.605   5.659   3.911  1.00 20.00    -0.081 C 
HETATM    2  C2  UNL     1     -33.409   6.876   4.443  1.00 20.00    -0.078 C 
HETATM    3  C3  UNL     1     -34.367   4.769   4.847  1.00 20.00     0.034 C 
HETATM    4  C4  UNL     1     -34.010   6.977   5.813  1.00 20.00     0.034 C 
HETATM    5  C5  UNL     1     -34.906   5.744   5.889  1.00 20.00     0.009 C 
HETATM    6  C6  UNL     1     -33.153   5.123   2.598  1.00 20.00     0.043 C 
ENDROOT
BRANCH   2   7
HETATM    7  C8  UNL     1     -32.682   8.045   3.878  1.00 20.00     0.030 C 
HETATM    8  C7  UNL     1     -32.309   9.024   4.974  1.00 20.00     0.010 C 
ENDBRANCH   2   7
TORSDOF 1
ENDMDL
MODEL 4
REMARK VINA RESULT:      -5.3      0.680      2.225
REMARK  1 active torsions:
REMARK  status: ('A' for Active; 'I' for Inactive)
REMARK    1  A    between atoms: C2_2  and  C8_8 
ROOT
HETATM    1  C1  UNL     1     -33.284   7.517   4.487  1.00 20.00    -0.081 C 
HETATM    2  C2  UNL     1     -33.879   6.341   4.231  1.00 20.00    -0.078 C 
HETATM    3  C3  UNL     1     -32.119   7.751   3.573  1.00 20.00     0.034 C 
HETATM    4  C4  UNL     1     -33.198   5.617   3.107  1.00 20.00     0.034 C 
HETATM    5  C5  UNL     1     -32.311   6.695   2.490  1.00 20.00     0.009 C 
HETATM    6  C6  UNL     1     -33.611   8.528   5.529  1.00 20.00     0.043 C 
ENDROOT
BRANCH   2   7
HETATM    7  C8  UNL     1     -35.039   5.704   4.911  1.00 20.00     0.030 C 
HETATM    8  C7  UNL     1     -34.658   5.249   6.306  1.00 20.00     0.010 C 
ENDBRANCH   2   7
TORSDOF 1
ENDMDL
MODEL 5
REMARK VINA RESULT:      -5.3      0.890      2.289
REMARK  1 active torsions:
REMARK  status: ('A' for Active; 'I' for Inactive)
REMARK    1  A    between atoms: C2_2  and  C8_8 
ROOT
HETATM    1  C1  UNL     1     -32.732   7.667   4.225  1.00 20.00    -0.081 C 
HETATM    2  C2  UNL     1     -33.556   6.742   4.742  1.00 20.00    -0.078 C 
HETATM    3  C3  UNL     1     -32.122   7.200   2.937  1.00 20.00     0.034 C 
HETATM    4  C4  UNL     1     -33.617   5.520   3.874  1.00 20.00     0.034 C 
HETATM    5  C5  UNL     1     -32.972   5.987   2.573  1.00 20.00     0.009 C 
HETATM    6  C6  UNL     1     -32.357   9.001   4.768  1.00 20.00     0.043 C 
ENDROOT
BRANCH   2   7
HETATM    7  C8  UNL     1     -34.336   6.777   6.008  1.00 20.00     0.030 C 
HETATM    8  C7  UNL     1     -34.684   5.373   6.461  1.00 20.00     0.010 C 
ENDBRANCH   2   7
TORSDOF 1
ENDMDL
MODEL 6
REMARK VINA RESULT:      -5.2      0.759      3.188
REMARK  1 active torsions:
REMARK  status: ('A' for Active; 'I' for Inactive)
REMARK    1  A    between atoms: C2_2  and  C8_8 
ROOT
HETATM    1  C1  UNL     1     -34.105   5.758   4.878  1.00 20.00    -0.081 C 
HETATM    2  C2  UNL     1     -33.528   6.907   4.490  1.00 20.00    -0.078 C 
HETATM    3  C3  UNL     1     -33.974   4.697   3.827  1.00 20.00     0.034 C 
HETATM    4  C4  UNL     1     -32.927   6.781   3.121  1.00 20.00     0.034 C 
HETATM    5  C5  UNL     1     -32.925   5.274   2.882  1.00 20.00     0.009 C 
HETATM    6  C6  UNL     1     -34.838   5.454   6.137  1.00 20.00     0.043 C 
ENDROOT
BRANCH   2   7
HETATM    7  C8  UNL     1     -33.451   8.211   5.202  1.00 20.00     0.030 C 
HETATM    8  C7  UNL     1     -32.221   8.985   4.770  1.00 20.00     0.010 C 
ENDBRANCH   2   7
TORSDOF 1
ENDMDL
MODEL 7
REMARK VINA RESULT:      -5.1      0.955      2.698
REMARK  1 active torsions:
REMARK  status: ('A' for Active; 'I' for Inactive)
REMARK    1  A    between atoms: C2_2  and  C8_8 
ROOT
HETATM    1  C1  UNL     1     -33.596   7.239   5.351  1.00 20.00    -0.081 C 
HETATM    2  C2  UNL     1     -33.310   6.660   4.174  1.00 20.00    -0.078 C 
HETATM    3  C3  UNL     1     -32.926   8.574   5.483  1.00 20.00     0.034 C 
HETATM    4  C4  UNL     1     -32.404   7.524   3.347  1.00 20.00     0.034 C 
HETATM    5  C5  UNL     1     -32.468   8.872   4.059  1.00 20.00     0.009 C 
HETATM    6  C6  UNL     1     -34.424   6.723   6.476  1.00 20.00     0.043 C 
ENDROOT
BRANCH   2   7
HETATM    7  C8  UNL     1     -33.733   5.334   3.648  1.00 20.00     0.030 C 
HETATM    8  C7  UNL     1     -32.919   4.959   2.425  1.00 20.00     0.010 C 
ENDBRANCH   2   7
TORSDOF 1
ENDMDL
MODEL 8
REMARK VINA RESULT:      -4.9      1.102      3.766
REMARK  1 active torsions:
REMARK  status: ('A' for Active; 'I' for Inactive)
REMARK    1  A    between atoms: C2_2  and  C8_8 
ROOT
HETATM    1  C1  UNL     1     -34.019   6.701   5.559  1.00 20.00    -0.081 C 
HETATM    2  C2  UNL     1     -33.402   6.786   4.369  1.00 20.00    -0.078 C 
HETATM    3  C3  UNL     1     -34.793   5.423   5.684  1.00 20.00     0.034 C 
HETATM    4  C4  UNL     1     -33.674   5.576   3.525  1.00 20.00     0.034 C 
HETATM    5  C5  UNL     1     -34.268   4.585   4.522  1.00 20.00     0.009 C 
HETATM    6  C6  UNL     1     -34.044   7.683   6.677  1.00 20.00     0.043 C 
ENDROOT
BRANCH   2   7
HETATM    7  C8  UNL     1     -32.563   7.884   3.819  1.00 20.00     0.030 C 
HETATM    8  C7  UNL     1     -32.169   7.591   2.385  1.00 20.00     0.010 C 
ENDBRANCH   2   7
TORSDOF 1
ENDMDL
MODEL 9
REMARK VINA RESULT:      -4.9      1.047      2.993
REMARK  1 active torsions:
REMARK  status: ('A' for Active; 'I' for Inactive)
REMARK    1  A    between atoms: C2_2  and  C8_8 
ROOT
HETATM    1  C1  UNL     1     -34.000   6.302   4.982  1.00 20.00    -0.081 C 
HETATM    2  C2  UNL     1     -33.165   6.928   4.136  1.00 20.00    -0.078 C 
HETATM    3  C3  UNL     1     -34.204   7.095   6.237  1.00 20.00     0.034 C 
HETATM    4  C4  UNL     1     -32.689   8.232   4.705  1.00 20.00     0.034 C 
HETATM    5  C5  UNL     1     -33.637   8.465   5.877  1.00 20.00     0.009 C 
HETATM    6  C6  UNL     1     -34.673   4.983   4.833  1.00 20.00     0.043 C 
ENDROOT
BRANCH   2   7
HETATM    7  C8  UNL     1     -32.668   6.489   2.804  1.00 20.00     0.030 C 
HETATM    8  C7  UNL     1     -32.163   7.673   2.004  1.00 20.00     0.010 C 
ENDBRANCH   2   7
TORSDOF 1
ENDMDL
