MODEL 1
REMARK VINA RESULT:      -6.9      0.000      0.000
REMARK  0 active torsions:
REMARK  status: ('A' for Active; 'I' for Inactive)
ROOT
HETATM    1  C1  UNL     1     -34.768   5.671   6.277  1.00 20.00     0.001 A 
HETATM    2  C2  UNL     1     -34.647   4.906   5.103  1.00 20.00     0.001 A 
HETATM    3  C3  UNL     1     -34.168   6.928   6.376  1.00 20.00     0.012 A 
HETATM    4  C4  UNL     1     -33.925   5.387   4.009  1.00 20.00     0.008 A 
HETATM    5  C5  UNL     1     -33.454   7.397   5.288  1.00 20.00    -0.030 A 
HETATM    6  C6  UNL     1     -33.334   6.632   4.117  1.00 20.00    -0.044 A 
HETATM    7  C7  UNL     1     -32.736   8.647   5.111  1.00 20.00     0.008 A 
HETATM    8  C8  UNL     1     -32.201   8.643   3.880  1.00 20.00    -0.021 A 
HETATM    9  C9  UNL     1     -32.513   7.379   3.113  1.00 20.00     0.066 A 
ENDROOT
TORSDOF 0
ENDMDL
MODEL 2
REMARK VINA RESULT:      -6.9      0.552      3.140
REMARK  0 active torsions:
REMARK  status: ('A' for Active; 'I' for Inactive)
ROOT
HETATM    1  C1  UNL     1     -32.280   8.506   3.981  1.00 20.00     0.001 A 
HETATM    2  C2  UNL     1     -32.262   7.544   2.955  1.00 20.00     0.001 A 
HETATM    3  C3  UNL     1     -32.974   8.270   5.170  1.00 20.00     0.012 A 
HETATM    4  C4  UNL     1     -32.937   6.331   3.102  1.00 20.00     0.008 A 
HETATM    5  C5  UNL     1     -33.640   7.065   5.307  1.00 20.00    -0.030 A 
HETATM    6  C6  UNL     1     -33.621   6.107   4.282  1.00 20.00    -0.044 A 
HETATM    7  C7  UNL     1     -34.432   6.558   6.414  1.00 20.00     0.008 A 
HETATM    8  C8  UNL     1     -34.876   5.338   6.076  1.00 20.00    -0.021 A 
HETATM    9  C9  UNL     1     -34.420   4.912   4.699  1.00 20.00     0.066 A 
ENDROOT
TORSDOF 0
ENDMDL
MODEL 3
REMARK VINA RESULT:      -6.9      0.091      1.982
REMARK  0 active torsions:
REMARK  status: ('A' for Active; 'I' for Inactive)
ROOT
HETATM    1  C1  UNL     1     -34.640   4.921   5.082  1.00 20.00     0.001 A 
HETATM    2  C2  UNL     1     -34.744   5.687   6.257  1.00 20.00     0.001 A 
HETATM    3  C3  UNL     1     -33.920   5.392   3.982  1.00 20.00     0.012 A 
HETATM    4  C4  UNL     1     -34.129   6.937   6.350  1.00 20.00     0.008 A 
HETATM    5  C5  UNL     1     -33.314   6.631   4.083  1.00 20.00    -0.030 A 
HETATM    6  C6  UNL     1     -33.418   7.395   5.255  1.00 20.00    -0.044 A 
HETATM    7  C7  UNL     1     -32.516   7.361   3.113  1.00 20.00     0.008 A 
HETATM    8  C8  UNL     1     -32.149   8.523   3.675  1.00 20.00    -0.021 A 
HETATM    9  C9  UNL     1     -32.672   8.681   5.083  1.00 20.00     0.066 A 
ENDROOT
TORSDOF 0
ENDMDL
MODEL 4
REMARK VINA RESULT:      -6.8      0.554      3.688
REMARK  0 active torsions:
REMARK  status: ('A' for Active; 'I' for Inactive)
ROOT
HETATM    1  C1  UNL     1     -32.294   7.337   2.813  1.00 20.00     0.001 A 
HETATM    2  C2  UNL     1     -32.221   8.369   3.766  1.00 20.00     0.001 A 
HETATM    3  C3  UNL     1     -33.021   6.173   3.072  1.00 20.00     0.012 A 
HETATM    4  C4  UNL     1     -32.875   8.252   4.995  1.00 20.00     0.008 A 
HETATM    5  C5  UNL     1     -33.666   6.066   4.292  1.00 20.00    -0.030 A 
HETATM    6  C6  UNL     1     -33.592   7.096   5.242  1.00 20.00    -0.044 A 
HETATM    7  C7  UNL     1     -34.479   4.988   4.825  1.00 20.00     0.008 A 
HETATM    8  C8  UNL     1     -34.885   5.349   6.053  1.00 20.00    -0.021 A 
HETATM    9  C9  UNL     1     -34.376   6.712   6.458  1.00 20.00     0.066 A 
ENDROOT
TORSDOF 0
ENDMDL
MODEL 5
REMARK VINA RESULT:      -6.8      0.809      1.282
REMARK  0 active torsions:
REMARK  status: ('A' for Active; 'I' for Inactive)
ROOT
HETATM    1  C1  UNL     1     -34.492   6.574   6.522  1.00 20.00     0.001 A 
HETATM    2  C2  UNL     1     -34.833   5.335   5.950  1.00 20.00     0.001 A 
HETATM    3  C3  UNL     1     -33.689   7.484   5.832  1.00 20.00     0.012 A 
HETATM    4  C4  UNL     1     -34.375   4.987   4.678  1.00 20.00     0.008 A 
HETATM    5  C5  UNL     1     -33.240   7.131   4.571  1.00 20.00    -0.030 A 
HETATM    6  C6  UNL     1     -33.580   5.895   4.002  1.00 20.00    -0.044 A 
HETATM    7  C7  UNL     1     -32.403   7.867   3.639  1.00 20.00     0.008 A 
HETATM    8  C8  UNL     1     -32.242   7.106   2.545  1.00 20.00    -0.021 A 
HETATM    9  C9  UNL     1     -32.960   5.781   2.645  1.00 20.00     0.066 A 
ENDROOT
TORSDOF 0
ENDMDL
MODEL 6
REMARK VINA RESULT:      -6.7      0.815      2.178
REMARK  0 active torsions:
REMARK  status: ('A' for Active; 'I' for Inactive)
ROOT
HETATM    1  C1  UNL     1     -34.844   5.288   5.938  1.00 20.00     0.001 A 
HETATM    2  C2  UNL     1     -34.531   6.517   6.545  1.00 20.00     0.001 A 
HETATM    3  C3  UNL     1     -34.368   4.978   4.662  1.00 20.00     0.012 A 
HETATM    4  C4  UNL     1     -33.735   7.456   5.886  1.00 20.00     0.008 A 
HETATM    5  C5  UNL     1     -33.580   5.914   4.016  1.00 20.00    -0.030 A 
HETATM    6  C6  UNL     1     -33.268   7.140   4.623  1.00 20.00    -0.044 A 
HETATM    7  C7  UNL     1     -32.957   5.864   2.704  1.00 20.00     0.008 A 
HETATM    8  C8  UNL     1     -32.292   7.016   2.522  1.00 20.00    -0.021 A 
HETATM    9  C9  UNL     1     -32.409   7.950   3.703  1.00 20.00     0.066 A 
ENDROOT
TORSDOF 0
ENDMDL
MODEL 7
REMARK VINA RESULT:      -5.7      0.934      2.499
REMARK  0 active torsions:
REMARK  status: ('A' for Active; 'I' for Inactive)
ROOT
HETATM    1  C1  UNL     1     -32.991   5.303   2.705  1.00 20.00     0.001 A 
HETATM    2  C2  UNL     1     -33.815   4.536   3.549  1.00 20.00     0.001 A 
HETATM    3  C3  UNL     1     -32.635   6.610   3.048  1.00 20.00     0.012 A 
HETATM    4  C4  UNL     1     -34.297   5.064   4.748  1.00 20.00     0.008 A 
HETATM    5  C5  UNL     1     -33.117   7.125   4.238  1.00 20.00    -0.030 A 
HETATM    6  C6  UNL     1     -33.939   6.359   5.078  1.00 20.00    -0.044 A 
HETATM    7  C7  UNL     1     -32.915   8.432   4.838  1.00 20.00     0.008 A 
HETATM    8  C8  UNL     1     -33.588   8.459   5.999  1.00 20.00    -0.021 A 
HETATM    9  C9  UNL     1     -34.310   7.162   6.285  1.00 20.00     0.066 A 
ENDROOT
TORSDOF 0
ENDMDL
MODEL 8
REMARK VINA RESULT:      -4.2     14.914     15.622
REMARK  0 active torsions:
REMARK  status: ('A' for Active; 'I' for Inactive)
ROOT
HETATM    1  C1  UNL     1     -25.310  16.716  12.332  1.00 20.00     0.001 A 
HETATM    2  C2  UNL     1     -25.866  18.004  12.240  1.00 20.00     0.001 A 
HETATM    3  C3  UNL     1     -24.289  16.314  11.467  1.00 20.00     0.012 A 
HETATM    4  C4  UNL     1     -25.410  18.912  11.282  1.00 20.00     0.008 A 
HETATM    5  C5  UNL     1     -23.843  17.220  10.521  1.00 20.00    -0.030 A 
HETATM    6  C6  UNL     1     -24.399  18.505  10.431  1.00 20.00    -0.044 A 
HETATM    7  C7  UNL     1     -22.812  17.078   9.507  1.00 20.00     0.008 A 
HETATM    8  C8  UNL     1     -22.745  18.234   8.827  1.00 20.00    -0.021 A 
HETATM    9  C9  UNL     1     -23.732  19.263   9.326  1.00 20.00     0.066 A 
ENDROOT
TORSDOF 0
ENDMDL
MODEL 9
REMARK VINA RESULT:      -4.1     15.891     16.623
REMARK  0 active torsions:
REMARK  status: ('A' for Active; 'I' for Inactive)
ROOT
HETATM    1  C1  UNL     1     -25.228  18.884  11.461  1.00 20.00     0.001 A 
HETATM    2  C2  UNL     1     -24.184  18.524  12.332  1.00 20.00     0.001 A 
HETATM    3  C3  UNL     1     -24.998  19.027  10.090  1.00 20.00     0.012 A 
HETATM    4  C4  UNL     1     -22.894  18.301  11.846  1.00 20.00     0.008 A 
HETATM    5  C5  UNL     1     -23.717  18.804   9.618  1.00 20.00    -0.030 A 
HETATM    6  C6  UNL     1     -22.677  18.445  10.488  1.00 20.00    -0.044 A 
HETATM    7  C7  UNL     1     -23.196  18.879   8.264  1.00 20.00     0.008 A 
HETATM    8  C8  UNL     1     -21.889  18.577   8.310  1.00 20.00    -0.021 A 
HETATM    9  C9  UNL     1     -21.410  18.270   9.710  1.00 20.00     0.066 A 
ENDROOT
TORSDOF 0
ENDMDL
