MODEL 1
REMARK VINA RESULT:      -5.2      0.000      0.000
REMARK  1 active torsions:
REMARK  status: ('A' for Active; 'I' for Inactive)
REMARK    1  A    between atoms: C6_6  and  C9_9 
ROOT
HETATM    1  C1  UNL     1     -32.892   6.472   2.807  1.00 20.00     0.007 A 
HETATM    2  C2  UNL     1     -32.544   8.735   3.578  1.00 20.00     0.007 A 
HETATM    3  C3  UNL     1     -33.435   6.133   4.046  1.00 20.00     0.007 A 
HETATM    4  C4  UNL     1     -33.088   8.397   4.817  1.00 20.00     0.007 A 
HETATM    5  C5  UNL     1     -32.447   7.774   2.573  1.00 20.00    -0.062 A 
HETATM    6  C6  UNL     1     -33.533   7.096   5.051  1.00 20.00    -0.059 A 
HETATM    7  C7  UNL     1     -31.866   8.137   1.248  1.00 20.00     0.048 C 
ENDROOT
BRANCH   6   8
HETATM    8  C9  UNL     1     -34.115   6.732   6.375  1.00 20.00     0.034 C 
HETATM    9  C8  UNL     1     -34.700   5.322   6.385  1.00 20.00     0.010 C 
ENDBRANCH   6   8
TORSDOF 1
ENDMDL
MODEL 2
REMARK VINA RESULT:      -5.2      0.016      1.611
REMARK  1 active torsions:
REMARK  status: ('A' for Active; 'I' for Inactive)
REMARK    1  A    between atoms: C6_6  and  C9_9 
ROOT
HETATM    1  C1  UNL     1     -32.539   8.742   3.572  1.00 20.00     0.007 A 
HETATM    2  C2  UNL     1     -32.886   6.480   2.798  1.00 20.00     0.007 A 
HETATM    3  C3  UNL     1     -33.076   8.399   4.813  1.00 20.00     0.007 A 
HETATM    4  C4  UNL     1     -33.422   6.137   4.038  1.00 20.00     0.007 A 
HETATM    5  C5  UNL     1     -32.444   7.782   2.565  1.00 20.00    -0.062 A 
HETATM    6  C6  UNL     1     -33.517   7.096   5.046  1.00 20.00    -0.059 A 
HETATM    7  C7  UNL     1     -31.871   8.148   1.237  1.00 20.00     0.048 C 
ENDROOT
BRANCH   6   8
HETATM    8  C9  UNL     1     -34.089   6.731   6.374  1.00 20.00     0.034 C 
HETATM    9  C8  UNL     1     -34.684   5.325   6.383  1.00 20.00     0.010 C 
ENDBRANCH   6   8
TORSDOF 1
ENDMDL
MODEL 3
REMARK VINA RESULT:      -5.1      0.728      4.248
REMARK  1 active torsions:
REMARK  status: ('A' for Active; 'I' for Inactive)
REMARK    1  A    between atoms: C6_6  and  C9_9 
ROOT
HETATM    1  C1  UNL     1     -33.515   7.625   5.156  1.00 20.00     0.007 A 
HETATM    2  C2  UNL     1     -33.760   5.538   3.964  1.00 20.00     0.007 A 
HETATM    3  C3  UNL     1     -32.832   8.166   4.068  1.00 20.00     0.007 A 
HETATM    4  C4  UNL     1     -33.078   6.079   2.876  1.00 20.00     0.007 A 
HETATM    5  C5  UNL     1     -33.979   6.310   5.104  1.00 20.00    -0.062 A 
HETATM    6  C6  UNL     1     -32.613   7.393   2.927  1.00 20.00    -0.059 A 
HETATM    7  C7  UNL     1     -34.710   5.730   6.269  1.00 20.00     0.048 C 
ENDROOT
BRANCH   6   8
HETATM    8  C9  UNL     1     -31.884   7.974   1.763  1.00 20.00     0.034 C 
HETATM    9  C8  UNL     1     -32.670   9.093   1.085  1.00 20.00     0.010 C 
ENDBRANCH   6   8
TORSDOF 1
ENDMDL
MODEL 4
REMARK VINA RESULT:      -5.1      0.729      3.937
REMARK  1 active torsions:
REMARK  status: ('A' for Active; 'I' for Inactive)
REMARK    1  A    between atoms: C6_6  and  C9_9 
ROOT
HETATM    1  C1  UNL     1     -33.781   5.555   3.984  1.00 20.00     0.007 A 
HETATM    2  C2  UNL     1     -33.516   7.646   5.163  1.00 20.00     0.007 A 
HETATM    3  C3  UNL     1     -33.098   6.085   2.890  1.00 20.00     0.007 A 
HETATM    4  C4  UNL     1     -32.832   8.176   4.070  1.00 20.00     0.007 A 
HETATM    5  C5  UNL     1     -33.990   6.336   5.120  1.00 20.00    -0.062 A 
HETATM    6  C6  UNL     1     -32.623   7.396   2.933  1.00 20.00    -0.059 A 
HETATM    7  C7  UNL     1     -34.722   5.769   6.291  1.00 20.00     0.048 C 
ENDROOT
BRANCH   6   8
HETATM    8  C9  UNL     1     -31.891   7.961   1.763  1.00 20.00     0.034 C 
HETATM    9  C8  UNL     1     -32.663   9.091   1.085  1.00 20.00     0.010 C 
ENDBRANCH   6   8
TORSDOF 1
ENDMDL
MODEL 5
REMARK VINA RESULT:      -4.5      0.757      1.083
REMARK  1 active torsions:
REMARK  status: ('A' for Active; 'I' for Inactive)
REMARK    1  A    between atoms: C6_6  and  C9_9 
ROOT
HETATM    1  C1  UNL     1     -32.745   6.076   2.279  1.00 20.00     0.007 A 
HETATM    2  C2  UNL     1     -32.949   8.014   3.707  1.00 20.00     0.007 A 
HETATM    3  C3  UNL     1     -33.413   5.305   3.230  1.00 20.00     0.007 A 
HETATM    4  C4  UNL     1     -33.617   7.244   4.658  1.00 20.00     0.007 A 
HETATM    5  C5  UNL     1     -32.513   7.431   2.518  1.00 20.00    -0.062 A 
HETATM    6  C6  UNL     1     -33.849   5.890   4.420  1.00 20.00    -0.059 A 
HETATM    7  C7  UNL     1     -31.799   8.256   1.500  1.00 20.00     0.048 C 
ENDROOT
BRANCH   6   8
HETATM    8  C9  UNL     1     -34.565   5.065   5.436  1.00 20.00     0.034 C 
HETATM    9  C8  UNL     1     -34.827   5.834   6.728  1.00 20.00     0.010 C 
ENDBRANCH   6   8
TORSDOF 1
ENDMDL
MODEL 6
REMARK VINA RESULT:      -4.1     11.570     12.301
REMARK  1 active torsions:
REMARK  status: ('A' for Active; 'I' for Inactive)
REMARK    1  A    between atoms: C6_6  and  C9_9 
ROOT
HETATM    1  C1  UNL     1     -33.294  18.507   1.167  1.00 20.00     0.007 A 
HETATM    2  C2  UNL     1     -31.189  18.592  -0.015  1.00 20.00     0.007 A 
HETATM    3  C3  UNL     1     -33.938  18.117  -0.007  1.00 20.00     0.007 A 
HETATM    4  C4  UNL     1     -31.833  18.202  -1.189  1.00 20.00     0.007 A 
HETATM    5  C5  UNL     1     -31.919  18.744   1.163  1.00 20.00    -0.062 A 
HETATM    6  C6  UNL     1     -33.207  17.965  -1.185  1.00 20.00    -0.059 A 
HETATM    7  C7  UNL     1     -31.230  19.161   2.419  1.00 20.00     0.048 C 
ENDROOT
BRANCH   6   8
HETATM    8  C9  UNL     1     -33.896  17.547  -2.440  1.00 20.00     0.034 C 
HETATM    9  C8  UNL     1     -33.310  16.265  -3.026  1.00 20.00     0.010 C 
ENDBRANCH   6   8
TORSDOF 1
ENDMDL
MODEL 7
REMARK VINA RESULT:      -4.0     11.698     12.020
REMARK  1 active torsions:
REMARK  status: ('A' for Active; 'I' for Inactive)
REMARK    1  A    between atoms: C6_6  and  C9_9 
ROOT
HETATM    1  C1  UNL     1     -33.918  17.805  -0.420  1.00 20.00     0.007 A 
HETATM    2  C2  UNL     1     -31.658  18.166  -1.195  1.00 20.00     0.007 A 
HETATM    3  C3  UNL     1     -33.567  18.302   0.835  1.00 20.00     0.007 A 
HETATM    4  C4  UNL     1     -31.307  18.663   0.060  1.00 20.00     0.007 A 
HETATM    5  C5  UNL     1     -32.963  17.738  -1.435  1.00 20.00    -0.062 A 
HETATM    6  C6  UNL     1     -32.261  18.731   1.075  1.00 20.00    -0.059 A 
HETATM    7  C7  UNL     1     -33.339  17.207  -2.778  1.00 20.00     0.048 C 
ENDROOT
BRANCH   6   8
HETATM    8  C9  UNL     1     -31.887  19.262   2.417  1.00 20.00     0.034 C 
HETATM    9  C8  UNL     1     -30.501  18.798   2.860  1.00 20.00     0.010 C 
ENDBRANCH   6   8
TORSDOF 1
ENDMDL
MODEL 8
REMARK VINA RESULT:      -3.8     11.426     12.530
REMARK  1 active torsions:
REMARK  status: ('A' for Active; 'I' for Inactive)
REMARK    1  A    between atoms: C6_6  and  C9_9 
ROOT
HETATM    1  C1  UNL     1     -35.212  16.870  -5.199  1.00 20.00     0.007 A 
HETATM    2  C2  UNL     1     -34.114  14.792  -4.640  1.00 20.00     0.007 A 
HETATM    3  C3  UNL     1     -34.533  17.508  -4.161  1.00 20.00     0.007 A 
HETATM    4  C4  UNL     1     -33.435  15.430  -3.603  1.00 20.00     0.007 A 
HETATM    5  C5  UNL     1     -35.003  15.512  -5.438  1.00 20.00    -0.062 A 
HETATM    6  C6  UNL     1     -33.644  16.788  -3.363  1.00 20.00    -0.059 A 
HETATM    7  C7  UNL     1     -35.729  14.829  -6.548  1.00 20.00     0.048 C 
ENDROOT
BRANCH   6   8
HETATM    8  C9  UNL     1     -32.917  17.471  -2.255  1.00 20.00     0.034 C 
HETATM    9  C8  UNL     1     -33.728  17.503  -0.962  1.00 20.00     0.010 C 
ENDBRANCH   6   8
TORSDOF 1
ENDMDL
MODEL 9
REMARK VINA RESULT:      -3.8     11.495     12.462
REMARK  1 active torsions:
REMARK  status: ('A' for Active; 'I' for Inactive)
REMARK    1  A    between atoms: C6_6  and  C9_9 
ROOT
HETATM    1  C1  UNL     1     -34.008  14.918  -4.475  1.00 20.00     0.007 A 
HETATM    2  C2  UNL     1     -35.298  16.883  -5.035  1.00 20.00     0.007 A 
HETATM    3  C3  UNL     1     -33.356  15.633  -3.471  1.00 20.00     0.007 A 
HETATM    4  C4  UNL     1     -34.647  17.597  -4.030  1.00 20.00     0.007 A 
HETATM    5  C5  UNL     1     -34.979  15.544  -5.257  1.00 20.00    -0.062 A 
HETATM    6  C6  UNL     1     -33.676  16.973  -3.248  1.00 20.00    -0.059 A 
HETATM    7  C7  UNL     1     -35.677  14.779  -6.333  1.00 20.00     0.048 C 
ENDROOT
BRANCH   6   8
HETATM    8  C9  UNL     1     -32.979  17.735  -2.172  1.00 20.00     0.034 C 
HETATM    9  C8  UNL     1     -33.723  17.672  -0.840  1.00 20.00     0.010 C 
ENDBRANCH   6   8
TORSDOF 1
ENDMDL
