@<TRIPOS>MOLECULE
hexylbenzene.pdb
   30    30     0     0     0
SMALL
NO_CHARGES

@<TRIPOS>ATOM
      1 C1        -32.5870   12.6930    4.6340 C.3       1 MOL         0.0000
      2 C2        -33.6160   11.7610    3.9790 C.3       1 MOL         0.0000
      3 C3        -32.9210   10.7210    3.0850 C.3       1 MOL         0.0000
      4 C4        -33.9340    9.7750    2.4200 C.3       1 MOL         0.0000
      5 C5        -33.2670    8.7030    1.5340 C.3       1 MOL         0.0000
      6 C6        -32.3410    7.7650    2.3220 C.3       1 MOL         0.0000
      7 C7        -33.1230    7.0140    3.4160 C.ar      1 MOL         0.0000
      8 C8        -33.8830    5.8970    3.1020 C.ar      1 MOL         0.0000
      9 C9        -34.5930    5.2370    4.1000 C.ar      1 MOL         0.0000
     10 C10       -34.5390    5.6920    5.4080 C.ar      1 MOL         0.0000
     11 C11       -33.7820    6.8110    5.7200 C.ar      1 MOL         0.0000
     12 C12       -33.0740    7.4700    4.7250 C.ar      1 MOL         0.0000
     13 H1        -33.1023   13.4201    5.2616 H         1 MOL         0.0000
     14 H2        -32.0254   13.2153    3.8595 H         1 MOL         0.0000
     15 H3        -31.9023   12.1056    5.2457 H         1 MOL         0.0000
     16 H4        -34.2994   12.3544    3.3715 H         1 MOL         0.0000
     17 H5        -34.1808   11.2464    4.7564 H         1 MOL         0.0000
     18 H6        -32.3609   11.2412    2.3080 H         1 MOL         0.0000
     19 H7        -32.2301   10.1348    3.6908 H         1 MOL         0.0000
     20 H8        -34.6073   10.3674    1.8005 H         1 MOL         0.0000
     21 H9        -34.5152    9.2784    3.1970 H         1 MOL         0.0000
     22 H10       -34.0483    8.1056    1.0641 H         1 MOL         0.0000
     23 H11       -32.6869    9.1995    0.7561 H         1 MOL         0.0000
     24 H12       -31.9002    7.0405    1.6372 H         1 MOL         0.0000
     25 H13       -31.5469    8.3503    2.7857 H         1 MOL         0.0000
     26 H14       -33.9236    5.5399    2.0836 H         1 MOL         0.0000
     27 H15       -35.1870    4.3689    3.8551 H         1 MOL         0.0000
     28 H16       -35.0858    5.1757    6.1832 H         1 MOL         0.0000
     29 H17       -33.7434    7.1699    6.7379 H         1 MOL         0.0000
     30 H18       -32.4833    8.3402    4.9705 H         1 MOL         0.0000
@<TRIPOS>BOND
     1    1    2 1
     2    2    3 1
     3    3    4 1
     4    4    5 1
     5    5    6 1
     6    6    7 1
     7    7    8 ar
     8    7   12 ar
     9    8    9 ar
    10    9   10 ar
    11   10   11 ar
    12   11   12 ar
    13    1   13 1
    14    1   14 1
    15    1   15 1
    16    2   16 1
    17    2   17 1
    18    3   18 1
    19    3   19 1
    20    4   20 1
    21    4   21 1
    22    5   22 1
    23    5   23 1
    24    6   24 1
    25    6   25 1
    26    8   26 1
    27    9   27 1
    28   10   28 1
    29   11   29 1
    30   12   30 1
