MODEL 1
REMARK VINA RESULT:      -5.7      0.000      0.000
REMARK  0 active torsions:
REMARK  status: ('A' for Active; 'I' for Inactive)
ROOT
HETATM    1  C1  UNL     1     -34.873   5.240   5.766  1.00 20.00     0.002 A 
HETATM    2  C2  UNL     1     -34.297   6.477   6.055  1.00 20.00     0.002 A 
HETATM    3  C3  UNL     1     -34.657   4.643   4.524  1.00 20.00     0.025 A 
HETATM    4  C4  UNL     1     -33.504   7.117   5.102  1.00 20.00     0.025 A 
HETATM    5  C5  UNL     1     -33.865   5.282   3.571  1.00 20.00     0.055 A 
HETATM    6  C6  UNL     1     -33.288   6.519   3.860  1.00 20.00     0.055 A 
HETATM    7 CL7  UNL     1     -33.633   4.493   2.051  1.00 20.00    -0.083 Cl
HETATM    8 CL8  UNL     1     -32.298   7.363   2.721  1.00 20.00    -0.083 Cl
ENDROOT
TORSDOF 0
ENDMDL
MODEL 2
REMARK VINA RESULT:      -5.7      0.014      2.353
REMARK  0 active torsions:
REMARK  status: ('A' for Active; 'I' for Inactive)
ROOT
HETATM    1  C1  UNL     1     -34.295   6.478   6.059  1.00 20.00     0.002 A 
HETATM    2  C2  UNL     1     -34.880   5.247   5.763  1.00 20.00     0.002 A 
HETATM    3  C3  UNL     1     -33.497   7.117   5.111  1.00 20.00     0.025 A 
HETATM    4  C4  UNL     1     -34.667   4.655   4.518  1.00 20.00     0.025 A 
HETATM    5  C5  UNL     1     -33.284   6.526   3.866  1.00 20.00     0.055 A 
HETATM    6  C6  UNL     1     -33.869   5.295   3.569  1.00 20.00     0.055 A 
HETATM    7 CL7  UNL     1     -32.285   7.366   2.731  1.00 20.00    -0.083 Cl
HETATM    8 CL8  UNL     1     -33.643   4.510   2.045  1.00 20.00    -0.083 Cl
ENDROOT
TORSDOF 0
ENDMDL
MODEL 3
REMARK VINA RESULT:      -4.2      2.093      3.724
REMARK  0 active torsions:
REMARK  status: ('A' for Active; 'I' for Inactive)
ROOT
HETATM    1  C1  UNL     1     -32.130   7.226   2.754  1.00 20.00     0.002 A 
HETATM    2  C2  UNL     1     -32.675   6.145   2.062  1.00 20.00     0.002 A 
HETATM    3  C3  UNL     1     -32.560   7.512   4.050  1.00 20.00     0.025 A 
HETATM    4  C4  UNL     1     -33.649   5.350   2.665  1.00 20.00     0.025 A 
HETATM    5  C5  UNL     1     -33.534   6.717   4.654  1.00 20.00     0.055 A 
HETATM    6  C6  UNL     1     -34.079   5.635   3.961  1.00 20.00     0.055 A 
HETATM    7 CL7  UNL     1     -34.024   7.120   6.262  1.00 20.00    -0.083 Cl
HETATM    8 CL8  UNL     1     -35.289   4.613   4.654  1.00 20.00    -0.083 Cl
ENDROOT
TORSDOF 0
ENDMDL
MODEL 4
REMARK VINA RESULT:      -4.2      2.146      3.701
REMARK  0 active torsions:
REMARK  status: ('A' for Active; 'I' for Inactive)
ROOT
HETATM    1  C1  UNL     1     -32.800   6.166   2.360  1.00 20.00     0.002 A 
HETATM    2  C2  UNL     1     -33.431   4.923   2.337  1.00 20.00     0.002 A 
HETATM    3  C3  UNL     1     -32.894   6.976   3.491  1.00 20.00     0.025 A 
HETATM    4  C4  UNL     1     -34.157   4.489   3.446  1.00 20.00     0.025 A 
HETATM    5  C5  UNL     1     -33.620   6.542   4.600  1.00 20.00     0.055 A 
HETATM    6  C6  UNL     1     -34.252   5.299   4.578  1.00 20.00     0.055 A 
HETATM    7 CL7  UNL     1     -33.701   7.589   5.974  1.00 20.00    -0.083 Cl
HETATM    8 CL8  UNL     1     -35.166   4.705   5.919  1.00 20.00    -0.083 Cl
ENDROOT
TORSDOF 0
ENDMDL
MODEL 5
REMARK VINA RESULT:      -4.2      2.167      2.870
REMARK  0 active torsions:
REMARK  status: ('A' for Active; 'I' for Inactive)
ROOT
HETATM    1  C1  UNL     1     -33.531   4.799   2.449  1.00 20.00     0.002 A 
HETATM    2  C2  UNL     1     -32.890   6.035   2.364  1.00 20.00     0.002 A 
HETATM    3  C3  UNL     1     -34.220   4.449   3.610  1.00 20.00     0.025 A 
HETATM    4  C4  UNL     1     -32.938   6.921   3.440  1.00 20.00     0.025 A 
HETATM    5  C5  UNL     1     -34.268   5.335   4.686  1.00 20.00     0.055 A 
HETATM    6  C6  UNL     1     -33.628   6.571   4.601  1.00 20.00     0.055 A 
HETATM    7 CL7  UNL     1     -35.139   4.846   6.098  1.00 20.00    -0.083 Cl
HETATM    8 CL8  UNL     1     -33.651   7.712   5.900  1.00 20.00    -0.083 Cl
ENDROOT
TORSDOF 0
ENDMDL
MODEL 6
REMARK VINA RESULT:      -4.1      1.777      3.020
REMARK  0 active torsions:
REMARK  status: ('A' for Active; 'I' for Inactive)
ROOT
HETATM    1  C1  UNL     1     -33.686   4.586   2.581  1.00 20.00     0.002 A 
HETATM    2  C2  UNL     1     -34.550   4.263   3.626  1.00 20.00     0.002 A 
HETATM    3  C3  UNL     1     -32.917   5.748   2.645  1.00 20.00     0.025 A 
HETATM    4  C4  UNL     1     -34.646   5.102   4.736  1.00 20.00     0.025 A 
HETATM    5  C5  UNL     1     -33.013   6.587   3.755  1.00 20.00     0.055 A 
HETATM    6  C6  UNL     1     -33.877   6.264   4.800  1.00 20.00     0.055 A 
HETATM    7 CL7  UNL     1     -32.034   8.013   3.777  1.00 20.00    -0.083 Cl
HETATM    8 CL8  UNL     1     -34.041   7.263   6.202  1.00 20.00    -0.083 Cl
ENDROOT
TORSDOF 0
ENDMDL
MODEL 7
REMARK VINA RESULT:      -4.1      1.778      2.727
REMARK  0 active torsions:
REMARK  status: ('A' for Active; 'I' for Inactive)
ROOT
HETATM    1  C1  UNL     1     -34.546   4.292   3.621  1.00 20.00     0.002 A 
HETATM    2  C2  UNL     1     -33.698   4.614   2.562  1.00 20.00     0.002 A 
HETATM    3  C3  UNL     1     -34.617   5.127   4.737  1.00 20.00     0.025 A 
HETATM    4  C4  UNL     1     -32.921   5.771   2.618  1.00 20.00     0.025 A 
HETATM    5  C5  UNL     1     -33.839   6.283   4.793  1.00 20.00     0.055 A 
HETATM    6  C6  UNL     1     -32.991   6.605   3.733  1.00 20.00     0.055 A 
HETATM    7 CL7  UNL     1     -33.970   7.278   6.201  1.00 20.00    -0.083 Cl
HETATM    8 CL8  UNL     1     -32.003   8.024   3.743  1.00 20.00    -0.083 Cl
ENDROOT
TORSDOF 0
ENDMDL
MODEL 8
REMARK VINA RESULT:      -3.9     16.788     17.377
REMARK  0 active torsions:
REMARK  status: ('A' for Active; 'I' for Inactive)
ROOT
HETATM    1  C1  UNL     1     -23.840  18.507   8.143  1.00 20.00     0.002 A 
HETATM    2  C2  UNL     1     -22.539  18.059   8.374  1.00 20.00     0.002 A 
HETATM    3  C3  UNL     1     -24.719  18.677   9.213  1.00 20.00     0.025 A 
HETATM    4  C4  UNL     1     -22.118  17.781   9.674  1.00 20.00     0.025 A 
HETATM    5  C5  UNL     1     -24.297  18.399  10.513  1.00 20.00     0.055 A 
HETATM    6  C6  UNL     1     -22.997  17.951  10.744  1.00 20.00     0.055 A 
HETATM    7 CL7  UNL     1     -25.432  18.629  11.798  1.00 20.00    -0.083 Cl
HETATM    8 CL8  UNL     1     -22.414  17.589  12.331  1.00 20.00    -0.083 Cl
ENDROOT
TORSDOF 0
ENDMDL
MODEL 9
REMARK VINA RESULT:      -3.9     16.729     17.374
REMARK  0 active torsions:
REMARK  status: ('A' for Active; 'I' for Inactive)
ROOT
HETATM    1  C1  UNL     1     -22.468  18.053   8.372  1.00 20.00     0.002 A 
HETATM    2  C2  UNL     1     -23.768  18.480   8.099  1.00 20.00     0.002 A 
HETATM    3  C3  UNL     1     -22.086  17.778   9.685  1.00 20.00     0.025 A 
HETATM    4  C4  UNL     1     -24.685  18.631   9.139  1.00 20.00     0.025 A 
HETATM    5  C5  UNL     1     -23.003  17.929  10.725  1.00 20.00     0.055 A 
HETATM    6  C6  UNL     1     -24.303  18.355  10.452  1.00 20.00     0.055 A 
HETATM    7 CL7  UNL     1     -22.471  17.572  12.331  1.00 20.00    -0.083 Cl
HETATM    8 CL8  UNL     1     -25.486  18.562  11.696  1.00 20.00    -0.083 Cl
ENDROOT
TORSDOF 0
ENDMDL
