MODEL 1
REMARK VINA RESULT:      -4.0      0.000      0.000
REMARK  2 active torsions:
REMARK  status: ('A' for Active; 'I' for Inactive)
REMARK    1  A    between atoms: C5_5  and  S7_7 
REMARK    2  A    between atoms: C6_6  and  S8_8 
ROOT
HETATM    1  C1  UNL     1     -34.886   5.271   5.865  1.00 20.00     0.001 A 
HETATM    2  C2  UNL     1     -34.311   6.513   6.135  1.00 20.00     0.001 A 
HETATM    3  C3  UNL     1     -34.679   4.661   4.628  1.00 20.00     0.019 A 
HETATM    4  C4  UNL     1     -33.529   7.145   5.167  1.00 20.00     0.019 A 
HETATM    5  C5  UNL     1     -33.897   5.293   3.660  1.00 20.00     0.014 A 
HETATM    6  C6  UNL     1     -33.322   6.535   3.930  1.00 20.00     0.014 A 
ENDROOT
BRANCH   5   7
HETATM    7  S7  UNL     1     -33.690   4.430   2.102  1.00 20.00    -0.142 SA
HETATM    8  H13 UNL     1     -33.984   5.466   1.305  1.00 20.00     0.107 HD
ENDBRANCH   5   7
BRANCH   6   9
HETATM    9  S8  UNL     1     -32.303   7.424   2.754  1.00 20.00    -0.142 SA
HETATM   10  H14 UNL     1     -32.864   6.922   1.645  1.00 20.00     0.107 HD
ENDBRANCH   6   9
TORSDOF 2
ENDMDL
MODEL 2
REMARK VINA RESULT:      -4.0      0.043      2.398
REMARK  2 active torsions:
REMARK  status: ('A' for Active; 'I' for Inactive)
REMARK    1  A    between atoms: C5_5  and  S7_7 
REMARK    2  A    between atoms: C6_6  and  S8_8 
ROOT
HETATM    1  C1  UNL     1     -34.278   6.529   6.102  1.00 20.00     0.001 A 
HETATM    2  C2  UNL     1     -34.868   5.293   5.836  1.00 20.00     0.001 A 
HETATM    3  C3  UNL     1     -33.495   7.151   5.129  1.00 20.00     0.019 A 
HETATM    4  C4  UNL     1     -34.674   4.679   4.599  1.00 20.00     0.019 A 
HETATM    5  C5  UNL     1     -33.301   6.537   3.892  1.00 20.00     0.014 A 
HETATM    6  C6  UNL     1     -33.891   5.300   3.626  1.00 20.00     0.014 A 
ENDROOT
BRANCH   5   7
HETATM    7  S7  UNL     1     -32.279   7.413   2.708  1.00 20.00    -0.142 SA
HETATM    8  H13 UNL     1     -32.541   6.626   1.656  1.00 20.00     0.107 HD
ENDBRANCH   5   7
BRANCH   6   9
HETATM    9  S8  UNL     1     -33.702   4.433   2.069  1.00 20.00    -0.142 SA
HETATM   10  H14 UNL     1     -34.899   4.758   1.559  1.00 20.00     0.107 HD
ENDBRANCH   6   9
TORSDOF 2
ENDMDL
MODEL 3
REMARK VINA RESULT:      -3.5     16.635     17.067
REMARK  2 active torsions:
REMARK  status: ('A' for Active; 'I' for Inactive)
REMARK    1  A    between atoms: C5_5  and  S7_7 
REMARK    2  A    between atoms: C6_6  and  S8_8 
ROOT
HETATM    1  C1  UNL     1     -25.262  18.538  11.889  1.00 20.00     0.001 A 
HETATM    2  C2  UNL     1     -24.058  17.990  12.332  1.00 20.00     0.001 A 
HETATM    3  C3  UNL     1     -25.426  18.864  10.543  1.00 20.00     0.019 A 
HETATM    4  C4  UNL     1     -23.019  17.767  11.428  1.00 20.00     0.019 A 
HETATM    5  C5  UNL     1     -24.387  18.642   9.639  1.00 20.00     0.014 A 
HETATM    6  C6  UNL     1     -23.183  18.094  10.082  1.00 20.00     0.014 A 
ENDROOT
BRANCH   5   7
HETATM    7  S7  UNL     1     -24.693  19.094   7.932  1.00 20.00    -0.142 SA
HETATM    8  H13 UNL     1     -25.769  19.860   8.159  1.00 20.00     0.107 HD
ENDBRANCH   5   7
BRANCH   6   9
HETATM    9  S8  UNL     1     -21.791  17.770   8.999  1.00 20.00    -0.142 SA
HETATM   10  H14 UNL     1     -20.870  18.419   9.725  1.00 20.00     0.107 HD
ENDBRANCH   6   9
TORSDOF 2
ENDMDL
MODEL 4
REMARK VINA RESULT:      -3.5     16.628     17.181
REMARK  2 active torsions:
REMARK  status: ('A' for Active; 'I' for Inactive)
REMARK    1  A    between atoms: C5_5  and  S7_7 
REMARK    2  A    between atoms: C6_6  and  S8_8 
ROOT
HETATM    1  C1  UNL     1     -24.194  18.628   8.008  1.00 20.00     0.001 A 
HETATM    2  C2  UNL     1     -22.897  18.165   8.231  1.00 20.00     0.001 A 
HETATM    3  C3  UNL     1     -25.069  18.795   9.082  1.00 20.00     0.019 A 
HETATM    4  C4  UNL     1     -22.476  17.869   9.527  1.00 20.00     0.019 A 
HETATM    5  C5  UNL     1     -24.647  18.499  10.378  1.00 20.00     0.014 A 
HETATM    6  C6  UNL     1     -23.350  18.036  10.601  1.00 20.00     0.014 A 
ENDROOT
BRANCH   5   7
HETATM    7  S7  UNL     1     -25.843  18.745  11.691  1.00 20.00    -0.142 SA
HETATM    8  H13 UNL     1     -24.980  19.196  12.611  1.00 20.00     0.107 HD
ENDBRANCH   5   7
BRANCH   6   9
HETATM    9  S8  UNL     1     -22.716  17.630  12.228  1.00 20.00    -0.142 SA
HETATM   10  H14 UNL     1     -22.007  16.554  11.859  1.00 20.00     0.107 HD
ENDBRANCH   6   9
TORSDOF 2
ENDMDL
MODEL 5
REMARK VINA RESULT:      -3.4     12.260     12.766
REMARK  2 active torsions:
REMARK  status: ('A' for Active; 'I' for Inactive)
REMARK    1  A    between atoms: C5_5  and  S7_7 
REMARK    2  A    between atoms: C6_6  and  S8_8 
ROOT
HETATM    1  C1  UNL     1     -34.723  14.909  -3.521  1.00 20.00     0.001 A 
HETATM    2  C2  UNL     1     -33.444  15.282  -3.936  1.00 20.00     0.001 A 
HETATM    3  C3  UNL     1     -35.329  15.569  -2.452  1.00 20.00     0.019 A 
HETATM    4  C4  UNL     1     -32.772  16.314  -3.282  1.00 20.00     0.019 A 
HETATM    5  C5  UNL     1     -34.657  16.601  -1.798  1.00 20.00     0.014 A 
HETATM    6  C6  UNL     1     -33.378  16.974  -2.213  1.00 20.00     0.014 A 
ENDROOT
BRANCH   5   7
HETATM    7  S7  UNL     1     -35.518  17.388  -0.436  1.00 20.00    -0.142 SA
HETATM    8  H13 UNL     1     -35.641  18.596  -1.001  1.00 20.00     0.107 HD
ENDBRANCH   5   7
BRANCH   6   9
HETATM    9  S8  UNL     1     -32.435  18.287  -1.437  1.00 20.00    -0.142 SA
HETATM   10  H14 UNL     1     -33.483  18.987  -0.980  1.00 20.00     0.107 HD
ENDBRANCH   6   9
TORSDOF 2
ENDMDL
MODEL 6
REMARK VINA RESULT:      -3.4     12.476     13.104
REMARK  2 active torsions:
REMARK  status: ('A' for Active; 'I' for Inactive)
REMARK    1  A    between atoms: C5_5  and  S7_7 
REMARK    2  A    between atoms: C6_6  and  S8_8 
ROOT
HETATM    1  C1  UNL     1     -33.640  15.794  -3.358  1.00 20.00     0.001 A 
HETATM    2  C2  UNL     1     -34.872  15.558  -2.749  1.00 20.00     0.001 A 
HETATM    3  C3  UNL     1     -32.799  16.793  -2.867  1.00 20.00     0.019 A 
HETATM    4  C4  UNL     1     -35.263  16.319  -1.647  1.00 20.00     0.019 A 
HETATM    5  C5  UNL     1     -33.190  17.555  -1.765  1.00 20.00     0.014 A 
HETATM    6  C6  UNL     1     -34.423  17.318  -1.155  1.00 20.00     0.014 A 
ENDROOT
BRANCH   5   7
HETATM    7  S7  UNL     1     -32.042  18.814  -1.207  1.00 20.00    -0.142 SA
HETATM    8  H13 UNL     1     -32.082  18.502   0.095  1.00 20.00     0.107 HD
ENDBRANCH   5   7
BRANCH   6   9
HETATM    9  S8  UNL     1     -35.013  18.241   0.263  1.00 20.00    -0.142 SA
HETATM   10  H14 UNL     1     -34.485  17.445   1.203  1.00 20.00     0.107 HD
ENDBRANCH   6   9
TORSDOF 2
ENDMDL
MODEL 7
REMARK VINA RESULT:      -3.3     12.385     12.915
REMARK  2 active torsions:
REMARK  status: ('A' for Active; 'I' for Inactive)
REMARK    1  A    between atoms: C5_5  and  S7_7 
REMARK    2  A    between atoms: C6_6  and  S8_8 
ROOT
HETATM    1  C1  UNL     1     -33.185  16.740  -2.574  1.00 20.00     0.001 A 
HETATM    2  C2  UNL     1     -34.343  16.614  -1.805  1.00 20.00     0.001 A 
HETATM    3  C3  UNL     1     -33.155  16.242  -3.876  1.00 20.00     0.019 A 
HETATM    4  C4  UNL     1     -35.470  15.989  -2.340  1.00 20.00     0.019 A 
HETATM    5  C5  UNL     1     -34.282  15.617  -4.411  1.00 20.00     0.014 A 
HETATM    6  C6  UNL     1     -35.440  15.490  -3.642  1.00 20.00     0.014 A 
ENDROOT
BRANCH   5   7
HETATM    7  S7  UNL     1     -34.146  15.009  -6.092  1.00 20.00    -0.142 SA
HETATM    8  H13 UNL     1     -33.045  14.269  -5.906  1.00 20.00     0.107 HD
ENDBRANCH   5   7
BRANCH   6   9
HETATM    9  S8  UNL     1     -36.937  14.705  -4.239  1.00 20.00    -0.142 SA
HETATM   10  H14 UNL     1     -37.033  13.786  -3.269  1.00 20.00     0.107 HD
ENDBRANCH   6   9
TORSDOF 2
ENDMDL
MODEL 8
REMARK VINA RESULT:      -3.3     12.335     12.844
REMARK  2 active torsions:
REMARK  status: ('A' for Active; 'I' for Inactive)
REMARK    1  A    between atoms: C5_5  and  S7_7 
REMARK    2  A    between atoms: C6_6  and  S8_8 
ROOT
HETATM    1  C1  UNL     1     -34.376  16.592  -1.799  1.00 20.00     0.001 A 
HETATM    2  C2  UNL     1     -33.234  16.775  -2.579  1.00 20.00     0.001 A 
HETATM    3  C3  UNL     1     -35.485  15.934  -2.331  1.00 20.00     0.019 A 
HETATM    4  C4  UNL     1     -33.201  16.301  -3.890  1.00 20.00     0.019 A 
HETATM    5  C5  UNL     1     -35.453  15.460  -3.643  1.00 20.00     0.014 A 
HETATM    6  C6  UNL     1     -34.310  15.644  -4.422  1.00 20.00     0.014 A 
ENDROOT
BRANCH   5   7
HETATM    7  S7  UNL     1     -36.926  14.630  -4.236  1.00 20.00    -0.142 SA
HETATM    8  H13 UNL     1     -36.895  15.119  -5.483  1.00 20.00     0.107 HD
ENDBRANCH   5   7
BRANCH   6   9
HETATM    9  S8  UNL     1     -34.172  15.070  -6.115  1.00 20.00    -0.142 SA
HETATM   10  H14 UNL     1     -34.947  16.014  -6.667  1.00 20.00     0.107 HD
ENDBRANCH   6   9
TORSDOF 2
ENDMDL
MODEL 9
REMARK VINA RESULT:      -3.1     12.527     13.088
REMARK  2 active torsions:
REMARK  status: ('A' for Active; 'I' for Inactive)
REMARK    1  A    between atoms: C5_5  and  S7_7 
REMARK    2  A    between atoms: C6_6  and  S8_8 
ROOT
HETATM    1  C1  UNL     1     -33.140  15.880  -3.349  1.00 20.00     0.001 A 
HETATM    2  C2  UNL     1     -33.458  14.741  -4.090  1.00 20.00     0.001 A 
HETATM    3  C3  UNL     1     -34.156  16.713  -2.882  1.00 20.00     0.019 A 
HETATM    4  C4  UNL     1     -34.792  14.436  -4.362  1.00 20.00     0.019 A 
HETATM    5  C5  UNL     1     -35.490  16.408  -3.154  1.00 20.00     0.014 A 
HETATM    6  C6  UNL     1     -35.808  15.269  -3.895  1.00 20.00     0.014 A 
ENDROOT
BRANCH   5   7
HETATM    7  S7  UNL     1     -36.723  17.540  -2.511  1.00 20.00    -0.142 SA
HETATM    8  H13 UNL     1     -37.798  16.814  -2.848  1.00 20.00     0.107 HD
ENDBRANCH   5   7
BRANCH   6   9
HETATM    9  S8  UNL     1     -37.489  14.793  -4.295  1.00 20.00    -0.142 SA
HETATM   10  H14 UNL     1     -37.687  15.703  -5.259  1.00 20.00     0.107 HD
ENDBRANCH   6   9
TORSDOF 2
ENDMDL
