MODEL 1
REMARK VINA RESULT:      -5.9      0.000      0.000
REMARK  0 active torsions:
REMARK  status: ('A' for Active; 'I' for Inactive)
ROOT
HETATM    1  C1  UNL     1     -34.449   6.194   6.217  1.00 20.00     0.001 A 
HETATM    2  C2  UNL     1     -34.997   5.029   5.670  1.00 20.00     0.003 A 
HETATM    3  C3  UNL     1     -33.612   7.026   5.459  1.00 20.00     0.016 A 
HETATM    4  C4  UNL     1     -34.731   4.650   4.351  1.00 20.00     0.040 A 
HETATM    5  C5  UNL     1     -32.587   7.161   3.053  1.00 20.00     0.161 A 
HETATM    6  C6  UNL     1     -33.337   6.658   4.134  1.00 20.00     0.019 A 
HETATM    7  C7  UNL     1     -33.898   5.498   3.628  1.00 20.00     0.113 A 
HETATM    8  N8  UNL     1     -32.672   6.385   1.969  1.00 20.00    -0.140 NA
HETATM    9  O9  UNL     1     -33.502   5.332   2.336  1.00 20.00    -0.213 OA
ENDROOT
TORSDOF 0
ENDMDL
MODEL 2
REMARK VINA RESULT:      -5.8      0.924      1.928
REMARK  0 active torsions:
REMARK  status: ('A' for Active; 'I' for Inactive)
ROOT
HETATM    1  C1  UNL     1     -35.005   5.009   5.680  1.00 20.00     0.001 A 
HETATM    2  C2  UNL     1     -34.476   6.184   6.227  1.00 20.00     0.003 A 
HETATM    3  C3  UNL     1     -34.712   4.628   4.363  1.00 20.00     0.016 A 
HETATM    4  C4  UNL     1     -33.637   7.019   5.482  1.00 20.00     0.040 A 
HETATM    5  C5  UNL     1     -33.333   5.472   2.303  1.00 20.00     0.161 A 
HETATM    6  C6  UNL     1     -33.872   5.456   3.604  1.00 20.00     0.019 A 
HETATM    7  C7  UNL     1     -33.368   6.610   4.180  1.00 20.00     0.113 A 
HETATM    8  N8  UNL     1     -32.560   6.541   2.085  1.00 20.00    -0.140 NA
HETATM    9  O9  UNL     1     -32.585   7.259   3.274  1.00 20.00    -0.213 OA
ENDROOT
TORSDOF 0
ENDMDL
MODEL 3
REMARK VINA RESULT:      -5.2      2.080      3.111
REMARK  0 active torsions:
REMARK  status: ('A' for Active; 'I' for Inactive)
ROOT
HETATM    1  C1  UNL     1     -32.519   6.985   2.654  1.00 20.00     0.001 A 
HETATM    2  C2  UNL     1     -32.936   5.789   2.060  1.00 20.00     0.003 A 
HETATM    3  C3  UNL     1     -32.910   7.320   3.959  1.00 20.00     0.016 A 
HETATM    4  C4  UNL     1     -33.756   4.885   2.743  1.00 20.00     0.040 A 
HETATM    5  C5  UNL     1     -34.342   6.346   5.923  1.00 20.00     0.161 A 
HETATM    6  C6  UNL     1     -33.732   6.422   4.656  1.00 20.00     0.019 A 
HETATM    7  C7  UNL     1     -34.124   5.249   4.035  1.00 20.00     0.113 A 
HETATM    8  N8  UNL     1     -35.052   5.225   6.080  1.00 20.00    -0.140 NA
HETATM    9  O9  UNL     1     -34.913   4.533   4.883  1.00 20.00    -0.213 OA
ENDROOT
TORSDOF 0
ENDMDL
MODEL 4
REMARK VINA RESULT:      -5.2      2.245      3.619
REMARK  0 active torsions:
REMARK  status: ('A' for Active; 'I' for Inactive)
ROOT
HETATM    1  C1  UNL     1     -33.299   5.030   2.255  1.00 20.00     0.001 A 
HETATM    2  C2  UNL     1     -32.706   6.293   2.362  1.00 20.00     0.003 A 
HETATM    3  C3  UNL     1     -34.070   4.501   3.301  1.00 20.00     0.016 A 
HETATM    4  C4  UNL     1     -32.860   7.073   3.512  1.00 20.00     0.040 A 
HETATM    5  C5  UNL     1     -34.886   5.153   5.702  1.00 20.00     0.161 A 
HETATM    6  C6  UNL     1     -34.232   5.273   4.460  1.00 20.00     0.019 A 
HETATM    7  C7  UNL     1     -33.630   6.518   4.529  1.00 20.00     0.113 A 
HETATM    8  N8  UNL     1     -34.709   6.227   6.477  1.00 20.00    -0.140 NA
HETATM    9  O9  UNL     1     -33.913   7.089   5.732  1.00 20.00    -0.213 OA
ENDROOT
TORSDOF 0
ENDMDL
MODEL 5
REMARK VINA RESULT:      -4.8     16.422     16.582
REMARK  0 active torsions:
REMARK  status: ('A' for Active; 'I' for Inactive)
ROOT
HETATM    1  C1  UNL     1     -24.193  17.947  10.820  1.00 20.00     0.001 A 
HETATM    2  C2  UNL     1     -22.971  17.322  10.548  1.00 20.00     0.003 A 
HETATM    3  C3  UNL     1     -24.897  18.629   9.817  1.00 20.00     0.016 A 
HETATM    4  C4  UNL     1     -22.407  17.354   9.269  1.00 20.00     0.040 A 
HETATM    5  C5  UNL     1     -24.678  19.211   7.274  1.00 20.00     0.161 A 
HETATM    6  C6  UNL     1     -24.343  18.669   8.529  1.00 20.00     0.019 A 
HETATM    7  C7  UNL     1     -23.132  18.039   8.299  1.00 20.00     0.113 A 
HETATM    8  N8  UNL     1     -23.759  18.944   6.341  1.00 20.00    -0.140 NA
HETATM    9  O9  UNL     1     -22.781  18.202   6.993  1.00 20.00    -0.213 OA
ENDROOT
TORSDOF 0
ENDMDL
MODEL 6
REMARK VINA RESULT:      -4.8     12.092     12.295
REMARK  0 active torsions:
REMARK  status: ('A' for Active; 'I' for Inactive)
ROOT
HETATM    1  C1  UNL     1     -33.185  15.566  -3.494  1.00 20.00     0.001 A 
HETATM    2  C2  UNL     1     -33.995  16.274  -2.599  1.00 20.00     0.003 A 
HETATM    3  C3  UNL     1     -33.729  14.607  -4.360  1.00 20.00     0.016 A 
HETATM    4  C4  UNL     1     -35.374  16.052  -2.536  1.00 20.00     0.040 A 
HETATM    5  C5  UNL     1     -36.047  13.545  -4.954  1.00 20.00     0.161 A 
HETATM    6  C6  UNL     1     -35.110  14.374  -4.307  1.00 20.00     0.019 A 
HETATM    7  C7  UNL     1     -35.879  15.094  -3.408  1.00 20.00     0.113 A 
HETATM    8  N8  UNL     1     -37.290  13.730  -4.501  1.00 20.00    -0.140 NA
HETATM    9  O9  UNL     1     -37.181  14.711  -3.522  1.00 20.00    -0.213 OA
ENDROOT
TORSDOF 0
ENDMDL
MODEL 7
REMARK VINA RESULT:      -4.8     12.044     12.295
REMARK  0 active torsions:
REMARK  status: ('A' for Active; 'I' for Inactive)
ROOT
HETATM    1  C1  UNL     1     -33.889  16.427  -2.833  1.00 20.00     0.001 A 
HETATM    2  C2  UNL     1     -33.062  15.564  -3.560  1.00 20.00     0.003 A 
HETATM    3  C3  UNL     1     -35.282  16.260  -2.826  1.00 20.00     0.016 A 
HETATM    4  C4  UNL     1     -33.592  14.506  -4.305  1.00 20.00     0.040 A 
HETATM    5  C5  UNL     1     -37.105  14.681  -3.843  1.00 20.00     0.161 A 
HETATM    6  C6  UNL     1     -35.826  15.203  -3.569  1.00 20.00     0.019 A 
HETATM    7  C7  UNL     1     -34.976  14.371  -4.276  1.00 20.00     0.113 A 
HETATM    8  N8  UNL     1     -37.058  13.616  -4.649  1.00 20.00    -0.140 NA
HETATM    9  O9  UNL     1     -35.709  13.422  -4.922  1.00 20.00    -0.213 OA
ENDROOT
TORSDOF 0
ENDMDL
MODEL 8
REMARK VINA RESULT:      -4.6     11.818     12.595
REMARK  0 active torsions:
REMARK  status: ('A' for Active; 'I' for Inactive)
ROOT
HETATM    1  C1  UNL     1     -34.536  16.450  -3.327  1.00 20.00     0.001 A 
HETATM    2  C2  UNL     1     -33.971  15.194  -3.572  1.00 20.00     0.003 A 
HETATM    3  C3  UNL     1     -35.915  16.664  -3.472  1.00 20.00     0.016 A 
HETATM    4  C4  UNL     1     -34.758  14.108  -3.969  1.00 20.00     0.040 A 
HETATM    5  C5  UNL     1     -38.079  15.346  -4.130  1.00 20.00     0.161 A 
HETATM    6  C6  UNL     1     -36.715  15.584  -3.869  1.00 20.00     0.019 A 
HETATM    7  C7  UNL     1     -36.120  14.356  -4.102  1.00 20.00     0.113 A 
HETATM    8  N8  UNL     1     -38.314  14.081  -4.494  1.00 20.00    -0.140 NA
HETATM    9  O9  UNL     1     -37.072  13.457  -4.476  1.00 20.00    -0.213 OA
ENDROOT
TORSDOF 0
ENDMDL
MODEL 9
REMARK VINA RESULT:      -4.5     11.751     12.361
REMARK  0 active torsions:
REMARK  status: ('A' for Active; 'I' for Inactive)
ROOT
HETATM    1  C1  UNL     1     -34.929  17.188  -3.093  1.00 20.00     0.001 A 
HETATM    2  C2  UNL     1     -33.654  16.611  -3.082  1.00 20.00     0.003 A 
HETATM    3  C3  UNL     1     -36.054  16.451  -3.490  1.00 20.00     0.016 A 
HETATM    4  C4  UNL     1     -33.456  15.280  -3.465  1.00 20.00     0.040 A 
HETATM    5  C5  UNL     1     -36.668  14.048  -4.330  1.00 20.00     0.161 A 
HETATM    6  C6  UNL     1     -35.869  15.116  -3.877  1.00 20.00     0.019 A 
HETATM    7  C7  UNL     1     -34.593  14.580  -3.853  1.00 20.00     0.113 A 
HETATM    8  N8  UNL     1     -35.954  12.943  -4.567  1.00 20.00    -0.140 NA
HETATM    9  O9  UNL     1     -34.641  13.283  -4.264  1.00 20.00    -0.213 OA
ENDROOT
TORSDOF 0
ENDMDL
