MODEL 1
REMARK VINA RESULT:      -4.2      0.000      0.000
REMARK  0 active torsions:
REMARK  status: ('A' for Active; 'I' for Inactive)
ROOT
HETATM    1  C1  UNL     1     -34.494   6.056   6.002  1.00 20.00     0.019 A 
HETATM    2  C2  UNL     1     -35.015   5.042   5.161  1.00 20.00     0.019 A 
HETATM    3  C3  UNL     1     -33.638   6.822   5.241  1.00 20.00     0.090 A 
HETATM    4  C4  UNL     1     -34.461   5.218   3.912  1.00 20.00     0.090 A 
HETATM    5  C5  UNL     1     -32.848   6.819   2.869  1.00 20.00     0.154 C 
HETATM    6  N6  UNL     1     -33.625   6.303   3.973  1.00 20.00    -0.371 N 
ENDROOT
TORSDOF 0
ENDMDL
MODEL 2
REMARK VINA RESULT:      -4.2      0.014      1.530
REMARK  0 active torsions:
REMARK  status: ('A' for Active; 'I' for Inactive)
ROOT
HETATM    1  C1  UNL     1     -35.019   5.033   5.143  1.00 20.00     0.019 A 
HETATM    2  C2  UNL     1     -34.500   6.043   5.991  1.00 20.00     0.019 A 
HETATM    3  C3  UNL     1     -34.459   5.214   3.898  1.00 20.00     0.090 A 
HETATM    4  C4  UNL     1     -33.640   6.811   5.237  1.00 20.00     0.090 A 
HETATM    5  C5  UNL     1     -32.845   6.820   2.867  1.00 20.00     0.154 C 
HETATM    6  N6  UNL     1     -33.623   6.298   3.967  1.00 20.00    -0.371 N 
ENDROOT
TORSDOF 0
ENDMDL
MODEL 3
REMARK VINA RESULT:      -3.6      1.079      2.568
REMARK  0 active torsions:
REMARK  status: ('A' for Active; 'I' for Inactive)
ROOT
HETATM    1  C1  UNL     1     -33.051   6.429   2.863  1.00 20.00     0.019 A 
HETATM    2  C2  UNL     1     -33.384   5.091   2.538  1.00 20.00     0.019 A 
HETATM    3  C3  UNL     1     -33.586   6.696   4.104  1.00 20.00     0.090 A 
HETATM    4  C4  UNL     1     -34.114   4.582   3.590  1.00 20.00     0.090 A 
HETATM    5  C5  UNL     1     -34.928   5.434   5.795  1.00 20.00     0.154 C 
HETATM    6  N6  UNL     1     -34.231   5.566   4.536  1.00 20.00    -0.371 N 
ENDROOT
TORSDOF 0
ENDMDL
MODEL 4
REMARK VINA RESULT:      -3.6      1.081      2.956
REMARK  0 active torsions:
REMARK  status: ('A' for Active; 'I' for Inactive)
ROOT
HETATM    1  C1  UNL     1     -33.375   5.113   2.515  1.00 20.00     0.019 A 
HETATM    2  C2  UNL     1     -33.044   6.446   2.860  1.00 20.00     0.019 A 
HETATM    3  C3  UNL     1     -34.108   4.588   3.556  1.00 20.00     0.090 A 
HETATM    4  C4  UNL     1     -33.585   6.695   4.102  1.00 20.00     0.090 A 
HETATM    5  C5  UNL     1     -34.926   5.406   5.772  1.00 20.00     0.154 C 
HETATM    6  N6  UNL     1     -34.228   5.558   4.516  1.00 20.00    -0.371 N 
ENDROOT
TORSDOF 0
ENDMDL
MODEL 5
REMARK VINA RESULT:      -3.0     12.015     12.340
REMARK  0 active torsions:
REMARK  status: ('A' for Active; 'I' for Inactive)
ROOT
HETATM    1  C1  UNL     1     -34.044  16.145  -2.556  1.00 20.00     0.019 A 
HETATM    2  C2  UNL     1     -33.101  15.711  -3.521  1.00 20.00     0.019 A 
HETATM    3  C3  UNL     1     -35.218  15.464  -2.793  1.00 20.00     0.090 A 
HETATM    4  C4  UNL     1     -33.728  14.778  -4.317  1.00 20.00     0.090 A 
HETATM    5  C5  UNL     1     -36.004  13.752  -4.435  1.00 20.00     0.154 C 
HETATM    6  N6  UNL     1     -35.014  14.637  -3.866  1.00 20.00    -0.371 N 
ENDROOT
TORSDOF 0
ENDMDL
MODEL 6
REMARK VINA RESULT:      -3.0     16.135     16.958
REMARK  0 active torsions:
REMARK  status: ('A' for Active; 'I' for Inactive)
ROOT
HETATM    1  C1  UNL     1     -23.629  17.015  11.968  1.00 20.00     0.019 A 
HETATM    2  C2  UNL     1     -24.191  16.454  10.795  1.00 20.00     0.019 A 
HETATM    3  C3  UNL     1     -22.498  17.707  11.592  1.00 20.00     0.090 A 
HETATM    4  C4  UNL     1     -23.387  16.819   9.738  1.00 20.00     0.090 A 
HETATM    5  C5  UNL     1     -21.296  18.158   9.447  1.00 20.00     0.154 C 
HETATM    6  N6  UNL     1     -22.361  17.580  10.234  1.00 20.00    -0.371 N 
ENDROOT
TORSDOF 0
ENDMDL
MODEL 7
REMARK VINA RESULT:      -3.0     12.013     12.378
REMARK  0 active torsions:
REMARK  status: ('A' for Active; 'I' for Inactive)
ROOT
HETATM    1  C1  UNL     1     -33.113  15.776  -3.469  1.00 20.00     0.019 A 
HETATM    2  C2  UNL     1     -34.060  16.168  -2.492  1.00 20.00     0.019 A 
HETATM    3  C3  UNL     1     -33.726  14.853  -4.289  1.00 20.00     0.090 A 
HETATM    4  C4  UNL     1     -35.222  15.473  -2.743  1.00 20.00     0.090 A 
HETATM    5  C5  UNL     1     -35.982  13.786  -4.425  1.00 20.00     0.154 C 
HETATM    6  N6  UNL     1     -35.008  14.677  -3.837  1.00 20.00    -0.371 N 
ENDROOT
TORSDOF 0
ENDMDL
MODEL 8
REMARK VINA RESULT:      -3.0     15.526     16.116
REMARK  0 active torsions:
REMARK  status: ('A' for Active; 'I' for Inactive)
ROOT
HETATM    1  C1  UNL     1     -24.035  16.563  10.476  1.00 20.00     0.019 A 
HETATM    2  C2  UNL     1     -24.627  15.860  11.555  1.00 20.00     0.019 A 
HETATM    3  C3  UNL     1     -24.536  17.846  10.498  1.00 20.00     0.090 A 
HETATM    4  C4  UNL     1     -25.471  16.735  12.202  1.00 20.00     0.090 A 
HETATM    5  C5  UNL     1     -26.150  19.124  11.916  1.00 20.00     0.154 C 
HETATM    6  N6  UNL     1     -25.409  17.939  11.551  1.00 20.00    -0.371 N 
ENDROOT
TORSDOF 0
ENDMDL
MODEL 9
REMARK VINA RESULT:      -2.9     16.597     17.343
REMARK  0 active torsions:
REMARK  status: ('A' for Active; 'I' for Inactive)
ROOT
HETATM    1  C1  UNL     1     -22.958  18.285   8.772  1.00 20.00     0.019 A 
HETATM    2  C2  UNL     1     -24.304  18.310   9.216  1.00 20.00     0.019 A 
HETATM    3  C3  UNL     1     -22.164  18.072   9.877  1.00 20.00     0.090 A 
HETATM    4  C4  UNL     1     -24.290  18.112  10.579  1.00 20.00     0.090 A 
HETATM    5  C5  UNL     1     -22.540  17.745  12.326  1.00 20.00     0.154 C 
HETATM    6  N6  UNL     1     -22.985  17.969  10.970  1.00 20.00    -0.371 N 
ENDROOT
TORSDOF 0
ENDMDL
