MODEL 1
REMARK VINA RESULT:      -6.3      0.000      0.000
REMARK  1 active torsions:
REMARK  status: ('A' for Active; 'I' for Inactive)
REMARK    1  A    between atoms: C1_1  and  C8_8 
ROOT
HETATM    1  C1  UNL     1     -33.028   7.067   2.604  1.00 20.00    -0.067 C 
HETATM    2  C2  UNL     1     -32.534   7.575   1.634  1.00 20.00    -0.105 C 
HETATM    3  C9  UNL     1     -31.934   8.193   0.453  1.00 20.00     0.112 C 
ENDROOT
BRANCH   1   4
HETATM    4  C8  UNL     1     -33.618   6.464   3.757  1.00 20.00     0.017 A 
HETATM    5  C6  UNL     1     -33.525   7.092   4.998  1.00 20.00     0.020 A 
HETATM    6  C4  UNL     1     -34.101   6.503   6.124  1.00 20.00     0.001 A 
HETATM    7  C3  UNL     1     -34.770   5.285   6.008  1.00 20.00     0.000 A 
HETATM    8  C5  UNL     1     -34.863   4.656   4.766  1.00 20.00     0.001 A 
HETATM    9  C7  UNL     1     -34.287   5.245   3.641  1.00 20.00     0.020 A 
ENDBRANCH   1   4
TORSDOF 1
ENDMDL
MODEL 2
REMARK VINA RESULT:      -4.5     11.302     12.194
REMARK  1 active torsions:
REMARK  status: ('A' for Active; 'I' for Inactive)
REMARK    1  A    between atoms: C1_1  and  C8_8 
ROOT
HETATM    1  C1  UNL     1     -32.941  17.353  -1.901  1.00 20.00    -0.067 C 
HETATM    2  C2  UNL     1     -32.377  18.215  -1.281  1.00 20.00    -0.105 C 
HETATM    3  C9  UNL     1     -31.691  19.262  -0.528  1.00 20.00     0.112 C 
ENDROOT
BRANCH   1   4
HETATM    4  C8  UNL     1     -33.611  16.327  -2.635  1.00 20.00     0.017 A 
HETATM    5  C6  UNL     1     -32.949  15.659  -3.664  1.00 20.00     0.020 A 
HETATM    6  C4  UNL     1     -33.603  14.656  -4.380  1.00 20.00     0.001 A 
HETATM    7  C3  UNL     1     -34.921  14.323  -4.067  1.00 20.00     0.000 A 
HETATM    8  C5  UNL     1     -35.584  14.991  -3.037  1.00 20.00     0.001 A 
HETATM    9  C7  UNL     1     -34.929  15.993  -2.321  1.00 20.00     0.020 A 
ENDBRANCH   1   4
TORSDOF 1
ENDMDL
MODEL 3
REMARK VINA RESULT:      -4.5     11.433     12.068
REMARK  1 active torsions:
REMARK  status: ('A' for Active; 'I' for Inactive)
REMARK    1  A    between atoms: C1_1  and  C8_8 
ROOT
HETATM    1  C1  UNL     1     -35.013  15.402  -3.057  1.00 20.00    -0.067 C 
HETATM    2  C2  UNL     1     -35.529  14.584  -3.770  1.00 20.00    -0.105 C 
HETATM    3  C9  UNL     1     -36.158  13.590  -4.636  1.00 20.00     0.112 C 
ENDROOT
BRANCH   1   4
HETATM    4  C8  UNL     1     -34.400  16.375  -2.208  1.00 20.00     0.017 A 
HETATM    5  C6  UNL     1     -35.071  16.833  -1.075  1.00 20.00     0.020 A 
HETATM    6  C4  UNL     1     -34.474  17.783  -0.246  1.00 20.00     0.001 A 
HETATM    7  C3  UNL     1     -33.204  18.274  -0.551  1.00 20.00     0.000 A 
HETATM    8  C5  UNL     1     -32.533  17.815  -1.685  1.00 20.00     0.001 A 
HETATM    9  C7  UNL     1     -33.131  16.866  -2.513  1.00 20.00     0.020 A 
ENDBRANCH   1   4
TORSDOF 1
ENDMDL
MODEL 4
REMARK VINA RESULT:      -4.5     11.433     12.076
REMARK  1 active torsions:
REMARK  status: ('A' for Active; 'I' for Inactive)
REMARK    1  A    between atoms: C1_1  and  C8_8 
ROOT
HETATM    1  C1  UNL     1     -35.015  15.405  -3.056  1.00 20.00    -0.067 C 
HETATM    2  C2  UNL     1     -35.530  14.586  -3.769  1.00 20.00    -0.105 C 
HETATM    3  C9  UNL     1     -36.157  13.589  -4.635  1.00 20.00     0.112 C 
ENDROOT
BRANCH   1   4
HETATM    4  C8  UNL     1     -34.400  16.376  -2.208  1.00 20.00     0.017 A 
HETATM    5  C6  UNL     1     -33.131  16.866  -2.513  1.00 20.00     0.020 A 
HETATM    6  C4  UNL     1     -32.531  17.815  -1.684  1.00 20.00     0.001 A 
HETATM    7  C3  UNL     1     -33.202  18.273  -0.550  1.00 20.00     0.000 A 
HETATM    8  C5  UNL     1     -34.472  17.783  -0.245  1.00 20.00     0.001 A 
HETATM    9  C7  UNL     1     -35.071  16.834  -1.074  1.00 20.00     0.020 A 
ENDBRANCH   1   4
TORSDOF 1
ENDMDL
MODEL 5
REMARK VINA RESULT:      -4.5     11.367     12.238
REMARK  1 active torsions:
REMARK  status: ('A' for Active; 'I' for Inactive)
REMARK    1  A    between atoms: C1_1  and  C8_8 
ROOT
HETATM    1  C1  UNL     1     -32.933  17.378  -1.906  1.00 20.00    -0.067 C 
HETATM    2  C2  UNL     1     -32.381  18.229  -1.261  1.00 20.00    -0.105 C 
HETATM    3  C9  UNL     1     -31.709  19.263  -0.477  1.00 20.00     0.112 C 
ENDROOT
BRANCH   1   4
HETATM    4  C8  UNL     1     -33.590  16.365  -2.670  1.00 20.00     0.017 A 
HETATM    5  C6  UNL     1     -34.901  16.002  -2.366  1.00 20.00     0.020 A 
HETATM    6  C4  UNL     1     -35.543  15.012  -3.112  1.00 20.00     0.001 A 
HETATM    7  C3  UNL     1     -34.871  14.386  -4.162  1.00 20.00     0.000 A 
HETATM    8  C5  UNL     1     -33.559  14.750  -4.466  1.00 20.00     0.001 A 
HETATM    9  C7  UNL     1     -32.918  15.739  -3.720  1.00 20.00     0.020 A 
ENDBRANCH   1   4
TORSDOF 1
ENDMDL
MODEL 6
REMARK VINA RESULT:      -4.4     11.330     12.119
REMARK  1 active torsions:
REMARK  status: ('A' for Active; 'I' for Inactive)
REMARK    1  A    between atoms: C1_1  and  C8_8 
ROOT
HETATM    1  C1  UNL     1     -35.172  16.676  -1.167  1.00 20.00    -0.067 C 
HETATM    2  C2  UNL     1     -35.590  17.246  -0.195  1.00 20.00    -0.105 C 
HETATM    3  C9  UNL     1     -36.097  17.938   0.987  1.00 20.00     0.112 C 
ENDROOT
BRANCH   1   4
HETATM    4  C8  UNL     1     -34.673  15.997  -2.322  1.00 20.00     0.017 A 
HETATM    5  C6  UNL     1     -35.474  15.069  -2.986  1.00 20.00     0.020 A 
HETATM    6  C4  UNL     1     -34.987  14.406  -4.113  1.00 20.00     0.001 A 
HETATM    7  C3  UNL     1     -33.698  14.673  -4.575  1.00 20.00     0.000 A 
HETATM    8  C5  UNL     1     -32.897  15.602  -3.910  1.00 20.00     0.001 A 
HETATM    9  C7  UNL     1     -33.385  16.264  -2.784  1.00 20.00     0.020 A 
ENDBRANCH   1   4
TORSDOF 1
ENDMDL
MODEL 7
REMARK VINA RESULT:      -4.3     11.321     12.042
REMARK  1 active torsions:
REMARK  status: ('A' for Active; 'I' for Inactive)
REMARK    1  A    between atoms: C1_1  and  C8_8 
ROOT
HETATM    1  C1  UNL     1     -35.178  16.682  -1.175  1.00 20.00    -0.067 C 
HETATM    2  C2  UNL     1     -35.600  17.260  -0.209  1.00 20.00    -0.105 C 
HETATM    3  C9  UNL     1     -36.113  17.962   0.965  1.00 20.00     0.112 C 
ENDROOT
BRANCH   1   4
HETATM    4  C8  UNL     1     -34.673  15.996  -2.322  1.00 20.00     0.017 A 
HETATM    5  C6  UNL     1     -33.385  16.263  -2.784  1.00 20.00     0.020 A 
HETATM    6  C4  UNL     1     -32.891  15.593  -3.904  1.00 20.00     0.001 A 
HETATM    7  C3  UNL     1     -33.689  14.656  -4.562  1.00 20.00     0.000 A 
HETATM    8  C5  UNL     1     -34.978  14.390  -4.101  1.00 20.00     0.001 A 
HETATM    9  C7  UNL     1     -35.470  15.060  -2.981  1.00 20.00     0.020 A 
ENDBRANCH   1   4
TORSDOF 1
ENDMDL
MODEL 8
REMARK VINA RESULT:      -4.3     15.519     16.510
REMARK  1 active torsions:
REMARK  status: ('A' for Active; 'I' for Inactive)
REMARK    1  A    between atoms: C1_1  and  C8_8 
ROOT
HETATM    1  C1  UNL     1     -24.667  18.695   8.468  1.00 20.00    -0.067 C 
HETATM    2  C2  UNL     1     -25.078  18.951   7.368  1.00 20.00    -0.105 C 
HETATM    3  C9  UNL     1     -25.577  19.263   6.031  1.00 20.00     0.112 C 
ENDROOT
BRANCH   1   4
HETATM    4  C8  UNL     1     -24.178  18.394   9.777  1.00 20.00     0.017 A 
HETATM    5  C6  UNL     1     -22.837  18.061   9.961  1.00 20.00     0.020 A 
HETATM    6  C4  UNL     1     -22.359  17.767  11.239  1.00 20.00     0.001 A 
HETATM    7  C3  UNL     1     -23.225  17.806  12.332  1.00 20.00     0.000 A 
HETATM    8  C5  UNL     1     -24.567  18.139  12.147  1.00 20.00     0.001 A 
HETATM    9  C7  UNL     1     -25.044  18.433  10.870  1.00 20.00     0.020 A 
ENDBRANCH   1   4
TORSDOF 1
ENDMDL
MODEL 9
REMARK VINA RESULT:      -4.2     15.422     15.952
REMARK  1 active torsions:
REMARK  status: ('A' for Active; 'I' for Inactive)
REMARK    1  A    between atoms: C1_1  and  C8_8 
ROOT
HETATM    1  C1  UNL     1     -23.216  17.310   9.382  1.00 20.00    -0.067 C 
HETATM    2  C2  UNL     1     -22.358  17.261   8.542  1.00 20.00    -0.105 C 
HETATM    3  C9  UNL     1     -21.314  17.203   7.521  1.00 20.00     0.112 C 
ENDROOT
BRANCH   1   4
HETATM    4  C8  UNL     1     -24.236  17.370  10.381  1.00 20.00     0.017 A 
HETATM    5  C6  UNL     1     -24.482  16.265  11.194  1.00 20.00     0.020 A 
HETATM    6  C4  UNL     1     -25.478  16.323  12.170  1.00 20.00     0.001 A 
HETATM    7  C3  UNL     1     -26.227  17.489  12.331  1.00 20.00     0.000 A 
HETATM    8  C5  UNL     1     -25.980  18.595  11.518  1.00 20.00     0.001 A 
HETATM    9  C7  UNL     1     -24.984  18.536  10.543  1.00 20.00     0.020 A 
ENDBRANCH   1   4
TORSDOF 1
ENDMDL
