MODEL 1
REMARK VINA RESULT:      -4.9      0.000      0.000
REMARK  0 active torsions:
REMARK  status: ('A' for Active; 'I' for Inactive)
ROOT
HETATM    1  C1  UNL     1     -33.450   4.963   2.556  1.00 20.00     0.035 A 
HETATM    2  C2  UNL     1     -34.168   4.434   3.655  1.00 20.00     0.035 A 
HETATM    3  C3  UNL     1     -33.168   6.270   2.877  1.00 20.00     0.049 A 
HETATM    4  C4  UNL     1     -34.274   5.455   4.570  1.00 20.00     0.049 A 
HETATM    5  C5  UNL     1     -32.460   7.349   2.173  1.00 20.00     0.076 C 
HETATM    6  C6  UNL     1     -34.893   5.555   5.898  1.00 20.00     0.076 C 
HETATM    7  O7  UNL     1     -33.667   6.578   4.103  1.00 20.00    -0.320 OA
ENDROOT
TORSDOF 0
ENDMDL
MODEL 2
REMARK VINA RESULT:      -4.9      0.006      2.916
REMARK  0 active torsions:
REMARK  status: ('A' for Active; 'I' for Inactive)
ROOT
HETATM    1  C1  UNL     1     -34.171   4.440   3.654  1.00 20.00     0.035 A 
HETATM    2  C2  UNL     1     -33.453   4.970   2.556  1.00 20.00     0.035 A 
HETATM    3  C3  UNL     1     -34.274   5.460   4.571  1.00 20.00     0.049 A 
HETATM    4  C4  UNL     1     -33.168   6.276   2.879  1.00 20.00     0.049 A 
HETATM    5  C5  UNL     1     -34.891   5.558   5.901  1.00 20.00     0.076 C 
HETATM    6  C6  UNL     1     -32.458   7.354   2.177  1.00 20.00     0.076 C 
HETATM    7  O7  UNL     1     -33.665   6.582   4.106  1.00 20.00    -0.320 OA
ENDROOT
TORSDOF 0
ENDMDL
MODEL 3
REMARK VINA RESULT:      -4.1      1.231      2.818
REMARK  0 active torsions:
REMARK  status: ('A' for Active; 'I' for Inactive)
ROOT
HETATM    1  C1  UNL     1     -34.883   5.204   5.525  1.00 20.00     0.035 A 
HETATM    2  C2  UNL     1     -34.747   4.491   4.311  1.00 20.00     0.035 A 
HETATM    3  C3  UNL     1     -34.104   6.330   5.396  1.00 20.00     0.049 A 
HETATM    4  C4  UNL     1     -33.895   5.232   3.525  1.00 20.00     0.049 A 
HETATM    5  C5  UNL     1     -33.817   7.462   6.288  1.00 20.00     0.076 C 
HETATM    6  C6  UNL     1     -33.358   5.044   2.171  1.00 20.00     0.076 C 
HETATM    7  O7  UNL     1     -33.499   6.355   4.180  1.00 20.00    -0.320 OA
ENDROOT
TORSDOF 0
ENDMDL
MODEL 4
REMARK VINA RESULT:      -3.7      1.311      3.461
REMARK  0 active torsions:
REMARK  status: ('A' for Active; 'I' for Inactive)
ROOT
HETATM    1  C1  UNL     1     -33.670   6.900   5.662  1.00 20.00     0.035 A 
HETATM    2  C2  UNL     1     -32.835   7.592   4.755  1.00 20.00     0.035 A 
HETATM    3  C3  UNL     1     -34.293   5.913   4.933  1.00 20.00     0.049 A 
HETATM    4  C4  UNL     1     -33.006   6.980   3.535  1.00 20.00     0.049 A 
HETATM    5  C5  UNL     1     -35.267   4.870   5.280  1.00 20.00     0.076 C 
HETATM    6  C6  UNL     1     -32.434   7.216   2.202  1.00 20.00     0.076 C 
HETATM    7  O7  UNL     1     -33.893   5.956   3.636  1.00 20.00    -0.320 OA
ENDROOT
TORSDOF 0
ENDMDL
MODEL 5
REMARK VINA RESULT:      -3.7      1.307      1.892
REMARK  0 active torsions:
REMARK  status: ('A' for Active; 'I' for Inactive)
ROOT
HETATM    1  C1  UNL     1     -32.839   7.578   4.732  1.00 20.00     0.035 A 
HETATM    2  C2  UNL     1     -33.696   6.864   5.602  1.00 20.00     0.035 A 
HETATM    3  C3  UNL     1     -32.981   6.996   3.493  1.00 20.00     0.049 A 
HETATM    4  C4  UNL     1     -34.300   5.895   4.835  1.00 20.00     0.049 A 
HETATM    5  C5  UNL     1     -32.376   7.265   2.181  1.00 20.00     0.076 C 
HETATM    6  C6  UNL     1     -35.280   4.842   5.132  1.00 20.00     0.076 C 
HETATM    7  O7  UNL     1     -33.869   5.970   3.548  1.00 20.00    -0.320 OA
ENDROOT
TORSDOF 0
ENDMDL
MODEL 6
REMARK VINA RESULT:      -3.7      9.002      9.050
REMARK  0 active torsions:
REMARK  status: ('A' for Active; 'I' for Inactive)
ROOT
HETATM    1  C1  UNL     1     -41.145   7.194  -1.043  1.00 20.00     0.035 A 
HETATM    2  C2  UNL     1     -41.604   5.892  -0.733  1.00 20.00     0.035 A 
HETATM    3  C3  UNL     1     -41.545   7.999  -0.002  1.00 20.00     0.049 A 
HETATM    4  C4  UNL     1     -42.253   5.994   0.476  1.00 20.00     0.049 A 
HETATM    5  C5  UNL     1     -41.386   9.433   0.279  1.00 20.00     0.076 C 
HETATM    6  C6  UNL     1     -42.943   5.019   1.332  1.00 20.00     0.076 C 
HETATM    7  O7  UNL     1     -42.221   7.275   0.928  1.00 20.00    -0.320 OA
ENDROOT
TORSDOF 0
ENDMDL
MODEL 7
REMARK VINA RESULT:      -3.7      8.992      9.363
REMARK  0 active torsions:
REMARK  status: ('A' for Active; 'I' for Inactive)
ROOT
HETATM    1  C1  UNL     1     -41.612   5.841  -0.679  1.00 20.00     0.035 A 
HETATM    2  C2  UNL     1     -41.152   7.137  -1.011  1.00 20.00     0.035 A 
HETATM    3  C3  UNL     1     -42.270   5.966   0.523  1.00 20.00     0.049 A 
HETATM    4  C4  UNL     1     -41.561   7.962   0.011  1.00 20.00     0.049 A 
HETATM    5  C5  UNL     1     -42.964   5.006   1.393  1.00 20.00     0.076 C 
HETATM    6  C6  UNL     1     -41.406   9.401   0.266  1.00 20.00     0.076 C 
HETATM    7  O7  UNL     1     -42.243   7.255   0.950  1.00 20.00    -0.320 OA
ENDROOT
TORSDOF 0
ENDMDL
MODEL 8
REMARK VINA RESULT:      -3.6     11.630     12.015
REMARK  0 active torsions:
REMARK  status: ('A' for Active; 'I' for Inactive)
ROOT
HETATM    1  C1  UNL     1     -33.666  14.886  -4.172  1.00 20.00     0.035 A 
HETATM    2  C2  UNL     1     -33.282  15.885  -3.246  1.00 20.00     0.035 A 
HETATM    3  C3  UNL     1     -34.973  14.574  -3.877  1.00 20.00     0.049 A 
HETATM    4  C4  UNL     1     -34.381  16.112  -2.451  1.00 20.00     0.049 A 
HETATM    5  C5  UNL     1     -35.937  13.629  -4.457  1.00 20.00     0.076 C 
HETATM    6  C6  UNL     1     -34.633  17.014  -1.319  1.00 20.00     0.076 C 
HETATM    7  O7  UNL     1     -35.415  15.317  -2.829  1.00 20.00    -0.320 OA
ENDROOT
TORSDOF 0
ENDMDL
MODEL 9
REMARK VINA RESULT:      -3.6     11.650     12.056
REMARK  0 active torsions:
REMARK  status: ('A' for Active; 'I' for Inactive)
ROOT
HETATM    1  C1  UNL     1     -33.323  15.884  -3.227  1.00 20.00     0.035 A 
HETATM    2  C2  UNL     1     -33.708  14.890  -4.158  1.00 20.00     0.035 A 
HETATM    3  C3  UNL     1     -34.426  16.115  -2.438  1.00 20.00     0.049 A 
HETATM    4  C4  UNL     1     -35.018  14.584  -3.872  1.00 20.00     0.049 A 
HETATM    5  C5  UNL     1     -34.680  17.015  -1.305  1.00 20.00     0.076 C 
HETATM    6  C6  UNL     1     -35.983  13.646  -4.461  1.00 20.00     0.076 C 
HETATM    7  O7  UNL     1     -35.462  15.327  -2.824  1.00 20.00    -0.320 OA
ENDROOT
TORSDOF 0
ENDMDL
