MODEL 1
REMARK VINA RESULT:      -5.6      0.000      0.000
REMARK  1 active torsions:
REMARK  status: ('A' for Active; 'I' for Inactive)
REMARK    1  A    between atoms: C4_4  and  C7_7 
ROOT
HETATM    1  C1  UNL     1     -34.996   5.211   5.338  1.00 20.00     0.006 A 
HETATM    2  C2  UNL     1     -34.740   4.720   4.057  1.00 20.00     0.043 A 
HETATM    3  C3  UNL     1     -34.300   6.324   5.810  1.00 20.00     0.043 A 
HETATM    4  C4  UNL     1     -33.091   6.453   3.721  1.00 20.00     0.029 A 
HETATM    5  C5  UNL     1     -33.787   5.340   3.249  1.00 20.00     0.126 A 
HETATM    6  C6  UNL     1     -33.347   6.945   5.001  1.00 20.00     0.126 A 
HETATM    7  F8  UNL     1     -33.548   4.861   2.021  1.00 20.00    -0.205 F 
HETATM    8  F9  UNL     1     -32.683   8.013   5.463  1.00 20.00    -0.205 F 
ENDROOT
BRANCH   4   9
HETATM    9  C7  UNL     1     -32.073   7.117   2.857  1.00 20.00     0.130 C 
HETATM   10 BR10 UNL     1     -32.964   8.062   1.409  1.00 20.00    -0.091 Br
ENDBRANCH   4   9
TORSDOF 1
ENDMDL
MODEL 2
REMARK VINA RESULT:      -5.6      0.009      2.616
REMARK  1 active torsions:
REMARK  status: ('A' for Active; 'I' for Inactive)
REMARK    1  A    between atoms: C4_4  and  C7_7 
ROOT
HETATM    1  C1  UNL     1     -34.989   5.210   5.332  1.00 20.00     0.006 A 
HETATM    2  C2  UNL     1     -34.292   6.322   5.805  1.00 20.00     0.043 A 
HETATM    3  C3  UNL     1     -34.734   4.720   4.051  1.00 20.00     0.043 A 
HETATM    4  C4  UNL     1     -33.084   6.453   3.718  1.00 20.00     0.029 A 
HETATM    5  C5  UNL     1     -33.339   6.944   4.998  1.00 20.00     0.126 A 
HETATM    6  C6  UNL     1     -33.781   5.342   3.244  1.00 20.00     0.126 A 
HETATM    7  F8  UNL     1     -32.675   8.011   5.461  1.00 20.00    -0.205 F 
HETATM    8  F9  UNL     1     -33.542   4.864   2.015  1.00 20.00    -0.205 F 
ENDROOT
BRANCH   4   9
HETATM    9  C7  UNL     1     -32.065   7.118   2.854  1.00 20.00     0.130 C 
HETATM   10 BR10 UNL     1     -32.957   8.060   1.405  1.00 20.00    -0.091 Br
ENDBRANCH   4   9
TORSDOF 1
ENDMDL
MODEL 3
REMARK VINA RESULT:      -4.3     16.397     17.145
REMARK  1 active torsions:
REMARK  status: ('A' for Active; 'I' for Inactive)
REMARK    1  A    between atoms: C4_4  and  C7_7 
ROOT
HETATM    1  C1  UNL     1     -22.288  18.135   8.649  1.00 20.00     0.006 A 
HETATM    2  C2  UNL     1     -21.697  17.782   9.863  1.00 20.00     0.043 A 
HETATM    3  C3  UNL     1     -23.630  18.511   8.610  1.00 20.00     0.043 A 
HETATM    4  C4  UNL     1     -23.792  18.179  10.998  1.00 20.00     0.029 A 
HETATM    5  C5  UNL     1     -22.449  17.803  11.037  1.00 20.00     0.126 A 
HETATM    6  C6  UNL     1     -24.382  18.532   9.785  1.00 20.00     0.126 A 
HETATM    7  F8  UNL     1     -21.873  17.462  12.197  1.00 20.00    -0.205 F 
HETATM    8  F9  UNL     1     -25.672  18.893   9.738  1.00 20.00    -0.205 F 
ENDROOT
BRANCH   4   9
HETATM    9  C7  UNL     1     -24.596  18.201  12.254  1.00 20.00     0.130 C 
HETATM   10 BR10 UNL     1     -25.725  16.619  12.332  1.00 20.00    -0.091 Br
ENDBRANCH   4   9
TORSDOF 1
ENDMDL
MODEL 4
REMARK VINA RESULT:      -4.2     16.322     16.975
REMARK  1 active torsions:
REMARK  status: ('A' for Active; 'I' for Inactive)
REMARK    1  A    between atoms: C4_4  and  C7_7 
ROOT
HETATM    1  C1  UNL     1     -22.537  18.127   8.500  1.00 20.00     0.006 A 
HETATM    2  C2  UNL     1     -23.869  18.544   8.518  1.00 20.00     0.043 A 
HETATM    3  C3  UNL     1     -21.905  17.758   9.687  1.00 20.00     0.043 A 
HETATM    4  C4  UNL     1     -23.937  18.223  10.911  1.00 20.00     0.029 A 
HETATM    5  C5  UNL     1     -24.568  18.592   9.723  1.00 20.00     0.126 A 
HETATM    6  C6  UNL     1     -22.606  17.806  10.893  1.00 20.00     0.126 A 
HETATM    7  F8  UNL     1     -25.846  18.994   9.730  1.00 20.00    -0.205 F 
HETATM    8  F9  UNL     1     -21.991  17.450  12.029  1.00 20.00    -0.205 F 
ENDROOT
BRANCH   4   9
HETATM    9  C7  UNL     1     -24.685  18.274  12.200  1.00 20.00     0.130 C 
HETATM   10 BR10 UNL     1     -25.860  16.730  12.332  1.00 20.00    -0.091 Br
ENDBRANCH   4   9
TORSDOF 1
ENDMDL
MODEL 5
REMARK VINA RESULT:      -4.1     11.842     12.597
REMARK  1 active torsions:
REMARK  status: ('A' for Active; 'I' for Inactive)
REMARK    1  A    between atoms: C4_4  and  C7_7 
ROOT
HETATM    1  C1  UNL     1     -34.048  15.870  -2.830  1.00 20.00     0.006 A 
HETATM    2  C2  UNL     1     -32.931  16.702  -2.747  1.00 20.00     0.043 A 
HETATM    3  C3  UNL     1     -35.115  16.044  -1.950  1.00 20.00     0.043 A 
HETATM    4  C4  UNL     1     -33.948  17.882  -0.901  1.00 20.00     0.029 A 
HETATM    5  C5  UNL     1     -32.881  17.708  -1.782  1.00 20.00     0.126 A 
HETATM    6  C6  UNL     1     -35.065  17.051  -0.984  1.00 20.00     0.126 A 
HETATM    7  F8  UNL     1     -31.804  18.501  -1.709  1.00 20.00    -0.205 F 
HETATM    8  F9  UNL     1     -36.095  17.210  -0.142  1.00 20.00    -0.205 F 
ENDROOT
BRANCH   4   9
HETATM    9  C7  UNL     1     -33.895  18.957   0.131  1.00 20.00     0.130 C 
HETATM   10 BR10 UNL     1     -33.496  18.174   1.866  1.00 20.00    -0.091 Br
ENDBRANCH   4   9
TORSDOF 1
ENDMDL
MODEL 6
REMARK VINA RESULT:      -4.1     11.841     12.576
REMARK  1 active torsions:
REMARK  status: ('A' for Active; 'I' for Inactive)
REMARK    1  A    between atoms: C4_4  and  C7_7 
ROOT
HETATM    1  C1  UNL     1     -34.051  15.876  -2.824  1.00 20.00     0.006 A 
HETATM    2  C2  UNL     1     -35.114  16.049  -1.937  1.00 20.00     0.043 A 
HETATM    3  C3  UNL     1     -32.936  16.710  -2.748  1.00 20.00     0.043 A 
HETATM    4  C4  UNL     1     -33.947  17.892  -0.899  1.00 20.00     0.029 A 
HETATM    5  C5  UNL     1     -35.063  17.058  -0.975  1.00 20.00     0.126 A 
HETATM    6  C6  UNL     1     -32.885  17.719  -1.786  1.00 20.00     0.126 A 
HETATM    7  F8  UNL     1     -36.088  17.217  -0.129  1.00 20.00    -0.205 F 
HETATM    8  F9  UNL     1     -31.810  18.516  -1.721  1.00 20.00    -0.205 F 
ENDROOT
BRANCH   4   9
HETATM    9  C7  UNL     1     -33.892  18.971   0.129  1.00 20.00     0.130 C 
HETATM   10 BR10 UNL     1     -33.474  18.195   1.863  1.00 20.00    -0.091 Br
ENDBRANCH   4   9
TORSDOF 1
ENDMDL
MODEL 7
REMARK VINA RESULT:      -4.1     16.493     16.716
REMARK  1 active torsions:
REMARK  status: ('A' for Active; 'I' for Inactive)
REMARK    1  A    between atoms: C4_4  and  C7_7 
ROOT
HETATM    1  C1  UNL     1     -24.235  19.124   7.651  1.00 20.00     0.006 A 
HETATM    2  C2  UNL     1     -25.156  19.262   8.690  1.00 20.00     0.043 A 
HETATM    3  C3  UNL     1     -23.139  18.274   7.799  1.00 20.00     0.043 A 
HETATM    4  C4  UNL     1     -23.884  17.702  10.026  1.00 20.00     0.029 A 
HETATM    5  C5  UNL     1     -24.980  18.552   9.878  1.00 20.00     0.126 A 
HETATM    6  C6  UNL     1     -22.964  17.563   8.987  1.00 20.00     0.126 A 
HETATM    7  F8  UNL     1     -25.869  18.692  10.870  1.00 20.00    -0.205 F 
HETATM    8  F9  UNL     1     -21.908  16.749   9.120  1.00 20.00    -0.205 F 
ENDROOT
BRANCH   4   9
HETATM    9  C7  UNL     1     -23.696  16.942  11.295  1.00 20.00     0.130 C 
HETATM   10 BR10 UNL     1     -22.264  17.752  12.332  1.00 20.00    -0.091 Br
ENDBRANCH   4   9
TORSDOF 1
ENDMDL
MODEL 8
REMARK VINA RESULT:      -3.9     11.434     12.256
REMARK  1 active torsions:
REMARK  status: ('A' for Active; 'I' for Inactive)
REMARK    1  A    between atoms: C4_4  and  C7_7 
ROOT
HETATM    1  C1  UNL     1     -35.989  13.652  -4.456  1.00 20.00     0.006 A 
HETATM    2  C2  UNL     1     -37.074  14.520  -4.321  1.00 20.00     0.043 A 
HETATM    3  C3  UNL     1     -34.739  14.015  -3.956  1.00 20.00     0.043 A 
HETATM    4  C4  UNL     1     -35.656  16.114  -3.188  1.00 20.00     0.029 A 
HETATM    5  C5  UNL     1     -36.907  15.752  -3.688  1.00 20.00     0.126 A 
HETATM    6  C6  UNL     1     -34.573  15.247  -3.322  1.00 20.00     0.126 A 
HETATM    7  F8  UNL     1     -37.953  16.579  -3.565  1.00 20.00    -0.205 F 
HETATM    8  F9  UNL     1     -33.368  15.587  -2.845  1.00 20.00    -0.205 F 
ENDROOT
BRANCH   4   9
HETATM    9  C7  UNL     1     -35.478  17.431  -2.511  1.00 20.00     0.130 C 
HETATM   10 BR10 UNL     1     -35.355  17.162  -0.588  1.00 20.00    -0.091 Br
ENDBRANCH   4   9
TORSDOF 1
ENDMDL
MODEL 9
REMARK VINA RESULT:      -3.9     11.434     12.293
REMARK  1 active torsions:
REMARK  status: ('A' for Active; 'I' for Inactive)
REMARK    1  A    between atoms: C4_4  and  C7_7 
ROOT
HETATM    1  C1  UNL     1     -35.967  13.645  -4.452  1.00 20.00     0.006 A 
HETATM    2  C2  UNL     1     -34.719  14.017  -3.951  1.00 20.00     0.043 A 
HETATM    3  C3  UNL     1     -37.056  14.507  -4.321  1.00 20.00     0.043 A 
HETATM    4  C4  UNL     1     -35.650  16.111  -3.187  1.00 20.00     0.029 A 
HETATM    5  C5  UNL     1     -34.560  15.250  -3.318  1.00 20.00     0.126 A 
HETATM    6  C6  UNL     1     -36.897  15.740  -3.687  1.00 20.00     0.126 A 
HETATM    7  F8  UNL     1     -33.359  15.597  -2.840  1.00 20.00    -0.205 F 
HETATM    8  F9  UNL     1     -37.949  16.561  -3.565  1.00 20.00    -0.205 F 
ENDROOT
BRANCH   4   9
HETATM    9  C7  UNL     1     -35.480  17.429  -2.510  1.00 20.00     0.130 C 
HETATM   10 BR10 UNL     1     -35.357  17.162  -0.587  1.00 20.00    -0.091 Br
ENDBRANCH   4   9
TORSDOF 1
ENDMDL
