MODEL 1
REMARK VINA RESULT:      -3.6      0.000      0.000
REMARK  1 active torsions:
REMARK  status: ('A' for Active; 'I' for Inactive)
REMARK    1  A    between atoms: C4_4  and  S7_7 
ROOT
HETATM    1  C1  UNL     1     -34.126   6.680   6.048  1.00 20.00     0.009 A 
HETATM    2  C2  UNL     1     -33.450   6.896   4.812  1.00 20.00     0.026 A 
HETATM    3  C3  UNL     1     -34.895   5.537   6.024  1.00 20.00     0.051 A 
HETATM    4  C4  UNL     1     -33.727   5.909   3.892  1.00 20.00     0.040 A 
HETATM    5  S6  UNL     1     -34.799   4.729   4.517  1.00 20.00    -0.095 SA
ENDROOT
BRANCH   4   6
HETATM    6  S7  UNL     1     -33.091   5.813   2.260  1.00 20.00    -0.127 SA
HETATM    7  C5  UNL     1     -32.489   7.507   2.041  1.00 20.00     0.096 C 
ENDBRANCH   4   6
TORSDOF 1
ENDMDL
MODEL 2
REMARK VINA RESULT:      -3.4      1.208      1.581
REMARK  1 active torsions:
REMARK  status: ('A' for Active; 'I' for Inactive)
REMARK    1  A    between atoms: C4_4  and  S7_7 
ROOT
HETATM    1  C1  UNL     1     -35.010   5.090   5.795  1.00 20.00     0.009 A 
HETATM    2  C2  UNL     1     -34.670   4.751   4.454  1.00 20.00     0.026 A 
HETATM    3  C3  UNL     1     -34.429   6.275   6.193  1.00 20.00     0.051 A 
HETATM    4  C4  UNL     1     -33.843   5.690   3.878  1.00 20.00     0.040 A 
HETATM    5  S6  UNL     1     -33.479   6.973   4.951  1.00 20.00    -0.095 SA
ENDROOT
BRANCH   4   6
HETATM    6  S7  UNL     1     -33.204   5.637   2.244  1.00 20.00    -0.127 SA
HETATM    7  C5  UNL     1     -32.477   7.291   2.122  1.00 20.00     0.096 C 
ENDBRANCH   4   6
TORSDOF 1
ENDMDL
MODEL 3
REMARK VINA RESULT:      -3.4      1.488      1.841
REMARK  1 active torsions:
REMARK  status: ('A' for Active; 'I' for Inactive)
REMARK    1  A    between atoms: C4_4  and  S7_7 
ROOT
HETATM    1  C1  UNL     1     -34.892   4.767   4.288  1.00 20.00     0.009 A 
HETATM    2  C2  UNL     1     -33.947   5.410   3.438  1.00 20.00     0.026 A 
HETATM    3  C3  UNL     1     -34.962   5.364   5.528  1.00 20.00     0.051 A 
HETATM    4  C4  UNL     1     -33.332   6.474   4.060  1.00 20.00     0.040 A 
HETATM    5  S6  UNL     1     -33.893   6.694   5.663  1.00 20.00    -0.095 SA
ENDROOT
BRANCH   4   6
HETATM    6  S7  UNL     1     -32.113   7.519   3.352  1.00 20.00    -0.127 SA
HETATM    7  C5  UNL     1     -32.676   7.562   1.631  1.00 20.00     0.096 C 
ENDBRANCH   4   6
TORSDOF 1
ENDMDL
MODEL 4
REMARK VINA RESULT:      -3.2     15.756     16.063
REMARK  1 active torsions:
REMARK  status: ('A' for Active; 'I' for Inactive)
REMARK    1  A    between atoms: C4_4  and  S7_7 
ROOT
HETATM    1  C1  UNL     1     -24.693  15.902  11.616  1.00 20.00     0.009 A 
HETATM    2  C2  UNL     1     -24.035  16.450  10.478  1.00 20.00     0.026 A 
HETATM    3  C3  UNL     1     -25.491  16.830  12.249  1.00 20.00     0.051 A 
HETATM    4  C4  UNL     1     -24.356  17.775  10.284  1.00 20.00     0.040 A 
HETATM    5  S6  UNL     1     -25.446  18.354  11.471  1.00 20.00    -0.095 SA
ENDROOT
BRANCH   4   6
HETATM    6  S7  UNL     1     -23.757  18.803   8.995  1.00 20.00    -0.127 SA
HETATM    7  C5  UNL     1     -22.516  17.713   8.253  1.00 20.00     0.096 C 
ENDBRANCH   4   6
TORSDOF 1
ENDMDL
MODEL 5
REMARK VINA RESULT:      -3.2     11.900     12.328
REMARK  1 active torsions:
REMARK  status: ('A' for Active; 'I' for Inactive)
REMARK    1  A    between atoms: C4_4  and  S7_7 
ROOT
HETATM    1  C1  UNL     1     -34.038  16.271  -2.434  1.00 20.00     0.009 A 
HETATM    2  C2  UNL     1     -35.230  15.566  -2.768  1.00 20.00     0.026 A 
HETATM    3  C3  UNL     1     -33.001  15.968  -3.290  1.00 20.00     0.051 A 
HETATM    4  C4  UNL     1     -35.058  14.751  -3.865  1.00 20.00     0.040 A 
HETATM    5  S6  UNL     1     -33.466  14.838  -4.489  1.00 20.00    -0.095 SA
ENDROOT
BRANCH   4   6
HETATM    6  S7  UNL     1     -36.283  13.724  -4.589  1.00 20.00    -0.127 SA
HETATM    7  C5  UNL     1     -37.764  14.725  -4.301  1.00 20.00     0.096 C 
ENDBRANCH   4   6
TORSDOF 1
ENDMDL
MODEL 6
REMARK VINA RESULT:      -3.1     11.914     12.409
REMARK  1 active torsions:
REMARK  status: ('A' for Active; 'I' for Inactive)
REMARK    1  A    between atoms: C4_4  and  S7_7 
ROOT
HETATM    1  C1  UNL     1     -34.134  16.509  -2.142  1.00 20.00     0.009 A 
HETATM    2  C2  UNL     1     -35.257  15.734  -2.552  1.00 20.00     0.026 A 
HETATM    3  C3  UNL     1     -33.050  16.329  -2.973  1.00 20.00     0.051 A 
HETATM    4  C4  UNL     1     -34.989  14.992  -3.680  1.00 20.00     0.040 A 
HETATM    5  S6  UNL     1     -33.389  15.230  -4.242  1.00 20.00    -0.095 SA
ENDROOT
BRANCH   4   6
HETATM    6  S7  UNL     1     -36.107  13.914  -4.497  1.00 20.00    -0.127 SA
HETATM    7  C5  UNL     1     -35.841  14.406  -6.219  1.00 20.00     0.096 C 
ENDBRANCH   4   6
TORSDOF 1
ENDMDL
MODEL 7
REMARK VINA RESULT:      -3.0     16.475     16.764
REMARK  1 active torsions:
REMARK  status: ('A' for Active; 'I' for Inactive)
REMARK    1  A    between atoms: C4_4  and  S7_7 
ROOT
HETATM    1  C1  UNL     1     -22.677  17.151   9.013  1.00 20.00     0.009 A 
HETATM    2  C2  UNL     1     -23.204  17.006  10.328  1.00 20.00     0.026 A 
HETATM    3  C3  UNL     1     -23.319  18.145   8.306  1.00 20.00     0.051 A 
HETATM    4  C4  UNL     1     -24.227  17.894  10.577  1.00 20.00     0.040 A 
HETATM    5  S6  UNL     1     -24.550  18.897   9.227  1.00 20.00    -0.095 SA
ENDROOT
BRANCH   4   6
HETATM    6  S7  UNL     1     -25.131  18.033  12.074  1.00 20.00    -0.127 SA
HETATM    7  C5  UNL     1     -26.382  19.250  11.591  1.00 20.00     0.096 C 
ENDBRANCH   4   6
TORSDOF 1
ENDMDL
MODEL 8
REMARK VINA RESULT:      -3.0     11.916     12.483
REMARK  1 active torsions:
REMARK  status: ('A' for Active; 'I' for Inactive)
REMARK    1  A    between atoms: C4_4  and  S7_7 
ROOT
HETATM    1  C1  UNL     1     -35.200  16.636  -1.497  1.00 20.00     0.009 A 
HETATM    2  C2  UNL     1     -35.021  15.612  -2.471  1.00 20.00     0.026 A 
HETATM    3  C3  UNL     1     -34.152  17.531  -1.488  1.00 20.00     0.051 A 
HETATM    4  C4  UNL     1     -33.844  15.763  -3.170  1.00 20.00     0.040 A 
HETATM    5  S6  UNL     1     -32.960  17.135  -2.651  1.00 20.00    -0.095 SA
ENDROOT
BRANCH   4   6
HETATM    6  S7  UNL     1     -33.263  14.714  -4.450  1.00 20.00    -0.127 SA
HETATM    7  C5  UNL     1     -34.498  15.043  -5.732  1.00 20.00     0.096 C 
ENDBRANCH   4   6
TORSDOF 1
ENDMDL
MODEL 9
REMARK VINA RESULT:      -2.9     12.038     12.456
REMARK  1 active torsions:
REMARK  status: ('A' for Active; 'I' for Inactive)
REMARK    1  A    between atoms: C4_4  and  S7_7 
ROOT
HETATM    1  C1  UNL     1     -32.955  16.292  -3.105  1.00 20.00     0.009 A 
HETATM    2  C2  UNL     1     -33.547  15.297  -3.936  1.00 20.00     0.026 A 
HETATM    3  C3  UNL     1     -33.855  16.814  -2.201  1.00 20.00     0.051 A 
HETATM    4  C4  UNL     1     -34.877  15.097  -3.635  1.00 20.00     0.040 A 
HETATM    5  S6  UNL     1     -35.406  16.106  -2.357  1.00 20.00    -0.095 SA
ENDROOT
BRANCH   4   6
HETATM    6  S7  UNL     1     -35.953  13.961  -4.428  1.00 20.00    -0.127 SA
HETATM    7  C5  UNL     1     -35.783  14.492  -6.150  1.00 20.00     0.096 C 
ENDBRANCH   4   6
TORSDOF 1
ENDMDL
