MODEL 1
REMARK VINA RESULT:      -4.3      0.000      0.000
REMARK  3 active torsions:
REMARK  status: ('A' for Active; 'I' for Inactive)
REMARK    1  A    between atoms: C4_4  and  S10_10 
REMARK    2  A    between atoms: C5_5  and  C7_7 
REMARK    3  A    between atoms: C7_7  and  S10_10 
ROOT
HETATM    1  C1  UNL     1     -34.856  17.027  -1.254  1.00 20.00     0.009 A 
HETATM    2  C2  UNL     1     -34.863  15.901  -2.127  1.00 20.00     0.026 A 
HETATM    3  C3  UNL     1     -33.869  17.931  -1.584  1.00 20.00     0.051 A 
HETATM    4  C4  UNL     1     -33.883  15.987  -3.090  1.00 20.00     0.041 A 
HETATM    5  S9  UNL     1     -32.958  17.420  -2.940  1.00 20.00    -0.095 SA
ENDROOT
BRANCH   4   6
HETATM    6  S10 UNL     1     -33.565  14.795  -4.358  1.00 20.00    -0.115 SA
BRANCH   6   7
HETATM    7  C7  UNL     1     -35.141  14.847  -5.243  1.00 20.00     0.157 C 
BRANCH   7   8
HETATM    8  C5  UNL     1     -36.119  13.833  -4.697  1.00 20.00     0.132 C 
HETATM    9  C6  UNL     1     -37.463  14.386  -4.351  1.00 20.00     0.091 C 
HETATM   10  O8  UNL     1     -35.895  12.642  -4.528  1.00 20.00    -0.298 OA
ENDBRANCH   7   8
ENDBRANCH   6   7
ENDBRANCH   4   6
TORSDOF 3
ENDMDL
MODEL 2
REMARK VINA RESULT:      -4.2      0.864      1.123
REMARK  3 active torsions:
REMARK  status: ('A' for Active; 'I' for Inactive)
REMARK    1  A    between atoms: C4_4  and  S10_10 
REMARK    2  A    between atoms: C5_5  and  C7_7 
REMARK    3  A    between atoms: C7_7  and  S10_10 
ROOT
HETATM    1  C1  UNL     1     -35.060  17.013  -0.963  1.00 20.00     0.009 A 
HETATM    2  C2  UNL     1     -35.106  16.021  -1.984  1.00 20.00     0.026 A 
HETATM    3  C3  UNL     1     -33.939  17.809  -1.065  1.00 20.00     0.051 A 
HETATM    4  C4  UNL     1     -34.021  16.096  -2.829  1.00 20.00     0.041 A 
HETATM    5  S9  UNL     1     -32.951  17.359  -2.389  1.00 20.00    -0.095 SA
ENDROOT
BRANCH   4   6
HETATM    6  S10 UNL     1     -33.711  15.047  -4.218  1.00 20.00    -0.115 SA
BRANCH   6   7
HETATM    7  C7  UNL     1     -34.940  13.755  -3.920  1.00 20.00     0.157 C 
BRANCH   7   8
HETATM    8  C5  UNL     1     -36.151  13.923  -4.808  1.00 20.00     0.132 C 
HETATM    9  C6  UNL     1     -35.872  14.554  -6.132  1.00 20.00     0.091 C 
HETATM   10  O8  UNL     1     -37.295  13.590  -4.527  1.00 20.00    -0.298 OA
ENDBRANCH   7   8
ENDBRANCH   6   7
ENDBRANCH   4   6
TORSDOF 3
ENDMDL
MODEL 3
REMARK VINA RESULT:      -4.0     10.657     11.286
REMARK  3 active torsions:
REMARK  status: ('A' for Active; 'I' for Inactive)
REMARK    1  A    between atoms: C4_4  and  S10_10 
REMARK    2  A    between atoms: C5_5  and  C7_7 
REMARK    3  A    between atoms: C7_7  and  S10_10 
ROOT
HETATM    1  C1  UNL     1     -34.744   5.751   5.833  1.00 20.00     0.009 A 
HETATM    2  C2  UNL     1     -33.799   6.762   5.496  1.00 20.00     0.026 A 
HETATM    3  C3  UNL     1     -34.975   4.888   4.783  1.00 20.00     0.051 A 
HETATM    4  C4  UNL     1     -33.342   6.633   4.203  1.00 20.00     0.041 A 
HETATM    5  S9  UNL     1     -34.052   5.297   3.401  1.00 20.00    -0.095 SA
ENDROOT
BRANCH   4   6
HETATM    6  S10 UNL     1     -32.164   7.685   3.408  1.00 20.00    -0.115 SA
BRANCH   6   7
HETATM    7  C7  UNL     1     -32.573   7.367   1.676  1.00 20.00     0.157 C 
BRANCH   7   8
HETATM    8  C5  UNL     1     -32.899   8.644   0.937  1.00 20.00     0.132 C 
HETATM    9  C6  UNL     1     -33.315   8.454  -0.485  1.00 20.00     0.091 C 
HETATM   10  O8  UNL     1     -32.848   9.774   1.405  1.00 20.00    -0.298 OA
ENDBRANCH   7   8
ENDBRANCH   6   7
ENDBRANCH   4   6
TORSDOF 3
ENDMDL
MODEL 4
REMARK VINA RESULT:      -3.8      1.140      1.165
REMARK  3 active torsions:
REMARK  status: ('A' for Active; 'I' for Inactive)
REMARK    1  A    between atoms: C4_4  and  S10_10 
REMARK    2  A    between atoms: C5_5  and  C7_7 
REMARK    3  A    between atoms: C7_7  and  S10_10 
ROOT
HETATM    1  C1  UNL     1     -35.104  16.752  -1.365  1.00 20.00     0.009 A 
HETATM    2  C2  UNL     1     -35.019  15.709  -2.331  1.00 20.00     0.026 A 
HETATM    3  C3  UNL     1     -34.037  17.621  -1.446  1.00 20.00     0.051 A 
HETATM    4  C4  UNL     1     -33.892  15.820  -3.114  1.00 20.00     0.041 A 
HETATM    5  S9  UNL     1     -32.941  17.177  -2.684  1.00 20.00    -0.095 SA
ENDROOT
BRANCH   4   6
HETATM    6  S10 UNL     1     -33.425  14.726  -4.423  1.00 20.00    -0.115 SA
BRANCH   6   7
HETATM    7  C7  UNL     1     -34.320  15.481  -5.801  1.00 20.00     0.157 C 
BRANCH   7   8
HETATM    8  C5  UNL     1     -35.712  14.912  -5.940  1.00 20.00     0.132 C 
HETATM    9  C6  UNL     1     -36.811  15.918  -5.842  1.00 20.00     0.091 C 
HETATM   10  O8  UNL     1     -35.987  13.733  -6.121  1.00 20.00    -0.298 OA
ENDBRANCH   7   8
ENDBRANCH   6   7
ENDBRANCH   4   6
TORSDOF 3
ENDMDL
MODEL 5
REMARK VINA RESULT:      -3.8     16.830     17.952
REMARK  3 active torsions:
REMARK  status: ('A' for Active; 'I' for Inactive)
REMARK    1  A    between atoms: C4_4  and  S10_10 
REMARK    2  A    between atoms: C5_5  and  C7_7 
REMARK    3  A    between atoms: C7_7  and  S10_10 
ROOT
HETATM    1  C1  UNL     1     -25.458  15.927  12.289  1.00 20.00     0.009 A 
HETATM    2  C2  UNL     1     -24.152  16.109  11.750  1.00 20.00     0.026 A 
HETATM    3  C3  UNL     1     -26.170  17.106  12.332  1.00 20.00     0.051 A 
HETATM    4  C4  UNL     1     -23.915  17.420  11.400  1.00 20.00     0.041 A 
HETATM    5  S9  UNL     1     -25.264  18.425  11.723  1.00 20.00    -0.095 SA
ENDROOT
BRANCH   4   6
HETATM    6  S10 UNL     1     -22.422  18.054  10.697  1.00 20.00    -0.115 SA
BRANCH   6   7
HETATM    7  C7  UNL     1     -22.293  17.007   9.229  1.00 20.00     0.157 C 
BRANCH   7   8
HETATM    8  C5  UNL     1     -22.667  17.760   7.974  1.00 20.00     0.132 C 
HETATM    9  C6  UNL     1     -23.931  18.548   8.071  1.00 20.00     0.091 C 
HETATM   10  O8  UNL     1     -22.030  17.768   6.928  1.00 20.00    -0.298 OA
ENDBRANCH   7   8
ENDBRANCH   6   7
ENDBRANCH   4   6
TORSDOF 3
ENDMDL
MODEL 6
REMARK VINA RESULT:      -3.7      3.313      5.415
REMARK  3 active torsions:
REMARK  status: ('A' for Active; 'I' for Inactive)
REMARK    1  A    between atoms: C4_4  and  S10_10 
REMARK    2  A    between atoms: C5_5  and  C7_7 
REMARK    3  A    between atoms: C7_7  and  S10_10 
ROOT
HETATM    1  C1  UNL     1     -34.930  14.504  -3.759  1.00 20.00     0.009 A 
HETATM    2  C2  UNL     1     -35.191  15.402  -2.686  1.00 20.00     0.026 A 
HETATM    3  C3  UNL     1     -33.706  14.741  -4.347  1.00 20.00     0.051 A 
HETATM    4  C4  UNL     1     -34.158  16.292  -2.493  1.00 20.00     0.041 A 
HETATM    5  S9  UNL     1     -32.879  16.042  -3.604  1.00 20.00    -0.095 SA
ENDROOT
BRANCH   4   6
HETATM    6  S10 UNL     1     -34.096  17.562  -1.263  1.00 20.00    -0.115 SA
BRANCH   6   7
HETATM    7  C7  UNL     1     -32.492  18.300  -1.651  1.00 20.00     0.157 C 
BRANCH   7   8
HETATM    8  C5  UNL     1     -31.612  18.396  -0.427  1.00 20.00     0.132 C 
HETATM    9  C6  UNL     1     -32.348  18.603   0.856  1.00 20.00     0.091 C 
HETATM   10  O8  UNL     1     -30.391  18.318  -0.416  1.00 20.00    -0.298 OA
ENDBRANCH   7   8
ENDBRANCH   6   7
ENDBRANCH   4   6
TORSDOF 3
ENDMDL
MODEL 7
REMARK VINA RESULT:      -3.7      3.595      5.795
REMARK  3 active torsions:
REMARK  status: ('A' for Active; 'I' for Inactive)
REMARK    1  A    between atoms: C4_4  and  S10_10 
REMARK    2  A    between atoms: C5_5  and  C7_7 
REMARK    3  A    between atoms: C7_7  and  S10_10 
ROOT
HETATM    1  C1  UNL     1     -34.195  15.423  -3.161  1.00 20.00     0.009 A 
HETATM    2  C2  UNL     1     -33.187  16.424  -3.262  1.00 20.00     0.026 A 
HETATM    3  C3  UNL     1     -35.194  15.781  -2.281  1.00 20.00     0.051 A 
HETATM    4  C4  UNL     1     -33.453  17.509  -2.457  1.00 20.00     0.041 A 
HETATM    5  S9  UNL     1     -34.913  17.319  -1.584  1.00 20.00    -0.095 SA
ENDROOT
BRANCH   4   6
HETATM    6  S10 UNL     1     -32.449  18.957  -2.300  1.00 20.00    -0.115 SA
BRANCH   6   7
HETATM    7  C7  UNL     1     -32.511  19.192  -0.508  1.00 20.00     0.157 C 
BRANCH   7   8
HETATM    8  C5  UNL     1     -31.305  18.591   0.174  1.00 20.00     0.132 C 
HETATM    9  C6  UNL     1     -31.448  18.411   1.650  1.00 20.00     0.091 C 
HETATM   10  O8  UNL     1     -30.265  18.254  -0.377  1.00 20.00    -0.298 OA
ENDBRANCH   7   8
ENDBRANCH   6   7
ENDBRANCH   4   6
TORSDOF 3
ENDMDL
MODEL 8
REMARK VINA RESULT:      -3.6     16.938     18.269
REMARK  3 active torsions:
REMARK  status: ('A' for Active; 'I' for Inactive)
REMARK    1  A    between atoms: C4_4  and  S10_10 
REMARK    2  A    between atoms: C5_5  and  C7_7 
REMARK    3  A    between atoms: C7_7  and  S10_10 
ROOT
HETATM    1  C1  UNL     1     -22.047  17.440   8.035  1.00 20.00     0.009 A 
HETATM    2  C2  UNL     1     -21.794  17.219   9.419  1.00 20.00     0.026 A 
HETATM    3  C3  UNL     1     -23.190  18.182   7.829  1.00 20.00     0.051 A 
HETATM    4  C4  UNL     1     -22.753  17.801  10.219  1.00 20.00     0.041 A 
HETATM    5  S9  UNL     1     -23.952  18.608   9.301  1.00 20.00    -0.095 SA
ENDROOT
BRANCH   4   6
HETATM    6  S10 UNL     1     -22.798  17.757  11.986  1.00 20.00    -0.115 SA
BRANCH   6   7
HETATM    7  C7  UNL     1     -24.511  18.260  12.272  1.00 20.00     0.157 C 
BRANCH   7   8
HETATM    8  C5  UNL     1     -25.448  17.076  12.266  1.00 20.00     0.132 C 
HETATM    9  C6  UNL     1     -26.899  17.426  12.332  1.00 20.00     0.091 C 
HETATM   10  O8  UNL     1     -25.114  15.899  12.212  1.00 20.00    -0.298 OA
ENDBRANCH   7   8
ENDBRANCH   6   7
ENDBRANCH   4   6
TORSDOF 3
ENDMDL
MODEL 9
REMARK VINA RESULT:      -3.6      1.365      1.558
REMARK  3 active torsions:
REMARK  status: ('A' for Active; 'I' for Inactive)
REMARK    1  A    between atoms: C4_4  and  S10_10 
REMARK    2  A    between atoms: C5_5  and  C7_7 
REMARK    3  A    between atoms: C7_7  and  S10_10 
ROOT
HETATM    1  C1  UNL     1     -32.928  17.868  -1.381  1.00 20.00     0.009 A 
HETATM    2  C2  UNL     1     -32.942  17.198  -2.638  1.00 20.00     0.026 A 
HETATM    3  C3  UNL     1     -34.200  18.166  -0.940  1.00 20.00     0.051 A 
HETATM    4  C4  UNL     1     -34.222  17.008  -3.110  1.00 20.00     0.041 A 
HETATM    5  S9  UNL     1     -35.401  17.637  -2.039  1.00 20.00    -0.095 SA
ENDROOT
BRANCH   4   6
HETATM    6  S10 UNL     1     -34.663  16.217  -4.628  1.00 20.00    -0.115 SA
BRANCH   6   7
HETATM    7  C7  UNL     1     -34.468  14.484  -4.151  1.00 20.00     0.157 C 
BRANCH   7   8
HETATM    8  C5  UNL     1     -35.755  13.712  -4.320  1.00 20.00     0.132 C 
HETATM    9  C6  UNL     1     -36.996  14.539  -4.235  1.00 20.00     0.091 C 
HETATM   10  O8  UNL     1     -35.845  12.506  -4.515  1.00 20.00    -0.298 OA
ENDBRANCH   7   8
ENDBRANCH   6   7
ENDBRANCH   4   6
TORSDOF 3
ENDMDL
