MODEL 1
REMARK VINA RESULT:      -6.2      0.000      0.000
REMARK  1 active torsions:
REMARK  status: ('A' for Active; 'I' for Inactive)
REMARK    1  A    between atoms: C6_6  and  C9_9 
ROOT
HETATM    1  C1  UNL     1     -34.922   5.403   5.614  1.00 20.00     0.001 A 
HETATM    2  C2  UNL     1     -34.258   6.592   5.913  1.00 20.00     0.001 A 
HETATM    3  C3  UNL     1     -34.688   4.760   4.398  1.00 20.00     0.007 A 
HETATM    4  C4  UNL     1     -33.360   7.139   4.997  1.00 20.00     0.007 A 
HETATM    5  C5  UNL     1     -33.790   5.307   3.482  1.00 20.00    -0.056 A 
HETATM    6  C6  UNL     1     -33.126   6.496   3.780  1.00 20.00    -0.053 A 
HETATM    7  C7  UNL     1     -33.555   4.600   2.187  1.00 20.00     0.049 C 
ENDROOT
BRANCH   6   8
HETATM    8  C9  UNL     1     -32.160   7.101   2.815  1.00 20.00     0.034 C 
HETATM    9  C8  UNL     1     -32.858   7.937   1.746  1.00 20.00     0.010 C 
ENDBRANCH   6   8
TORSDOF 1
ENDMDL
MODEL 2
REMARK VINA RESULT:      -5.4      0.526      2.543
REMARK  1 active torsions:
REMARK  status: ('A' for Active; 'I' for Inactive)
REMARK    1  A    between atoms: C6_6  and  C9_9 
ROOT
HETATM    1  C1  UNL     1     -34.210   6.560   6.139  1.00 20.00     0.001 A 
HETATM    2  C2  UNL     1     -34.903   5.391   5.825  1.00 20.00     0.001 A 
HETATM    3  C3  UNL     1     -33.416   7.179   5.174  1.00 20.00     0.007 A 
HETATM    4  C4  UNL     1     -34.802   4.841   4.547  1.00 20.00     0.007 A 
HETATM    5  C5  UNL     1     -33.314   6.630   3.896  1.00 20.00    -0.056 A 
HETATM    6  C6  UNL     1     -34.007   5.461   3.582  1.00 20.00    -0.053 A 
HETATM    7  C7  UNL     1     -32.458   7.312   2.879  1.00 20.00     0.049 C 
ENDROOT
BRANCH   6   8
HETATM    8  C9  UNL     1     -33.914   4.854   2.221  1.00 20.00     0.034 C 
HETATM    9  C8  UNL     1     -32.789   3.829   2.121  1.00 20.00     0.010 C 
ENDBRANCH   6   8
TORSDOF 1
ENDMDL
MODEL 3
REMARK VINA RESULT:      -5.2      0.689      2.360
REMARK  1 active torsions:
REMARK  status: ('A' for Active; 'I' for Inactive)
REMARK    1  A    between atoms: C6_6  and  C9_9 
ROOT
HETATM    1  C1  UNL     1     -34.899   4.423   4.497  1.00 20.00     0.001 A 
HETATM    2  C2  UNL     1     -34.290   4.294   3.249  1.00 20.00     0.001 A 
HETATM    3  C3  UNL     1     -34.632   5.537   5.292  1.00 20.00     0.007 A 
HETATM    4  C4  UNL     1     -33.413   5.280   2.796  1.00 20.00     0.007 A 
HETATM    5  C5  UNL     1     -33.755   6.523   4.839  1.00 20.00    -0.056 A 
HETATM    6  C6  UNL     1     -33.145   6.395   3.591  1.00 20.00    -0.053 A 
HETATM    7  C7  UNL     1     -33.485   7.708   5.707  1.00 20.00     0.049 C 
ENDROOT
BRANCH   6   8
HETATM    8  C9  UNL     1     -32.203   7.437   3.085  1.00 20.00     0.034 C 
HETATM    9  C8  UNL     1     -32.438   7.764   1.614  1.00 20.00     0.010 C 
ENDBRANCH   6   8
TORSDOF 1
ENDMDL
MODEL 4
REMARK VINA RESULT:      -4.6     11.691     12.558
REMARK  1 active torsions:
REMARK  status: ('A' for Active; 'I' for Inactive)
REMARK    1  A    between atoms: C6_6  and  C9_9 
ROOT
HETATM    1  C1  UNL     1     -34.566  15.401  -3.152  1.00 20.00     0.001 A 
HETATM    2  C2  UNL     1     -33.312  15.920  -3.473  1.00 20.00     0.001 A 
HETATM    3  C3  UNL     1     -35.275  15.912  -2.065  1.00 20.00     0.007 A 
HETATM    4  C4  UNL     1     -32.767  16.950  -2.707  1.00 20.00     0.007 A 
HETATM    5  C5  UNL     1     -34.731  16.942  -1.300  1.00 20.00    -0.056 A 
HETATM    6  C6  UNL     1     -33.477  17.462  -1.619  1.00 20.00    -0.053 A 
HETATM    7  C7  UNL     1     -35.510  17.475  -0.141  1.00 20.00     0.049 C 
ENDROOT
BRANCH   6   8
HETATM    8  C9  UNL     1     -32.873  18.564  -0.813  1.00 20.00     0.034 C 
HETATM    9  C8  UNL     1     -31.394  18.328  -0.526  1.00 20.00     0.010 C 
ENDBRANCH   6   8
TORSDOF 1
ENDMDL
MODEL 5
REMARK VINA RESULT:      -4.5     16.234     17.276
REMARK  1 active torsions:
REMARK  status: ('A' for Active; 'I' for Inactive)
REMARK    1  A    between atoms: C6_6  and  C9_9 
ROOT
HETATM    1  C1  UNL     1     -22.390  18.075   8.557  1.00 20.00     0.001 A 
HETATM    2  C2  UNL     1     -23.746  18.295   8.318  1.00 20.00     0.001 A 
HETATM    3  C3  UNL     1     -21.931  17.900   9.862  1.00 20.00     0.007 A 
HETATM    4  C4  UNL     1     -24.644  18.339   9.385  1.00 20.00     0.007 A 
HETATM    5  C5  UNL     1     -22.828  17.944  10.929  1.00 20.00    -0.056 A 
HETATM    6  C6  UNL     1     -24.184  18.164  10.691  1.00 20.00    -0.053 A 
HETATM    7  C7  UNL     1     -22.314  17.752  12.318  1.00 20.00     0.049 C 
ENDROOT
BRANCH   6   8
HETATM    8  C9  UNL     1     -25.164  18.216  11.817  1.00 20.00     0.034 C 
HETATM    9  C8  UNL     1     -26.296  19.203  11.553  1.00 20.00     0.010 C 
ENDBRANCH   6   8
TORSDOF 1
ENDMDL
MODEL 6
REMARK VINA RESULT:      -4.5     11.383     12.121
REMARK  1 active torsions:
REMARK  status: ('A' for Active; 'I' for Inactive)
REMARK    1  A    between atoms: C6_6  and  C9_9 
ROOT
HETATM    1  C1  UNL     1     -33.628  17.313  -1.920  1.00 20.00     0.001 A 
HETATM    2  C2  UNL     1     -34.950  16.974  -1.634  1.00 20.00     0.001 A 
HETATM    3  C3  UNL     1     -32.904  16.574  -2.856  1.00 20.00     0.007 A 
HETATM    4  C4  UNL     1     -35.549  15.895  -2.284  1.00 20.00     0.007 A 
HETATM    5  C5  UNL     1     -33.504  15.495  -3.505  1.00 20.00    -0.056 A 
HETATM    6  C6  UNL     1     -34.825  15.155  -3.220  1.00 20.00    -0.053 A 
HETATM    7  C7  UNL     1     -32.709  14.718  -4.504  1.00 20.00     0.049 C 
ENDROOT
BRANCH   6   8
HETATM    8  C9  UNL     1     -35.488  14.003  -3.902  1.00 20.00     0.034 C 
HETATM    9  C8  UNL     1     -36.869  14.365  -4.437  1.00 20.00     0.010 C 
ENDBRANCH   6   8
TORSDOF 1
ENDMDL
MODEL 7
REMARK VINA RESULT:      -4.5     11.479     12.406
REMARK  1 active torsions:
REMARK  status: ('A' for Active; 'I' for Inactive)
REMARK    1  A    between atoms: C6_6  and  C9_9 
ROOT
HETATM    1  C1  UNL     1     -33.633  14.615  -4.354  1.00 20.00     0.001 A 
HETATM    2  C2  UNL     1     -34.928  14.339  -3.914  1.00 20.00     0.001 A 
HETATM    3  C3  UNL     1     -32.901  15.644  -3.763  1.00 20.00     0.007 A 
HETATM    4  C4  UNL     1     -35.490  15.092  -2.884  1.00 20.00     0.007 A 
HETATM    5  C5  UNL     1     -33.462  16.397  -2.733  1.00 20.00    -0.056 A 
HETATM    6  C6  UNL     1     -34.757  16.122  -2.293  1.00 20.00    -0.053 A 
HETATM    7  C7  UNL     1     -32.658  17.494  -2.114  1.00 20.00     0.049 C 
ENDROOT
BRANCH   6   8
HETATM    8  C9  UNL     1     -35.379  16.915  -1.191  1.00 20.00     0.034 C 
HETATM    9  C8  UNL     1     -36.549  17.764  -1.680  1.00 20.00     0.010 C 
ENDBRANCH   6   8
TORSDOF 1
ENDMDL
MODEL 8
REMARK VINA RESULT:      -4.4     11.640     12.636
REMARK  1 active torsions:
REMARK  status: ('A' for Active; 'I' for Inactive)
REMARK    1  A    between atoms: C6_6  and  C9_9 
ROOT
HETATM    1  C1  UNL     1     -33.761  15.626  -3.523  1.00 20.00     0.001 A 
HETATM    2  C2  UNL     1     -34.969  15.470  -2.845  1.00 20.00     0.001 A 
HETATM    3  C3  UNL     1     -32.841  16.584  -3.098  1.00 20.00     0.007 A 
HETATM    4  C4  UNL     1     -35.258  16.272  -1.741  1.00 20.00     0.007 A 
HETATM    5  C5  UNL     1     -33.129  17.386  -1.994  1.00 20.00    -0.056 A 
HETATM    6  C6  UNL     1     -34.338  17.231  -1.316  1.00 20.00    -0.053 A 
HETATM    7  C7  UNL     1     -32.128  18.405  -1.557  1.00 20.00     0.049 C 
ENDROOT
BRANCH   6   8
HETATM    8  C9  UNL     1     -34.669  18.079  -0.132  1.00 20.00     0.034 C 
HETATM    9  C8  UNL     1     -35.683  17.412   0.792  1.00 20.00     0.010 C 
ENDBRANCH   6   8
TORSDOF 1
ENDMDL
MODEL 9
REMARK VINA RESULT:      -4.4      0.934      3.168
REMARK  1 active torsions:
REMARK  status: ('A' for Active; 'I' for Inactive)
REMARK    1  A    between atoms: C6_6  and  C9_9 
ROOT
HETATM    1  C1  UNL     1     -31.810   7.621   3.238  1.00 20.00     0.001 A 
HETATM    2  C2  UNL     1     -32.405   7.907   4.466  1.00 20.00     0.001 A 
HETATM    3  C3  UNL     1     -32.262   6.543   2.478  1.00 20.00     0.007 A 
HETATM    4  C4  UNL     1     -33.453   7.115   4.935  1.00 20.00     0.007 A 
HETATM    5  C5  UNL     1     -33.310   5.750   2.946  1.00 20.00    -0.056 A 
HETATM    6  C6  UNL     1     -33.906   6.036   4.174  1.00 20.00    -0.053 A 
HETATM    7  C7  UNL     1     -33.778   4.601   2.114  1.00 20.00     0.049 C 
ENDROOT
BRANCH   6   8
HETATM    8  C9  UNL     1     -35.029   5.201   4.696  1.00 20.00     0.034 C 
HETATM    9  C8  UNL     1     -34.915   4.952   6.197  1.00 20.00     0.010 C 
ENDBRANCH   6   8
TORSDOF 1
ENDMDL
