MODEL 1
REMARK VINA RESULT:      -5.0      0.000      0.000
REMARK  1 active torsions:
REMARK  status: ('A' for Active; 'I' for Inactive)
REMARK    1  A    between atoms: C4_4  and  C6_6 
ROOT
HETATM    1  C1  UNL     1     -34.925   5.384   5.888  1.00 20.00     0.027 A 
HETATM    2  C2  UNL     1     -34.733   4.892   4.575  1.00 20.00     0.034 A 
HETATM    3  C3  UNL     1     -34.180   6.536   5.977  1.00 20.00     0.142 A 
HETATM    4  C4  UNL     1     -33.885   5.779   3.955  1.00 20.00     0.052 A 
HETATM    5  O7  UNL     1     -33.542   6.784   4.803  1.00 20.00    -0.327 OA
ENDROOT
BRANCH   4   6
HETATM    6  C6  UNL     1     -33.304   5.840   2.606  1.00 20.00     0.060 C 
HETATM    7  C5  UNL     1     -32.516   7.131   2.347  1.00 20.00     0.012 C 
ENDBRANCH   4   6
TORSDOF 1
ENDMDL
MODEL 2
REMARK VINA RESULT:      -4.6      0.977      1.412
REMARK  1 active torsions:
REMARK  status: ('A' for Active; 'I' for Inactive)
REMARK    1  A    between atoms: C4_4  and  C6_6 
ROOT
HETATM    1  C1  UNL     1     -34.422   6.242   6.043  1.00 20.00     0.027 A 
HETATM    2  C2  UNL     1     -33.669   6.819   4.993  1.00 20.00     0.034 A 
HETATM    3  C3  UNL     1     -34.917   5.056   5.552  1.00 20.00     0.142 A 
HETATM    4  C4  UNL     1     -33.756   5.944   3.935  1.00 20.00     0.052 A 
HETATM    5  O7  UNL     1     -34.515   4.867   4.267  1.00 20.00    -0.327 OA
ENDROOT
BRANCH   4   6
HETATM    6  C6  UNL     1     -33.206   5.957   2.572  1.00 20.00     0.060 C 
HETATM    7  C5  UNL     1     -32.465   7.257   2.234  1.00 20.00     0.012 C 
ENDBRANCH   4   6
TORSDOF 1
ENDMDL
MODEL 3
REMARK VINA RESULT:      -4.5      0.756      3.112
REMARK  1 active torsions:
REMARK  status: ('A' for Active; 'I' for Inactive)
REMARK    1  A    between atoms: C4_4  and  C6_6 
ROOT
HETATM    1  C1  UNL     1     -32.595   6.150   2.151  1.00 20.00     0.027 A 
HETATM    2  C2  UNL     1     -33.470   5.109   2.544  1.00 20.00     0.034 A 
HETATM    3  C3  UNL     1     -32.690   7.117   3.125  1.00 20.00     0.142 A 
HETATM    4  C4  UNL     1     -34.038   5.513   3.730  1.00 20.00     0.052 A 
HETATM    5  O7  UNL     1     -33.568   6.736   4.091  1.00 20.00    -0.327 OA
ENDROOT
BRANCH   4   6
HETATM    6  C6  UNL     1     -35.015   4.897   4.639  1.00 20.00     0.060 C 
HETATM    7  C5  UNL     1     -34.790   5.274   6.109  1.00 20.00     0.012 C 
ENDBRANCH   4   6
TORSDOF 1
ENDMDL
MODEL 4
REMARK VINA RESULT:      -4.4      0.804      1.089
REMARK  1 active torsions:
REMARK  status: ('A' for Active; 'I' for Inactive)
REMARK    1  A    between atoms: C4_4  and  C6_6 
ROOT
HETATM    1  C1  UNL     1     -35.022   5.024   4.856  1.00 20.00     0.027 A 
HETATM    2  C2  UNL     1     -34.293   5.468   3.727  1.00 20.00     0.034 A 
HETATM    3  C3  UNL     1     -34.619   5.815   5.907  1.00 20.00     0.142 A 
HETATM    4  C4  UNL     1     -33.498   6.501   4.167  1.00 20.00     0.052 A 
HETATM    5  O7  UNL     1     -33.690   6.718   5.495  1.00 20.00    -0.327 OA
ENDROOT
BRANCH   4   6
HETATM    6  C6  UNL     1     -32.522   7.373   3.499  1.00 20.00     0.060 C 
HETATM    7  C5  UNL     1     -32.546   7.243   1.971  1.00 20.00     0.012 C 
ENDBRANCH   4   6
TORSDOF 1
ENDMDL
MODEL 5
REMARK VINA RESULT:      -3.5     11.753     12.242
REMARK  1 active torsions:
REMARK  status: ('A' for Active; 'I' for Inactive)
REMARK    1  A    between atoms: C4_4  and  C6_6 
ROOT
HETATM    1  C1  UNL     1     -34.161  16.916  -1.909  1.00 20.00     0.027 A 
HETATM    2  C2  UNL     1     -35.053  15.875  -2.258  1.00 20.00     0.034 A 
HETATM    3  C3  UNL     1     -33.050  16.751  -2.704  1.00 20.00     0.142 A 
HETATM    4  C4  UNL     1     -34.425  15.147  -3.242  1.00 20.00     0.052 A 
HETATM    5  O7  UNL     1     -33.204  15.674  -3.519  1.00 20.00    -0.327 OA
ENDROOT
BRANCH   4   6
HETATM    6  C6  UNL     1     -34.811  13.958  -4.015  1.00 20.00     0.060 C 
HETATM    7  C5  UNL     1     -36.300  13.939  -4.386  1.00 20.00     0.012 C 
ENDBRANCH   4   6
TORSDOF 1
ENDMDL
MODEL 6
REMARK VINA RESULT:      -3.4     11.770     12.220
REMARK  1 active torsions:
REMARK  status: ('A' for Active; 'I' for Inactive)
REMARK    1  A    between atoms: C4_4  and  C6_6 
ROOT
HETATM    1  C1  UNL     1     -33.664  17.163  -1.980  1.00 20.00     0.027 A 
HETATM    2  C2  UNL     1     -33.304  16.268  -3.015  1.00 20.00     0.034 A 
HETATM    3  C3  UNL     1     -34.896  16.750  -1.528  1.00 20.00     0.142 A 
HETATM    4  C4  UNL     1     -34.340  15.370  -3.121  1.00 20.00     0.052 A 
HETATM    5  O7  UNL     1     -35.315  15.657  -2.219  1.00 20.00    -0.327 OA
ENDROOT
BRANCH   4   6
HETATM    6  C6  UNL     1     -34.580  14.209  -3.991  1.00 20.00     0.060 C 
HETATM    7  C5  UNL     1     -36.063  14.002  -4.323  1.00 20.00     0.012 C 
ENDBRANCH   4   6
TORSDOF 1
ENDMDL
MODEL 7
REMARK VINA RESULT:      -3.4     11.935     12.408
REMARK  1 active torsions:
REMARK  status: ('A' for Active; 'I' for Inactive)
REMARK    1  A    between atoms: C4_4  and  C6_6 
ROOT
HETATM    1  C1  UNL     1     -34.454  14.319  -4.084  1.00 20.00     0.027 A 
HETATM    2  C2  UNL     1     -35.020  15.123  -3.066  1.00 20.00     0.034 A 
HETATM    3  C3  UNL     1     -33.176  14.789  -4.275  1.00 20.00     0.142 A 
HETATM    4  C4  UNL     1     -34.047  16.026  -2.706  1.00 20.00     0.052 A 
HETATM    5  O7  UNL     1     -32.920  15.830  -3.439  1.00 20.00    -0.327 OA
ENDROOT
BRANCH   4   6
HETATM    6  C6  UNL     1     -34.002  17.116  -1.721  1.00 20.00     0.060 C 
HETATM    7  C5  UNL     1     -35.156  17.063  -0.711  1.00 20.00     0.012 C 
ENDBRANCH   4   6
TORSDOF 1
ENDMDL
MODEL 8
REMARK VINA RESULT:      -3.4     12.055     12.691
REMARK  1 active torsions:
REMARK  status: ('A' for Active; 'I' for Inactive)
REMARK    1  A    between atoms: C4_4  and  C6_6 
ROOT
HETATM    1  C1  UNL     1     -34.647  15.028  -3.386  1.00 20.00     0.027 A 
HETATM    2  C2  UNL     1     -34.944  15.891  -2.305  1.00 20.00     0.034 A 
HETATM    3  C3  UNL     1     -33.389  15.377  -3.819  1.00 20.00     0.142 A 
HETATM    4  C4  UNL     1     -33.846  16.706  -2.153  1.00 20.00     0.052 A 
HETATM    5  O7  UNL     1     -32.894  16.400  -3.073  1.00 20.00    -0.327 OA
ENDROOT
BRANCH   4   6
HETATM    6  C6  UNL     1     -33.526  17.799  -1.224  1.00 20.00     0.060 C 
HETATM    7  C5  UNL     1     -32.047  18.207  -1.261  1.00 20.00     0.012 C 
ENDBRANCH   4   6
TORSDOF 1
ENDMDL
MODEL 9
REMARK VINA RESULT:      -3.4     11.995     12.335
REMARK  1 active torsions:
REMARK  status: ('A' for Active; 'I' for Inactive)
REMARK    1  A    between atoms: C4_4  and  C6_6 
ROOT
HETATM    1  C1  UNL     1     -34.387  17.434  -1.105  1.00 20.00     0.027 A 
HETATM    2  C2  UNL     1     -35.085  16.358  -1.704  1.00 20.00     0.034 A 
HETATM    3  C3  UNL     1     -33.177  17.513  -1.755  1.00 20.00     0.142 A 
HETATM    4  C4  UNL     1     -34.253  15.857  -2.677  1.00 20.00     0.052 A 
HETATM    5  O7  UNL     1     -33.088  16.554  -2.715  1.00 20.00    -0.327 OA
ENDROOT
BRANCH   4   6
HETATM    6  C6  UNL     1     -34.384  14.755  -3.641  1.00 20.00     0.060 C 
HETATM    7  C5  UNL     1     -33.100  14.501  -4.442  1.00 20.00     0.012 C 
ENDBRANCH   4   6
TORSDOF 1
ENDMDL
