MODEL 1
REMARK VINA RESULT:      -5.3      0.000      0.000
REMARK  0 active torsions:
REMARK  status: ('A' for Active; 'I' for Inactive)
ROOT
HETATM    1  C1  UNL     1     -34.834   5.198   5.824  1.00 20.00     0.001 A 
HETATM    2  C2  UNL     1     -34.298   6.464   6.053  1.00 20.00     0.001 A 
HETATM    3  C3  UNL     1     -34.662   4.581   4.584  1.00 20.00     0.008 A 
HETATM    4  C4  UNL     1     -33.587   7.114   5.043  1.00 20.00     0.019 A 
HETATM    5  C5  UNL     1     -33.951   5.230   3.575  1.00 20.00    -0.045 A 
HETATM    6  C6  UNL     1     -33.414   6.497   3.805  1.00 20.00     0.012 A 
HETATM    7  C7  UNL     1     -33.798   4.520   2.268  1.00 20.00     0.049 C 
HETATM    8  I8  UNL     1     -32.339   7.526   2.335  1.00 20.00    -0.044 I 
ENDROOT
TORSDOF 0
ENDMDL
MODEL 2
REMARK VINA RESULT:      -4.2      1.334      2.381
REMARK  0 active torsions:
REMARK  status: ('A' for Active; 'I' for Inactive)
ROOT
HETATM    1  C1  UNL     1     -34.335   6.580   6.152  1.00 20.00     0.001 A 
HETATM    2  C2  UNL     1     -34.934   5.361   5.835  1.00 20.00     0.001 A 
HETATM    3  C3  UNL     1     -33.481   7.197   5.237  1.00 20.00     0.008 A 
HETATM    4  C4  UNL     1     -34.680   4.759   4.602  1.00 20.00     0.019 A 
HETATM    5  C5  UNL     1     -33.228   6.595   4.004  1.00 20.00    -0.045 A 
HETATM    6  C6  UNL     1     -33.827   5.376   3.688  1.00 20.00     0.012 A 
HETATM    7  C7  UNL     1     -32.305   7.303   3.065  1.00 20.00     0.049 C 
HETATM    8  I8  UNL     1     -33.490   4.420   1.858  1.00 20.00    -0.044 I 
ENDROOT
TORSDOF 0
ENDMDL
MODEL 3
REMARK VINA RESULT:      -4.2     12.093     12.674
REMARK  0 active torsions:
REMARK  status: ('A' for Active; 'I' for Inactive)
ROOT
HETATM    1  C1  UNL     1     -34.712  14.766  -3.645  1.00 20.00     0.001 A 
HETATM    2  C2  UNL     1     -33.433  15.164  -4.031  1.00 20.00     0.001 A 
HETATM    3  C3  UNL     1     -35.352  15.408  -2.584  1.00 20.00     0.008 A 
HETATM    4  C4  UNL     1     -32.792  16.205  -3.357  1.00 20.00     0.019 A 
HETATM    5  C5  UNL     1     -34.711  16.449  -1.910  1.00 20.00    -0.045 A 
HETATM    6  C6  UNL     1     -33.432  16.846  -2.297  1.00 20.00     0.012 A 
HETATM    7  C7  UNL     1     -35.446  17.098  -0.782  1.00 20.00     0.049 C 
HETATM    8  I8  UNL     1     -32.416  18.398  -1.330  1.00 20.00    -0.044 I 
ENDROOT
TORSDOF 0
ENDMDL
MODEL 4
REMARK VINA RESULT:      -4.2     16.620     17.438
REMARK  0 active torsions:
REMARK  status: ('A' for Active; 'I' for Inactive)
ROOT
HETATM    1  C1  UNL     1     -22.285  17.988   8.579  1.00 20.00     0.001 A 
HETATM    2  C2  UNL     1     -23.578  18.343   8.195  1.00 20.00     0.001 A 
HETATM    3  C3  UNL     1     -21.992  17.770   9.926  1.00 20.00     0.008 A 
HETATM    4  C4  UNL     1     -24.579  18.479   9.157  1.00 20.00     0.019 A 
HETATM    5  C5  UNL     1     -22.993  17.906  10.888  1.00 20.00    -0.045 A 
HETATM    6  C6  UNL     1     -24.286  18.260  10.503  1.00 20.00     0.012 A 
HETATM    7  C7  UNL     1     -22.621  17.660  12.315  1.00 20.00     0.049 C 
HETATM    8  I8  UNL     1     -25.833  18.480  11.894  1.00 20.00    -0.044 I 
ENDROOT
TORSDOF 0
ENDMDL
MODEL 5
REMARK VINA RESULT:      -4.1     16.718     17.197
REMARK  0 active torsions:
REMARK  status: ('A' for Active; 'I' for Inactive)
ROOT
HETATM    1  C1  UNL     1     -26.032  19.064  11.749  1.00 20.00     0.001 A 
HETATM    2  C2  UNL     1     -26.095  19.263  10.370  1.00 20.00     0.001 A 
HETATM    3  C3  UNL     1     -24.908  18.463  12.316  1.00 20.00     0.008 A 
HETATM    4  C4  UNL     1     -25.034  18.862   9.558  1.00 20.00     0.019 A 
HETATM    5  C5  UNL     1     -23.846  18.062  11.504  1.00 20.00    -0.045 A 
HETATM    6  C6  UNL     1     -23.910  18.262  10.125  1.00 20.00     0.012 A 
HETATM    7  C7  UNL     1     -22.669  17.424  12.168  1.00 20.00     0.049 C 
HETATM    8  I8  UNL     1     -22.355  17.685   8.850  1.00 20.00    -0.044 I 
ENDROOT
TORSDOF 0
ENDMDL
MODEL 6
REMARK VINA RESULT:      -4.1     12.058     12.808
REMARK  0 active torsions:
REMARK  status: ('A' for Active; 'I' for Inactive)
ROOT
HETATM    1  C1  UNL     1     -33.504  15.159  -3.976  1.00 20.00     0.001 A 
HETATM    2  C2  UNL     1     -34.791  14.854  -3.533  1.00 20.00     0.001 A 
HETATM    3  C3  UNL     1     -32.774  16.172  -3.353  1.00 20.00     0.008 A 
HETATM    4  C4  UNL     1     -35.348  15.561  -2.467  1.00 20.00     0.019 A 
HETATM    5  C5  UNL     1     -33.331  16.879  -2.287  1.00 20.00    -0.045 A 
HETATM    6  C6  UNL     1     -34.618  16.573  -1.844  1.00 20.00     0.012 A 
HETATM    7  C7  UNL     1     -32.501  17.952  -1.659  1.00 20.00     0.049 C 
HETATM    8  I8  UNL     1     -35.511  17.593  -0.251  1.00 20.00    -0.044 I 
ENDROOT
TORSDOF 0
ENDMDL
MODEL 7
REMARK VINA RESULT:      -4.0      0.601      2.419
REMARK  0 active torsions:
REMARK  status: ('A' for Active; 'I' for Inactive)
ROOT
HETATM    1  C1  UNL     1     -34.936   5.166   5.808  1.00 20.00     0.001 A 
HETATM    2  C2  UNL     1     -35.025   4.645   4.518  1.00 20.00     0.001 A 
HETATM    3  C3  UNL     1     -34.135   6.282   6.056  1.00 20.00     0.008 A 
HETATM    4  C4  UNL     1     -34.315   5.239   3.475  1.00 20.00     0.019 A 
HETATM    5  C5  UNL     1     -33.425   6.876   5.013  1.00 20.00    -0.045 A 
HETATM    6  C6  UNL     1     -33.515   6.354   3.723  1.00 20.00     0.012 A 
HETATM    7  C7  UNL     1     -32.585   8.069   5.339  1.00 20.00     0.049 C 
HETATM    8  I8  UNL     1     -32.477   7.198   2.114  1.00 20.00    -0.044 I 
ENDROOT
TORSDOF 0
ENDMDL
MODEL 8
REMARK VINA RESULT:      -4.0     16.734     17.304
REMARK  0 active torsions:
REMARK  status: ('A' for Active; 'I' for Inactive)
ROOT
HETATM    1  C1  UNL     1     -23.373  17.755  12.332  1.00 20.00     0.001 A 
HETATM    2  C2  UNL     1     -24.690  18.116  12.049  1.00 20.00     0.001 A 
HETATM    3  C3  UNL     1     -22.415  17.761  11.318  1.00 20.00     0.008 A 
HETATM    4  C4  UNL     1     -25.050  18.484  10.752  1.00 20.00     0.019 A 
HETATM    5  C5  UNL     1     -22.775  18.129  10.021  1.00 20.00    -0.045 A 
HETATM    6  C6  UNL     1     -24.092  18.491   9.739  1.00 20.00     0.012 A 
HETATM    7  C7  UNL     1     -21.705  18.118   8.976  1.00 20.00     0.049 C 
HETATM    8  I8  UNL     1     -24.697  19.053   7.817  1.00 20.00    -0.044 I 
ENDROOT
TORSDOF 0
ENDMDL
MODEL 9
REMARK VINA RESULT:      -4.0     16.471     16.957
REMARK  0 active torsions:
REMARK  status: ('A' for Active; 'I' for Inactive)
ROOT
HETATM    1  C1  UNL     1     -25.306  18.528  11.992  1.00 20.00     0.001 A 
HETATM    2  C2  UNL     1     -24.088  17.937  12.330  1.00 20.00     0.001 A 
HETATM    3  C3  UNL     1     -25.586  18.836  10.661  1.00 20.00     0.008 A 
HETATM    4  C4  UNL     1     -23.152  17.653  11.336  1.00 20.00     0.019 A 
HETATM    5  C5  UNL     1     -24.650  18.552   9.667  1.00 20.00    -0.045 A 
HETATM    6  C6  UNL     1     -23.433  17.961  10.005  1.00 20.00     0.012 A 
HETATM    7  C7  UNL     1     -25.007  18.904   8.258  1.00 20.00     0.049 C 
HETATM    8  I8  UNL     1     -21.985  17.509   8.564  1.00 20.00    -0.044 I 
ENDROOT
TORSDOF 0
ENDMDL
