MODEL 1
REMARK VINA RESULT:      -3.1      0.000      0.000
REMARK  0 active torsions:
REMARK  status: ('A' for Active; 'I' for Inactive)
ROOT
HETATM    1  C1  UNL     1     -33.903   6.687   5.845  1.00 20.00     0.021 C 
HETATM    2  C2  UNL     1     -34.813   4.742   4.532  1.00 20.00     0.021 C 
HETATM    3  C3  UNL     1     -34.442   6.222   4.495  1.00 20.00     0.045 C 
HETATM    4  I4  UNL     1     -32.957   6.561   2.966  1.00 20.00    -0.086 I 
ENDROOT
TORSDOF 0
ENDMDL
MODEL 2
REMARK VINA RESULT:      -2.8      2.452      3.117
REMARK  0 active torsions:
REMARK  status: ('A' for Active; 'I' for Inactive)
ROOT
HETATM    1  C1  UNL     1     -33.159   4.537   2.403  1.00 20.00     0.021 C 
HETATM    2  C2  UNL     1     -32.758   6.891   3.197  1.00 20.00     0.021 C 
HETATM    3  C3  UNL     1     -33.794   5.789   3.001  1.00 20.00     0.045 C 
HETATM    4  I4  UNL     1     -34.707   5.305   4.896  1.00 20.00    -0.086 I 
ENDROOT
TORSDOF 0
ENDMDL
MODEL 3
REMARK VINA RESULT:      -2.6      0.541      1.831
REMARK  0 active torsions:
REMARK  status: ('A' for Active; 'I' for Inactive)
ROOT
HETATM    1  C1  UNL     1     -35.353   5.312   4.331  1.00 20.00     0.021 C 
HETATM    2  C2  UNL     1     -33.957   6.834   5.769  1.00 20.00     0.021 C 
HETATM    3  C3  UNL     1     -33.939   5.778   4.668  1.00 20.00     0.045 C 
HETATM    4  I4  UNL     1     -33.000   6.586   2.901  1.00 20.00    -0.086 I 
ENDROOT
TORSDOF 0
ENDMDL
MODEL 4
REMARK VINA RESULT:      -2.6      8.713      9.044
REMARK  0 active torsions:
REMARK  status: ('A' for Active; 'I' for Inactive)
ROOT
HETATM    1  C1  UNL     1     -40.997   5.593  -1.011  1.00 20.00     0.021 C 
HETATM    2  C2  UNL     1     -42.602   5.594   0.927  1.00 20.00     0.021 C 
HETATM    3  C3  UNL     1     -41.365   6.247   0.318  1.00 20.00     0.045 C 
HETATM    4  I4  UNL     1     -41.730   8.352   0.015  1.00 20.00    -0.086 I 
ENDROOT
TORSDOF 0
ENDMDL
MODEL 5
REMARK VINA RESULT:      -2.5      1.932      2.599
REMARK  0 active torsions:
REMARK  status: ('A' for Active; 'I' for Inactive)
ROOT
HETATM    1  C1  UNL     1     -32.769   6.765   3.152  1.00 20.00     0.021 C 
HETATM    2  C2  UNL     1     -33.331   7.239   5.560  1.00 20.00     0.021 C 
HETATM    3  C3  UNL     1     -33.876   6.805   4.202  1.00 20.00     0.045 C 
HETATM    4  I4  UNL     1     -34.785   4.855   4.374  1.00 20.00    -0.086 I 
ENDROOT
TORSDOF 0
ENDMDL
MODEL 6
REMARK VINA RESULT:      -2.5      9.013      9.169
REMARK  0 active torsions:
REMARK  status: ('A' for Active; 'I' for Inactive)
ROOT
HETATM    1  C1  UNL     1     -41.355   8.009  -0.077  1.00 20.00     0.021 C 
HETATM    2  C2  UNL     1     -40.971   5.675  -0.936  1.00 20.00     0.021 C 
HETATM    3  C3  UNL     1     -41.325   6.526   0.280  1.00 20.00     0.045 C 
HETATM    4  I4  UNL     1     -43.249   5.926   1.052  1.00 20.00    -0.086 I 
ENDROOT
TORSDOF 0
ENDMDL
MODEL 7
REMARK VINA RESULT:      -2.4      8.981      9.341
REMARK  0 active torsions:
REMARK  status: ('A' for Active; 'I' for Inactive)
ROOT
HETATM    1  C1  UNL     1     -43.355   7.188   1.054  1.00 20.00     0.021 C 
HETATM    2  C2  UNL     1     -41.610   8.770   0.168  1.00 20.00     0.021 C 
HETATM    3  C3  UNL     1     -41.881   7.367   0.705  1.00 20.00     0.045 C 
HETATM    4  I4  UNL     1     -41.300   5.900  -0.768  1.00 20.00    -0.086 I 
ENDROOT
TORSDOF 0
ENDMDL
MODEL 8
REMARK VINA RESULT:      -2.4      9.077      9.417
REMARK  0 active torsions:
REMARK  status: ('A' for Active; 'I' for Inactive)
ROOT
HETATM    1  C1  UNL     1     -40.959   5.627  -0.887  1.00 20.00     0.021 C 
HETATM    2  C2  UNL     1     -41.379   7.664   0.531  1.00 20.00     0.021 C 
HETATM    3  C3  UNL     1     -42.020   6.516  -0.243  1.00 20.00     0.045 C 
HETATM    4  I4  UNL     1     -43.245   5.338   1.086  1.00 20.00    -0.086 I 
ENDROOT
TORSDOF 0
ENDMDL
MODEL 9
REMARK VINA RESULT:      -2.4     16.059     16.915
REMARK  0 active torsions:
REMARK  status: ('A' for Active; 'I' for Inactive)
ROOT
HETATM    1  C1  UNL     1     -22.525  17.693  12.242  1.00 20.00     0.021 C 
HETATM    2  C2  UNL     1     -24.311  16.302  11.143  1.00 20.00     0.021 C 
HETATM    3  C3  UNL     1     -23.479  17.578  11.057  1.00 20.00     0.045 C 
HETATM    4  I4  UNL     1     -22.354  17.589   9.215  1.00 20.00    -0.086 I 
ENDROOT
TORSDOF 0
ENDMDL
