MODEL 1
REMARK VINA RESULT:      -6.0      0.000      0.000
REMARK  0 active torsions:
REMARK  status: ('A' for Active; 'I' for Inactive)
ROOT
HETATM    1  C1  UNL     1     -34.887   4.753   5.580  1.00 20.00     0.001 A 
HETATM    2  C2  UNL     1     -34.522   5.939   6.222  1.00 20.00     0.003 A 
HETATM    3  C3  UNL     1     -34.555   4.525   4.238  1.00 20.00     0.014 A 
HETATM    4  C4  UNL     1     -33.813   6.940   5.549  1.00 20.00     0.038 A 
HETATM    5  C5  UNL     1     -33.334   5.669   2.225  1.00 20.00     0.046 A 
HETATM    6  C6  UNL     1     -33.842   5.518   3.541  1.00 20.00     0.000 A 
HETATM    7  C7  UNL     1     -33.497   6.684   4.216  1.00 20.00     0.086 A 
HETATM    8  C8  UNL     1     -32.721   6.900   2.184  1.00 20.00     0.050 A 
HETATM    9  C9  UNL     1     -32.015   7.633   1.125  1.00 20.00     0.077 C 
HETATM   10  O10 UNL     1     -32.815   7.524   3.387  1.00 20.00    -0.315 OA
ENDROOT
TORSDOF 0
ENDMDL
MODEL 2
REMARK VINA RESULT:      -4.9     15.516     16.133
REMARK  0 active torsions:
REMARK  status: ('A' for Active; 'I' for Inactive)
ROOT
HETATM    1  C1  UNL     1     -26.064  17.873  12.135  1.00 20.00     0.001 A 
HETATM    2  C2  UNL     1     -25.634  16.556  12.318  1.00 20.00     0.003 A 
HETATM    3  C3  UNL     1     -25.503  18.685  11.141  1.00 20.00     0.014 A 
HETATM    4  C4  UNL     1     -24.630  16.002  11.517  1.00 20.00     0.038 A 
HETATM    5  C5  UNL     1     -23.699  18.623   9.246  1.00 20.00     0.046 A 
HETATM    6  C6  UNL     1     -24.491  18.149  10.323  1.00 20.00     0.000 A 
HETATM    7  C7  UNL     1     -24.092  16.834  10.537  1.00 20.00     0.086 A 
HETATM    8  C8  UNL     1     -22.880  17.581   8.878  1.00 20.00     0.050 A 
HETATM    9  C9  UNL     1     -21.845  17.435   7.845  1.00 20.00     0.077 C 
HETATM   10  O10 UNL     1     -23.110  16.491   9.656  1.00 20.00    -0.315 OA
ENDROOT
TORSDOF 0
ENDMDL
MODEL 3
REMARK VINA RESULT:      -4.7     11.736     12.249
REMARK  0 active torsions:
REMARK  status: ('A' for Active; 'I' for Inactive)
ROOT
HETATM    1  C1  UNL     1     -34.465  17.977  -0.028  1.00 20.00     0.001 A 
HETATM    2  C2  UNL     1     -33.199  18.417  -0.424  1.00 20.00     0.003 A 
HETATM    3  C3  UNL     1     -35.148  16.993  -0.754  1.00 20.00     0.014 A 
HETATM    4  C4  UNL     1     -32.570  17.891  -1.557  1.00 20.00     0.038 A 
HETATM    5  C5  UNL     1     -34.879  15.473  -2.868  1.00 20.00     0.046 A 
HETATM    6  C6  UNL     1     -34.535  16.450  -1.898  1.00 20.00     0.000 A 
HETATM    7  C7  UNL     1     -33.274  16.914  -2.258  1.00 20.00     0.086 A 
HETATM    8  C8  UNL     1     -33.820  15.407  -3.744  1.00 20.00     0.050 A 
HETATM    9  C9  UNL     1     -33.564  14.604  -4.948  1.00 20.00     0.077 C 
HETATM   10  O10 UNL     1     -32.842  16.278  -3.383  1.00 20.00    -0.315 OA
ENDROOT
TORSDOF 0
ENDMDL
MODEL 4
REMARK VINA RESULT:      -4.6     11.578     12.243
REMARK  0 active torsions:
REMARK  status: ('A' for Active; 'I' for Inactive)
ROOT
HETATM    1  C1  UNL     1     -34.894  14.332  -4.130  1.00 20.00     0.001 A 
HETATM    2  C2  UNL     1     -33.564  14.651  -4.416  1.00 20.00     0.003 A 
HETATM    3  C3  UNL     1     -35.588  14.980  -3.099  1.00 20.00     0.014 A 
HETATM    4  C4  UNL     1     -32.880  15.628  -3.686  1.00 20.00     0.038 A 
HETATM    5  C5  UNL     1     -35.253  16.822  -1.270  1.00 20.00     0.046 A 
HETATM    6  C6  UNL     1     -34.918  15.967  -2.352  1.00 20.00     0.000 A 
HETATM    7  C7  UNL     1     -33.595  16.256  -2.669  1.00 20.00     0.086 A 
HETATM    8  C8  UNL     1     -34.127  17.566  -1.002  1.00 20.00     0.050 A 
HETATM    9  C9  UNL     1     -33.828  18.612  -0.014  1.00 20.00     0.077 C 
HETATM   10  O10 UNL     1     -33.116  17.230  -1.845  1.00 20.00    -0.315 OA
ENDROOT
TORSDOF 0
ENDMDL
MODEL 5
REMARK VINA RESULT:      -4.6     11.499     12.275
REMARK  0 active torsions:
REMARK  status: ('A' for Active; 'I' for Inactive)
ROOT
HETATM    1  C1  UNL     1     -32.951  18.541  -0.715  1.00 20.00     0.001 A 
HETATM    2  C2  UNL     1     -34.172  18.273  -0.091  1.00 20.00     0.003 A 
HETATM    3  C3  UNL     1     -32.543  17.820  -1.845  1.00 20.00     0.014 A 
HETATM    4  C4  UNL     1     -35.029  17.277  -0.571  1.00 20.00     0.038 A 
HETATM    5  C5  UNL     1     -33.344  15.894  -3.425  1.00 20.00     0.046 A 
HETATM    6  C6  UNL     1     -33.389  16.814  -2.345  1.00 20.00     0.000 A 
HETATM    7  C7  UNL     1     -34.596  16.578  -1.696  1.00 20.00     0.086 A 
HETATM    8  C8  UNL     1     -34.511  15.167  -3.364  1.00 20.00     0.050 A 
HETATM    9  C9  UNL     1     -35.059  14.079  -4.184  1.00 20.00     0.077 C 
HETATM   10  O10 UNL     1     -35.277  15.574  -2.318  1.00 20.00    -0.315 OA
ENDROOT
TORSDOF 0
ENDMDL
MODEL 6
REMARK VINA RESULT:      -4.5     15.834     16.185
REMARK  0 active torsions:
REMARK  status: ('A' for Active; 'I' for Inactive)
ROOT
HETATM    1  C1  UNL     1     -26.625  17.760  12.332  1.00 20.00     0.001 A 
HETATM    2  C2  UNL     1     -26.758  18.942  11.599  1.00 20.00     0.003 A 
HETATM    3  C3  UNL     1     -25.591  16.854  12.061  1.00 20.00     0.014 A 
HETATM    4  C4  UNL     1     -25.866  19.263  10.571  1.00 20.00     0.038 A 
HETATM    5  C5  UNL     1     -23.542  16.527  10.466  1.00 20.00     0.046 A 
HETATM    6  C6  UNL     1     -24.682  17.156  11.031  1.00 20.00     0.000 A 
HETATM    7  C7  UNL     1     -24.848  18.343  10.325  1.00 20.00     0.086 A 
HETATM    8  C8  UNL     1     -23.094  17.361   9.467  1.00 20.00     0.050 A 
HETATM    9  C9  UNL     1     -21.972  17.281   8.522  1.00 20.00     0.077 C 
HETATM   10  O10 UNL     1     -23.881  18.464   9.373  1.00 20.00    -0.315 OA
ENDROOT
TORSDOF 0
ENDMDL
MODEL 7
REMARK VINA RESULT:      -4.5     11.505     12.306
REMARK  0 active torsions:
REMARK  status: ('A' for Active; 'I' for Inactive)
ROOT
HETATM    1  C1  UNL     1     -33.660  14.582  -4.421  1.00 20.00     0.001 A 
HETATM    2  C2  UNL     1     -34.976  14.290  -4.051  1.00 20.00     0.003 A 
HETATM    3  C3  UNL     1     -32.933  15.588  -3.773  1.00 20.00     0.014 A 
HETATM    4  C4  UNL     1     -35.612  14.990  -3.021  1.00 20.00     0.038 A 
HETATM    5  C5  UNL     1     -33.175  17.359  -1.860  1.00 20.00     0.046 A 
HETATM    6  C6  UNL     1     -33.553  16.306  -2.733  1.00 20.00     0.000 A 
HETATM    7  C7  UNL     1     -34.863  15.985  -2.394  1.00 20.00     0.086 A 
HETATM    8  C8  UNL     1     -34.264  17.607  -1.057  1.00 20.00     0.050 A 
HETATM    9  C9  UNL     1     -34.510  18.561   0.032  1.00 20.00     0.077 C 
HETATM   10  O10 UNL     1     -35.293  16.779  -1.374  1.00 20.00    -0.315 OA
ENDROOT
TORSDOF 0
ENDMDL
MODEL 8
REMARK VINA RESULT:      -4.4     16.314     17.211
REMARK  0 active torsions:
REMARK  status: ('A' for Active; 'I' for Inactive)
ROOT
HETATM    1  C1  UNL     1     -21.666  17.814  10.175  1.00 20.00     0.001 A 
HETATM    2  C2  UNL     1     -22.154  18.340   8.975  1.00 20.00     0.003 A 
HETATM    3  C3  UNL     1     -22.494  17.687  11.298  1.00 20.00     0.014 A 
HETATM    4  C4  UNL     1     -23.484  18.755   8.853  1.00 20.00     0.038 A 
HETATM    5  C5  UNL     1     -24.955  18.134  12.069  1.00 20.00     0.046 A 
HETATM    6  C6  UNL     1     -23.836  18.098  11.197  1.00 20.00     0.000 A 
HETATM    7  C7  UNL     1     -24.283  18.615   9.985  1.00 20.00     0.086 A 
HETATM    8  C8  UNL     1     -25.997  18.662  11.341  1.00 20.00     0.050 A 
HETATM    9  C9  UNL     1     -27.400  18.954  11.666  1.00 20.00     0.077 C 
HETATM   10  O10 UNL     1     -25.599  18.958  10.077  1.00 20.00    -0.315 OA
ENDROOT
TORSDOF 0
ENDMDL
MODEL 9
REMARK VINA RESULT:      -4.4     16.417     16.935
REMARK  0 active torsions:
REMARK  status: ('A' for Active; 'I' for Inactive)
ROOT
HETATM    1  C1  UNL     1     -22.176  17.868   8.134  1.00 20.00     0.001 A 
HETATM    2  C2  UNL     1     -21.768  17.351   9.367  1.00 20.00     0.003 A 
HETATM    3  C3  UNL     1     -23.416  18.504   7.991  1.00 20.00     0.014 A 
HETATM    4  C4  UNL     1     -22.582  17.450  10.500  1.00 20.00     0.038 A 
HETATM    5  C5  UNL     1     -25.533  19.165   9.382  1.00 20.00     0.046 A 
HETATM    6  C6  UNL     1     -24.251  18.615   9.118  1.00 20.00     0.000 A 
HETATM    7  C7  UNL     1     -23.809  18.088  10.327  1.00 20.00     0.086 A 
HETATM    8  C8  UNL     1     -25.784  18.941  10.716  1.00 20.00     0.050 A 
HETATM    9  C9  UNL     1     -26.920  19.263  11.590  1.00 20.00     0.077 C 
HETATM   10  O10 UNL     1     -24.744  18.288  11.297  1.00 20.00    -0.315 OA
ENDROOT
TORSDOF 0
ENDMDL
