MODEL 1
REMARK VINA RESULT:      -5.3      0.000      0.000
REMARK  3 active torsions:
REMARK  status: ('A' for Active; 'I' for Inactive)
REMARK    1  A    between atoms: C6_6  and  C9_9 
REMARK    2  A    between atoms: C8_8  and  C9_9 
REMARK    3  A    between atoms: C8_8  and  O10_10 
ROOT
HETATM    1  C1  UNL     1     -34.765   5.863   6.473  1.00 20.00     0.000 A 
HETATM    2  C2  UNL     1     -33.947   6.914   6.059  1.00 20.00     0.001 A 
HETATM    3  C3  UNL     1     -35.140   4.870   5.568  1.00 20.00     0.001 A 
HETATM    4  C4  UNL     1     -33.503   6.972   4.738  1.00 20.00     0.007 A 
HETATM    5  C5  UNL     1     -34.696   4.928   4.247  1.00 20.00     0.007 A 
HETATM    6  C6  UNL     1     -33.877   5.979   3.831  1.00 20.00    -0.052 A 
ENDROOT
BRANCH   6   7
HETATM    7  C9  UNL     1     -33.403   6.041   2.419  1.00 20.00     0.038 C 
HETATM    8  C7  UNL     1     -32.954   4.662   1.897  1.00 20.00     0.017 C 
BRANCH   7   9
HETATM    9  C8  UNL     1     -32.267   7.069   2.208  1.00 20.00     0.173 C 
BRANCH   9  10
HETATM   10  O10 UNL     1     -32.691   8.046   1.264  1.00 20.00    -0.400 OA
HETATM   11  H22 UNL     1     -33.455   8.498   1.656  1.00 20.00     0.209 HD
ENDBRANCH   9  10
ENDBRANCH   7   9
ENDBRANCH   6   7
TORSDOF 3
ENDMDL
MODEL 2
REMARK VINA RESULT:      -5.3      0.004      1.528
REMARK  3 active torsions:
REMARK  status: ('A' for Active; 'I' for Inactive)
REMARK    1  A    between atoms: C6_6  and  C9_9 
REMARK    2  A    between atoms: C8_8  and  C9_9 
REMARK    3  A    between atoms: C8_8  and  O10_10 
ROOT
HETATM    1  C1  UNL     1     -34.766   5.863   6.470  1.00 20.00     0.000 A 
HETATM    2  C2  UNL     1     -35.140   4.869   5.565  1.00 20.00     0.001 A 
HETATM    3  C3  UNL     1     -33.949   6.914   6.055  1.00 20.00     0.001 A 
HETATM    4  C4  UNL     1     -34.696   4.927   4.244  1.00 20.00     0.007 A 
HETATM    5  C5  UNL     1     -33.505   6.971   4.735  1.00 20.00     0.007 A 
HETATM    6  C6  UNL     1     -33.878   5.978   3.828  1.00 20.00    -0.052 A 
ENDROOT
BRANCH   6   7
HETATM    7  C9  UNL     1     -33.402   6.040   2.417  1.00 20.00     0.038 C 
HETATM    8  C7  UNL     1     -32.949   4.661   1.896  1.00 20.00     0.017 C 
BRANCH   7   9
HETATM    9  C8  UNL     1     -32.268   7.070   2.206  1.00 20.00     0.173 C 
BRANCH   9  10
HETATM   10  O10 UNL     1     -32.697   8.051   1.268  1.00 20.00    -0.400 OA
HETATM   11  H22 UNL     1     -32.315   8.895   1.556  1.00 20.00     0.209 HD
ENDBRANCH   9  10
ENDBRANCH   7   9
ENDBRANCH   6   7
TORSDOF 3
ENDMDL
MODEL 3
REMARK VINA RESULT:      -5.3     11.513     12.109
REMARK  3 active torsions:
REMARK  status: ('A' for Active; 'I' for Inactive)
REMARK    1  A    between atoms: C6_6  and  C9_9 
REMARK    2  A    between atoms: C8_8  and  C9_9 
REMARK    3  A    between atoms: C8_8  and  O10_10 
ROOT
HETATM    1  C1  UNL     1     -33.925  17.564  -1.348  1.00 20.00     0.000 A 
HETATM    2  C2  UNL     1     -35.083  16.788  -1.337  1.00 20.00     0.001 A 
HETATM    3  C3  UNL     1     -32.922  17.309  -2.283  1.00 20.00     0.001 A 
HETATM    4  C4  UNL     1     -35.239  15.756  -2.263  1.00 20.00     0.007 A 
HETATM    5  C5  UNL     1     -33.078  16.278  -3.208  1.00 20.00     0.007 A 
HETATM    6  C6  UNL     1     -34.237  15.501  -3.199  1.00 20.00    -0.052 A 
ENDROOT
BRANCH   6   7
HETATM    7  C9  UNL     1     -34.403  14.398  -4.188  1.00 20.00     0.038 C 
HETATM    8  C7  UNL     1     -33.878  14.787  -5.585  1.00 20.00     0.017 C 
BRANCH   7   9
HETATM    9  C8  UNL     1     -35.865  13.906  -4.304  1.00 20.00     0.173 C 
BRANCH   9  10
HETATM   10  O10 UNL     1     -35.884  12.484  -4.257  1.00 20.00    -0.400 OA
HETATM   11  H22 UNL     1     -36.445  12.239  -3.504  1.00 20.00     0.209 HD
ENDBRANCH   9  10
ENDBRANCH   7   9
ENDBRANCH   6   7
TORSDOF 3
ENDMDL
MODEL 4
REMARK VINA RESULT:      -5.3     11.523     12.060
REMARK  3 active torsions:
REMARK  status: ('A' for Active; 'I' for Inactive)
REMARK    1  A    between atoms: C6_6  and  C9_9 
REMARK    2  A    between atoms: C8_8  and  C9_9 
REMARK    3  A    between atoms: C8_8  and  O10_10 
ROOT
HETATM    1  C1  UNL     1     -33.901  17.571  -1.332  1.00 20.00     0.000 A 
HETATM    2  C2  UNL     1     -32.901  17.305  -2.267  1.00 20.00     0.001 A 
HETATM    3  C3  UNL     1     -35.069  16.809  -1.322  1.00 20.00     0.001 A 
HETATM    4  C4  UNL     1     -33.069  16.275  -3.193  1.00 20.00     0.007 A 
HETATM    5  C5  UNL     1     -35.237  15.780  -2.249  1.00 20.00     0.007 A 
HETATM    6  C6  UNL     1     -34.237  15.512  -3.185  1.00 20.00    -0.052 A 
ENDROOT
BRANCH   6   7
HETATM    7  C9  UNL     1     -34.417  14.413  -4.175  1.00 20.00     0.038 C 
HETATM    8  C7  UNL     1     -33.896  14.800  -5.573  1.00 20.00     0.017 C 
BRANCH   7   9
HETATM    9  C8  UNL     1     -35.883  13.934  -4.285  1.00 20.00     0.173 C 
BRANCH   9  10
HETATM   10  O10 UNL     1     -35.913  12.511  -4.259  1.00 20.00    -0.400 OA
HETATM   11  H22 UNL     1     -36.271  12.224  -5.113  1.00 20.00     0.209 HD
ENDBRANCH   9  10
ENDBRANCH   7   9
ENDBRANCH   6   7
TORSDOF 3
ENDMDL
MODEL 5
REMARK VINA RESULT:      -5.1      0.924      1.437
REMARK  3 active torsions:
REMARK  status: ('A' for Active; 'I' for Inactive)
REMARK    1  A    between atoms: C6_6  and  C9_9 
REMARK    2  A    between atoms: C8_8  and  C9_9 
REMARK    3  A    between atoms: C8_8  and  O10_10 
ROOT
HETATM    1  C1  UNL     1     -34.994   5.321   5.788  1.00 20.00     0.000 A 
HETATM    2  C2  UNL     1     -34.244   6.480   5.987  1.00 20.00     0.001 A 
HETATM    3  C3  UNL     1     -34.954   4.665   4.558  1.00 20.00     0.001 A 
HETATM    4  C4  UNL     1     -33.453   6.984   4.954  1.00 20.00     0.007 A 
HETATM    5  C5  UNL     1     -34.163   5.169   3.526  1.00 20.00     0.007 A 
HETATM    6  C6  UNL     1     -33.412   6.328   3.723  1.00 20.00    -0.052 A 
ENDROOT
BRANCH   6   7
HETATM    7  C9  UNL     1     -32.567   6.867   2.618  1.00 20.00     0.038 C 
HETATM    8  C7  UNL     1     -31.398   7.722   3.147  1.00 20.00     0.017 C 
BRANCH   7   9
HETATM    9  C8  UNL     1     -33.376   7.681   1.582  1.00 20.00     0.173 C 
BRANCH   9  10
HETATM   10  O10 UNL     1     -32.477   8.438   0.779  1.00 20.00    -0.400 OA
HETATM   11  H22 UNL     1     -31.651   7.930   0.732  1.00 20.00     0.209 HD
ENDBRANCH   9  10
ENDBRANCH   7   9
ENDBRANCH   6   7
TORSDOF 3
ENDMDL
MODEL 6
REMARK VINA RESULT:      -5.0     11.292     12.046
REMARK  3 active torsions:
REMARK  status: ('A' for Active; 'I' for Inactive)
REMARK    1  A    between atoms: C6_6  and  C9_9 
REMARK    2  A    between atoms: C8_8  and  C9_9 
REMARK    3  A    between atoms: C8_8  and  O10_10 
ROOT
HETATM    1  C1  UNL     1     -34.065  17.784  -0.678  1.00 20.00     0.000 A 
HETATM    2  C2  UNL     1     -35.155  16.944  -0.907  1.00 20.00     0.001 A 
HETATM    3  C3  UNL     1     -32.980  17.774  -1.554  1.00 20.00     0.001 A 
HETATM    4  C4  UNL     1     -35.160  16.095  -2.013  1.00 20.00     0.007 A 
HETATM    5  C5  UNL     1     -32.985  16.924  -2.659  1.00 20.00     0.007 A 
HETATM    6  C6  UNL     1     -34.075  16.083  -2.890  1.00 20.00    -0.052 A 
ENDROOT
BRANCH   6   7
HETATM    7  C9  UNL     1     -34.079  15.174  -4.071  1.00 20.00     0.038 C 
HETATM    8  C7  UNL     1     -35.033  13.978  -3.879  1.00 20.00     0.017 C 
BRANCH   7   9
HETATM    9  C8  UNL     1     -32.670  14.657  -4.440  1.00 20.00     0.173 C 
BRANCH   9  10
HETATM   10  O10 UNL     1     -32.674  13.233  -4.417  1.00 20.00    -0.400 OA
HETATM   11  H22 UNL     1     -31.962  12.944  -5.009  1.00 20.00     0.209 HD
ENDBRANCH   9  10
ENDBRANCH   7   9
ENDBRANCH   6   7
TORSDOF 3
ENDMDL
MODEL 7
REMARK VINA RESULT:      -4.7     11.675     12.274
REMARK  3 active torsions:
REMARK  status: ('A' for Active; 'I' for Inactive)
REMARK    1  A    between atoms: C6_6  and  C9_9 
REMARK    2  A    between atoms: C8_8  and  C9_9 
REMARK    3  A    between atoms: C8_8  and  O10_10 
ROOT
HETATM    1  C1  UNL     1     -33.480  18.119  -0.769  1.00 20.00     0.000 A 
HETATM    2  C2  UNL     1     -34.722  17.533  -0.524  1.00 20.00     0.001 A 
HETATM    3  C3  UNL     1     -32.700  17.680  -1.839  1.00 20.00     0.001 A 
HETATM    4  C4  UNL     1     -35.185  16.510  -1.350  1.00 20.00     0.007 A 
HETATM    5  C5  UNL     1     -33.164  16.656  -2.665  1.00 20.00     0.007 A 
HETATM    6  C6  UNL     1     -34.406  16.070  -2.421  1.00 20.00    -0.052 A 
ENDROOT
BRANCH   6   7
HETATM    7  C9  UNL     1     -34.901  14.975  -3.303  1.00 20.00     0.038 C 
HETATM    8  C7  UNL     1     -33.830  14.517  -4.315  1.00 20.00     0.017 C 
BRANCH   7   9
HETATM    9  C8  UNL     1     -36.198  15.346  -4.058  1.00 20.00     0.173 C 
BRANCH   9  10
HETATM   10  O10 UNL     1     -37.253  14.498  -3.618  1.00 20.00    -0.400 OA
HETATM   11  H22 UNL     1     -38.079  14.892  -3.940  1.00 20.00     0.209 HD
ENDBRANCH   9  10
ENDBRANCH   7   9
ENDBRANCH   6   7
TORSDOF 3
ENDMDL
MODEL 8
REMARK VINA RESULT:      -4.7     11.216     12.066
REMARK  3 active torsions:
REMARK  status: ('A' for Active; 'I' for Inactive)
REMARK    1  A    between atoms: C6_6  and  C9_9 
REMARK    2  A    between atoms: C8_8  and  C9_9 
REMARK    3  A    between atoms: C8_8  and  O10_10 
ROOT
HETATM    1  C1  UNL     1     -33.817  17.654  -0.991  1.00 20.00     0.000 A 
HETATM    2  C2  UNL     1     -32.847  17.517  -1.983  1.00 20.00     0.001 A 
HETATM    3  C3  UNL     1     -35.013  16.940  -1.079  1.00 20.00     0.001 A 
HETATM    4  C4  UNL     1     -33.072  16.666  -3.065  1.00 20.00     0.007 A 
HETATM    5  C5  UNL     1     -35.237  16.090  -2.161  1.00 20.00     0.007 A 
HETATM    6  C6  UNL     1     -34.268  15.952  -3.155  1.00 20.00    -0.052 A 
ENDROOT
BRANCH   6   7
HETATM    7  C9  UNL     1     -34.509  15.043  -4.312  1.00 20.00     0.038 C 
HETATM    8  C7  UNL     1     -35.283  13.774  -3.901  1.00 20.00     0.017 C 
BRANCH   7   9
HETATM    9  C8  UNL     1     -33.209  14.640  -5.045  1.00 20.00     0.173 C 
BRANCH   9  10
HETATM   10  O10 UNL     1     -32.726  13.417  -4.500  1.00 20.00    -0.400 OA
HETATM   11  H22 UNL     1     -33.214  13.268  -3.675  1.00 20.00     0.209 HD
ENDBRANCH   9  10
ENDBRANCH   7   9
ENDBRANCH   6   7
TORSDOF 3
ENDMDL
MODEL 9
REMARK VINA RESULT:      -4.6     11.164     12.324
REMARK  3 active torsions:
REMARK  status: ('A' for Active; 'I' for Inactive)
REMARK    1  A    between atoms: C6_6  and  C9_9 
REMARK    2  A    between atoms: C8_8  and  C9_9 
REMARK    3  A    between atoms: C8_8  and  O10_10 
ROOT
HETATM    1  C1  UNL     1     -33.681  17.652  -1.083  1.00 20.00     0.000 A 
HETATM    2  C2  UNL     1     -34.922  17.017  -1.041  1.00 20.00     0.001 A 
HETATM    3  C3  UNL     1     -32.821  17.436  -2.160  1.00 20.00     0.001 A 
HETATM    4  C4  UNL     1     -35.304  16.165  -2.078  1.00 20.00     0.007 A 
HETATM    5  C5  UNL     1     -33.203  16.584  -3.196  1.00 20.00     0.007 A 
HETATM    6  C6  UNL     1     -34.444  15.948  -3.156  1.00 20.00    -0.052 A 
ENDROOT
BRANCH   6   7
HETATM    7  C9  UNL     1     -34.852  15.037  -4.264  1.00 20.00     0.038 C 
HETATM    8  C7  UNL     1     -34.596  13.556  -3.920  1.00 20.00     0.017 C 
BRANCH   7   9
HETATM    9  C8  UNL     1     -34.171  15.380  -5.609  1.00 20.00     0.173 C 
BRANCH   9  10
HETATM   10  O10 UNL     1     -33.105  14.466  -5.839  1.00 20.00    -0.400 OA
HETATM   11  H22 UNL     1     -33.321  13.658  -5.348  1.00 20.00     0.209 HD
ENDBRANCH   9  10
ENDBRANCH   7   9
ENDBRANCH   6   7
TORSDOF 3
ENDMDL
