MODEL 1
REMARK VINA RESULT:      -5.7      0.000      0.000
REMARK  1 active torsions:
REMARK  status: ('A' for Active; 'I' for Inactive)
REMARK    1  A    between atoms: C6_6  and  C9_9 
ROOT
HETATM    1  C1  UNL     1     -34.078   4.421   3.163  1.00 20.00     0.001 A 
HETATM    2  C2  UNL     1     -34.466   4.827   4.440  1.00 20.00     0.007 A 
HETATM    3  C3  UNL     1     -33.307   5.267   2.367  1.00 20.00     0.007 A 
HETATM    4  C4  UNL     1     -33.311   6.926   4.124  1.00 20.00     0.013 A 
HETATM    5  C5  UNL     1     -34.082   6.079   4.920  1.00 20.00    -0.061 A 
HETATM    6  C6  UNL     1     -32.924   6.520   2.847  1.00 20.00    -0.058 A 
HETATM    7  C7  UNL     1     -34.497   6.512   6.286  1.00 20.00     0.048 C 
ENDROOT
BRANCH   6   8
HETATM    8  C9  UNL     1     -32.099   7.426   1.995  1.00 20.00     0.034 C 
HETATM    9  C8  UNL     1     -32.954   8.300   1.081  1.00 20.00     0.010 C 
ENDBRANCH   6   8
TORSDOF 1
ENDMDL
MODEL 2
REMARK VINA RESULT:      -5.0      0.685      3.487
REMARK  1 active torsions:
REMARK  status: ('A' for Active; 'I' for Inactive)
REMARK    1  A    between atoms: C6_6  and  C9_9 
ROOT
HETATM    1  C1  UNL     1     -33.671   4.042   2.637  1.00 20.00     0.001 A 
HETATM    2  C2  UNL     1     -33.077   5.116   1.976  1.00 20.00     0.007 A 
HETATM    3  C3  UNL     1     -34.235   4.226   3.900  1.00 20.00     0.007 A 
HETATM    4  C4  UNL     1     -33.610   6.559   3.839  1.00 20.00     0.013 A 
HETATM    5  C5  UNL     1     -33.046   6.375   2.576  1.00 20.00    -0.061 A 
HETATM    6  C6  UNL     1     -34.203   5.484   4.501  1.00 20.00    -0.058 A 
HETATM    7  C7  UNL     1     -32.412   7.523   1.867  1.00 20.00     0.048 C 
ENDROOT
BRANCH   6   8
HETATM    8  C9  UNL     1     -34.806   5.681   5.852  1.00 20.00     0.034 C 
HETATM    9  C8  UNL     1     -34.203   6.875   6.587  1.00 20.00     0.010 C 
ENDBRANCH   6   8
TORSDOF 1
ENDMDL
MODEL 3
REMARK VINA RESULT:      -4.8     11.381     12.345
REMARK  1 active torsions:
REMARK  status: ('A' for Active; 'I' for Inactive)
REMARK    1  A    between atoms: C6_6  and  C9_9 
ROOT
HETATM    1  C1  UNL     1     -35.189  16.437  -1.587  1.00 20.00     0.001 A 
HETATM    2  C2  UNL     1     -34.904  15.541  -2.617  1.00 20.00     0.007 A 
HETATM    3  C3  UNL     1     -34.278  17.442  -1.264  1.00 20.00     0.007 A 
HETATM    4  C4  UNL     1     -32.795  16.656  -3.002  1.00 20.00     0.013 A 
HETATM    5  C5  UNL     1     -33.707  15.651  -3.325  1.00 20.00    -0.061 A 
HETATM    6  C6  UNL     1     -33.080  17.551  -1.972  1.00 20.00    -0.058 A 
HETATM    7  C7  UNL     1     -33.404  14.693  -4.427  1.00 20.00     0.048 C 
ENDROOT
BRANCH   6   8
HETATM    8  C9  UNL     1     -32.105  18.626  -1.626  1.00 20.00     0.034 C 
HETATM    9  C8  UNL     1     -31.251  18.267  -0.413  1.00 20.00     0.010 C 
ENDBRANCH   6   8
TORSDOF 1
ENDMDL
MODEL 4
REMARK VINA RESULT:      -4.7     11.093     12.106
REMARK  1 active torsions:
REMARK  status: ('A' for Active; 'I' for Inactive)
REMARK    1  A    between atoms: C6_6  and  C9_9 
ROOT
HETATM    1  C1  UNL     1     -35.243  16.855  -1.072  1.00 20.00     0.001 A 
HETATM    2  C2  UNL     1     -34.194  17.734  -0.801  1.00 20.00     0.007 A 
HETATM    3  C3  UNL     1     -35.135  15.942  -2.120  1.00 20.00     0.007 A 
HETATM    4  C4  UNL     1     -32.928  16.786  -2.627  1.00 20.00     0.013 A 
HETATM    5  C5  UNL     1     -33.037  17.699  -1.578  1.00 20.00    -0.061 A 
HETATM    6  C6  UNL     1     -33.978  15.907  -2.898  1.00 20.00    -0.058 A 
HETATM    7  C7  UNL     1     -31.916  18.637  -1.287  1.00 20.00     0.048 C 
ENDROOT
BRANCH   6   8
HETATM    8  C9  UNL     1     -33.862  14.931  -4.020  1.00 20.00     0.034 C 
HETATM    9  C8  UNL     1     -35.054  13.980  -4.087  1.00 20.00     0.010 C 
ENDBRANCH   6   8
TORSDOF 1
ENDMDL
MODEL 5
REMARK VINA RESULT:      -4.7     11.153     11.882
REMARK  1 active torsions:
REMARK  status: ('A' for Active; 'I' for Inactive)
REMARK    1  A    between atoms: C6_6  and  C9_9 
ROOT
HETATM    1  C1  UNL     1     -32.765  17.238  -2.574  1.00 20.00     0.001 A 
HETATM    2  C2  UNL     1     -33.612  17.639  -1.540  1.00 20.00     0.007 A 
HETATM    3  C3  UNL     1     -33.104  16.142  -3.368  1.00 20.00     0.007 A 
HETATM    4  C4  UNL     1     -35.136  15.848  -2.095  1.00 20.00     0.013 A 
HETATM    5  C5  UNL     1     -34.797  16.945  -1.301  1.00 20.00    -0.061 A 
HETATM    6  C6  UNL     1     -34.289  15.447  -3.127  1.00 20.00    -0.058 A 
HETATM    7  C7  UNL     1     -35.702  17.375  -0.197  1.00 20.00     0.048 C 
ENDROOT
BRANCH   6   8
HETATM    8  C9  UNL     1     -34.651  14.274  -3.976  1.00 20.00     0.034 C 
HETATM    9  C8  UNL     1     -36.153  14.189  -4.237  1.00 20.00     0.010 C 
ENDBRANCH   6   8
TORSDOF 1
ENDMDL
MODEL 6
REMARK VINA RESULT:      -4.6     11.298     11.933
REMARK  1 active torsions:
REMARK  status: ('A' for Active; 'I' for Inactive)
REMARK    1  A    between atoms: C6_6  and  C9_9 
ROOT
HETATM    1  C1  UNL     1     -32.768  17.675  -1.905  1.00 20.00     0.001 A 
HETATM    2  C2  UNL     1     -33.692  17.952  -0.897  1.00 20.00     0.007 A 
HETATM    3  C3  UNL     1     -33.014  16.647  -2.814  1.00 20.00     0.007 A 
HETATM    4  C4  UNL     1     -35.110  16.172  -1.709  1.00 20.00     0.013 A 
HETATM    5  C5  UNL     1     -34.863  17.201  -0.800  1.00 20.00    -0.061 A 
HETATM    6  C6  UNL     1     -34.185  15.895  -2.716  1.00 20.00    -0.058 A 
HETATM    7  C7  UNL     1     -35.851  17.499   0.276  1.00 20.00     0.048 C 
ENDROOT
BRANCH   6   8
HETATM    8  C9  UNL     1     -34.449  14.794  -3.688  1.00 20.00     0.034 C 
HETATM    9  C8  UNL     1     -33.225  14.466  -4.539  1.00 20.00     0.010 C 
ENDBRANCH   6   8
TORSDOF 1
ENDMDL
MODEL 7
REMARK VINA RESULT:      -4.6     11.287     11.883
REMARK  1 active torsions:
REMARK  status: ('A' for Active; 'I' for Inactive)
REMARK    1  A    between atoms: C6_6  and  C9_9 
ROOT
HETATM    1  C1  UNL     1     -32.919  15.512  -3.797  1.00 20.00     0.001 A 
HETATM    2  C2  UNL     1     -33.832  14.641  -4.392  1.00 20.00     0.007 A 
HETATM    3  C3  UNL     1     -33.309  16.298  -2.713  1.00 20.00     0.007 A 
HETATM    4  C4  UNL     1     -35.526  15.343  -2.819  1.00 20.00     0.013 A 
HETATM    5  C5  UNL     1     -35.135  14.556  -3.903  1.00 20.00    -0.061 A 
HETATM    6  C6  UNL     1     -34.613  16.214  -2.225  1.00 20.00    -0.058 A 
HETATM    7  C7  UNL     1     -36.110  13.625  -4.539  1.00 20.00     0.048 C 
ENDROOT
BRANCH   6   8
HETATM    8  C9  UNL     1     -35.032  17.055  -1.066  1.00 20.00     0.034 C 
HETATM    9  C8  UNL     1     -33.916  17.981  -0.589  1.00 20.00     0.010 C 
ENDBRANCH   6   8
TORSDOF 1
ENDMDL
MODEL 8
REMARK VINA RESULT:      -4.6     11.148     12.197
REMARK  1 active torsions:
REMARK  status: ('A' for Active; 'I' for Inactive)
REMARK    1  A    between atoms: C6_6  and  C9_9 
ROOT
HETATM    1  C1  UNL     1     -32.778  17.275  -2.505  1.00 20.00     0.001 A 
HETATM    2  C2  UNL     1     -33.108  16.188  -3.314  1.00 20.00     0.007 A 
HETATM    3  C3  UNL     1     -33.635  17.665  -1.476  1.00 20.00     0.007 A 
HETATM    4  C4  UNL     1     -35.153  15.879  -2.064  1.00 20.00     0.013 A 
HETATM    5  C5  UNL     1     -34.295  15.489  -3.093  1.00 20.00    -0.061 A 
HETATM    6  C6  UNL     1     -34.822  16.967  -1.256  1.00 20.00    -0.058 A 
HETATM    7  C7  UNL     1     -34.646  14.326  -3.957  1.00 20.00     0.048 C 
ENDROOT
BRANCH   6   8
HETATM    8  C9  UNL     1     -35.740  17.384  -0.155  1.00 20.00     0.034 C 
HETATM    9  C8  UNL     1     -34.988  17.728   1.128  1.00 20.00     0.010 C 
ENDBRANCH   6   8
TORSDOF 1
ENDMDL
MODEL 9
REMARK VINA RESULT:      -4.5      0.981      2.104
REMARK  1 active torsions:
REMARK  status: ('A' for Active; 'I' for Inactive)
REMARK    1  A    between atoms: C6_6  and  C9_9 
ROOT
HETATM    1  C1  UNL     1     -32.876   7.572   5.294  1.00 20.00     0.001 A 
HETATM    2  C2  UNL     1     -33.865   6.607   5.487  1.00 20.00     0.007 A 
HETATM    3  C3  UNL     1     -32.336   7.773   4.024  1.00 20.00     0.007 A 
HETATM    4  C4  UNL     1     -33.774   6.044   3.139  1.00 20.00     0.013 A 
HETATM    5  C5  UNL     1     -34.314   5.844   4.410  1.00 20.00    -0.061 A 
HETATM    6  C6  UNL     1     -32.785   7.008   2.947  1.00 20.00    -0.058 A 
HETATM    7  C7  UNL     1     -35.372   4.814   4.617  1.00 20.00     0.048 C 
ENDROOT
BRANCH   6   8
HETATM    8  C9  UNL     1     -32.207   7.223   1.587  1.00 20.00     0.034 C 
HETATM    9  C8  UNL     1     -32.763   8.473   0.911  1.00 20.00     0.010 C 
ENDBRANCH   6   8
TORSDOF 1
ENDMDL
