MODEL 1
REMARK VINA RESULT:      -4.4      0.000      0.000
REMARK  0 active torsions:
REMARK  status: ('A' for Active; 'I' for Inactive)
ROOT
HETATM    1  C1  UNL     1     -34.053   4.171   3.325  1.00 20.00     0.002 A 
HETATM    2  C2  UNL     1     -34.431   4.571   4.606  1.00 20.00     0.007 A 
HETATM    3  C3  UNL     1     -33.462   5.085   2.453  1.00 20.00     0.018 A 
HETATM    4  C4  UNL     1     -33.629   6.803   4.145  1.00 20.00     0.025 A 
HETATM    5  C5  UNL     1     -34.220   5.888   5.016  1.00 20.00    -0.061 A 
HETATM    6  C6  UNL     1     -33.250   6.403   2.864  1.00 20.00     0.006 A 
HETATM    7  C7  UNL     1     -34.626   6.315   6.387  1.00 20.00     0.048 C 
HETATM    8  I8  UNL     1     -32.368   7.765   1.567  1.00 20.00    -0.045 I 
ENDROOT
TORSDOF 0
ENDMDL
MODEL 2
REMARK VINA RESULT:      -4.3     11.845     12.283
REMARK  0 active torsions:
REMARK  status: ('A' for Active; 'I' for Inactive)
ROOT
HETATM    1  C1  UNL     1     -32.921  15.533  -3.796  1.00 20.00     0.002 A 
HETATM    2  C2  UNL     1     -33.827  14.648  -4.379  1.00 20.00     0.007 A 
HETATM    3  C3  UNL     1     -33.322  16.344  -2.734  1.00 20.00     0.018 A 
HETATM    4  C4  UNL     1     -35.537  15.383  -2.839  1.00 20.00     0.025 A 
HETATM    5  C5  UNL     1     -35.136  14.574  -3.901  1.00 20.00    -0.061 A 
HETATM    6  C6  UNL     1     -34.631  16.269  -2.255  1.00 20.00     0.006 A 
HETATM    7  C7  UNL     1     -36.104  13.627  -4.526  1.00 20.00     0.048 C 
HETATM    8  I8  UNL     1     -35.228  17.474  -0.672  1.00 20.00    -0.045 I 
ENDROOT
TORSDOF 0
ENDMDL
MODEL 3
REMARK VINA RESULT:      -4.2     11.820     12.658
REMARK  0 active torsions:
REMARK  status: ('A' for Active; 'I' for Inactive)
ROOT
HETATM    1  C1  UNL     1     -32.720  17.274  -2.512  1.00 20.00     0.002 A 
HETATM    2  C2  UNL     1     -33.155  16.197  -3.282  1.00 20.00     0.007 A 
HETATM    3  C3  UNL     1     -33.499  17.735  -1.451  1.00 20.00     0.018 A 
HETATM    4  C4  UNL     1     -35.152  16.038  -1.932  1.00 20.00     0.025 A 
HETATM    5  C5  UNL     1     -34.372  15.578  -2.992  1.00 20.00    -0.061 A 
HETATM    6  C6  UNL     1     -34.717  17.116  -1.161  1.00 20.00     0.006 A 
HETATM    7  C7  UNL     1     -34.837  14.426  -3.817  1.00 20.00     0.048 C 
HETATM    8  I8  UNL     1     -35.878  17.800   0.420  1.00 20.00    -0.045 I 
ENDROOT
TORSDOF 0
ENDMDL
MODEL 4
REMARK VINA RESULT:      -4.2     12.097     12.688
REMARK  0 active torsions:
REMARK  status: ('A' for Active; 'I' for Inactive)
ROOT
HETATM    1  C1  UNL     1     -35.415  16.239  -1.814  1.00 20.00     0.002 A 
HETATM    2  C2  UNL     1     -34.951  15.435  -2.853  1.00 20.00     0.007 A 
HETATM    3  C3  UNL     1     -34.597  17.238  -1.285  1.00 20.00     0.018 A 
HETATM    4  C4  UNL     1     -32.848  16.625  -2.835  1.00 20.00     0.025 A 
HETATM    5  C5  UNL     1     -33.666  15.627  -3.364  1.00 20.00    -0.061 A 
HETATM    6  C6  UNL     1     -33.312  17.430  -1.795  1.00 20.00     0.006 A 
HETATM    7  C7  UNL     1     -33.170  14.764  -4.476  1.00 20.00     0.048 C 
HETATM    8  I8  UNL     1     -32.094  18.918  -1.008  1.00 20.00    -0.045 I 
ENDROOT
TORSDOF 0
ENDMDL
MODEL 5
REMARK VINA RESULT:      -4.1     11.974     12.704
REMARK  0 active torsions:
REMARK  status: ('A' for Active; 'I' for Inactive)
ROOT
HETATM    1  C1  UNL     1     -35.174  17.013  -0.835  1.00 20.00     0.002 A 
HETATM    2  C2  UNL     1     -34.070  17.828  -0.590  1.00 20.00     0.007 A 
HETATM    3  C3  UNL     1     -35.167  16.135  -1.918  1.00 20.00     0.018 A 
HETATM    4  C4  UNL     1     -32.949  16.888  -2.514  1.00 20.00     0.025 A 
HETATM    5  C5  UNL     1     -32.957  17.766  -1.430  1.00 20.00    -0.061 A 
HETATM    6  C6  UNL     1     -34.054  16.072  -2.759  1.00 20.00     0.006 A 
HETATM    7  C7  UNL     1     -31.776  18.639  -1.168  1.00 20.00     0.048 C 
HETATM    8  I8  UNL     1     -34.043  14.763  -4.372  1.00 20.00    -0.045 I 
ENDROOT
TORSDOF 0
ENDMDL
MODEL 6
REMARK VINA RESULT:      -4.0     12.009     12.327
REMARK  0 active torsions:
REMARK  status: ('A' for Active; 'I' for Inactive)
ROOT
HETATM    1  C1  UNL     1     -32.917  16.506  -3.070  1.00 20.00     0.002 A 
HETATM    2  C2  UNL     1     -33.454  17.080  -1.918  1.00 20.00     0.007 A 
HETATM    3  C3  UNL     1     -33.684  15.627  -3.835  1.00 20.00     0.018 A 
HETATM    4  C4  UNL     1     -35.526  15.895  -2.293  1.00 20.00     0.025 A 
HETATM    5  C5  UNL     1     -34.759  16.774  -1.529  1.00 20.00    -0.061 A 
HETATM    6  C6  UNL     1     -34.990  15.321  -3.445  1.00 20.00     0.006 A 
HETATM    7  C7  UNL     1     -35.332  17.388  -0.296  1.00 20.00     0.048 C 
HETATM    8  I8  UNL     1     -36.133  14.013  -4.585  1.00 20.00    -0.045 I 
ENDROOT
TORSDOF 0
ENDMDL
MODEL 7
REMARK VINA RESULT:      -4.0     11.930     12.454
REMARK  0 active torsions:
REMARK  status: ('A' for Active; 'I' for Inactive)
ROOT
HETATM    1  C1  UNL     1     -32.802  17.777  -1.681  1.00 20.00     0.002 A 
HETATM    2  C2  UNL     1     -33.727  17.992  -0.659  1.00 20.00     0.007 A 
HETATM    3  C3  UNL     1     -33.056  16.820  -2.663  1.00 20.00     0.018 A 
HETATM    4  C4  UNL     1     -35.161  16.289  -1.600  1.00 20.00     0.025 A 
HETATM    5  C5  UNL     1     -34.906  17.247  -0.618  1.00 20.00    -0.061 A 
HETATM    6  C6  UNL     1     -34.236  16.075  -2.622  1.00 20.00     0.006 A 
HETATM    7  C7  UNL     1     -35.894  17.477   0.476  1.00 20.00     0.048 C 
HETATM    8  I8  UNL     1     -34.615  14.649  -4.085  1.00 20.00    -0.045 I 
ENDROOT
TORSDOF 0
ENDMDL
MODEL 8
REMARK VINA RESULT:      -3.9     16.779     17.147
REMARK  0 active torsions:
REMARK  status: ('A' for Active; 'I' for Inactive)
ROOT
HETATM    1  C1  UNL     1     -22.149  17.391   9.216  1.00 20.00     0.002 A 
HETATM    2  C2  UNL     1     -22.716  17.987   8.091  1.00 20.00     0.007 A 
HETATM    3  C3  UNL     1     -22.833  17.400  10.432  1.00 20.00     0.018 A 
HETATM    4  C4  UNL     1     -24.654  18.606   9.396  1.00 20.00     0.025 A 
HETATM    5  C5  UNL     1     -23.970  18.595   8.181  1.00 20.00    -0.061 A 
HETATM    6  C6  UNL     1     -24.086  18.009  10.522  1.00 20.00     0.006 A 
HETATM    7  C7  UNL     1     -24.575  19.234   6.976  1.00 20.00     0.048 C 
HETATM    8  I8  UNL     1     -25.106  18.023  12.332  1.00 20.00    -0.045 I 
ENDROOT
TORSDOF 0
ENDMDL
MODEL 9
REMARK VINA RESULT:      -3.9     16.942     17.520
REMARK  0 active torsions:
REMARK  status: ('A' for Active; 'I' for Inactive)
ROOT
HETATM    1  C1  UNL     1     -23.060  17.663  12.253  1.00 20.00     0.002 A 
HETATM    2  C2  UNL     1     -22.431  17.541  11.015  1.00 20.00     0.007 A 
HETATM    3  C3  UNL     1     -24.363  18.156  12.329  1.00 20.00     0.018 A 
HETATM    4  C4  UNL     1     -24.406  18.408   9.925  1.00 20.00     0.025 A 
HETATM    5  C5  UNL     1     -23.104  17.915   9.851  1.00 20.00    -0.061 A 
HETATM    6  C6  UNL     1     -25.036  18.530  11.164  1.00 20.00     0.006 A 
HETATM    7  C7  UNL     1     -22.428  17.785   8.527  1.00 20.00     0.048 C 
HETATM    8  I8  UNL     1     -26.976  19.263  11.276  1.00 20.00    -0.045 I 
ENDROOT
TORSDOF 0
ENDMDL
