MODEL 1
REMARK VINA RESULT:      -5.6      0.000      0.000
REMARK  2 active torsions:
REMARK  status: ('A' for Active; 'I' for Inactive)
REMARK    1  A    between atoms: C6_6  and  C8_8 
REMARK    2  A    between atoms: C8_8  and  N10_10 
ROOT
HETATM    1  N9  UNL     1     -33.467   9.181  -0.072  1.00 20.00     0.068 N 
HETATM    2  N10 UNL     1     -32.120   7.627   1.132  1.00 20.00    -0.111 NA
HETATM    3  N11 UNL     1     -32.824   8.439   0.509  1.00 20.00    -0.167 NA
ENDROOT
BRANCH   2   4
HETATM    4  C8  UNL     1     -32.232   7.680   2.595  1.00 20.00     0.227 C 
BRANCH   4   5
HETATM    5  C6  UNL     1     -33.019   6.538   3.144  1.00 20.00    -0.035 A 
HETATM    6  C3  UNL     1     -33.133   5.355   2.412  1.00 20.00     0.009 A 
HETATM    7  C1  UNL     1     -33.870   4.288   2.925  1.00 20.00     0.001 A 
HETATM    8  C2  UNL     1     -34.492   4.402   4.169  1.00 20.00     0.007 A 
HETATM    9  C5  UNL     1     -34.377   5.584   4.899  1.00 20.00    -0.061 A 
HETATM   10  C4  UNL     1     -33.641   6.652   4.387  1.00 20.00     0.015 A 
HETATM   11  C7  UNL     1     -35.041   5.705   6.229  1.00 20.00     0.048 C 
ENDBRANCH   4   5
ENDBRANCH   2   4
TORSDOF 2
ENDMDL
MODEL 2
REMARK VINA RESULT:      -5.5     11.272     11.648
REMARK  2 active torsions:
REMARK  status: ('A' for Active; 'I' for Inactive)
REMARK    1  A    between atoms: C6_6  and  C8_8 
REMARK    2  A    between atoms: C8_8  and  N10_10 
ROOT
HETATM    1  N9  UNL     1     -39.428  14.764  -4.560  1.00 20.00     0.068 N 
HETATM    2  N10 UNL     1     -37.373  13.589  -4.283  1.00 20.00    -0.111 NA
HETATM    3  N11 UNL     1     -38.442  14.205  -4.431  1.00 20.00    -0.167 NA
ENDROOT
BRANCH   2   4
HETATM    4  C8  UNL     1     -36.236  14.093  -5.064  1.00 20.00     0.227 C 
BRANCH   4   5
HETATM    5  C6  UNL     1     -35.255  14.836  -4.221  1.00 20.00    -0.035 A 
HETATM    6  C3  UNL     1     -33.912  14.885  -4.594  1.00 20.00     0.009 A 
HETATM    7  C1  UNL     1     -32.995  15.579  -3.805  1.00 20.00     0.001 A 
HETATM    8  C2  UNL     1     -33.420  16.224  -2.644  1.00 20.00     0.007 A 
HETATM    9  C5  UNL     1     -34.763  16.175  -2.272  1.00 20.00    -0.061 A 
HETATM   10  C4  UNL     1     -35.681  15.481  -3.060  1.00 20.00     0.015 A 
HETATM   11  C7  UNL     1     -35.217  16.867  -1.030  1.00 20.00     0.048 C 
ENDBRANCH   4   5
ENDBRANCH   2   4
TORSDOF 2
ENDMDL
MODEL 3
REMARK VINA RESULT:      -5.4     11.514     12.278
REMARK  2 active torsions:
REMARK  status: ('A' for Active; 'I' for Inactive)
REMARK    1  A    between atoms: C6_6  and  C8_8 
REMARK    2  A    between atoms: C8_8  and  N10_10 
ROOT
HETATM    1  N9  UNL     1     -30.147  19.027   1.503  1.00 20.00     0.068 N 
HETATM    2  N10 UNL     1     -30.771  18.233  -0.656  1.00 20.00    -0.111 NA
HETATM    3  N11 UNL     1     -30.450  18.651   0.469  1.00 20.00    -0.167 NA
ENDROOT
BRANCH   2   4
HETATM    4  C8  UNL     1     -31.972  18.844  -1.241  1.00 20.00     0.227 C 
BRANCH   4   5
HETATM    5  C6  UNL     1     -33.032  17.836  -1.537  1.00 20.00    -0.035 A 
HETATM    6  C3  UNL     1     -34.190  17.794  -0.759  1.00 20.00     0.009 A 
HETATM    7  C1  UNL     1     -35.180  16.852  -1.036  1.00 20.00     0.001 A 
HETATM    8  C2  UNL     1     -35.013  15.952  -2.088  1.00 20.00     0.007 A 
HETATM    9  C5  UNL     1     -33.856  15.995  -2.865  1.00 20.00    -0.061 A 
HETATM   10  C4  UNL     1     -32.865  16.937  -2.590  1.00 20.00     0.015 A 
HETATM   11  C7  UNL     1     -33.679  15.034  -3.992  1.00 20.00     0.048 C 
ENDBRANCH   4   5
ENDBRANCH   2   4
TORSDOF 2
ENDMDL
MODEL 4
REMARK VINA RESULT:      -5.2     10.901     11.689
REMARK  2 active torsions:
REMARK  status: ('A' for Active; 'I' for Inactive)
REMARK    1  A    between atoms: C6_6  and  C8_8 
REMARK    2  A    between atoms: C8_8  and  N10_10 
ROOT
HETATM    1  N9  UNL     1     -34.150  15.087  -7.120  1.00 20.00     0.068 N 
HETATM    2  N10 UNL     1     -33.580  14.257  -4.959  1.00 20.00    -0.111 NA
HETATM    3  N11 UNL     1     -33.883  14.691  -6.084  1.00 20.00    -0.167 NA
ENDROOT
BRANCH   2   4
HETATM    4  C8  UNL     1     -34.591  14.449  -3.912  1.00 20.00     0.227 C 
BRANCH   4   5
HETATM    5  C6  UNL     1     -34.265  15.593  -3.012  1.00 20.00    -0.035 A 
HETATM    6  C3  UNL     1     -33.061  16.281  -3.169  1.00 20.00     0.009 A 
HETATM    7  C1  UNL     1     -32.755  17.350  -2.327  1.00 20.00     0.001 A 
HETATM    8  C2  UNL     1     -33.652  17.731  -1.329  1.00 20.00     0.007 A 
HETATM    9  C5  UNL     1     -34.855  17.043  -1.173  1.00 20.00    -0.061 A 
HETATM   10  C4  UNL     1     -35.161  15.973  -2.014  1.00 20.00     0.015 A 
HETATM   11  C7  UNL     1     -35.814  17.452  -0.106  1.00 20.00     0.048 C 
ENDBRANCH   4   5
ENDBRANCH   2   4
TORSDOF 2
ENDMDL
MODEL 5
REMARK VINA RESULT:      -5.1     11.029     11.855
REMARK  2 active torsions:
REMARK  status: ('A' for Active; 'I' for Inactive)
REMARK    1  A    between atoms: C6_6  and  C8_8 
REMARK    2  A    between atoms: C8_8  and  N10_10 
ROOT
HETATM    1  N9  UNL     1     -35.703  14.595  -6.881  1.00 20.00     0.068 N 
HETATM    2  N10 UNL     1     -34.791  14.015  -4.756  1.00 20.00    -0.111 NA
HETATM    3  N11 UNL     1     -35.263  14.322  -5.864  1.00 20.00    -0.167 NA
ENDROOT
BRANCH   2   4
HETATM    4  C8  UNL     1     -33.577  14.740  -4.360  1.00 20.00     0.227 C 
BRANCH   4   5
HETATM    5  C6  UNL     1     -33.824  15.685  -3.234  1.00 20.00    -0.035 A 
HETATM    6  C3  UNL     1     -35.033  15.642  -2.539  1.00 20.00     0.009 A 
HETATM    7  C1  UNL     1     -35.264  16.527  -1.487  1.00 20.00     0.001 A 
HETATM    8  C2  UNL     1     -34.286  17.455  -1.128  1.00 20.00     0.007 A 
HETATM    9  C5  UNL     1     -33.078  17.498  -1.823  1.00 20.00    -0.061 A 
HETATM   10  C4  UNL     1     -32.846  16.614  -2.876  1.00 20.00     0.015 A 
HETATM   11  C7  UNL     1     -32.033  18.491  -1.438  1.00 20.00     0.048 C 
ENDBRANCH   4   5
ENDBRANCH   2   4
TORSDOF 2
ENDMDL
MODEL 6
REMARK VINA RESULT:      -5.1     11.285     11.762
REMARK  2 active torsions:
REMARK  status: ('A' for Active; 'I' for Inactive)
REMARK    1  A    between atoms: C6_6  and  C8_8 
REMARK    2  A    between atoms: C8_8  and  N10_10 
ROOT
HETATM    1  N9  UNL     1     -36.734  16.028  -7.045  1.00 20.00     0.068 N 
HETATM    2  N10 UNL     1     -36.032  13.929  -6.160  1.00 20.00    -0.111 NA
HETATM    3  N11 UNL     1     -36.399  15.025  -6.616  1.00 20.00    -0.167 NA
ENDROOT
BRANCH   2   4
HETATM    4  C8  UNL     1     -36.135  13.780  -4.703  1.00 20.00     0.227 C 
BRANCH   4   5
HETATM    5  C6  UNL     1     -35.183  14.669  -3.975  1.00 20.00    -0.035 A 
HETATM    6  C3  UNL     1     -33.864  14.784  -4.412  1.00 20.00     0.009 A 
HETATM    7  C1  UNL     1     -32.974  15.614  -3.730  1.00 20.00     0.001 A 
HETATM    8  C2  UNL     1     -33.403  16.328  -2.612  1.00 20.00     0.007 A 
HETATM    9  C5  UNL     1     -34.722  16.211  -2.174  1.00 20.00    -0.061 A 
HETATM   10  C4  UNL     1     -35.613  15.382  -2.855  1.00 20.00     0.015 A 
HETATM   11  C7  UNL     1     -35.180  16.976  -0.978  1.00 20.00     0.048 C 
ENDBRANCH   4   5
ENDBRANCH   2   4
TORSDOF 2
ENDMDL
MODEL 7
REMARK VINA RESULT:      -5.1     15.669     16.259
REMARK  2 active torsions:
REMARK  status: ('A' for Active; 'I' for Inactive)
REMARK    1  A    between atoms: C6_6  and  C8_8 
REMARK    2  A    between atoms: C8_8  and  N10_10 
ROOT
HETATM    1  N9  UNL     1     -25.179  19.047   3.913  1.00 20.00     0.068 N 
HETATM    2  N10 UNL     1     -24.064  19.244   6.011  1.00 20.00    -0.111 NA
HETATM    3  N11 UNL     1     -24.650  19.140   4.920  1.00 20.00    -0.167 NA
ENDROOT
BRANCH   2   4
HETATM    4  C8  UNL     1     -24.899  19.047   7.202  1.00 20.00     0.227 C 
BRANCH   4   5
HETATM    5  C6  UNL     1     -24.122  18.508   8.356  1.00 20.00    -0.035 A 
HETATM    6  C3  UNL     1     -22.864  17.945   8.146  1.00 20.00     0.009 A 
HETATM    7  C1  UNL     1     -22.138  17.440   9.224  1.00 20.00     0.001 A 
HETATM    8  C2  UNL     1     -22.669  17.499  10.512  1.00 20.00     0.007 A 
HETATM    9  C5  UNL     1     -23.928  18.063  10.722  1.00 20.00    -0.061 A 
HETATM   10  C4  UNL     1     -24.655  18.567   9.644  1.00 20.00     0.015 A 
HETATM   11  C7  UNL     1     -24.495  18.127  12.100  1.00 20.00     0.048 C 
ENDBRANCH   4   5
ENDBRANCH   2   4
TORSDOF 2
ENDMDL
MODEL 8
REMARK VINA RESULT:      -5.1     15.806     16.205
REMARK  2 active torsions:
REMARK  status: ('A' for Active; 'I' for Inactive)
REMARK    1  A    between atoms: C6_6  and  C8_8 
REMARK    2  A    between atoms: C8_8  and  N10_10 
ROOT
HETATM    1  N9  UNL     1     -24.637  19.263   6.124  1.00 20.00     0.068 N 
HETATM    2  N10 UNL     1     -23.199  18.198   7.699  1.00 20.00    -0.111 NA
HETATM    3  N11 UNL     1     -23.950  18.757   6.882  1.00 20.00    -0.167 NA
ENDROOT
BRANCH   2   4
HETATM    4  C8  UNL     1     -23.095  18.846   9.012  1.00 20.00     0.227 C 
BRANCH   4   5
HETATM    5  C6  UNL     1     -23.854  18.114  10.067  1.00 20.00    -0.035 A 
HETATM    6  C3  UNL     1     -23.358  16.913  10.575  1.00 20.00     0.009 A 
HETATM    7  C1  UNL     1     -24.068  16.228  11.560  1.00 20.00     0.001 A 
HETATM    8  C2  UNL     1     -25.273  16.743  12.038  1.00 20.00     0.007 A 
HETATM    9  C5  UNL     1     -25.768  17.943  11.530  1.00 20.00    -0.061 A 
HETATM   10  C4  UNL     1     -25.059  18.629  10.544  1.00 20.00     0.015 A 
HETATM   11  C7  UNL     1     -27.057  18.494  12.042  1.00 20.00     0.048 C 
ENDBRANCH   4   5
ENDBRANCH   2   4
TORSDOF 2
ENDMDL
MODEL 9
REMARK VINA RESULT:      -4.9     11.641     12.236
REMARK  2 active torsions:
REMARK  status: ('A' for Active; 'I' for Inactive)
REMARK    1  A    between atoms: C6_6  and  C8_8 
REMARK    2  A    between atoms: C8_8  and  N10_10 
ROOT
HETATM    1  N9  UNL     1     -30.005  18.982   1.738  1.00 20.00     0.068 N 
HETATM    2  N10 UNL     1     -30.570  18.381  -0.498  1.00 20.00    -0.111 NA
HETATM    3  N11 UNL     1     -30.280  18.698   0.667  1.00 20.00    -0.167 NA
ENDROOT
BRANCH   2   4
HETATM    4  C8  UNL     1     -31.745  19.054  -1.065  1.00 20.00     0.227 C 
BRANCH   4   5
HETATM    5  C6  UNL     1     -32.915  18.137  -1.197  1.00 20.00    -0.035 A 
HETATM    6  C3  UNL     1     -32.944  17.187  -2.218  1.00 20.00     0.009 A 
HETATM    7  C1  UNL     1     -34.038  16.331  -2.341  1.00 20.00     0.001 A 
HETATM    8  C2  UNL     1     -35.102  16.423  -1.444  1.00 20.00     0.007 A 
HETATM    9  C5  UNL     1     -35.072  17.373  -0.424  1.00 20.00    -0.061 A 
HETATM   10  C4  UNL     1     -33.979  18.230  -0.299  1.00 20.00     0.015 A 
HETATM   11  C7  UNL     1     -36.210  17.471   0.536  1.00 20.00     0.048 C 
ENDBRANCH   4   5
ENDBRANCH   2   4
TORSDOF 2
ENDMDL
