MODEL 1
REMARK VINA RESULT:      -5.4      0.000      0.000
REMARK  4 active torsions:
REMARK  status: ('A' for Active; 'I' for Inactive)
REMARK    1  A    between atoms: C6_6  and  C7_7 
REMARK    2  A    between atoms: C7_7  and  C8_8 
REMARK    3  A    between atoms: C8_8  and  C9_9 
REMARK    4  A    between atoms: C9_9  and  S10_10 
ROOT
HETATM    1  C1  UNL     1     -34.797   5.670   6.191  1.00 20.00     0.000 A 
HETATM    2  C2  UNL     1     -33.972   6.766   5.939  1.00 20.00     0.001 A 
HETATM    3  C3  UNL     1     -35.043   4.736   5.185  1.00 20.00     0.001 A 
HETATM    4  C4  UNL     1     -33.393   6.927   4.680  1.00 20.00     0.007 A 
HETATM    5  C5  UNL     1     -34.463   4.897   3.926  1.00 20.00     0.007 A 
HETATM    6  C6  UNL     1     -33.638   5.992   3.675  1.00 20.00    -0.058 A 
ENDROOT
BRANCH   6   7
HETATM    7  C7  UNL     1     -33.018   6.164   2.329  1.00 20.00     0.039 C 
BRANCH   7   8
HETATM    8  C8  UNL     1     -32.176   7.446   2.174  1.00 20.00     0.014 C 
BRANCH   8   9
HETATM    9  C9  UNL     1     -32.082   7.910   0.721  1.00 20.00     0.071 C 
BRANCH   9  10
HETATM   10  S10 UNL     1     -33.203   9.309   0.423  1.00 20.00    -0.182 SA
HETATM   11  H22 UNL     1     -32.732  10.079   1.413  1.00 20.00     0.101 HD
ENDBRANCH   9  10
ENDBRANCH   8   9
ENDBRANCH   7   8
ENDBRANCH   6   7
TORSDOF 4
ENDMDL
MODEL 2
REMARK VINA RESULT:      -5.4      0.012      1.528
REMARK  4 active torsions:
REMARK  status: ('A' for Active; 'I' for Inactive)
REMARK    1  A    between atoms: C6_6  and  C7_7 
REMARK    2  A    between atoms: C7_7  and  C8_8 
REMARK    3  A    between atoms: C8_8  and  C9_9 
REMARK    4  A    between atoms: C9_9  and  S10_10 
ROOT
HETATM    1  C1  UNL     1     -34.798   5.672   6.185  1.00 20.00     0.000 A 
HETATM    2  C2  UNL     1     -35.047   4.739   5.179  1.00 20.00     0.001 A 
HETATM    3  C3  UNL     1     -33.968   6.765   5.933  1.00 20.00     0.001 A 
HETATM    4  C4  UNL     1     -34.466   4.899   3.922  1.00 20.00     0.007 A 
HETATM    5  C5  UNL     1     -33.386   6.924   4.676  1.00 20.00     0.007 A 
HETATM    6  C6  UNL     1     -33.636   5.991   3.670  1.00 20.00    -0.058 A 
ENDROOT
BRANCH   6   7
HETATM    7  C7  UNL     1     -33.014   6.161   2.325  1.00 20.00     0.039 C 
BRANCH   7   8
HETATM    8  C8  UNL     1     -32.179   7.447   2.167  1.00 20.00     0.014 C 
BRANCH   8   9
HETATM    9  C9  UNL     1     -32.090   7.910   0.713  1.00 20.00     0.071 C 
BRANCH   9  10
HETATM   10  S10 UNL     1     -33.228   9.294   0.413  1.00 20.00    -0.182 SA
HETATM   11  H22 UNL     1     -32.326  10.092  -0.175  1.00 20.00     0.101 HD
ENDBRANCH   9  10
ENDBRANCH   8   9
ENDBRANCH   7   8
ENDBRANCH   6   7
TORSDOF 4
ENDMDL
MODEL 3
REMARK VINA RESULT:      -4.4     11.264     11.865
REMARK  4 active torsions:
REMARK  status: ('A' for Active; 'I' for Inactive)
REMARK    1  A    between atoms: C6_6  and  C7_7 
REMARK    2  A    between atoms: C7_7  and  C8_8 
REMARK    3  A    between atoms: C8_8  and  C9_9 
REMARK    4  A    between atoms: C9_9  and  S10_10 
ROOT
HETATM    1  C1  UNL     1     -34.038  17.761  -1.070  1.00 20.00     0.000 A 
HETATM    2  C2  UNL     1     -32.944  17.619  -1.923  1.00 20.00     0.001 A 
HETATM    3  C3  UNL     1     -35.123  16.891  -1.177  1.00 20.00     0.001 A 
HETATM    4  C4  UNL     1     -32.936  16.607  -2.883  1.00 20.00     0.007 A 
HETATM    5  C5  UNL     1     -35.115  15.879  -2.137  1.00 20.00     0.007 A 
HETATM    6  C6  UNL     1     -34.020  15.737  -2.990  1.00 20.00    -0.058 A 
ENDROOT
BRANCH   6   7
HETATM    7  C7  UNL     1     -34.011  14.655  -4.016  1.00 20.00     0.039 C 
BRANCH   7   8
HETATM    8  C8  UNL     1     -35.378  13.980  -4.243  1.00 20.00     0.014 C 
BRANCH   8   9
HETATM    9  C9  UNL     1     -36.002  14.360  -5.585  1.00 20.00     0.071 C 
BRANCH   9  10
HETATM   10  S10 UNL     1     -34.767  15.139  -6.665  1.00 20.00    -0.182 SA
HETATM   11  H22 UNL     1     -33.773  14.288  -6.380  1.00 20.00     0.101 HD
ENDBRANCH   9  10
ENDBRANCH   8   9
ENDBRANCH   7   8
ENDBRANCH   6   7
TORSDOF 4
ENDMDL
MODEL 4
REMARK VINA RESULT:      -4.4     11.253     11.909
REMARK  4 active torsions:
REMARK  status: ('A' for Active; 'I' for Inactive)
REMARK    1  A    between atoms: C6_6  and  C7_7 
REMARK    2  A    between atoms: C7_7  and  C8_8 
REMARK    3  A    between atoms: C8_8  and  C9_9 
REMARK    4  A    between atoms: C9_9  and  S10_10 
ROOT
HETATM    1  C1  UNL     1     -34.058  17.747  -1.024  1.00 20.00     0.000 A 
HETATM    2  C2  UNL     1     -35.139  16.876  -1.153  1.00 20.00     0.001 A 
HETATM    3  C3  UNL     1     -32.958  17.624  -1.873  1.00 20.00     0.001 A 
HETATM    4  C4  UNL     1     -35.119  15.881  -2.130  1.00 20.00     0.007 A 
HETATM    5  C5  UNL     1     -32.938  16.629  -2.850  1.00 20.00     0.007 A 
HETATM    6  C6  UNL     1     -34.020  15.758  -2.979  1.00 20.00    -0.058 A 
ENDROOT
BRANCH   6   7
HETATM    7  C7  UNL     1     -33.999  14.694  -4.024  1.00 20.00     0.039 C 
BRANCH   7   8
HETATM    8  C8  UNL     1     -35.345  13.970  -4.224  1.00 20.00     0.014 C 
BRANCH   8   9
HETATM    9  C9  UNL     1     -36.007  14.326  -5.555  1.00 20.00     0.071 C 
BRANCH   9  10
HETATM   10  S10 UNL     1     -34.817  15.136  -6.663  1.00 20.00    -0.182 SA
HETATM   11  H22 UNL     1     -34.191  14.014  -7.041  1.00 20.00     0.101 HD
ENDBRANCH   9  10
ENDBRANCH   8   9
ENDBRANCH   7   8
ENDBRANCH   6   7
TORSDOF 4
ENDMDL
MODEL 5
REMARK VINA RESULT:      -4.3     11.098     11.766
REMARK  4 active torsions:
REMARK  status: ('A' for Active; 'I' for Inactive)
REMARK    1  A    between atoms: C6_6  and  C7_7 
REMARK    2  A    between atoms: C7_7  and  C8_8 
REMARK    3  A    between atoms: C8_8  and  C9_9 
REMARK    4  A    between atoms: C9_9  and  S10_10 
ROOT
HETATM    1  C1  UNL     1     -34.272  17.926  -0.400  1.00 20.00     0.000 A 
HETATM    2  C2  UNL     1     -33.110  18.059  -1.160  1.00 20.00     0.001 A 
HETATM    3  C3  UNL     1     -35.218  16.957  -0.735  1.00 20.00     0.001 A 
HETATM    4  C4  UNL     1     -32.896  17.224  -2.257  1.00 20.00     0.007 A 
HETATM    5  C5  UNL     1     -35.003  16.122  -1.832  1.00 20.00     0.007 A 
HETATM    6  C6  UNL     1     -33.841  16.256  -2.591  1.00 20.00    -0.058 A 
ENDROOT
BRANCH   6   7
HETATM    7  C7  UNL     1     -33.612  15.362  -3.764  1.00 20.00     0.039 C 
BRANCH   7   8
HETATM    8  C8  UNL     1     -34.646  14.229  -3.914  1.00 20.00     0.014 C 
BRANCH   8   9
HETATM    9  C9  UNL     1     -35.626  14.482  -5.059  1.00 20.00     0.071 C 
BRANCH   9  10
HETATM   10  S10 UNL     1     -37.328  14.581  -4.433  1.00 20.00    -0.182 SA
HETATM   11  H22 UNL     1     -37.745  13.430  -4.977  1.00 20.00     0.101 HD
ENDBRANCH   9  10
ENDBRANCH   8   9
ENDBRANCH   7   8
ENDBRANCH   6   7
TORSDOF 4
ENDMDL
MODEL 6
REMARK VINA RESULT:      -4.3     11.248     12.102
REMARK  4 active torsions:
REMARK  status: ('A' for Active; 'I' for Inactive)
REMARK    1  A    between atoms: C6_6  and  C7_7 
REMARK    2  A    between atoms: C7_7  and  C8_8 
REMARK    3  A    between atoms: C8_8  and  C9_9 
REMARK    4  A    between atoms: C9_9  and  S10_10 
ROOT
HETATM    1  C1  UNL     1     -34.439  14.480  -4.026  1.00 20.00     0.000 A 
HETATM    2  C2  UNL     1     -33.194  15.105  -4.099  1.00 20.00     0.001 A 
HETATM    3  C3  UNL     1     -35.383  14.916  -3.096  1.00 20.00     0.001 A 
HETATM    4  C4  UNL     1     -32.893  16.163  -3.242  1.00 20.00     0.007 A 
HETATM    5  C5  UNL     1     -35.083  15.974  -2.239  1.00 20.00     0.007 A 
HETATM    6  C6  UNL     1     -33.838  16.598  -2.313  1.00 20.00    -0.058 A 
ENDROOT
BRANCH   6   7
HETATM    7  C7  UNL     1     -33.516  17.729  -1.396  1.00 20.00     0.039 C 
BRANCH   7   8
HETATM    8  C8  UNL     1     -32.122  18.350  -1.614  1.00 20.00     0.014 C 
BRANCH   8   9
HETATM    9  C9  UNL     1     -31.319  18.450  -0.317  1.00 20.00     0.071 C 
BRANCH   9  10
HETATM   10  S10 UNL     1     -32.430  18.610   1.111  1.00 20.00    -0.182 SA
HETATM   11  H22 UNL     1     -31.981  17.528   1.761  1.00 20.00     0.101 HD
ENDBRANCH   9  10
ENDBRANCH   8   9
ENDBRANCH   7   8
ENDBRANCH   6   7
TORSDOF 4
ENDMDL
MODEL 7
REMARK VINA RESULT:      -4.2     11.271     12.202
REMARK  4 active torsions:
REMARK  status: ('A' for Active; 'I' for Inactive)
REMARK    1  A    between atoms: C6_6  and  C7_7 
REMARK    2  A    between atoms: C7_7  and  C8_8 
REMARK    3  A    between atoms: C8_8  and  C9_9 
REMARK    4  A    between atoms: C9_9  and  S10_10 
ROOT
HETATM    1  C1  UNL     1     -34.423  14.470  -4.021  1.00 20.00     0.000 A 
HETATM    2  C2  UNL     1     -35.399  14.898  -3.121  1.00 20.00     0.001 A 
HETATM    3  C3  UNL     1     -33.188  15.116  -4.069  1.00 20.00     0.001 A 
HETATM    4  C4  UNL     1     -35.140  15.972  -2.270  1.00 20.00     0.007 A 
HETATM    5  C5  UNL     1     -32.928  16.190  -3.218  1.00 20.00     0.007 A 
HETATM    6  C6  UNL     1     -33.905  16.617  -2.318  1.00 20.00    -0.058 A 
ENDROOT
BRANCH   6   7
HETATM    7  C7  UNL     1     -33.627  17.766  -1.408  1.00 20.00     0.039 C 
BRANCH   7   8
HETATM    8  C8  UNL     1     -32.137  18.143  -1.293  1.00 20.00     0.014 C 
BRANCH   8   9
HETATM    9  C9  UNL     1     -31.886  19.213  -0.232  1.00 20.00     0.071 C 
BRANCH   9  10
HETATM   10  S10 UNL     1     -30.735  18.602   1.034  1.00 20.00    -0.182 SA
HETATM   11  H22 UNL     1     -31.416  19.078   2.084  1.00 20.00     0.101 HD
ENDBRANCH   9  10
ENDBRANCH   8   9
ENDBRANCH   7   8
ENDBRANCH   6   7
TORSDOF 4
ENDMDL
MODEL 8
REMARK VINA RESULT:      -4.2     11.150     12.039
REMARK  4 active torsions:
REMARK  status: ('A' for Active; 'I' for Inactive)
REMARK    1  A    between atoms: C6_6  and  C7_7 
REMARK    2  A    between atoms: C7_7  and  C8_8 
REMARK    3  A    between atoms: C8_8  and  C9_9 
REMARK    4  A    between atoms: C9_9  and  S10_10 
ROOT
HETATM    1  C1  UNL     1     -33.596  17.450  -1.928  1.00 20.00     0.000 A 
HETATM    2  C2  UNL     1     -34.809  16.859  -1.579  1.00 20.00     0.001 A 
HETATM    3  C3  UNL     1     -32.813  16.891  -2.939  1.00 20.00     0.001 A 
HETATM    4  C4  UNL     1     -35.240  15.709  -2.240  1.00 20.00     0.007 A 
HETATM    5  C5  UNL     1     -33.244  15.741  -3.599  1.00 20.00     0.007 A 
HETATM    6  C6  UNL     1     -34.458  15.150  -3.250  1.00 20.00    -0.058 A 
ENDROOT
BRANCH   6   7
HETATM    7  C7  UNL     1     -34.918  13.920  -3.956  1.00 20.00     0.039 C 
BRANCH   7   8
HETATM    8  C8  UNL     1     -36.146  14.128  -4.865  1.00 20.00     0.014 C 
BRANCH   8   9
HETATM    9  C9  UNL     1     -35.777  14.747  -6.212  1.00 20.00     0.071 C 
BRANCH   9  10
HETATM   10  S10 UNL     1     -36.465  16.422  -6.357  1.00 20.00    -0.182 SA
HETATM   11  H22 UNL     1     -36.055  16.634  -7.614  1.00 20.00     0.101 HD
ENDBRANCH   9  10
ENDBRANCH   8   9
ENDBRANCH   7   8
ENDBRANCH   6   7
TORSDOF 4
ENDMDL
MODEL 9
REMARK VINA RESULT:      -4.1     15.216     15.755
REMARK  4 active torsions:
REMARK  status: ('A' for Active; 'I' for Inactive)
REMARK    1  A    between atoms: C6_6  and  C7_7 
REMARK    2  A    between atoms: C7_7  and  C8_8 
REMARK    3  A    between atoms: C8_8  and  C9_9 
REMARK    4  A    between atoms: C9_9  and  S10_10 
ROOT
HETATM    1  C1  UNL     1     -25.412  16.393  12.219  1.00 20.00     0.000 A 
HETATM    2  C2  UNL     1     -24.475  16.013  11.259  1.00 20.00     0.001 A 
HETATM    3  C3  UNL     1     -25.944  17.683  12.202  1.00 20.00     0.001 A 
HETATM    4  C4  UNL     1     -24.070  16.922  10.282  1.00 20.00     0.007 A 
HETATM    5  C5  UNL     1     -25.539  18.592  11.225  1.00 20.00     0.007 A 
HETATM    6  C6  UNL     1     -24.602  18.210  10.265  1.00 20.00    -0.058 A 
ENDROOT
BRANCH   6   7
HETATM    7  C7  UNL     1     -24.169  19.183   9.220  1.00 20.00     0.039 C 
BRANCH   7   8
HETATM    8  C8  UNL     1     -23.903  18.556   7.837  1.00 20.00     0.014 C 
BRANCH   8   9
HETATM    9  C9  UNL     1     -24.670  19.263   6.719  1.00 20.00     0.071 C 
BRANCH   9  10
HETATM   10  S10 UNL     1     -26.458  19.206   7.036  1.00 20.00    -0.182 SA
HETATM   11  H22 UNL     1     -26.404  18.254   7.977  1.00 20.00     0.101 HD
ENDBRANCH   9  10
ENDBRANCH   8   9
ENDBRANCH   7   8
ENDBRANCH   6   7
TORSDOF 4
ENDMDL
