MODEL 1
REMARK VINA RESULT:      -6.1      0.000      0.000
REMARK  4 active torsions:
REMARK  status: ('A' for Active; 'I' for Inactive)
REMARK    1  A    between atoms: C6_6  and  C7_7 
REMARK    2  A    between atoms: C7_7  and  C8_8 
REMARK    3  A    between atoms: C8_8  and  C9_9 
REMARK    4  A    between atoms: C9_9  and  O10_10 
ROOT
HETATM    1  C1  UNL     1     -34.948   5.128   5.391  1.00 20.00     0.000 A 
HETATM    2  C2  UNL     1     -34.679   4.757   4.073  1.00 20.00     0.001 A 
HETATM    3  C3  UNL     1     -34.336   6.256   5.937  1.00 20.00     0.001 A 
HETATM    4  C4  UNL     1     -33.797   5.513   3.302  1.00 20.00     0.007 A 
HETATM    5  C5  UNL     1     -33.452   7.012   5.166  1.00 20.00     0.007 A 
HETATM    6  C6  UNL     1     -33.184   6.640   3.848  1.00 20.00    -0.058 A 
ENDROOT
BRANCH   6   7
HETATM    7  C7  UNL     1     -32.240   7.450   3.024  1.00 20.00     0.041 C 
BRANCH   7   8
HETATM    8  C8  UNL     1     -32.576   7.383   1.528  1.00 20.00     0.030 C 
BRANCH   8   9
HETATM    9  C9  UNL     1     -32.862   8.758   0.941  1.00 20.00     0.164 C 
BRANCH   9  10
HETATM   10  O10 UNL     1     -33.376   8.599  -0.373  1.00 20.00    -0.401 OA
HETATM   11  H22 UNL     1     -33.001   9.316  -0.910  1.00 20.00     0.209 HD
ENDBRANCH   9  10
ENDBRANCH   8   9
ENDBRANCH   7   8
ENDBRANCH   6   7
TORSDOF 4
ENDMDL
MODEL 2
REMARK VINA RESULT:      -6.1      0.031      1.529
REMARK  4 active torsions:
REMARK  status: ('A' for Active; 'I' for Inactive)
REMARK    1  A    between atoms: C6_6  and  C7_7 
REMARK    2  A    between atoms: C7_7  and  C8_8 
REMARK    3  A    between atoms: C8_8  and  C9_9 
REMARK    4  A    between atoms: C9_9  and  O10_10 
ROOT
HETATM    1  C1  UNL     1     -34.948   5.122   5.406  1.00 20.00     0.000 A 
HETATM    2  C2  UNL     1     -34.332   6.246   5.955  1.00 20.00     0.001 A 
HETATM    3  C3  UNL     1     -34.675   4.750   4.090  1.00 20.00     0.001 A 
HETATM    4  C4  UNL     1     -33.443   7.000   5.189  1.00 20.00     0.007 A 
HETATM    5  C5  UNL     1     -33.786   5.504   3.322  1.00 20.00     0.007 A 
HETATM    6  C6  UNL     1     -33.170   6.628   3.872  1.00 20.00    -0.058 A 
ENDROOT
BRANCH   6   7
HETATM    7  C7  UNL     1     -32.220   7.433   3.051  1.00 20.00     0.041 C 
BRANCH   7   8
HETATM    8  C8  UNL     1     -32.563   7.382   1.555  1.00 20.00     0.030 C 
BRANCH   8   9
HETATM    9  C9  UNL     1     -32.860   8.762   0.986  1.00 20.00     0.164 C 
BRANCH   9  10
HETATM   10  O10 UNL     1     -33.357   8.617  -0.335  1.00 20.00    -0.401 OA
HETATM   11  H22 UNL     1     -33.317   7.670  -0.548  1.00 20.00     0.209 HD
ENDBRANCH   9  10
ENDBRANCH   8   9
ENDBRANCH   7   8
ENDBRANCH   6   7
TORSDOF 4
ENDMDL
MODEL 3
REMARK VINA RESULT:      -5.0     10.579     11.463
REMARK  4 active torsions:
REMARK  status: ('A' for Active; 'I' for Inactive)
REMARK    1  A    between atoms: C6_6  and  C7_7 
REMARK    2  A    between atoms: C7_7  and  C8_8 
REMARK    3  A    between atoms: C8_8  and  C9_9 
REMARK    4  A    between atoms: C9_9  and  O10_10 
ROOT
HETATM    1  C1  UNL     1     -34.011  17.690  -1.064  1.00 20.00     0.000 A 
HETATM    2  C2  UNL     1     -32.921  17.570  -1.927  1.00 20.00     0.001 A 
HETATM    3  C3  UNL     1     -35.104  16.835  -1.200  1.00 20.00     0.001 A 
HETATM    4  C4  UNL     1     -32.925  16.596  -2.926  1.00 20.00     0.007 A 
HETATM    5  C5  UNL     1     -35.110  15.861  -2.199  1.00 20.00     0.007 A 
HETATM    6  C6  UNL     1     -34.019  15.742  -3.061  1.00 20.00    -0.058 A 
ENDROOT
BRANCH   6   7
HETATM    7  C7  UNL     1     -34.025  14.699  -4.129  1.00 20.00     0.041 C 
BRANCH   7   8
HETATM    8  C8  UNL     1     -35.198  13.721  -3.974  1.00 20.00     0.030 C 
BRANCH   8   9
HETATM    9  C9  UNL     1     -36.272  13.940  -5.030  1.00 20.00     0.164 C 
BRANCH   9  10
HETATM   10  O10 UNL     1     -37.541  13.656  -4.459  1.00 20.00    -0.401 OA
HETATM   11  H22 UNL     1     -38.122  13.384  -5.188  1.00 20.00     0.209 HD
ENDBRANCH   9  10
ENDBRANCH   8   9
ENDBRANCH   7   8
ENDBRANCH   6   7
TORSDOF 4
ENDMDL
MODEL 4
REMARK VINA RESULT:      -5.0     10.581     11.460
REMARK  4 active torsions:
REMARK  status: ('A' for Active; 'I' for Inactive)
REMARK    1  A    between atoms: C6_6  and  C7_7 
REMARK    2  A    between atoms: C7_7  and  C8_8 
REMARK    3  A    between atoms: C8_8  and  C9_9 
REMARK    4  A    between atoms: C9_9  and  O10_10 
ROOT
HETATM    1  C1  UNL     1     -34.003  17.690  -1.093  1.00 20.00     0.000 A 
HETATM    2  C2  UNL     1     -35.097  16.834  -1.217  1.00 20.00     0.001 A 
HETATM    3  C3  UNL     1     -32.919  17.566  -1.961  1.00 20.00     0.001 A 
HETATM    4  C4  UNL     1     -35.106  15.853  -2.209  1.00 20.00     0.007 A 
HETATM    5  C5  UNL     1     -32.927  16.585  -2.953  1.00 20.00     0.007 A 
HETATM    6  C6  UNL     1     -34.021  15.729  -3.076  1.00 20.00    -0.058 A 
ENDROOT
BRANCH   6   7
HETATM    7  C7  UNL     1     -34.030  14.680  -4.137  1.00 20.00     0.041 C 
BRANCH   7   8
HETATM    8  C8  UNL     1     -35.210  13.711  -3.982  1.00 20.00     0.030 C 
BRANCH   8   9
HETATM    9  C9  UNL     1     -36.286  13.942  -5.034  1.00 20.00     0.164 C 
BRANCH   9  10
HETATM   10  O10 UNL     1     -37.555  13.662  -4.462  1.00 20.00    -0.401 OA
HETATM   11  H22 UNL     1     -38.060  14.492  -4.478  1.00 20.00     0.209 HD
ENDBRANCH   9  10
ENDBRANCH   8   9
ENDBRANCH   7   8
ENDBRANCH   6   7
TORSDOF 4
ENDMDL
MODEL 5
REMARK VINA RESULT:      -4.9     10.970     11.729
REMARK  4 active torsions:
REMARK  status: ('A' for Active; 'I' for Inactive)
REMARK    1  A    between atoms: C6_6  and  C7_7 
REMARK    2  A    between atoms: C7_7  and  C8_8 
REMARK    3  A    between atoms: C8_8  and  C9_9 
REMARK    4  A    between atoms: C9_9  and  O10_10 
ROOT
HETATM    1  C1  UNL     1     -33.925  17.654  -1.321  1.00 20.00     0.000 A 
HETATM    2  C2  UNL     1     -35.063  16.847  -1.331  1.00 20.00     0.001 A 
HETATM    3  C3  UNL     1     -32.886  17.405  -2.218  1.00 20.00     0.001 A 
HETATM    4  C4  UNL     1     -35.162  15.792  -2.237  1.00 20.00     0.007 A 
HETATM    5  C5  UNL     1     -32.985  16.349  -3.125  1.00 20.00     0.007 A 
HETATM    6  C6  UNL     1     -34.123  15.543  -3.134  1.00 20.00    -0.058 A 
ENDROOT
BRANCH   6   7
HETATM    7  C7  UNL     1     -34.228  14.415  -4.104  1.00 20.00     0.041 C 
BRANCH   7   8
HETATM    8  C8  UNL     1     -35.152  14.750  -5.283  1.00 20.00     0.030 C 
BRANCH   8   9
HETATM    9  C9  UNL     1     -34.374  15.058  -6.554  1.00 20.00     0.164 C 
BRANCH   9  10
HETATM   10  O10 UNL     1     -33.045  14.583  -6.405  1.00 20.00    -0.401 OA
HETATM   11  H22 UNL     1     -32.568  14.823  -7.216  1.00 20.00     0.209 HD
ENDBRANCH   9  10
ENDBRANCH   8   9
ENDBRANCH   7   8
ENDBRANCH   6   7
TORSDOF 4
ENDMDL
MODEL 6
REMARK VINA RESULT:      -4.9     10.982     11.757
REMARK  4 active torsions:
REMARK  status: ('A' for Active; 'I' for Inactive)
REMARK    1  A    between atoms: C6_6  and  C7_7 
REMARK    2  A    between atoms: C7_7  and  C8_8 
REMARK    3  A    between atoms: C8_8  and  C9_9 
REMARK    4  A    between atoms: C9_9  and  O10_10 
ROOT
HETATM    1  C1  UNL     1     -33.897  17.627  -1.382  1.00 20.00     0.000 A 
HETATM    2  C2  UNL     1     -32.882  17.374  -2.305  1.00 20.00     0.001 A 
HETATM    3  C3  UNL     1     -35.036  16.823  -1.360  1.00 20.00     0.001 A 
HETATM    4  C4  UNL     1     -33.007  16.317  -3.207  1.00 20.00     0.007 A 
HETATM    5  C5  UNL     1     -35.162  15.766  -2.262  1.00 20.00     0.007 A 
HETATM    6  C6  UNL     1     -34.147  15.514  -3.185  1.00 20.00    -0.058 A 
ENDROOT
BRANCH   6   7
HETATM    7  C7  UNL     1     -34.282  14.383  -4.149  1.00 20.00     0.041 C 
BRANCH   7   8
HETATM    8  C8  UNL     1     -35.170  14.748  -5.346  1.00 20.00     0.030 C 
BRANCH   8   9
HETATM    9  C9  UNL     1     -34.362  15.284  -6.520  1.00 20.00     0.164 C 
BRANCH   9  10
HETATM   10  O10 UNL     1     -33.181  14.509  -6.656  1.00 20.00    -0.401 OA
HETATM   11  H22 UNL     1     -32.494  14.948  -6.129  1.00 20.00     0.209 HD
ENDBRANCH   9  10
ENDBRANCH   8   9
ENDBRANCH   7   8
ENDBRANCH   6   7
TORSDOF 4
ENDMDL
MODEL 7
REMARK VINA RESULT:      -4.7     11.114     11.864
REMARK  4 active torsions:
REMARK  status: ('A' for Active; 'I' for Inactive)
REMARK    1  A    between atoms: C6_6  and  C7_7 
REMARK    2  A    between atoms: C7_7  and  C8_8 
REMARK    3  A    between atoms: C8_8  and  C9_9 
REMARK    4  A    between atoms: C9_9  and  O10_10 
ROOT
HETATM    1  C1  UNL     1     -34.506  14.419  -4.137  1.00 20.00     0.000 A 
HETATM    2  C2  UNL     1     -33.239  15.003  -4.133  1.00 20.00     0.001 A 
HETATM    3  C3  UNL     1     -35.488  14.877  -3.259  1.00 20.00     0.001 A 
HETATM    4  C4  UNL     1     -32.954  16.045  -3.251  1.00 20.00     0.007 A 
HETATM    5  C5  UNL     1     -35.203  15.918  -2.375  1.00 20.00     0.007 A 
HETATM    6  C6  UNL     1     -33.936  16.502  -2.372  1.00 20.00    -0.058 A 
ENDROOT
BRANCH   6   7
HETATM    7  C7  UNL     1     -33.633  17.617  -1.427  1.00 20.00     0.041 C 
BRANCH   7   8
HETATM    8  C8  UNL     1     -32.315  18.323  -1.772  1.00 20.00     0.030 C 
BRANCH   8   9
HETATM    9  C9  UNL     1     -31.632  18.899  -0.539  1.00 20.00     0.164 C 
BRANCH   9  10
HETATM   10  O10 UNL     1     -30.358  18.289  -0.393  1.00 20.00    -0.401 OA
HETATM   11  H22 UNL     1     -29.720  18.856  -0.856  1.00 20.00     0.209 HD
ENDBRANCH   9  10
ENDBRANCH   8   9
ENDBRANCH   7   8
ENDBRANCH   6   7
TORSDOF 4
ENDMDL
MODEL 8
REMARK VINA RESULT:      -4.4     10.988     11.546
REMARK  4 active torsions:
REMARK  status: ('A' for Active; 'I' for Inactive)
REMARK    1  A    between atoms: C6_6  and  C7_7 
REMARK    2  A    between atoms: C7_7  and  C8_8 
REMARK    3  A    between atoms: C8_8  and  C9_9 
REMARK    4  A    between atoms: C9_9  and  O10_10 
ROOT
HETATM    1  C1  UNL     1     -34.383  18.082   0.578  1.00 20.00     0.000 A 
HETATM    2  C2  UNL     1     -33.150  18.434   0.027  1.00 20.00     0.001 A 
HETATM    3  C3  UNL     1     -35.242  17.234  -0.120  1.00 20.00     0.001 A 
HETATM    4  C4  UNL     1     -32.777  17.936  -1.222  1.00 20.00     0.007 A 
HETATM    5  C5  UNL     1     -34.870  16.737  -1.369  1.00 20.00     0.007 A 
HETATM    6  C6  UNL     1     -33.637  17.089  -1.919  1.00 20.00    -0.058 A 
ENDROOT
BRANCH   6   7
HETATM    7  C7  UNL     1     -33.240  16.556  -3.255  1.00 20.00     0.041 C 
BRANCH   7   8
HETATM    8  C8  UNL     1     -33.907  15.208  -3.562  1.00 20.00     0.030 C 
BRANCH   8   9
HETATM    9  C9  UNL     1     -33.375  14.581  -4.842  1.00 20.00     0.164 C 
BRANCH   9  10
HETATM   10  O10 UNL     1     -32.704  13.373  -4.516  1.00 20.00    -0.401 OA
HETATM   11  H22 UNL     1     -32.792  12.786  -5.285  1.00 20.00     0.209 HD
ENDBRANCH   9  10
ENDBRANCH   8   9
ENDBRANCH   7   8
ENDBRANCH   6   7
TORSDOF 4
ENDMDL
MODEL 9
REMARK VINA RESULT:      -4.2     10.941     11.634
REMARK  4 active torsions:
REMARK  status: ('A' for Active; 'I' for Inactive)
REMARK    1  A    between atoms: C6_6  and  C7_7 
REMARK    2  A    between atoms: C7_7  and  C8_8 
REMARK    3  A    between atoms: C8_8  and  C9_9 
REMARK    4  A    between atoms: C9_9  and  O10_10 
ROOT
HETATM    1  C1  UNL     1     -33.459  14.764  -4.328  1.00 20.00     0.000 A 
HETATM    2  C2  UNL     1     -32.775  15.769  -3.644  1.00 20.00     0.001 A 
HETATM    3  C3  UNL     1     -34.759  14.426  -3.953  1.00 20.00     0.001 A 
HETATM    4  C4  UNL     1     -33.391  16.435  -2.584  1.00 20.00     0.007 A 
HETATM    5  C5  UNL     1     -35.375  15.091  -2.892  1.00 20.00     0.007 A 
HETATM    6  C6  UNL     1     -34.690  16.096  -2.209  1.00 20.00    -0.058 A 
ENDROOT
BRANCH   6   7
HETATM    7  C7  UNL     1     -35.350  16.808  -1.076  1.00 20.00     0.041 C 
BRANCH   7   8
HETATM    8  C8  UNL     1     -34.457  17.910  -0.488  1.00 20.00     0.030 C 
BRANCH   8   9
HETATM    9  C9  UNL     1     -34.415  17.865   1.033  1.00 20.00     0.164 C 
BRANCH   9  10
HETATM   10  O10 UNL     1     -35.525  17.114   1.501  1.00 20.00    -0.401 OA
HETATM   11  H22 UNL     1     -36.102  16.958   0.735  1.00 20.00     0.209 HD
ENDBRANCH   9  10
ENDBRANCH   8   9
ENDBRANCH   7   8
ENDBRANCH   6   7
TORSDOF 4
ENDMDL
