MODEL 1
REMARK VINA RESULT:      -5.2      0.000      0.000
REMARK  2 active torsions:
REMARK  status: ('A' for Active; 'I' for Inactive)
REMARK    1  A    between atoms: C5_5  and  N8_8 
REMARK    2  A    between atoms: C6_6  and  S11_11 
ROOT
HETATM    1  C1  UNL     1     -34.045  14.676  -4.116  1.00 20.00     0.037 A 
HETATM    2  C2  UNL     1     -35.881  15.592  -2.840  1.00 20.00     0.037 A 
HETATM    3  C3  UNL     1     -33.195  15.648  -3.592  1.00 20.00     0.021 A 
HETATM    4  C4  UNL     1     -35.029  16.565  -2.316  1.00 20.00     0.021 A 
HETATM    5  C5  UNL     1     -35.388  14.647  -3.741  1.00 20.00     0.102 A 
HETATM    6  C6  UNL     1     -33.687  16.594  -2.692  1.00 20.00    -0.000 A 
ENDROOT
BRANCH   5   7
HETATM    7  N8  UNL     1     -36.254  13.655  -4.274  1.00 20.00    -0.116 N 
HETATM    8  O9  UNL     1     -37.453  13.951  -4.496  1.00 20.00    -0.532 OA
HETATM    9  O10 UNL     1     -35.796  12.511  -4.508  1.00 20.00    -0.532 OA
ENDBRANCH   5   7
BRANCH   6  10
HETATM   10  S11 UNL     1     -32.599  17.836  -2.022  1.00 20.00    -0.134 SA
HETATM   11  C7  UNL     1     -33.495  18.234  -0.504  1.00 20.00     0.095 C 
ENDBRANCH   6  10
TORSDOF 2
ENDMDL
MODEL 2
REMARK VINA RESULT:      -5.2      0.030      1.457
REMARK  2 active torsions:
REMARK  status: ('A' for Active; 'I' for Inactive)
REMARK    1  A    between atoms: C5_5  and  N8_8 
REMARK    2  A    between atoms: C6_6  and  S11_11 
ROOT
HETATM    1  C1  UNL     1     -35.904  15.614  -2.874  1.00 20.00     0.037 A 
HETATM    2  C2  UNL     1     -34.055  14.659  -4.102  1.00 20.00     0.037 A 
HETATM    3  C3  UNL     1     -35.055  16.591  -2.356  1.00 20.00     0.021 A 
HETATM    4  C4  UNL     1     -33.206  15.638  -3.583  1.00 20.00     0.021 A 
HETATM    5  C5  UNL     1     -35.404  14.647  -3.747  1.00 20.00     0.102 A 
HETATM    6  C6  UNL     1     -33.706  16.603  -2.709  1.00 20.00    -0.000 A 
ENDROOT
BRANCH   5   7
HETATM    7  N8  UNL     1     -36.269  13.652  -4.276  1.00 20.00    -0.116 N 
HETATM    8  O9  UNL     1     -37.471  13.942  -4.487  1.00 20.00    -0.532 OA
HETATM    9  O10 UNL     1     -35.806  12.511  -4.517  1.00 20.00    -0.532 OA
ENDBRANCH   5   7
BRANCH   6  10
HETATM   10  S11 UNL     1     -32.623  17.853  -2.046  1.00 20.00    -0.134 SA
HETATM   11  C7  UNL     1     -33.485  18.210  -0.499  1.00 20.00     0.095 C 
ENDBRANCH   6  10
TORSDOF 2
ENDMDL
MODEL 3
REMARK VINA RESULT:      -4.8     16.686     17.254
REMARK  2 active torsions:
REMARK  status: ('A' for Active; 'I' for Inactive)
REMARK    1  A    between atoms: C5_5  and  N8_8 
REMARK    2  A    between atoms: C6_6  and  S11_11 
ROOT
HETATM    1  C1  UNL     1     -23.465  17.028  10.073  1.00 20.00     0.037 A 
HETATM    2  C2  UNL     1     -23.956  18.847   8.561  1.00 20.00     0.037 A 
HETATM    3  C3  UNL     1     -24.500  17.443  10.910  1.00 20.00     0.021 A 
HETATM    4  C4  UNL     1     -24.992  19.263   9.399  1.00 20.00     0.021 A 
HETATM    5  C5  UNL     1     -23.193  17.729   8.899  1.00 20.00     0.102 A 
HETATM    6  C6  UNL     1     -25.263  18.561  10.574  1.00 20.00    -0.000 A 
ENDROOT
BRANCH   5   7
HETATM    7  N8  UNL     1     -22.140  17.305   8.045  1.00 20.00    -0.116 N 
HETATM    8  O9  UNL     1     -22.075  17.770   6.882  1.00 20.00    -0.532 OA
HETATM    9  O10 UNL     1     -21.304  16.476   8.479  1.00 20.00    -0.532 OA
ENDBRANCH   5   7
BRANCH   6  10
HETATM   10  S11 UNL     1     -26.585  19.092  11.644  1.00 20.00    -0.134 SA
HETATM   11  C7  UNL     1     -27.080  17.494  12.328  1.00 20.00     0.095 C 
ENDBRANCH   6  10
TORSDOF 2
ENDMDL
MODEL 4
REMARK VINA RESULT:      -4.7      1.577      2.317
REMARK  2 active torsions:
REMARK  status: ('A' for Active; 'I' for Inactive)
REMARK    1  A    between atoms: C5_5  and  N8_8 
REMARK    2  A    between atoms: C6_6  and  S11_11 
ROOT
HETATM    1  C1  UNL     1     -35.220  15.565  -2.504  1.00 20.00     0.037 A 
HETATM    2  C2  UNL     1     -33.029  16.109  -3.365  1.00 20.00     0.037 A 
HETATM    3  C3  UNL     1     -35.108  16.593  -1.569  1.00 20.00     0.021 A 
HETATM    4  C4  UNL     1     -32.917  17.137  -2.429  1.00 20.00     0.021 A 
HETATM    5  C5  UNL     1     -34.181  15.322  -3.402  1.00 20.00     0.102 A 
HETATM    6  C6  UNL     1     -33.957  17.379  -1.530  1.00 20.00    -0.000 A 
ENDROOT
BRANCH   5   7
HETATM    7  N8  UNL     1     -34.295  14.276  -4.356  1.00 20.00    -0.116 N 
HETATM    8  O9  UNL     1     -34.827  13.194  -4.010  1.00 20.00    -0.532 OA
HETATM    9  O10 UNL     1     -33.861  14.463  -5.518  1.00 20.00    -0.532 OA
ENDBRANCH   5   7
BRANCH   6  10
HETATM   10  S11 UNL     1     -33.814  18.692  -0.335  1.00 20.00    -0.134 SA
HETATM   11  C7  UNL     1     -32.025  18.679  -0.084  1.00 20.00     0.095 C 
ENDBRANCH   6  10
TORSDOF 2
ENDMDL
MODEL 5
REMARK VINA RESULT:      -4.7      1.638      1.972
REMARK  2 active torsions:
REMARK  status: ('A' for Active; 'I' for Inactive)
REMARK    1  A    between atoms: C5_5  and  N8_8 
REMARK    2  A    between atoms: C6_6  and  S11_11 
ROOT
HETATM    1  C1  UNL     1     -33.029  16.129  -3.362  1.00 20.00     0.037 A 
HETATM    2  C2  UNL     1     -35.209  15.531  -2.511  1.00 20.00     0.037 A 
HETATM    3  C3  UNL     1     -32.946  17.160  -2.426  1.00 20.00     0.021 A 
HETATM    4  C4  UNL     1     -35.125  16.563  -1.574  1.00 20.00     0.021 A 
HETATM    5  C5  UNL     1     -34.161  15.315  -3.405  1.00 20.00     0.102 A 
HETATM    6  C6  UNL     1     -33.994  17.377  -1.532  1.00 20.00    -0.000 A 
ENDROOT
BRANCH   5   7
HETATM    7  N8  UNL     1     -34.245  14.265  -4.358  1.00 20.00    -0.116 N 
HETATM    8  O9  UNL     1     -34.853  13.212  -4.049  1.00 20.00    -0.532 OA
HETATM    9  O10 UNL     1     -33.709  14.420  -5.481  1.00 20.00    -0.532 OA
ENDBRANCH   5   7
BRANCH   6  10
HETATM   10  S11 UNL     1     -33.886  18.693  -0.336  1.00 20.00    -0.134 SA
HETATM   11  C7  UNL     1     -34.666  17.881   1.077  1.00 20.00     0.095 C 
ENDBRANCH   6  10
TORSDOF 2
ENDMDL
MODEL 6
REMARK VINA RESULT:      -4.3      4.286      5.144
REMARK  2 active torsions:
REMARK  status: ('A' for Active; 'I' for Inactive)
REMARK    1  A    between atoms: C5_5  and  N8_8 
REMARK    2  A    between atoms: C6_6  and  S11_11 
ROOT
HETATM    1  C1  UNL     1     -34.662  16.798  -1.632  1.00 20.00     0.037 A 
HETATM    2  C2  UNL     1     -32.818  16.484  -3.161  1.00 20.00     0.037 A 
HETATM    3  C3  UNL     1     -35.401  15.841  -2.327  1.00 20.00     0.021 A 
HETATM    4  C4  UNL     1     -33.558  15.527  -3.856  1.00 20.00     0.021 A 
HETATM    5  C5  UNL     1     -33.371  17.120  -2.049  1.00 20.00     0.102 A 
HETATM    6  C6  UNL     1     -34.850  15.206  -3.439  1.00 20.00    -0.000 A 
ENDROOT
BRANCH   5   7
HETATM    7  N8  UNL     1     -32.617  18.094  -1.340  1.00 20.00    -0.116 N 
HETATM    8  O9  UNL     1     -32.814  18.238  -0.110  1.00 20.00    -0.532 OA
HETATM    9  O10 UNL     1     -31.776  18.783  -1.966  1.00 20.00    -0.532 OA
ENDBRANCH   5   7
BRANCH   6  10
HETATM   10  S11 UNL     1     -35.795  13.983  -4.326  1.00 20.00    -0.134 SA
HETATM   11  C7  UNL     1     -35.624  14.630  -6.005  1.00 20.00     0.095 C 
ENDBRANCH   6  10
TORSDOF 2
ENDMDL
MODEL 7
REMARK VINA RESULT:      -4.3      4.291      4.946
REMARK  2 active torsions:
REMARK  status: ('A' for Active; 'I' for Inactive)
REMARK    1  A    between atoms: C5_5  and  N8_8 
REMARK    2  A    between atoms: C6_6  and  S11_11 
ROOT
HETATM    1  C1  UNL     1     -32.824  16.515  -3.155  1.00 20.00     0.037 A 
HETATM    2  C2  UNL     1     -34.659  16.801  -1.609  1.00 20.00     0.037 A 
HETATM    3  C3  UNL     1     -33.563  15.561  -3.855  1.00 20.00     0.021 A 
HETATM    4  C4  UNL     1     -35.397  15.846  -2.310  1.00 20.00     0.021 A 
HETATM    5  C5  UNL     1     -33.372  17.134  -2.032  1.00 20.00     0.102 A 
HETATM    6  C6  UNL     1     -34.849  15.226  -3.433  1.00 20.00    -0.000 A 
ENDROOT
BRANCH   5   7
HETATM    7  N8  UNL     1     -32.621  18.107  -1.319  1.00 20.00    -0.116 N 
HETATM    8  O9  UNL     1     -32.841  18.268  -0.095  1.00 20.00    -0.532 OA
HETATM    9  O10 UNL     1     -31.758  18.778  -1.935  1.00 20.00    -0.532 OA
ENDBRANCH   5   7
BRANCH   6  10
HETATM   10  S11 UNL     1     -35.791  14.008  -4.328  1.00 20.00    -0.134 SA
HETATM   11  C7  UNL     1     -35.549  14.617  -6.012  1.00 20.00     0.095 C 
ENDBRANCH   6  10
TORSDOF 2
ENDMDL
MODEL 8
REMARK VINA RESULT:      -4.0      2.061      2.497
REMARK  2 active torsions:
REMARK  status: ('A' for Active; 'I' for Inactive)
REMARK    1  A    between atoms: C5_5  and  N8_8 
REMARK    2  A    between atoms: C6_6  and  S11_11 
ROOT
HETATM    1  C1  UNL     1     -36.451  16.230  -4.333  1.00 20.00     0.037 A 
HETATM    2  C2  UNL     1     -34.535  15.344  -3.160  1.00 20.00     0.037 A 
HETATM    3  C3  UNL     1     -36.717  17.079  -3.259  1.00 20.00     0.021 A 
HETATM    4  C4  UNL     1     -34.801  16.193  -2.085  1.00 20.00     0.021 A 
HETATM    5  C5  UNL     1     -35.361  15.362  -4.284  1.00 20.00     0.102 A 
HETATM    6  C6  UNL     1     -35.892  17.061  -2.135  1.00 20.00    -0.000 A 
ENDROOT
BRANCH   5   7
HETATM    7  N8  UNL     1     -35.090  14.499  -5.378  1.00 20.00    -0.116 N 
HETATM    8  O9  UNL     1     -36.025  13.816  -5.860  1.00 20.00    -0.532 OA
HETATM    9  O10 UNL     1     -33.921  14.442  -5.832  1.00 20.00    -0.532 OA
ENDBRANCH   5   7
BRANCH   6  10
HETATM   10  S11 UNL     1     -36.232  18.146  -0.763  1.00 20.00    -0.134 SA
HETATM   11  C7  UNL     1     -35.497  17.179   0.575  1.00 20.00     0.095 C 
ENDBRANCH   6  10
TORSDOF 2
ENDMDL
MODEL 9
REMARK VINA RESULT:      -4.0      4.230      5.104
REMARK  2 active torsions:
REMARK  status: ('A' for Active; 'I' for Inactive)
REMARK    1  A    between atoms: C5_5  and  N8_8 
REMARK    2  A    between atoms: C6_6  and  S11_11 
ROOT
HETATM    1  C1  UNL     1     -35.137  16.718  -1.277  1.00 20.00     0.037 A 
HETATM    2  C2  UNL     1     -32.940  17.448  -1.966  1.00 20.00     0.037 A 
HETATM    3  C3  UNL     1     -35.175  15.823  -2.346  1.00 20.00     0.021 A 
HETATM    4  C4  UNL     1     -32.979  16.552  -3.036  1.00 20.00     0.021 A 
HETATM    5  C5  UNL     1     -34.020  17.531  -1.088  1.00 20.00     0.102 A 
HETATM    6  C6  UNL     1     -34.097  15.740  -3.226  1.00 20.00    -0.000 A 
ENDROOT
BRANCH   5   7
HETATM    7  N8  UNL     1     -33.981  18.442   0.002  1.00 20.00    -0.116 N 
HETATM    8  O9  UNL     1     -35.034  19.034   0.337  1.00 20.00    -0.532 OA
HETATM    9  O10 UNL     1     -32.893  18.630   0.597  1.00 20.00    -0.532 OA
ENDBRANCH   5   7
BRANCH   6  10
HETATM   10  S11 UNL     1     -34.146  14.596  -4.591  1.00 20.00    -0.134 SA
HETATM   11  C7  UNL     1     -35.772  13.859  -4.308  1.00 20.00     0.095 C 
ENDBRANCH   6  10
TORSDOF 2
ENDMDL
