MODEL 1
REMARK VINA RESULT:      -5.6      0.000      0.000
REMARK  1 active torsions:
REMARK  status: ('A' for Active; 'I' for Inactive)
REMARK    1  A    between atoms: C6_6  and  C9_9 
ROOT
HETATM    1  C1  UNL     1     -33.589   6.896   5.098  1.00 20.00     0.007 A 
HETATM    2  C2  UNL     1     -34.247   5.034   3.707  1.00 20.00     0.007 A 
HETATM    3  C3  UNL     1     -32.884   7.447   4.028  1.00 20.00     0.007 A 
HETATM    4  C4  UNL     1     -33.542   5.584   2.636  1.00 20.00     0.007 A 
HETATM    5  C5  UNL     1     -34.270   5.689   4.938  1.00 20.00    -0.062 A 
HETATM    6  C6  UNL     1     -32.861   6.791   2.797  1.00 20.00    -0.059 A 
HETATM    7  C7  UNL     1     -35.024   5.100   6.081  1.00 20.00     0.048 C 
ENDROOT
BRANCH   6   8
HETATM    8  C9  UNL     1     -32.108   7.382   1.653  1.00 20.00     0.034 C 
HETATM    9  C8  UNL     1     -32.894   8.486   0.950  1.00 20.00     0.010 C 
ENDBRANCH   6   8
TORSDOF 1
ENDMDL
MODEL 2
REMARK VINA RESULT:      -4.6     11.109     12.049
REMARK  1 active torsions:
REMARK  status: ('A' for Active; 'I' for Inactive)
REMARK    1  A    between atoms: C6_6  and  C9_9 
ROOT
HETATM    1  C1  UNL     1     -33.209  15.949  -3.411  1.00 20.00     0.007 A 
HETATM    2  C2  UNL     1     -35.201  15.968  -2.044  1.00 20.00     0.007 A 
HETATM    3  C3  UNL     1     -32.681  16.995  -2.656  1.00 20.00     0.007 A 
HETATM    4  C4  UNL     1     -34.672  17.015  -1.288  1.00 20.00     0.007 A 
HETATM    5  C5  UNL     1     -34.470  15.435  -3.105  1.00 20.00    -0.062 A 
HETATM    6  C6  UNL     1     -33.412  17.528  -1.594  1.00 20.00    -0.059 A 
HETATM    7  C7  UNL     1     -35.036  14.317  -3.912  1.00 20.00     0.048 C 
ENDROOT
BRANCH   6   8
HETATM    8  C9  UNL     1     -32.844  18.647  -0.787  1.00 20.00     0.034 C 
HETATM    9  C8  UNL     1     -31.383  18.408  -0.412  1.00 20.00     0.010 C 
ENDBRANCH   6   8
TORSDOF 1
ENDMDL
MODEL 3
REMARK VINA RESULT:      -4.6     11.116     12.059
REMARK  1 active torsions:
REMARK  status: ('A' for Active; 'I' for Inactive)
REMARK    1  A    between atoms: C6_6  and  C9_9 
ROOT
HETATM    1  C1  UNL     1     -35.175  16.019  -1.988  1.00 20.00     0.007 A 
HETATM    2  C2  UNL     1     -33.220  15.991  -3.405  1.00 20.00     0.007 A 
HETATM    3  C3  UNL     1     -34.623  17.063  -1.246  1.00 20.00     0.007 A 
HETATM    4  C4  UNL     1     -32.667  17.036  -2.664  1.00 20.00     0.007 A 
HETATM    5  C5  UNL     1     -34.474  15.483  -3.067  1.00 20.00    -0.062 A 
HETATM    6  C6  UNL     1     -33.369  17.572  -1.584  1.00 20.00    -0.059 A 
HETATM    7  C7  UNL     1     -35.063  14.367  -3.861  1.00 20.00     0.048 C 
ENDROOT
BRANCH   6   8
HETATM    8  C9  UNL     1     -32.780  18.689  -0.791  1.00 20.00     0.034 C 
HETATM    9  C8  UNL     1     -31.327  18.422  -0.403  1.00 20.00     0.010 C 
ENDBRANCH   6   8
TORSDOF 1
ENDMDL
MODEL 4
REMARK VINA RESULT:      -4.6     10.964     11.856
REMARK  1 active torsions:
REMARK  status: ('A' for Active; 'I' for Inactive)
REMARK    1  A    between atoms: C6_6  and  C9_9 
ROOT
HETATM    1  C1  UNL     1     -35.125  16.813  -1.234  1.00 20.00     0.007 A 
HETATM    2  C2  UNL     1     -32.924  17.490  -1.966  1.00 20.00     0.007 A 
HETATM    3  C3  UNL     1     -35.162  15.847  -2.239  1.00 20.00     0.007 A 
HETATM    4  C4  UNL     1     -32.961  16.524  -2.971  1.00 20.00     0.007 A 
HETATM    5  C5  UNL     1     -34.006  17.635  -1.097  1.00 20.00    -0.062 A 
HETATM    6  C6  UNL     1     -34.080  15.702  -3.108  1.00 20.00    -0.059 A 
HETATM    7  C7  UNL     1     -33.965  18.668  -0.022  1.00 20.00     0.048 C 
ENDROOT
BRANCH   6   8
HETATM    8  C9  UNL     1     -34.121  14.668  -4.182  1.00 20.00     0.034 C 
HETATM    9  C8  UNL     1     -35.380  13.807  -4.110  1.00 20.00     0.010 C 
ENDBRANCH   6   8
TORSDOF 1
ENDMDL
MODEL 5
REMARK VINA RESULT:      -4.6     10.949     11.823
REMARK  1 active torsions:
REMARK  status: ('A' for Active; 'I' for Inactive)
REMARK    1  A    between atoms: C6_6  and  C9_9 
ROOT
HETATM    1  C1  UNL     1     -32.927  17.541  -1.910  1.00 20.00     0.007 A 
HETATM    2  C2  UNL     1     -35.115  16.816  -1.186  1.00 20.00     0.007 A 
HETATM    3  C3  UNL     1     -32.948  16.587  -2.927  1.00 20.00     0.007 A 
HETATM    4  C4  UNL     1     -35.137  15.863  -2.203  1.00 20.00     0.007 A 
HETATM    5  C5  UNL     1     -34.011  17.656  -1.039  1.00 20.00    -0.062 A 
HETATM    6  C6  UNL     1     -34.053  15.748  -3.074  1.00 20.00    -0.059 A 
HETATM    7  C7  UNL     1     -33.989  18.675   0.050  1.00 20.00     0.048 C 
ENDROOT
BRANCH   6   8
HETATM    8  C9  UNL     1     -34.074  14.730  -4.164  1.00 20.00     0.034 C 
HETATM    9  C8  UNL     1     -35.303  13.826  -4.089  1.00 20.00     0.010 C 
ENDBRANCH   6   8
TORSDOF 1
ENDMDL
MODEL 6
REMARK VINA RESULT:      -4.6     11.165     11.848
REMARK  1 active torsions:
REMARK  status: ('A' for Active; 'I' for Inactive)
REMARK    1  A    between atoms: C6_6  and  C9_9 
ROOT
HETATM    1  C1  UNL     1     -34.677  16.661  -1.912  1.00 20.00     0.007 A 
HETATM    2  C2  UNL     1     -32.791  16.142  -3.330  1.00 20.00     0.007 A 
HETATM    3  C3  UNL     1     -35.431  15.679  -2.555  1.00 20.00     0.007 A 
HETATM    4  C4  UNL     1     -33.544  15.159  -3.972  1.00 20.00     0.007 A 
HETATM    5  C5  UNL     1     -33.357  16.893  -2.300  1.00 20.00    -0.062 A 
HETATM    6  C6  UNL     1     -34.864  14.928  -3.585  1.00 20.00    -0.059 A 
HETATM    7  C7  UNL     1     -32.551  17.943  -1.614  1.00 20.00     0.048 C 
ENDROOT
BRANCH   6   8
HETATM    8  C9  UNL     1     -35.671  13.877  -4.270  1.00 20.00     0.034 C 
HETATM    9  C8  UNL     1     -37.145  14.260  -4.386  1.00 20.00     0.010 C 
ENDBRANCH   6   8
TORSDOF 1
ENDMDL
MODEL 7
REMARK VINA RESULT:      -4.5      0.808      3.925
REMARK  1 active torsions:
REMARK  status: ('A' for Active; 'I' for Inactive)
REMARK    1  A    between atoms: C6_6  and  C9_9 
ROOT
HETATM    1  C1  UNL     1     -33.027   7.578   3.309  1.00 20.00     0.007 A 
HETATM    2  C2  UNL     1     -32.997   5.741   1.741  1.00 20.00     0.007 A 
HETATM    3  C3  UNL     1     -33.715   6.784   4.226  1.00 20.00     0.007 A 
HETATM    4  C4  UNL     1     -33.685   4.946   2.658  1.00 20.00     0.007 A 
HETATM    5  C5  UNL     1     -32.668   7.057   2.066  1.00 20.00    -0.062 A 
HETATM    6  C6  UNL     1     -34.044   5.468   3.901  1.00 20.00    -0.059 A 
HETATM    7  C7  UNL     1     -31.932   7.905   1.085  1.00 20.00     0.048 C 
ENDROOT
BRANCH   6   8
HETATM    8  C9  UNL     1     -34.778   4.620   4.884  1.00 20.00     0.034 C 
HETATM    9  C8  UNL     1     -34.842   5.259   6.269  1.00 20.00     0.010 C 
ENDBRANCH   6   8
TORSDOF 1
ENDMDL
MODEL 8
REMARK VINA RESULT:      -4.4     11.219     12.130
REMARK  1 active torsions:
REMARK  status: ('A' for Active; 'I' for Inactive)
REMARK    1  A    between atoms: C6_6  and  C9_9 
ROOT
HETATM    1  C1  UNL     1     -35.116  15.789  -2.258  1.00 20.00     0.007 A 
HETATM    2  C2  UNL     1     -32.931  16.544  -2.960  1.00 20.00     0.007 A 
HETATM    3  C3  UNL     1     -35.141  16.777  -1.275  1.00 20.00     0.007 A 
HETATM    4  C4  UNL     1     -32.957  17.534  -1.977  1.00 20.00     0.007 A 
HETATM    5  C5  UNL     1     -34.010  15.672  -3.101  1.00 20.00    -0.062 A 
HETATM    6  C6  UNL     1     -34.062  17.650  -1.134  1.00 20.00    -0.059 A 
HETATM    7  C7  UNL     1     -33.982  14.616  -4.153  1.00 20.00     0.048 C 
ENDROOT
BRANCH   6   8
HETATM    8  C9  UNL     1     -34.092  18.708  -0.083  1.00 20.00     0.034 C 
HETATM    9  C8  UNL     1     -33.660  18.180   1.283  1.00 20.00     0.010 C 
ENDBRANCH   6   8
TORSDOF 1
ENDMDL
MODEL 9
REMARK VINA RESULT:      -4.4     16.305     16.921
REMARK  1 active torsions:
REMARK  status: ('A' for Active; 'I' for Inactive)
REMARK    1  A    between atoms: C6_6  and  C9_9 
ROOT
HETATM    1  C1  UNL     1     -24.981  18.577  10.176  1.00 20.00     0.007 A 
HETATM    2  C2  UNL     1     -24.018  17.917  12.291  1.00 20.00     0.007 A 
HETATM    3  C3  UNL     1     -23.740  18.418   9.561  1.00 20.00     0.007 A 
HETATM    4  C4  UNL     1     -22.776  17.757  11.676  1.00 20.00     0.007 A 
HETATM    5  C5  UNL     1     -25.120  18.327  11.541  1.00 20.00    -0.062 A 
HETATM    6  C6  UNL     1     -22.637  18.008  10.310  1.00 20.00    -0.059 A 
HETATM    7  C7  UNL     1     -26.447  18.497  12.200  1.00 20.00     0.048 C 
ENDROOT
BRANCH   6   8
HETATM    8  C9  UNL     1     -21.310  17.836   9.650  1.00 20.00     0.034 C 
HETATM    9  C8  UNL     1     -21.434  17.278   8.234  1.00 20.00     0.010 C 
ENDBRANCH   6   8
TORSDOF 1
ENDMDL
