MODEL 1
REMARK VINA RESULT:      -4.2      0.000      0.000
REMARK  0 active torsions:
REMARK  status: ('A' for Active; 'I' for Inactive)
ROOT
HETATM    1  C1  UNL     1     -33.532  15.284  -3.883  1.00 20.00     0.008 A 
HETATM    2  C2  UNL     1     -35.423  15.716  -2.443  1.00 20.00     0.008 A 
HETATM    3  C3  UNL     1     -32.809  16.287  -3.234  1.00 20.00     0.019 A 
HETATM    4  C4  UNL     1     -34.701  16.718  -1.794  1.00 20.00     0.019 A 
HETATM    5  C5  UNL     1     -34.838  15.000  -3.487  1.00 20.00    -0.062 A 
HETATM    6  C6  UNL     1     -33.394  17.003  -2.190  1.00 20.00     0.006 A 
HETATM    7  C7  UNL     1     -35.612  13.931  -4.182  1.00 20.00     0.048 C 
HETATM    8  I8  UNL     1     -32.318  18.496  -1.226  1.00 20.00    -0.045 I 
ENDROOT
TORSDOF 0
ENDMDL
MODEL 2
REMARK VINA RESULT:      -4.2      1.094      2.076
REMARK  0 active torsions:
REMARK  status: ('A' for Active; 'I' for Inactive)
ROOT
HETATM    1  C1  UNL     1     -35.151  15.767  -2.254  1.00 20.00     0.008 A 
HETATM    2  C2  UNL     1     -32.983  16.384  -3.126  1.00 20.00     0.008 A 
HETATM    3  C3  UNL     1     -35.064  16.793  -1.312  1.00 20.00     0.019 A 
HETATM    4  C4  UNL     1     -32.896  17.410  -2.185  1.00 20.00     0.019 A 
HETATM    5  C5  UNL     1     -34.110  15.563  -3.160  1.00 20.00    -0.062 A 
HETATM    6  C6  UNL     1     -33.937  17.615  -1.278  1.00 20.00     0.006 A 
HETATM    7  C7  UNL     1     -34.201  14.464  -4.164  1.00 20.00     0.048 C 
HETATM    8  I8  UNL     1     -33.809  19.141   0.125  1.00 20.00    -0.045 I 
ENDROOT
TORSDOF 0
ENDMDL
MODEL 3
REMARK VINA RESULT:      -4.2      1.099      1.348
REMARK  0 active torsions:
REMARK  status: ('A' for Active; 'I' for Inactive)
ROOT
HETATM    1  C1  UNL     1     -32.994  16.428  -3.089  1.00 20.00     0.008 A 
HETATM    2  C2  UNL     1     -35.148  15.857  -2.154  1.00 20.00     0.008 A 
HETATM    3  C3  UNL     1     -32.866  17.462  -2.161  1.00 20.00     0.019 A 
HETATM    4  C4  UNL     1     -35.020  16.891  -1.226  1.00 20.00     0.019 A 
HETATM    5  C5  UNL     1     -34.135  15.626  -3.085  1.00 20.00    -0.062 A 
HETATM    6  C6  UNL     1     -33.878  17.694  -1.230  1.00 20.00     0.006 A 
HETATM    7  C7  UNL     1     -34.275  14.523  -4.079  1.00 20.00     0.048 C 
HETATM    8  I8  UNL     1     -33.686  19.234   0.150  1.00 20.00    -0.045 I 
ENDROOT
TORSDOF 0
ENDMDL
MODEL 4
REMARK VINA RESULT:      -4.1      2.463      3.617
REMARK  0 active torsions:
REMARK  status: ('A' for Active; 'I' for Inactive)
ROOT
HETATM    1  C1  UNL     1     -32.805  16.543  -3.127  1.00 20.00     0.008 A 
HETATM    2  C2  UNL     1     -34.618  16.885  -1.567  1.00 20.00     0.008 A 
HETATM    3  C3  UNL     1     -33.604  15.665  -3.861  1.00 20.00     0.019 A 
HETATM    4  C4  UNL     1     -35.416  16.008  -2.300  1.00 20.00     0.019 A 
HETATM    5  C5  UNL     1     -33.313  17.153  -1.980  1.00 20.00    -0.062 A 
HETATM    6  C6  UNL     1     -34.909  15.398  -3.448  1.00 20.00     0.006 A 
HETATM    7  C7  UNL     1     -32.460  18.089  -1.193  1.00 20.00     0.048 C 
HETATM    8  I8  UNL     1     -36.095  14.089  -4.541  1.00 20.00    -0.045 I 
ENDROOT
TORSDOF 0
ENDMDL
MODEL 5
REMARK VINA RESULT:      -4.0      2.476      3.997
REMARK  0 active torsions:
REMARK  status: ('A' for Active; 'I' for Inactive)
ROOT
HETATM    1  C1  UNL     1     -34.625  16.877  -1.605  1.00 20.00     0.008 A 
HETATM    2  C2  UNL     1     -32.841  16.481  -3.186  1.00 20.00     0.008 A 
HETATM    3  C3  UNL     1     -35.456  16.022  -2.329  1.00 20.00     0.019 A 
HETATM    4  C4  UNL     1     -33.672  15.625  -3.909  1.00 20.00     0.019 A 
HETATM    5  C5  UNL     1     -33.318  17.107  -2.034  1.00 20.00    -0.062 A 
HETATM    6  C6  UNL     1     -34.980  15.396  -3.481  1.00 20.00     0.006 A 
HETATM    7  C7  UNL     1     -32.430  18.023  -1.262  1.00 20.00     0.048 C 
HETATM    8  I8  UNL     1     -36.218  14.123  -4.558  1.00 20.00    -0.045 I 
ENDROOT
TORSDOF 0
ENDMDL
MODEL 6
REMARK VINA RESULT:      -3.9     15.840     16.370
REMARK  0 active torsions:
REMARK  status: ('A' for Active; 'I' for Inactive)
ROOT
HETATM    1  C1  UNL     1     -23.591  18.827   8.375  1.00 20.00     0.008 A 
HETATM    2  C2  UNL     1     -23.030  16.897   9.715  1.00 20.00     0.008 A 
HETATM    3  C3  UNL     1     -24.605  19.156   9.275  1.00 20.00     0.019 A 
HETATM    4  C4  UNL     1     -24.044  17.225  10.615  1.00 20.00     0.019 A 
HETATM    5  C5  UNL     1     -22.803  17.697   8.595  1.00 20.00    -0.062 A 
HETATM    6  C6  UNL     1     -24.832  18.356  10.395  1.00 20.00     0.006 A 
HETATM    7  C7  UNL     1     -21.722  17.343   7.632  1.00 20.00     0.048 C 
HETATM    8  I8  UNL     1     -26.343  18.846  11.732  1.00 20.00    -0.045 I 
ENDROOT
TORSDOF 0
ENDMDL
MODEL 7
REMARK VINA RESULT:      -3.9      2.422      3.794
REMARK  0 active torsions:
REMARK  status: ('A' for Active; 'I' for Inactive)
ROOT
HETATM    1  C1  UNL     1     -32.752  17.642  -1.825  1.00 20.00     0.008 A 
HETATM    2  C2  UNL     1     -34.892  17.236  -0.779  1.00 20.00     0.008 A 
HETATM    3  C3  UNL     1     -33.038  16.670  -2.785  1.00 20.00     0.019 A 
HETATM    4  C4  UNL     1     -35.178  16.265  -1.738  1.00 20.00     0.019 A 
HETATM    5  C5  UNL     1     -33.680  17.924  -0.822  1.00 20.00    -0.062 A 
HETATM    6  C6  UNL     1     -34.250  15.981  -2.741  1.00 20.00     0.006 A 
HETATM    7  C7  UNL     1     -33.374  18.960   0.205  1.00 20.00     0.048 C 
HETATM    8  I8  UNL     1     -34.674  14.534  -4.170  1.00 20.00    -0.045 I 
ENDROOT
TORSDOF 0
ENDMDL
MODEL 8
REMARK VINA RESULT:      -3.9      2.413      4.094
REMARK  0 active torsions:
REMARK  status: ('A' for Active; 'I' for Inactive)
ROOT
HETATM    1  C1  UNL     1     -35.062  17.071  -0.736  1.00 20.00     0.008 A 
HETATM    2  C2  UNL     1     -32.911  17.804  -1.558  1.00 20.00     0.008 A 
HETATM    3  C3  UNL     1     -35.155  16.163  -1.791  1.00 20.00     0.019 A 
HETATM    4  C4  UNL     1     -33.004  16.896  -2.612  1.00 20.00     0.019 A 
HETATM    5  C5  UNL     1     -33.940  17.892  -0.620  1.00 20.00    -0.062 A 
HETATM    6  C6  UNL     1     -34.126  16.075  -2.729  1.00 20.00     0.006 A 
HETATM    7  C7  UNL     1     -33.842  18.865   0.505  1.00 20.00     0.048 C 
HETATM    8  I8  UNL     1     -34.266  14.722  -4.299  1.00 20.00    -0.045 I 
ENDROOT
TORSDOF 0
ENDMDL
MODEL 9
REMARK VINA RESULT:      -3.9     15.367     16.775
REMARK  0 active torsions:
REMARK  status: ('A' for Active; 'I' for Inactive)
ROOT
HETATM    1  C1  UNL     1     -24.454  18.316  11.103  1.00 20.00     0.008 A 
HETATM    2  C2  UNL     1     -22.460  18.030   9.770  1.00 20.00     0.008 A 
HETATM    3  C3  UNL     1     -25.170  18.663   9.957  1.00 20.00     0.019 A 
HETATM    4  C4  UNL     1     -23.175  18.377   8.624  1.00 20.00     0.019 A 
HETATM    5  C5  UNL     1     -23.099  18.000  11.010  1.00 20.00    -0.062 A 
HETATM    6  C6  UNL     1     -24.531  18.693   8.717  1.00 20.00     0.006 A 
HETATM    7  C7  UNL     1     -22.333  17.634  12.235  1.00 20.00     0.048 C 
HETATM    8  I8  UNL     1     -25.598  19.210   7.012  1.00 20.00    -0.045 I 
ENDROOT
TORSDOF 0
ENDMDL
