MODEL 1
REMARK VINA RESULT:      -5.2      0.000      0.000
REMARK  3 active torsions:
REMARK  status: ('A' for Active; 'I' for Inactive)
REMARK    1  A    between atoms: C2_2  and  C7_7 
REMARK    2  A    between atoms: C3_3  and  C8_8 
REMARK    3  A    between atoms: C7_7  and  C8_8 
ROOT
HETATM    1  C3  UNL     1     -33.465   5.888   2.384  1.00 20.00    -0.024 C 
HETATM    2  C4  UNL     1     -32.685   6.985   2.420  1.00 20.00    -0.091 C 
HETATM    3  C5  UNL     1     -32.598   7.897   1.226  1.00 20.00     0.042 C 
HETATM    4  C6  UNL     1     -31.857   7.422   3.595  1.00 20.00     0.042 C 
ENDROOT
BRANCH   1   5
HETATM    5  C8  UNL     1     -33.660   4.854   3.459  1.00 20.00     0.031 C 
BRANCH   5   6
HETATM    6  C7  UNL     1     -34.989   5.027   4.204  1.00 20.00     0.030 C 
BRANCH   6   7
HETATM    7  C2  UNL     1     -34.797   5.390   5.648  1.00 20.00    -0.037 C 
HETATM    8  C1  UNL     1     -34.185   6.504   6.065  1.00 20.00     0.007 C 
ENDBRANCH   6   7
ENDBRANCH   5   6
ENDBRANCH   1   5
TORSDOF 3
ENDMDL
MODEL 2
REMARK VINA RESULT:      -5.1      1.057      4.381
REMARK  3 active torsions:
REMARK  status: ('A' for Active; 'I' for Inactive)
REMARK    1  A    between atoms: C2_2  and  C7_7 
REMARK    2  A    between atoms: C3_3  and  C8_8 
REMARK    3  A    between atoms: C7_7  and  C8_8 
ROOT
HETATM    1  C3  UNL     1     -33.525   6.237   3.431  1.00 20.00    -0.024 C 
HETATM    2  C4  UNL     1     -34.172   6.095   4.603  1.00 20.00    -0.091 C 
HETATM    3  C5  UNL     1     -35.278   5.084   4.745  1.00 20.00     0.042 C 
HETATM    4  C6  UNL     1     -33.882   6.875   5.854  1.00 20.00     0.042 C 
ENDROOT
BRANCH   1   5
HETATM    5  C8  UNL     1     -32.420   7.201   3.093  1.00 20.00     0.031 C 
BRANCH   5   6
HETATM    6  C7  UNL     1     -32.247   7.388   1.582  1.00 20.00     0.030 C 
BRANCH   6   7
HETATM    7  C2  UNL     1     -32.884   8.652   1.081  1.00 20.00    -0.037 C 
HETATM    8  C1  UNL     1     -33.293   8.835  -0.180  1.00 20.00     0.007 C 
ENDBRANCH   6   7
ENDBRANCH   5   6
ENDBRANCH   1   5
TORSDOF 3
ENDMDL
MODEL 3
REMARK VINA RESULT:      -5.0      1.072      4.470
REMARK  3 active torsions:
REMARK  status: ('A' for Active; 'I' for Inactive)
REMARK    1  A    between atoms: C2_2  and  C7_7 
REMARK    2  A    between atoms: C3_3  and  C8_8 
REMARK    3  A    between atoms: C7_7  and  C8_8 
ROOT
HETATM    1  C3  UNL     1     -33.339   6.804   3.844  1.00 20.00    -0.024 C 
HETATM    2  C4  UNL     1     -34.145   6.137   4.692  1.00 20.00    -0.091 C 
HETATM    3  C5  UNL     1     -34.286   6.587   6.121  1.00 20.00     0.042 C 
HETATM    4  C6  UNL     1     -34.971   4.932   4.337  1.00 20.00     0.042 C 
ENDROOT
BRANCH   1   5
HETATM    5  C8  UNL     1     -33.054   6.493   2.399  1.00 20.00     0.031 C 
BRANCH   5   6
HETATM    6  C7  UNL     1     -32.154   7.545   1.741  1.00 20.00     0.030 C 
BRANCH   6   7
HETATM    7  C2  UNL     1     -32.937   8.660   1.111  1.00 20.00    -0.037 C 
HETATM    8  C1  UNL     1     -33.305   8.683  -0.175  1.00 20.00     0.007 C 
ENDBRANCH   6   7
ENDBRANCH   5   6
ENDBRANCH   1   5
TORSDOF 3
ENDMDL
MODEL 4
REMARK VINA RESULT:      -4.3      1.112      2.210
REMARK  3 active torsions:
REMARK  status: ('A' for Active; 'I' for Inactive)
REMARK    1  A    between atoms: C2_2  and  C7_7 
REMARK    2  A    between atoms: C3_3  and  C8_8 
REMARK    3  A    between atoms: C7_7  and  C8_8 
ROOT
HETATM    1  C3  UNL     1     -34.446   4.529   3.502  1.00 20.00    -0.024 C 
HETATM    2  C4  UNL     1     -33.449   4.925   2.687  1.00 20.00    -0.091 C 
HETATM    3  C5  UNL     1     -32.721   3.923   1.832  1.00 20.00     0.042 C 
HETATM    4  C6  UNL     1     -32.972   6.340   2.526  1.00 20.00     0.042 C 
ENDROOT
BRANCH   1   5
HETATM    5  C8  UNL     1     -35.266   5.372   4.440  1.00 20.00     0.031 C 
BRANCH   5   6
HETATM    6  C7  UNL     1     -34.805   5.246   5.897  1.00 20.00     0.030 C 
BRANCH   6   7
HETATM    7  C2  UNL     1     -34.198   6.516   6.421  1.00 20.00    -0.037 C 
HETATM    8  C1  UNL     1     -33.422   7.329   5.696  1.00 20.00     0.007 C 
ENDBRANCH   6   7
ENDBRANCH   5   6
ENDBRANCH   1   5
TORSDOF 3
ENDMDL
MODEL 5
REMARK VINA RESULT:      -4.0      0.932      1.750
REMARK  3 active torsions:
REMARK  status: ('A' for Active; 'I' for Inactive)
REMARK    1  A    between atoms: C2_2  and  C7_7 
REMARK    2  A    between atoms: C3_3  and  C8_8 
REMARK    3  A    between atoms: C7_7  and  C8_8 
ROOT
HETATM    1  C3  UNL     1     -32.531   6.897   2.105  1.00 20.00    -0.024 C 
HETATM    2  C4  UNL     1     -32.533   7.941   1.255  1.00 20.00    -0.091 C 
HETATM    3  C5  UNL     1     -31.695   7.907   0.005  1.00 20.00     0.042 C 
HETATM    4  C6  UNL     1     -33.337   9.199   1.428  1.00 20.00     0.042 C 
ENDROOT
BRANCH   1   5
HETATM    5  C8  UNL     1     -33.277   6.758   3.405  1.00 20.00     0.031 C 
BRANCH   5   6
HETATM    6  C7  UNL     1     -34.007   5.415   3.520  1.00 20.00     0.030 C 
BRANCH   6   7
HETATM    7  C2  UNL     1     -35.026   5.406   4.624  1.00 20.00    -0.037 C 
HETATM    8  C1  UNL     1     -34.719   5.448   5.925  1.00 20.00     0.007 C 
ENDBRANCH   6   7
ENDBRANCH   5   6
ENDBRANCH   1   5
TORSDOF 3
ENDMDL
MODEL 6
REMARK VINA RESULT:      -3.9      0.780      2.010
REMARK  3 active torsions:
REMARK  status: ('A' for Active; 'I' for Inactive)
REMARK    1  A    between atoms: C2_2  and  C7_7 
REMARK    2  A    between atoms: C3_3  and  C8_8 
REMARK    3  A    between atoms: C7_7  and  C8_8 
ROOT
HETATM    1  C3  UNL     1     -32.641   7.582   3.866  1.00 20.00    -0.024 C 
HETATM    2  C4  UNL     1     -32.709   6.970   2.669  1.00 20.00    -0.091 C 
HETATM    3  C5  UNL     1     -32.523   7.758   1.399  1.00 20.00     0.042 C 
HETATM    4  C6  UNL     1     -32.955   5.503   2.457  1.00 20.00     0.042 C 
ENDROOT
BRANCH   1   5
HETATM    5  C8  UNL     1     -32.822   6.973   5.230  1.00 20.00     0.031 C 
BRANCH   5   6
HETATM    6  C7  UNL     1     -34.293   6.925   5.660  1.00 20.00     0.030 C 
BRANCH   6   7
HETATM    7  C2  UNL     1     -34.804   5.522   5.812  1.00 20.00    -0.037 C 
HETATM    8  C1  UNL     1     -35.178   4.746   4.788  1.00 20.00     0.007 C 
ENDBRANCH   6   7
ENDBRANCH   5   6
ENDBRANCH   1   5
TORSDOF 3
ENDMDL
MODEL 7
REMARK VINA RESULT:      -3.9     11.475     12.247
REMARK  3 active torsions:
REMARK  status: ('A' for Active; 'I' for Inactive)
REMARK    1  A    between atoms: C2_2  and  C7_7 
REMARK    2  A    between atoms: C3_3  and  C8_8 
REMARK    3  A    between atoms: C7_7  and  C8_8 
ROOT
HETATM    1  C3  UNL     1     -33.062  15.755  -3.574  1.00 20.00    -0.024 C 
HETATM    2  C4  UNL     1     -33.676  16.397  -2.561  1.00 20.00    -0.091 C 
HETATM    3  C5  UNL     1     -33.000  17.550  -1.869  1.00 20.00     0.042 C 
HETATM    4  C6  UNL     1     -35.043  16.070  -2.030  1.00 20.00     0.042 C 
ENDROOT
BRANCH   1   5
HETATM    5  C8  UNL     1     -33.564  14.577  -4.364  1.00 20.00     0.031 C 
BRANCH   5   6
HETATM    6  C7  UNL     1     -34.348  14.999  -5.611  1.00 20.00     0.030 C 
BRANCH   6   7
HETATM    7  C2  UNL     1     -35.749  14.460  -5.621  1.00 20.00    -0.037 C 
HETATM    8  C1  UNL     1     -36.271  13.714  -4.641  1.00 20.00     0.007 C 
ENDBRANCH   6   7
ENDBRANCH   5   6
ENDBRANCH   1   5
TORSDOF 3
ENDMDL
MODEL 8
REMARK VINA RESULT:      -3.9      1.168      4.418
REMARK  3 active torsions:
REMARK  status: ('A' for Active; 'I' for Inactive)
REMARK    1  A    between atoms: C2_2  and  C7_7 
REMARK    2  A    between atoms: C3_3  and  C8_8 
REMARK    3  A    between atoms: C7_7  and  C8_8 
ROOT
HETATM    1  C3  UNL     1     -33.593   6.751   4.783  1.00 20.00    -0.024 C 
HETATM    2  C4  UNL     1     -34.546   5.815   4.954  1.00 20.00    -0.091 C 
HETATM    3  C5  UNL     1     -34.651   5.064   6.255  1.00 20.00     0.042 C 
HETATM    4  C6  UNL     1     -35.577   5.429   3.932  1.00 20.00     0.042 C 
ENDROOT
BRANCH   1   5
HETATM    5  C8  UNL     1     -33.319   7.581   3.558  1.00 20.00     0.031 C 
BRANCH   5   6
HETATM    6  C7  UNL     1     -32.435   6.851   2.541  1.00 20.00     0.030 C 
BRANCH   6   7
HETATM    7  C2  UNL     1     -32.392   7.545   1.210  1.00 20.00    -0.037 C 
HETATM    8  C1  UNL     1     -32.884   8.769   0.989  1.00 20.00     0.007 C 
ENDBRANCH   6   7
ENDBRANCH   5   6
ENDBRANCH   1   5
TORSDOF 3
ENDMDL
MODEL 9
REMARK VINA RESULT:      -3.7     11.055     11.974
REMARK  3 active torsions:
REMARK  status: ('A' for Active; 'I' for Inactive)
REMARK    1  A    between atoms: C2_2  and  C7_7 
REMARK    2  A    between atoms: C3_3  and  C8_8 
REMARK    3  A    between atoms: C7_7  and  C8_8 
ROOT
HETATM    1  C3  UNL     1     -34.348  16.107  -2.344  1.00 20.00    -0.024 C 
HETATM    2  C4  UNL     1     -34.286  17.031  -1.367  1.00 20.00    -0.091 C 
HETATM    3  C5  UNL     1     -35.412  17.169  -0.377  1.00 20.00     0.042 C 
HETATM    4  C6  UNL     1     -33.145  17.983  -1.145  1.00 20.00     0.042 C 
ENDROOT
BRANCH   1   5
HETATM    5  C8  UNL     1     -33.342  15.837  -3.430  1.00 20.00     0.031 C 
BRANCH   5   6
HETATM    6  C7  UNL     1     -33.790  14.721  -4.381  1.00 20.00     0.030 C 
BRANCH   6   7
HETATM    7  C2  UNL     1     -34.975  13.961  -3.859  1.00 20.00    -0.037 C 
HETATM    8  C1  UNL     1     -36.056  13.666  -4.591  1.00 20.00     0.007 C 
ENDBRANCH   6   7
ENDBRANCH   5   6
ENDBRANCH   1   5
TORSDOF 3
ENDMDL
