MODEL 1
REMARK VINA RESULT:      -6.1      0.000      0.000
REMARK  4 active torsions:
REMARK  status: ('A' for Active; 'I' for Inactive)
REMARK    1  A    between atoms: C6_6  and  C8_8 
REMARK    2  A    between atoms: C8_8  and  C10_10 
REMARK    3  A    between atoms: C9_9  and  C11_11 
REMARK    4  A    between atoms: C10_10  and  C11_11 
ROOT
HETATM    1  C1  UNL     1     -34.768   5.745   6.160  1.00 20.00     0.000 A 
HETATM    2  C2  UNL     1     -35.030   4.769   5.197  1.00 20.00     0.001 A 
HETATM    3  C3  UNL     1     -33.926   6.815   5.857  1.00 20.00     0.001 A 
HETATM    4  C4  UNL     1     -34.448   4.863   3.933  1.00 20.00     0.007 A 
HETATM    5  C5  UNL     1     -33.345   6.909   4.593  1.00 20.00     0.007 A 
HETATM    6  C6  UNL     1     -33.606   5.933   3.631  1.00 20.00    -0.058 A 
ENDROOT
BRANCH   6   7
HETATM    7  C8  UNL     1     -32.981   6.035   2.273  1.00 20.00     0.038 C 
BRANCH   7   8
HETATM    8  C10 UNL     1     -32.324   7.392   2.004  1.00 20.00     0.005 C 
BRANCH   8   9
HETATM    9  C11 UNL     1     -32.111   7.676   0.514  1.00 20.00    -0.000 C 
BRANCH   9  10
HETATM   10  C9  UNL     1     -33.012   8.815   0.034  1.00 20.00    -0.005 C 
HETATM   11  C7  UNL     1     -33.295   9.809   1.148  1.00 20.00     0.005 C 
ENDBRANCH   9  10
ENDBRANCH   8   9
ENDBRANCH   7   8
ENDBRANCH   6   7
TORSDOF 4
ENDMDL
MODEL 2
REMARK VINA RESULT:      -6.1      0.019      1.457
REMARK  4 active torsions:
REMARK  status: ('A' for Active; 'I' for Inactive)
REMARK    1  A    between atoms: C6_6  and  C8_8 
REMARK    2  A    between atoms: C8_8  and  C10_10 
REMARK    3  A    between atoms: C9_9  and  C11_11 
REMARK    4  A    between atoms: C10_10  and  C11_11 
ROOT
HETATM    1  C1  UNL     1     -34.757   5.743   6.167  1.00 20.00     0.000 A 
HETATM    2  C2  UNL     1     -33.924   6.820   5.861  1.00 20.00     0.001 A 
HETATM    3  C3  UNL     1     -35.018   4.768   5.205  1.00 20.00     0.001 A 
HETATM    4  C4  UNL     1     -33.353   6.920   4.593  1.00 20.00     0.007 A 
HETATM    5  C5  UNL     1     -34.448   4.868   3.937  1.00 20.00     0.007 A 
HETATM    6  C6  UNL     1     -33.614   5.945   3.631  1.00 20.00    -0.058 A 
ENDROOT
BRANCH   6   7
HETATM    7  C8  UNL     1     -33.002   6.053   2.268  1.00 20.00     0.038 C 
BRANCH   7   8
HETATM    8  C10 UNL     1     -32.313   7.397   2.013  1.00 20.00     0.005 C 
BRANCH   8   9
HETATM    9  C11 UNL     1     -32.092   7.691   0.526  1.00 20.00    -0.000 C 
BRANCH   9  10
HETATM   10  C9  UNL     1     -33.020   8.805   0.039  1.00 20.00    -0.005 C 
HETATM   11  C7  UNL     1     -33.275   9.834   1.128  1.00 20.00     0.005 C 
ENDBRANCH   9  10
ENDBRANCH   8   9
ENDBRANCH   7   8
ENDBRANCH   6   7
TORSDOF 4
ENDMDL
MODEL 3
REMARK VINA RESULT:      -4.8     10.815     12.078
REMARK  4 active torsions:
REMARK  status: ('A' for Active; 'I' for Inactive)
REMARK    1  A    between atoms: C6_6  and  C8_8 
REMARK    2  A    between atoms: C8_8  and  C10_10 
REMARK    3  A    between atoms: C9_9  and  C11_11 
REMARK    4  A    between atoms: C10_10  and  C11_11 
ROOT
HETATM    1  C1  UNL     1     -34.640  15.592  -2.811  1.00 20.00     0.000 A 
HETATM    2  C2  UNL     1     -33.393  16.008  -3.280  1.00 20.00     0.001 A 
HETATM    3  C3  UNL     1     -35.210  16.214  -1.700  1.00 20.00     0.001 A 
HETATM    4  C4  UNL     1     -32.718  17.045  -2.637  1.00 20.00     0.007 A 
HETATM    5  C5  UNL     1     -34.534  17.250  -1.057  1.00 20.00     0.007 A 
HETATM    6  C6  UNL     1     -33.287  17.666  -1.526  1.00 20.00    -0.058 A 
ENDROOT
BRANCH   6   7
HETATM    7  C8  UNL     1     -32.561  18.780  -0.835  1.00 20.00     0.038 C 
BRANCH   7   8
HETATM    8  C10 UNL     1     -31.136  18.409  -0.412  1.00 20.00     0.005 C 
BRANCH   8   9
HETATM    9  C11 UNL     1     -31.001  18.148   1.092  1.00 20.00    -0.000 C 
BRANCH   9  10
HETATM   10  C9  UNL     1     -32.215  18.678   1.856  1.00 20.00    -0.005 C 
HETATM   11  C7  UNL     1     -32.620  17.737   2.979  1.00 20.00     0.005 C 
ENDBRANCH   9  10
ENDBRANCH   8   9
ENDBRANCH   7   8
ENDBRANCH   6   7
TORSDOF 4
ENDMDL
MODEL 4
REMARK VINA RESULT:      -4.8     10.892     11.613
REMARK  4 active torsions:
REMARK  status: ('A' for Active; 'I' for Inactive)
REMARK    1  A    between atoms: C6_6  and  C8_8 
REMARK    2  A    between atoms: C8_8  and  C10_10 
REMARK    3  A    between atoms: C9_9  and  C11_11 
REMARK    4  A    between atoms: C10_10  and  C11_11 
ROOT
HETATM    1  C1  UNL     1     -33.987  17.786  -1.023  1.00 20.00     0.000 A 
HETATM    2  C2  UNL     1     -35.062  16.903  -1.129  1.00 20.00     0.001 A 
HETATM    3  C3  UNL     1     -32.904  17.675  -1.894  1.00 20.00     0.001 A 
HETATM    4  C4  UNL     1     -35.053  15.909  -2.107  1.00 20.00     0.007 A 
HETATM    5  C5  UNL     1     -32.894  16.681  -2.872  1.00 20.00     0.007 A 
HETATM    6  C6  UNL     1     -33.970  15.798  -2.978  1.00 20.00    -0.058 A 
ENDROOT
BRANCH   6   7
HETATM    7  C8  UNL     1     -33.959  14.729  -4.029  1.00 20.00     0.038 C 
BRANCH   7   8
HETATM    8  C10 UNL     1     -34.414  15.223  -5.406  1.00 20.00     0.005 C 
BRANCH   8   9
HETATM    9  C11 UNL     1     -35.680  14.523  -5.910  1.00 20.00    -0.000 C 
BRANCH   9  10
HETATM   10  C9  UNL     1     -36.398  13.793  -4.775  1.00 20.00    -0.005 C 
HETATM   11  C7  UNL     1     -37.657  14.529  -4.348  1.00 20.00     0.005 C 
ENDBRANCH   9  10
ENDBRANCH   8   9
ENDBRANCH   7   8
ENDBRANCH   6   7
TORSDOF 4
ENDMDL
MODEL 5
REMARK VINA RESULT:      -4.7     10.937     11.669
REMARK  4 active torsions:
REMARK  status: ('A' for Active; 'I' for Inactive)
REMARK    1  A    between atoms: C6_6  and  C8_8 
REMARK    2  A    between atoms: C8_8  and  C10_10 
REMARK    3  A    between atoms: C9_9  and  C11_11 
REMARK    4  A    between atoms: C10_10  and  C11_11 
ROOT
HETATM    1  C1  UNL     1     -34.026  17.823  -0.849  1.00 20.00     0.000 A 
HETATM    2  C2  UNL     1     -32.922  17.750  -1.699  1.00 20.00     0.001 A 
HETATM    3  C3  UNL     1     -35.096  16.945  -1.017  1.00 20.00     0.001 A 
HETATM    4  C4  UNL     1     -32.890  16.799  -2.718  1.00 20.00     0.007 A 
HETATM    5  C5  UNL     1     -35.064  15.993  -2.036  1.00 20.00     0.007 A 
HETATM    6  C6  UNL     1     -33.960  15.920  -2.887  1.00 20.00    -0.058 A 
ENDROOT
BRANCH   6   7
HETATM    7  C8  UNL     1     -33.926  14.898  -3.982  1.00 20.00     0.038 C 
BRANCH   7   8
HETATM    8  C10 UNL     1     -34.515  15.400  -5.304  1.00 20.00     0.005 C 
BRANCH   8   9
HETATM    9  C11 UNL     1     -35.622  14.496  -5.855  1.00 20.00    -0.000 C 
BRANCH   9  10
HETATM   10  C9  UNL     1     -36.358  13.773  -4.726  1.00 20.00    -0.005 C 
HETATM   11  C7  UNL     1     -37.619  14.517  -4.318  1.00 20.00     0.005 C 
ENDBRANCH   9  10
ENDBRANCH   8   9
ENDBRANCH   7   8
ENDBRANCH   6   7
TORSDOF 4
ENDMDL
MODEL 6
REMARK VINA RESULT:      -4.7     10.768     11.834
REMARK  4 active torsions:
REMARK  status: ('A' for Active; 'I' for Inactive)
REMARK    1  A    between atoms: C6_6  and  C8_8 
REMARK    2  A    between atoms: C8_8  and  C10_10 
REMARK    3  A    between atoms: C9_9  and  C11_11 
REMARK    4  A    between atoms: C10_10  and  C11_11 
ROOT
HETATM    1  C1  UNL     1     -34.882  14.209  -4.097  1.00 20.00     0.000 A 
HETATM    2  C2  UNL     1     -35.564  14.932  -3.118  1.00 20.00     0.001 A 
HETATM    3  C3  UNL     1     -33.559  14.527  -4.404  1.00 20.00     0.001 A 
HETATM    4  C4  UNL     1     -34.923  15.973  -2.447  1.00 20.00     0.007 A 
HETATM    5  C5  UNL     1     -32.918  15.568  -3.733  1.00 20.00     0.007 A 
HETATM    6  C6  UNL     1     -33.600  16.291  -2.754  1.00 20.00    -0.058 A 
ENDROOT
BRANCH   6   7
HETATM    7  C8  UNL     1     -32.911  17.410  -2.034  1.00 20.00     0.038 C 
BRANCH   7   8
HETATM    8  C10 UNL     1     -33.728  17.980  -0.870  1.00 20.00     0.005 C 
BRANCH   8   9
HETATM    9  C11 UNL     1     -32.859  18.505   0.278  1.00 20.00    -0.000 C 
BRANCH   9  10
HETATM   10  C9  UNL     1     -31.379  18.512  -0.108  1.00 20.00    -0.005 C 
HETATM   11  C7  UNL     1     -30.484  18.542   1.120  1.00 20.00     0.005 C 
ENDBRANCH   9  10
ENDBRANCH   8   9
ENDBRANCH   7   8
ENDBRANCH   6   7
TORSDOF 4
ENDMDL
MODEL 7
REMARK VINA RESULT:      -4.7     10.601     11.794
REMARK  4 active torsions:
REMARK  status: ('A' for Active; 'I' for Inactive)
REMARK    1  A    between atoms: C6_6  and  C8_8 
REMARK    2  A    between atoms: C8_8  and  C10_10 
REMARK    3  A    between atoms: C9_9  and  C11_11 
REMARK    4  A    between atoms: C10_10  and  C11_11 
ROOT
HETATM    1  C1  UNL     1     -33.641  17.584  -1.719  1.00 20.00     0.000 A 
HETATM    2  C2  UNL     1     -34.847  16.944  -1.434  1.00 20.00     0.001 A 
HETATM    3  C3  UNL     1     -32.805  17.085  -2.718  1.00 20.00     0.001 A 
HETATM    4  C4  UNL     1     -35.217  15.805  -2.148  1.00 20.00     0.007 A 
HETATM    5  C5  UNL     1     -33.174  15.946  -3.432  1.00 20.00     0.007 A 
HETATM    6  C6  UNL     1     -34.381  15.306  -3.147  1.00 20.00    -0.058 A 
ENDROOT
BRANCH   6   7
HETATM    7  C8  UNL     1     -34.777  14.081  -3.914  1.00 20.00     0.038 C 
BRANCH   7   8
HETATM    8  C10 UNL     1     -36.190  14.160  -4.502  1.00 20.00     0.005 C 
BRANCH   8   9
HETATM    9  C11 UNL     1     -36.323  15.205  -5.615  1.00 20.00    -0.000 C 
BRANCH   9  10
HETATM   10  C9  UNL     1     -35.554  14.781  -6.866  1.00 20.00    -0.005 C 
HETATM   11  C7  UNL     1     -34.400  15.727  -7.158  1.00 20.00     0.005 C 
ENDBRANCH   9  10
ENDBRANCH   8   9
ENDBRANCH   7   8
ENDBRANCH   6   7
TORSDOF 4
ENDMDL
MODEL 8
REMARK VINA RESULT:      -4.7     10.620     11.830
REMARK  4 active torsions:
REMARK  status: ('A' for Active; 'I' for Inactive)
REMARK    1  A    between atoms: C6_6  and  C8_8 
REMARK    2  A    between atoms: C8_8  and  C10_10 
REMARK    3  A    between atoms: C9_9  and  C11_11 
REMARK    4  A    between atoms: C10_10  and  C11_11 
ROOT
HETATM    1  C1  UNL     1     -33.635  17.611  -1.678  1.00 20.00     0.000 A 
HETATM    2  C2  UNL     1     -32.797  17.128  -2.684  1.00 20.00     0.001 A 
HETATM    3  C3  UNL     1     -34.836  16.961  -1.397  1.00 20.00     0.001 A 
HETATM    4  C4  UNL     1     -33.162  15.994  -3.409  1.00 20.00     0.007 A 
HETATM    5  C5  UNL     1     -35.201  15.827  -2.123  1.00 20.00     0.007 A 
HETATM    6  C6  UNL     1     -34.363  15.343  -3.128  1.00 20.00    -0.058 A 
ENDROOT
BRANCH   6   7
HETATM    7  C8  UNL     1     -34.756  14.125  -3.908  1.00 20.00     0.038 C 
BRANCH   7   8
HETATM    8  C10 UNL     1     -36.176  14.198  -4.478  1.00 20.00     0.005 C 
BRANCH   8   9
HETATM    9  C11 UNL     1     -36.325  15.230  -5.600  1.00 20.00    -0.000 C 
BRANCH   9  10
HETATM   10  C9  UNL     1     -35.571  14.794  -6.857  1.00 20.00    -0.005 C 
HETATM   11  C7  UNL     1     -34.411  15.728  -7.163  1.00 20.00     0.005 C 
ENDBRANCH   9  10
ENDBRANCH   8   9
ENDBRANCH   7   8
ENDBRANCH   6   7
TORSDOF 4
ENDMDL
MODEL 9
REMARK VINA RESULT:      -4.7     10.805     11.894
REMARK  4 active torsions:
REMARK  status: ('A' for Active; 'I' for Inactive)
REMARK    1  A    between atoms: C6_6  and  C8_8 
REMARK    2  A    between atoms: C8_8  and  C10_10 
REMARK    3  A    between atoms: C9_9  and  C11_11 
REMARK    4  A    between atoms: C10_10  and  C11_11 
ROOT
HETATM    1  C1  UNL     1     -34.534  14.637  -3.971  1.00 20.00     0.000 A 
HETATM    2  C2  UNL     1     -33.268  15.222  -4.023  1.00 20.00     0.001 A 
HETATM    3  C3  UNL     1     -35.475  15.092  -3.048  1.00 20.00     0.001 A 
HETATM    4  C4  UNL     1     -32.945  16.262  -3.151  1.00 20.00     0.007 A 
HETATM    5  C5  UNL     1     -35.153  16.131  -2.177  1.00 20.00     0.007 A 
HETATM    6  C6  UNL     1     -33.887  16.717  -2.229  1.00 20.00    -0.058 A 
ENDROOT
BRANCH   6   7
HETATM    7  C8  UNL     1     -33.540  17.833  -1.292  1.00 20.00     0.038 C 
BRANCH   7   8
HETATM    8  C10 UNL     1     -32.036  18.114  -1.207  1.00 20.00     0.005 C 
BRANCH   8   9
HETATM    9  C11 UNL     1     -31.568  18.478   0.206  1.00 20.00    -0.000 C 
BRANCH   9  10
HETATM   10  C9  UNL     1     -32.734  18.462   1.196  1.00 20.00    -0.005 C 
HETATM   11  C7  UNL     1     -32.283  18.027   2.580  1.00 20.00     0.005 C 
ENDBRANCH   9  10
ENDBRANCH   8   9
ENDBRANCH   7   8
ENDBRANCH   6   7
TORSDOF 4
ENDMDL
