MODEL 1
REMARK VINA RESULT:      -5.4      0.000      0.000
REMARK  1 active torsions:
REMARK  status: ('A' for Active; 'I' for Inactive)
REMARK    1  A    between atoms: C6_6  and  O8_8 
ROOT
HETATM    1  C1  UNL     1     -34.958   5.135   5.431  1.00 20.00     0.000 A 
HETATM    2  C2  UNL     1     -34.689   4.764   4.114  1.00 20.00     0.003 A 
HETATM    3  C3  UNL     1     -34.331   6.252   5.983  1.00 20.00     0.003 A 
HETATM    4  C4  UNL     1     -33.794   5.511   3.347  1.00 20.00     0.037 A 
HETATM    5  C5  UNL     1     -33.437   6.999   5.217  1.00 20.00     0.037 A 
HETATM    6  C6  UNL     1     -33.168   6.629   3.899  1.00 20.00     0.068 A 
ENDROOT
BRANCH   6   7
HETATM    7  O8  UNL     1     -32.293   7.357   3.153  1.00 20.00    -0.356 OA
HETATM    8  C7  UNL     1     -32.581   7.491   1.762  1.00 20.00     0.210 C 
ENDBRANCH   6   7
TORSDOF 1
ENDMDL
MODEL 2
REMARK VINA RESULT:      -5.4      0.017      1.708
REMARK  1 active torsions:
REMARK  status: ('A' for Active; 'I' for Inactive)
REMARK    1  A    between atoms: C6_6  and  O8_8 
ROOT
HETATM    1  C1  UNL     1     -34.957   5.124   5.423  1.00 20.00     0.000 A 
HETATM    2  C2  UNL     1     -34.350   6.252   5.975  1.00 20.00     0.003 A 
HETATM    3  C3  UNL     1     -34.672   4.752   4.110  1.00 20.00     0.003 A 
HETATM    4  C4  UNL     1     -33.458   7.007   5.215  1.00 20.00     0.037 A 
HETATM    5  C5  UNL     1     -33.780   5.506   3.349  1.00 20.00     0.037 A 
HETATM    6  C6  UNL     1     -33.172   6.634   3.901  1.00 20.00     0.068 A 
ENDROOT
BRANCH   6   7
HETATM    7  O8  UNL     1     -32.303   7.371   3.157  1.00 20.00    -0.356 OA
HETATM    8  C7  UNL     1     -32.574   7.481   1.761  1.00 20.00     0.210 C 
ENDBRANCH   6   7
TORSDOF 1
ENDMDL
MODEL 3
REMARK VINA RESULT:      -4.4      1.312      2.174
REMARK  1 active torsions:
REMARK  status: ('A' for Active; 'I' for Inactive)
REMARK    1  A    between atoms: C6_6  and  O8_8 
ROOT
HETATM    1  C1  UNL     1     -34.694   5.970   6.340  1.00 20.00     0.000 A 
HETATM    2  C2  UNL     1     -33.852   6.965   5.843  1.00 20.00     0.003 A 
HETATM    3  C3  UNL     1     -35.080   4.910   5.521  1.00 20.00     0.003 A 
HETATM    4  C4  UNL     1     -33.393   6.897   4.528  1.00 20.00     0.037 A 
HETATM    5  C5  UNL     1     -34.622   4.842   4.205  1.00 20.00     0.037 A 
HETATM    6  C6  UNL     1     -33.778   5.835   3.708  1.00 20.00     0.068 A 
ENDROOT
BRANCH   6   7
HETATM    7  O8  UNL     1     -33.333   5.770   2.424  1.00 20.00    -0.356 OA
HETATM    8  C7  UNL     1     -33.072   4.471   1.893  1.00 20.00     0.210 C 
ENDBRANCH   6   7
TORSDOF 1
ENDMDL
MODEL 4
REMARK VINA RESULT:      -4.4      1.319      1.650
REMARK  1 active torsions:
REMARK  status: ('A' for Active; 'I' for Inactive)
REMARK    1  A    between atoms: C6_6  and  O8_8 
ROOT
HETATM    1  C1  UNL     1     -34.697   5.976   6.342  1.00 20.00     0.000 A 
HETATM    2  C2  UNL     1     -35.103   4.921   5.525  1.00 20.00     0.003 A 
HETATM    3  C3  UNL     1     -33.833   6.951   5.844  1.00 20.00     0.003 A 
HETATM    4  C4  UNL     1     -34.647   4.842   4.209  1.00 20.00     0.037 A 
HETATM    5  C5  UNL     1     -33.376   6.873   4.528  1.00 20.00     0.037 A 
HETATM    6  C6  UNL     1     -33.783   5.818   3.711  1.00 20.00     0.068 A 
ENDROOT
BRANCH   6   7
HETATM    7  O8  UNL     1     -33.336   5.741   2.428  1.00 20.00    -0.356 OA
HETATM    8  C7  UNL     1     -33.037   4.441   1.922  1.00 20.00     0.210 C 
ENDBRANCH   6   7
TORSDOF 1
ENDMDL
MODEL 5
REMARK VINA RESULT:      -4.1     11.605     12.118
REMARK  1 active torsions:
REMARK  status: ('A' for Active; 'I' for Inactive)
REMARK    1  A    between atoms: C6_6  and  O8_8 
ROOT
HETATM    1  C1  UNL     1     -33.762  17.058  -2.004  1.00 20.00     0.000 A 
HETATM    2  C2  UNL     1     -35.008  16.451  -1.849  1.00 20.00     0.003 A 
HETATM    3  C3  UNL     1     -32.871  16.587  -2.968  1.00 20.00     0.003 A 
HETATM    4  C4  UNL     1     -35.364  15.373  -2.660  1.00 20.00     0.037 A 
HETATM    5  C5  UNL     1     -33.227  15.511  -3.780  1.00 20.00     0.037 A 
HETATM    6  C6  UNL     1     -34.474  14.903  -3.626  1.00 20.00     0.068 A 
ENDROOT
BRANCH   6   7
HETATM    7  O8  UNL     1     -34.819  13.851  -4.417  1.00 20.00    -0.356 OA
HETATM    8  C7  UNL     1     -36.210  13.659  -4.671  1.00 20.00     0.210 C 
ENDBRANCH   6   7
TORSDOF 1
ENDMDL
MODEL 6
REMARK VINA RESULT:      -4.1     11.597     12.090
REMARK  1 active torsions:
REMARK  status: ('A' for Active; 'I' for Inactive)
REMARK    1  A    between atoms: C6_6  and  O8_8 
ROOT
HETATM    1  C1  UNL     1     -33.771  17.062  -2.004  1.00 20.00     0.000 A 
HETATM    2  C2  UNL     1     -32.882  16.592  -2.970  1.00 20.00     0.003 A 
HETATM    3  C3  UNL     1     -35.016  16.453  -1.848  1.00 20.00     0.003 A 
HETATM    4  C4  UNL     1     -33.236  15.511  -3.778  1.00 20.00     0.037 A 
HETATM    5  C5  UNL     1     -35.371  15.372  -2.654  1.00 20.00     0.037 A 
HETATM    6  C6  UNL     1     -34.481  14.901  -3.620  1.00 20.00     0.068 A 
ENDROOT
BRANCH   6   7
HETATM    7  O8  UNL     1     -34.828  13.848  -4.408  1.00 20.00    -0.356 OA
HETATM    8  C7  UNL     1     -36.221  13.639  -4.637  1.00 20.00     0.210 C 
ENDBRANCH   6   7
TORSDOF 1
ENDMDL
MODEL 7
REMARK VINA RESULT:      -4.0     11.851     12.389
REMARK  1 active torsions:
REMARK  status: ('A' for Active; 'I' for Inactive)
REMARK    1  A    between atoms: C6_6  and  O8_8 
ROOT
HETATM    1  C1  UNL     1     -34.235  16.697  -1.891  1.00 20.00     0.000 A 
HETATM    2  C2  UNL     1     -35.302  15.890  -2.286  1.00 20.00     0.003 A 
HETATM    3  C3  UNL     1     -33.059  16.714  -2.640  1.00 20.00     0.003 A 
HETATM    4  C4  UNL     1     -35.193  15.101  -3.431  1.00 20.00     0.037 A 
HETATM    5  C5  UNL     1     -32.949  15.925  -3.785  1.00 20.00     0.037 A 
HETATM    6  C6  UNL     1     -34.016  15.119  -4.181  1.00 20.00     0.068 A 
ENDROOT
BRANCH   6   7
HETATM    7  O8  UNL     1     -33.908  14.348  -5.297  1.00 20.00    -0.356 OA
HETATM    8  C7  UNL     1     -34.050  15.004  -6.556  1.00 20.00     0.210 C 
ENDBRANCH   6   7
TORSDOF 1
ENDMDL
MODEL 8
REMARK VINA RESULT:      -3.9     11.970     12.545
REMARK  1 active torsions:
REMARK  status: ('A' for Active; 'I' for Inactive)
REMARK    1  A    between atoms: C6_6  and  O8_8 
ROOT
HETATM    1  C1  UNL     1     -35.072  15.943  -2.183  1.00 20.00     0.000 A 
HETATM    2  C2  UNL     1     -33.983  15.846  -3.049  1.00 20.00     0.003 A 
HETATM    3  C3  UNL     1     -35.061  16.880  -1.150  1.00 20.00     0.003 A 
HETATM    4  C4  UNL     1     -32.883  16.687  -2.883  1.00 20.00     0.037 A 
HETATM    5  C5  UNL     1     -33.961  17.722  -0.984  1.00 20.00     0.037 A 
HETATM    6  C6  UNL     1     -32.872  17.625  -1.850  1.00 20.00     0.068 A 
ENDROOT
BRANCH   6   7
HETATM    7  O8  UNL     1     -31.798  18.445  -1.686  1.00 20.00    -0.356 OA
HETATM    8  C7  UNL     1     -31.156  18.427  -0.412  1.00 20.00     0.210 C 
ENDBRANCH   6   7
TORSDOF 1
ENDMDL
MODEL 9
REMARK VINA RESULT:      -3.9     11.928     12.637
REMARK  1 active torsions:
REMARK  status: ('A' for Active; 'I' for Inactive)
REMARK    1  A    between atoms: C6_6  and  O8_8 
ROOT
HETATM    1  C1  UNL     1     -34.980  15.741  -2.401  1.00 20.00     0.000 A 
HETATM    2  C2  UNL     1     -35.037  16.661  -1.354  1.00 20.00     0.003 A 
HETATM    3  C3  UNL     1     -33.877  15.724  -3.255  1.00 20.00     0.003 A 
HETATM    4  C4  UNL     1     -33.991  17.564  -1.160  1.00 20.00     0.037 A 
HETATM    5  C5  UNL     1     -32.831  16.626  -3.062  1.00 20.00     0.037 A 
HETATM    6  C6  UNL     1     -32.887  17.546  -2.015  1.00 20.00     0.068 A 
ENDROOT
BRANCH   6   7
HETATM    7  O8  UNL     1     -31.867  18.427  -1.828  1.00 20.00    -0.356 OA
HETATM    8  C7  UNL     1     -31.301  18.497  -0.520  1.00 20.00     0.210 C 
ENDBRANCH   6   7
TORSDOF 1
ENDMDL
