MODEL 1
REMARK VINA RESULT:      -6.1      0.000      0.000
REMARK  0 active torsions:
REMARK  status: ('A' for Active; 'I' for Inactive)
ROOT
HETATM    1  C1  UNL     1     -35.017   5.001   5.664  1.00 20.00     0.001 A 
HETATM    2  C2  UNL     1     -34.494   6.160   6.243  1.00 20.00     0.003 A 
HETATM    3  C3  UNL     1     -34.707   4.649   4.343  1.00 20.00     0.014 A 
HETATM    4  C4  UNL     1     -33.643   7.008   5.527  1.00 20.00     0.038 A 
HETATM    5  C5  UNL     1     -33.314   5.486   2.291  1.00 20.00     0.039 A 
HETATM    6  C6  UNL     1     -32.532   6.614   2.192  1.00 20.00     0.143 A 
HETATM    7  C7  UNL     1     -33.852   5.487   3.605  1.00 20.00    -0.001 A 
HETATM    8  C8  UNL     1     -33.352   6.632   4.218  1.00 20.00     0.085 A 
HETATM    9  O9  UNL     1     -32.548   7.315   3.355  1.00 20.00    -0.322 OA
ENDROOT
TORSDOF 0
ENDMDL
MODEL 2
REMARK VINA RESULT:      -6.0      0.871      1.947
REMARK  0 active torsions:
REMARK  status: ('A' for Active; 'I' for Inactive)
ROOT
HETATM    1  C1  UNL     1     -34.525   6.092   6.225  1.00 20.00     0.001 A 
HETATM    2  C2  UNL     1     -35.023   4.962   5.572  1.00 20.00     0.003 A 
HETATM    3  C3  UNL     1     -33.664   6.985   5.572  1.00 20.00     0.014 A 
HETATM    4  C4  UNL     1     -34.681   4.682   4.246  1.00 20.00     0.038 A 
HETATM    5  C5  UNL     1     -32.493   7.353   3.260  1.00 20.00     0.039 A 
HETATM    6  C6  UNL     1     -32.567   6.572   2.131  1.00 20.00     0.143 A 
HETATM    7  C7  UNL     1     -33.308   6.722   4.237  1.00 20.00    -0.001 A 
HETATM    8  C8  UNL     1     -33.825   5.587   3.623  1.00 20.00     0.085 A 
HETATM    9  O9  UNL     1     -33.373   5.498   2.340  1.00 20.00    -0.322 OA
ENDROOT
TORSDOF 0
ENDMDL
MODEL 3
REMARK VINA RESULT:      -5.6      1.449      3.660
REMARK  0 active torsions:
REMARK  status: ('A' for Active; 'I' for Inactive)
ROOT
HETATM    1  C1  UNL     1     -32.526   6.996   2.598  1.00 20.00     0.001 A 
HETATM    2  C2  UNL     1     -32.946   5.797   2.015  1.00 20.00     0.003 A 
HETATM    3  C3  UNL     1     -32.901   7.334   3.906  1.00 20.00     0.014 A 
HETATM    4  C4  UNL     1     -33.753   4.895   2.715  1.00 20.00     0.038 A 
HETATM    5  C5  UNL     1     -34.286   6.411   5.926  1.00 20.00     0.039 A 
HETATM    6  C6  UNL     1     -34.985   5.230   6.014  1.00 20.00     0.143 A 
HETATM    7  C7  UNL     1     -33.711   6.440   4.628  1.00 20.00    -0.001 A 
HETATM    8  C8  UNL     1     -34.107   5.258   4.012  1.00 20.00     0.085 A 
HETATM    9  O9  UNL     1     -34.883   4.522   4.858  1.00 20.00    -0.322 OA
ENDROOT
TORSDOF 0
ENDMDL
MODEL 4
REMARK VINA RESULT:      -5.4      1.106      3.050
REMARK  0 active torsions:
REMARK  status: ('A' for Active; 'I' for Inactive)
ROOT
HETATM    1  C1  UNL     1     -33.445   4.793   2.308  1.00 20.00     0.001 A 
HETATM    2  C2  UNL     1     -32.818   6.042   2.264  1.00 20.00     0.003 A 
HETATM    3  C3  UNL     1     -34.156   4.381   3.444  1.00 20.00     0.014 A 
HETATM    4  C4  UNL     1     -32.877   6.921   3.349  1.00 20.00     0.038 A 
HETATM    5  C5  UNL     1     -34.825   5.211   5.835  1.00 20.00     0.039 A 
HETATM    6  C6  UNL     1     -34.516   6.406   6.442  1.00 20.00     0.143 A 
HETATM    7  C7  UNL     1     -34.228   5.251   4.547  1.00 20.00    -0.001 A 
HETATM    8  C8  UNL     1     -33.590   6.484   4.463  1.00 20.00     0.085 A 
HETATM    9  O9  UNL     1     -33.768   7.186   5.618  1.00 20.00    -0.322 OA
ENDROOT
TORSDOF 0
ENDMDL
MODEL 5
REMARK VINA RESULT:      -4.5     12.158     12.396
REMARK  0 active torsions:
REMARK  status: ('A' for Active; 'I' for Inactive)
ROOT
HETATM    1  C1  UNL     1     -34.032  16.632  -2.182  1.00 20.00     0.001 A 
HETATM    2  C2  UNL     1     -32.979  16.202  -2.995  1.00 20.00     0.003 A 
HETATM    3  C3  UNL     1     -35.337  16.162  -2.381  1.00 20.00     0.014 A 
HETATM    4  C4  UNL     1     -33.191  15.290  -4.032  1.00 20.00     0.038 A 
HETATM    5  C5  UNL     1     -36.704  14.554  -3.929  1.00 20.00     0.039 A 
HETATM    6  C6  UNL     1     -36.251  13.787  -4.978  1.00 20.00     0.143 A 
HETATM    7  C7  UNL     1     -35.572  15.243  -3.419  1.00 20.00    -0.001 A 
HETATM    8  C8  UNL     1     -34.498  14.840  -4.205  1.00 20.00     0.085 A 
HETATM    9  O9  UNL     1     -34.914  13.954  -5.153  1.00 20.00    -0.322 OA
ENDROOT
TORSDOF 0
ENDMDL
MODEL 6
REMARK VINA RESULT:      -4.4     16.110     16.669
REMARK  0 active torsions:
REMARK  status: ('A' for Active; 'I' for Inactive)
ROOT
HETATM    1  C1  UNL     1     -23.032  17.732  10.766  1.00 20.00     0.001 A 
HETATM    2  C2  UNL     1     -22.008  17.483   9.848  1.00 20.00     0.003 A 
HETATM    3  C3  UNL     1     -24.248  18.295  10.358  1.00 20.00     0.014 A 
HETATM    4  C4  UNL     1     -22.161  17.786   8.492  1.00 20.00     0.038 A 
HETATM    5  C5  UNL     1     -25.464  19.168   8.210  1.00 20.00     0.039 A 
HETATM    6  C6  UNL     1     -24.993  19.208   6.918  1.00 20.00     0.143 A 
HETATM    7  C7  UNL     1     -24.424  18.608   8.998  1.00 20.00    -0.001 A 
HETATM    8  C8  UNL     1     -23.381  18.345   8.116  1.00 20.00     0.085 A 
HETATM    9  O9  UNL     1     -23.730  18.711   6.851  1.00 20.00    -0.322 OA
ENDROOT
TORSDOF 0
ENDMDL
MODEL 7
REMARK VINA RESULT:      -4.4     11.894     12.432
REMARK  0 active torsions:
REMARK  status: ('A' for Active; 'I' for Inactive)
ROOT
HETATM    1  C1  UNL     1     -34.586  17.743  -0.475  1.00 20.00     0.001 A 
HETATM    2  C2  UNL     1     -33.312  18.168  -0.865  1.00 20.00     0.003 A 
HETATM    3  C3  UNL     1     -35.244  16.713  -1.160  1.00 20.00     0.014 A 
HETATM    4  C4  UNL     1     -32.652  17.581  -1.948  1.00 20.00     0.038 A 
HETATM    5  C5  UNL     1     -34.912  15.074  -3.173  1.00 20.00     0.039 A 
HETATM    6  C6  UNL     1     -33.830  14.964  -4.017  1.00 20.00     0.143 A 
HETATM    7  C7  UNL     1     -34.598  16.108  -2.252  1.00 20.00    -0.001 A 
HETATM    8  C8  UNL     1     -33.331  16.560  -2.608  1.00 20.00     0.085 A 
HETATM    9  O9  UNL     1     -32.866  15.862  -3.682  1.00 20.00    -0.322 OA
ENDROOT
TORSDOF 0
ENDMDL
MODEL 8
REMARK VINA RESULT:      -4.4     11.800     12.362
REMARK  0 active torsions:
REMARK  status: ('A' for Active; 'I' for Inactive)
ROOT
HETATM    1  C1  UNL     1     -33.177  17.793  -1.523  1.00 20.00     0.001 A 
HETATM    2  C2  UNL     1     -34.429  17.544  -0.953  1.00 20.00     0.003 A 
HETATM    3  C3  UNL     1     -32.708  17.029  -2.600  1.00 20.00     0.014 A 
HETATM    4  C4  UNL     1     -35.256  16.527  -1.438  1.00 20.00     0.038 A 
HETATM    5  C5  UNL     1     -33.421  15.038  -4.142  1.00 20.00     0.039 A 
HETATM    6  C6  UNL     1     -34.588  14.310  -4.113  1.00 20.00     0.143 A 
HETATM    7  C7  UNL     1     -33.524  16.001  -3.104  1.00 20.00    -0.001 A 
HETATM    8  C8  UNL     1     -34.763  15.786  -2.509  1.00 20.00     0.085 A 
HETATM    9  O9  UNL     1     -35.409  14.756  -3.126  1.00 20.00    -0.322 OA
ENDROOT
TORSDOF 0
ENDMDL
MODEL 9
REMARK VINA RESULT:      -4.3     11.850     12.416
REMARK  0 active torsions:
REMARK  status: ('A' for Active; 'I' for Inactive)
ROOT
HETATM    1  C1  UNL     1     -34.840  14.344  -4.066  1.00 20.00     0.001 A 
HETATM    2  C2  UNL     1     -33.516  14.686  -4.354  1.00 20.00     0.003 A 
HETATM    3  C3  UNL     1     -35.552  14.999  -3.052  1.00 20.00     0.014 A 
HETATM    4  C4  UNL     1     -32.856  15.692  -3.642  1.00 20.00     0.038 A 
HETATM    5  C5  UNL     1     -35.264  16.885  -1.261  1.00 20.00     0.039 A 
HETATM    6  C6  UNL     1     -34.156  17.658  -1.004  1.00 20.00     0.143 A 
HETATM    7  C7  UNL     1     -34.908  16.015  -2.324  1.00 20.00    -0.001 A 
HETATM    8  C8  UNL     1     -33.589  16.325  -2.641  1.00 20.00     0.085 A 
HETATM    9  O9  UNL     1     -33.134  17.326  -1.836  1.00 20.00    -0.322 OA
ENDROOT
TORSDOF 0
ENDMDL
