MODEL 1
REMARK VINA RESULT:      -5.1      0.000      0.000
REMARK  2 active torsions:
REMARK  status: ('A' for Active; 'I' for Inactive)
REMARK    1  A    between atoms: C6_6  and  C7_7 
REMARK    2  A    between atoms: C7_7  and  S8_8 
ROOT
HETATM    1  C1  UNL     1     -34.983   5.192   5.377  1.00 20.00     0.000 A 
HETATM    2  C2  UNL     1     -34.340   6.306   5.915  1.00 20.00     0.001 A 
HETATM    3  C3  UNL     1     -34.694   4.780   4.076  1.00 20.00     0.001 A 
HETATM    4  C4  UNL     1     -33.408   7.009   5.152  1.00 20.00     0.008 A 
HETATM    5  C5  UNL     1     -33.763   5.483   3.313  1.00 20.00     0.008 A 
HETATM    6  C6  UNL     1     -33.120   6.598   3.850  1.00 20.00    -0.049 A 
ENDROOT
BRANCH   6   7
HETATM    7  C7  UNL     1     -32.123   7.349   3.034  1.00 20.00     0.109 C 
BRANCH   7   8
HETATM    8  S8  UNL     1     -32.787   7.856   1.418  1.00 20.00    -0.178 SA
HETATM    9  H16 UNL     1     -33.353   8.991   1.851  1.00 20.00     0.101 HD
ENDBRANCH   7   8
ENDBRANCH   6   7
TORSDOF 2
ENDMDL
MODEL 2
REMARK VINA RESULT:      -5.1      0.004      1.708
REMARK  2 active torsions:
REMARK  status: ('A' for Active; 'I' for Inactive)
REMARK    1  A    between atoms: C6_6  and  C7_7 
REMARK    2  A    between atoms: C7_7  and  S8_8 
ROOT
HETATM    1  C1  UNL     1     -34.983   5.191   5.377  1.00 20.00     0.000 A 
HETATM    2  C2  UNL     1     -34.693   4.778   4.077  1.00 20.00     0.001 A 
HETATM    3  C3  UNL     1     -34.341   6.308   5.913  1.00 20.00     0.001 A 
HETATM    4  C4  UNL     1     -33.760   5.479   3.313  1.00 20.00     0.008 A 
HETATM    5  C5  UNL     1     -33.408   7.009   5.150  1.00 20.00     0.008 A 
HETATM    6  C6  UNL     1     -33.117   6.595   3.850  1.00 20.00    -0.049 A 
ENDROOT
BRANCH   6   7
HETATM    7  C7  UNL     1     -32.119   7.346   3.035  1.00 20.00     0.109 C 
BRANCH   7   8
HETATM    8  S8  UNL     1     -32.784   7.861   1.422  1.00 20.00    -0.178 SA
HETATM    9  H16 UNL     1     -32.222   6.869   0.717  1.00 20.00     0.101 HD
ENDBRANCH   7   8
ENDBRANCH   6   7
TORSDOF 2
ENDMDL
MODEL 3
REMARK VINA RESULT:      -4.0     11.569     12.129
REMARK  2 active torsions:
REMARK  status: ('A' for Active; 'I' for Inactive)
REMARK    1  A    between atoms: C6_6  and  C7_7 
REMARK    2  A    between atoms: C7_7  and  S8_8 
ROOT
HETATM    1  C1  UNL     1     -33.909  17.574  -1.375  1.00 20.00     0.000 A 
HETATM    2  C2  UNL     1     -35.069  16.800  -1.354  1.00 20.00     0.001 A 
HETATM    3  C3  UNL     1     -32.904  17.300  -2.303  1.00 20.00     0.001 A 
HETATM    4  C4  UNL     1     -35.223  15.750  -2.260  1.00 20.00     0.008 A 
HETATM    5  C5  UNL     1     -33.059  16.252  -3.208  1.00 20.00     0.008 A 
HETATM    6  C6  UNL     1     -34.218  15.476  -3.187  1.00 20.00    -0.049 A 
ENDROOT
BRANCH   6   7
HETATM    7  C7  UNL     1     -34.382  14.355  -4.157  1.00 20.00     0.109 C 
BRANCH   7   8
HETATM    8  S8  UNL     1     -36.128  13.974  -4.492  1.00 20.00    -0.178 SA
HETATM    9  H16 UNL     1     -36.403  13.495  -3.271  1.00 20.00     0.101 HD
ENDBRANCH   7   8
ENDBRANCH   6   7
TORSDOF 2
ENDMDL
MODEL 4
REMARK VINA RESULT:      -4.0     11.568     12.133
REMARK  2 active torsions:
REMARK  status: ('A' for Active; 'I' for Inactive)
REMARK    1  A    between atoms: C6_6  and  C7_7 
REMARK    2  A    between atoms: C7_7  and  S8_8 
ROOT
HETATM    1  C1  UNL     1     -33.910  17.575  -1.376  1.00 20.00     0.000 A 
HETATM    2  C2  UNL     1     -32.905  17.301  -2.302  1.00 20.00     0.001 A 
HETATM    3  C3  UNL     1     -35.069  16.799  -1.355  1.00 20.00     0.001 A 
HETATM    4  C4  UNL     1     -33.058  16.251  -3.209  1.00 20.00     0.008 A 
HETATM    5  C5  UNL     1     -35.223  15.750  -2.260  1.00 20.00     0.008 A 
HETATM    6  C6  UNL     1     -34.218  15.476  -3.188  1.00 20.00    -0.049 A 
ENDROOT
BRANCH   6   7
HETATM    7  C7  UNL     1     -34.383  14.353  -4.156  1.00 20.00     0.109 C 
BRANCH   7   8
HETATM    8  S8  UNL     1     -36.129  13.974  -4.492  1.00 20.00    -0.178 SA
HETATM    9  H16 UNL     1     -36.363  15.056  -5.247  1.00 20.00     0.101 HD
ENDBRANCH   7   8
ENDBRANCH   6   7
TORSDOF 2
ENDMDL
MODEL 5
REMARK VINA RESULT:      -3.9     11.718     12.304
REMARK  2 active torsions:
REMARK  status: ('A' for Active; 'I' for Inactive)
REMARK    1  A    between atoms: C6_6  and  C7_7 
REMARK    2  A    between atoms: C7_7  and  S8_8 
ROOT
HETATM    1  C1  UNL     1     -34.339  14.860  -3.796  1.00 20.00     0.000 A 
HETATM    2  C2  UNL     1     -33.136  15.564  -3.833  1.00 20.00     0.001 A 
HETATM    3  C3  UNL     1     -35.312  15.189  -2.852  1.00 20.00     0.001 A 
HETATM    4  C4  UNL     1     -32.905  16.597  -2.924  1.00 20.00     0.008 A 
HETATM    5  C5  UNL     1     -35.081  16.222  -1.945  1.00 20.00     0.008 A 
HETATM    6  C6  UNL     1     -33.878  16.926  -1.980  1.00 20.00    -0.049 A 
ENDROOT
BRANCH   6   7
HETATM    7  C7  UNL     1     -33.631  18.030  -1.008  1.00 20.00     0.109 C 
BRANCH   7   8
HETATM    8  S8  UNL     1     -31.867  18.444  -0.857  1.00 20.00    -0.178 SA
HETATM    9  H16 UNL     1     -31.558  18.206  -2.139  1.00 20.00     0.101 HD
ENDBRANCH   7   8
ENDBRANCH   6   7
TORSDOF 2
ENDMDL
MODEL 6
REMARK VINA RESULT:      -3.8     11.685     12.164
REMARK  2 active torsions:
REMARK  status: ('A' for Active; 'I' for Inactive)
REMARK    1  A    between atoms: C6_6  and  C7_7 
REMARK    2  A    between atoms: C7_7  and  S8_8 
ROOT
HETATM    1  C1  UNL     1     -34.140  14.711  -4.087  1.00 20.00     0.000 A 
HETATM    2  C2  UNL     1     -35.296  14.903  -3.330  1.00 20.00     0.001 A 
HETATM    3  C3  UNL     1     -33.012  15.496  -3.848  1.00 20.00     0.001 A 
HETATM    4  C4  UNL     1     -35.324  15.881  -2.336  1.00 20.00     0.008 A 
HETATM    5  C5  UNL     1     -33.040  16.473  -2.854  1.00 20.00     0.008 A 
HETATM    6  C6  UNL     1     -34.196  16.667  -2.098  1.00 20.00    -0.049 A 
ENDROOT
BRANCH   6   7
HETATM    7  C7  UNL     1     -34.225  17.712  -1.035  1.00 20.00     0.109 C 
BRANCH   7   8
HETATM    8  S8  UNL     1     -35.419  17.332   0.283  1.00 20.00    -0.178 SA
HETATM    9  H16 UNL     1     -34.544  16.715   1.090  1.00 20.00     0.101 HD
ENDBRANCH   7   8
ENDBRANCH   6   7
TORSDOF 2
ENDMDL
MODEL 7
REMARK VINA RESULT:      -3.8     11.761     12.460
REMARK  2 active torsions:
REMARK  status: ('A' for Active; 'I' for Inactive)
REMARK    1  A    between atoms: C6_6  and  C7_7 
REMARK    2  A    between atoms: C7_7  and  S8_8 
ROOT
HETATM    1  C1  UNL     1     -34.991  15.554  -2.529  1.00 20.00     0.000 A 
HETATM    2  C2  UNL     1     -35.211  16.477  -1.507  1.00 20.00     0.001 A 
HETATM    3  C3  UNL     1     -33.833  15.635  -3.304  1.00 20.00     0.001 A 
HETATM    4  C4  UNL     1     -34.276  17.481  -1.259  1.00 20.00     0.008 A 
HETATM    5  C5  UNL     1     -32.898  16.639  -3.056  1.00 20.00     0.008 A 
HETATM    6  C6  UNL     1     -33.119  17.563  -2.035  1.00 20.00    -0.049 A 
ENDROOT
BRANCH   6   7
HETATM    7  C7  UNL     1     -32.118  18.636  -1.771  1.00 20.00     0.109 C 
BRANCH   7   8
HETATM    8  S8  UNL     1     -31.328  18.467  -0.141  1.00 20.00    -0.178 SA
HETATM    9  H16 UNL     1     -31.378  19.769   0.173  1.00 20.00     0.101 HD
ENDBRANCH   7   8
ENDBRANCH   6   7
TORSDOF 2
ENDMDL
MODEL 8
REMARK VINA RESULT:      -3.6     12.026     12.354
REMARK  2 active torsions:
REMARK  status: ('A' for Active; 'I' for Inactive)
REMARK    1  A    between atoms: C6_6  and  C7_7 
REMARK    2  A    between atoms: C7_7  and  S8_8 
ROOT
HETATM    1  C1  UNL     1     -33.221  16.086  -3.034  1.00 20.00     0.000 A 
HETATM    2  C2  UNL     1     -33.222  15.179  -4.093  1.00 20.00     0.001 A 
HETATM    3  C3  UNL     1     -34.409  16.372  -2.360  1.00 20.00     0.001 A 
HETATM    4  C4  UNL     1     -34.410  14.558  -4.479  1.00 20.00     0.008 A 
HETATM    5  C5  UNL     1     -35.596  15.751  -2.746  1.00 20.00     0.008 A 
HETATM    6  C6  UNL     1     -35.597  14.845  -3.806  1.00 20.00    -0.049 A 
ENDROOT
BRANCH   6   7
HETATM    7  C7  UNL     1     -36.868  14.181  -4.218  1.00 20.00     0.109 C 
BRANCH   7   8
HETATM    8  S8  UNL     1     -38.199  15.374  -4.554  1.00 20.00    -0.178 SA
HETATM    9  H16 UNL     1     -38.569  15.534  -3.276  1.00 20.00     0.101 HD
ENDBRANCH   7   8
ENDBRANCH   6   7
TORSDOF 2
ENDMDL
MODEL 9
REMARK VINA RESULT:      -3.6     16.199     16.512
REMARK  2 active torsions:
REMARK  status: ('A' for Active; 'I' for Inactive)
REMARK    1  A    between atoms: C6_6  and  C7_7 
REMARK    2  A    between atoms: C7_7  and  S8_8 
ROOT
HETATM    1  C1  UNL     1     -22.798  17.874   8.171  1.00 20.00     0.000 A 
HETATM    2  C2  UNL     1     -22.589  16.933   9.179  1.00 20.00     0.001 A 
HETATM    3  C3  UNL     1     -23.831  18.804   8.289  1.00 20.00     0.001 A 
HETATM    4  C4  UNL     1     -23.414  16.921  10.304  1.00 20.00     0.008 A 
HETATM    5  C5  UNL     1     -24.655  18.792   9.413  1.00 20.00     0.008 A 
HETATM    6  C6  UNL     1     -24.448  17.851  10.421  1.00 20.00    -0.049 A 
ENDROOT
BRANCH   6   7
HETATM    7  C7  UNL     1     -25.330  17.839  11.623  1.00 20.00     0.109 C 
BRANCH   7   8
HETATM    8  S8  UNL     1     -26.510  19.223  11.635  1.00 20.00    -0.178 SA
HETATM    9  H16 UNL     1     -26.353  19.550  10.345  1.00 20.00     0.101 HD
ENDBRANCH   7   8
ENDBRANCH   6   7
TORSDOF 2
ENDMDL
