MODEL 1
REMARK VINA RESULT:      -5.2      0.000      0.000
REMARK  0 active torsions:
REMARK  status: ('A' for Active; 'I' for Inactive)
ROOT
HETATM    1  C1  UNL     1     -34.101   5.347   3.467  1.00 20.00     0.000 A 
HETATM    2  C2  UNL     1     -33.461   6.555   3.742  1.00 20.00     0.000 A 
HETATM    3  C3  UNL     1     -34.793   4.677   4.476  1.00 20.00     0.000 A 
HETATM    4  C4  UNL     1     -33.513   7.093   5.028  1.00 20.00     0.000 A 
HETATM    5  C5  UNL     1     -34.843   5.215   5.761  1.00 20.00     0.000 A 
HETATM    6  C6  UNL     1     -34.203   6.423   6.038  1.00 20.00     0.000 A 
ENDROOT
TORSDOF 0
ENDMDL
MODEL 2
REMARK VINA RESULT:      -5.2      0.070      1.973
REMARK  0 active torsions:
REMARK  status: ('A' for Active; 'I' for Inactive)
ROOT
HETATM    1  C1  UNL     1     -34.840   5.291   5.816  1.00 20.00     0.000 A 
HETATM    2  C2  UNL     1     -34.159   6.487   6.044  1.00 20.00     0.000 A 
HETATM    3  C3  UNL     1     -34.831   4.714   4.546  1.00 20.00     0.000 A 
HETATM    4  C4  UNL     1     -33.472   7.107   5.001  1.00 20.00     0.000 A 
HETATM    5  C5  UNL     1     -34.145   5.335   3.504  1.00 20.00     0.000 A 
HETATM    6  C6  UNL     1     -33.464   6.531   3.731  1.00 20.00     0.000 A 
ENDROOT
TORSDOF 0
ENDMDL
MODEL 3
REMARK VINA RESULT:      -5.2      0.122      1.972
REMARK  0 active torsions:
REMARK  status: ('A' for Active; 'I' for Inactive)
ROOT
HETATM    1  C1  UNL     1     -34.110   6.521   6.005  1.00 20.00     0.000 A 
HETATM    2  C2  UNL     1     -33.449   7.103   4.923  1.00 20.00     0.000 A 
HETATM    3  C3  UNL     1     -34.805   5.323   5.837  1.00 20.00     0.000 A 
HETATM    4  C4  UNL     1     -33.483   6.486   3.673  1.00 20.00     0.000 A 
HETATM    5  C5  UNL     1     -34.839   4.707   4.587  1.00 20.00     0.000 A 
HETATM    6  C6  UNL     1     -34.178   5.288   3.504  1.00 20.00     0.000 A 
ENDROOT
TORSDOF 0
ENDMDL
MODEL 4
REMARK VINA RESULT:      -5.2      0.088      1.972
REMARK  0 active torsions:
REMARK  status: ('A' for Active; 'I' for Inactive)
ROOT
HETATM    1  C1  UNL     1     -33.474   7.098   4.945  1.00 20.00     0.000 A 
HETATM    2  C2  UNL     1     -33.483   6.503   3.683  1.00 20.00     0.000 A 
HETATM    3  C3  UNL     1     -34.144   6.492   6.008  1.00 20.00     0.000 A 
HETATM    4  C4  UNL     1     -34.164   5.302   3.485  1.00 20.00     0.000 A 
HETATM    5  C5  UNL     1     -34.825   5.292   5.809  1.00 20.00     0.000 A 
HETATM    6  C6  UNL     1     -34.835   4.696   4.547  1.00 20.00     0.000 A 
ENDROOT
TORSDOF 0
ENDMDL
MODEL 5
REMARK VINA RESULT:      -5.2      0.086      2.372
REMARK  0 active torsions:
REMARK  status: ('A' for Active; 'I' for Inactive)
ROOT
HETATM    1  C1  UNL     1     -33.478   7.098   4.947  1.00 20.00     0.000 A 
HETATM    2  C2  UNL     1     -34.147   6.491   6.010  1.00 20.00     0.000 A 
HETATM    3  C3  UNL     1     -33.487   6.503   3.685  1.00 20.00     0.000 A 
HETATM    4  C4  UNL     1     -34.824   5.288   5.811  1.00 20.00     0.000 A 
HETATM    5  C5  UNL     1     -34.164   5.300   3.487  1.00 20.00     0.000 A 
HETATM    6  C6  UNL     1     -34.833   4.692   4.549  1.00 20.00     0.000 A 
ENDROOT
TORSDOF 0
ENDMDL
MODEL 6
REMARK VINA RESULT:      -5.2      0.125      2.787
REMARK  0 active torsions:
REMARK  status: ('A' for Active; 'I' for Inactive)
ROOT
HETATM    1  C1  UNL     1     -34.104   6.518   6.001  1.00 20.00     0.000 A 
HETATM    2  C2  UNL     1     -34.804   5.323   5.835  1.00 20.00     0.000 A 
HETATM    3  C3  UNL     1     -33.442   7.096   4.918  1.00 20.00     0.000 A 
HETATM    4  C4  UNL     1     -34.840   4.705   4.586  1.00 20.00     0.000 A 
HETATM    5  C5  UNL     1     -33.478   6.477   3.669  1.00 20.00     0.000 A 
HETATM    6  C6  UNL     1     -34.177   5.281   3.502  1.00 20.00     0.000 A 
ENDROOT
TORSDOF 0
ENDMDL
MODEL 7
REMARK VINA RESULT:      -5.2      0.035      1.421
REMARK  0 active torsions:
REMARK  status: ('A' for Active; 'I' for Inactive)
ROOT
HETATM    1  C1  UNL     1     -34.825   4.689   4.502  1.00 20.00     0.000 A 
HETATM    2  C2  UNL     1     -34.138   5.334   3.473  1.00 20.00     0.000 A 
HETATM    3  C3  UNL     1     -34.845   5.242   5.783  1.00 20.00     0.000 A 
HETATM    4  C4  UNL     1     -33.469   6.532   3.727  1.00 20.00     0.000 A 
HETATM    5  C5  UNL     1     -34.176   6.439   6.035  1.00 20.00     0.000 A 
HETATM    6  C6  UNL     1     -33.488   7.085   5.007  1.00 20.00     0.000 A 
ENDROOT
TORSDOF 0
ENDMDL
MODEL 8
REMARK VINA RESULT:      -4.7      0.737      2.139
REMARK  0 active torsions:
REMARK  status: ('A' for Active; 'I' for Inactive)
ROOT
HETATM    1  C1  UNL     1     -33.755   4.807   2.961  1.00 20.00     0.000 A 
HETATM    2  C2  UNL     1     -34.525   4.440   4.065  1.00 20.00     0.000 A 
HETATM    3  C3  UNL     1     -33.160   6.068   2.912  1.00 20.00     0.000 A 
HETATM    4  C4  UNL     1     -34.701   5.336   5.120  1.00 20.00     0.000 A 
HETATM    5  C5  UNL     1     -33.337   6.963   3.967  1.00 20.00     0.000 A 
HETATM    6  C6  UNL     1     -34.107   6.597   5.071  1.00 20.00     0.000 A 
ENDROOT
TORSDOF 0
ENDMDL
MODEL 9
REMARK VINA RESULT:      -3.6     12.184     12.733
REMARK  0 active torsions:
REMARK  status: ('A' for Active; 'I' for Inactive)
ROOT
HETATM    1  C1  UNL     1     -35.291  15.118  -2.992  1.00 20.00     0.000 A 
HETATM    2  C2  UNL     1     -35.216  16.132  -2.038  1.00 20.00     0.000 A 
HETATM    3  C3  UNL     1     -34.213  14.880  -3.845  1.00 20.00     0.000 A 
HETATM    4  C4  UNL     1     -34.063  16.910  -1.937  1.00 20.00     0.000 A 
HETATM    5  C5  UNL     1     -33.061  15.658  -3.744  1.00 20.00     0.000 A 
HETATM    6  C6  UNL     1     -32.985  16.673  -2.790  1.00 20.00     0.000 A 
ENDROOT
TORSDOF 0
ENDMDL
