MODEL 1
REMARK VINA RESULT:      -5.8      0.000      0.000
REMARK  3 active torsions:
REMARK  status: ('A' for Active; 'I' for Inactive)
REMARK    1  A    between atoms: C6_6  and  O9_9 
REMARK    2  A    between atoms: C7_7  and  C8_8 
REMARK    3  A    between atoms: C7_7  and  O9_9 
ROOT
HETATM    1  C1  UNL     1     -34.946   5.129   5.460  1.00 20.00     0.000 A 
HETATM    2  C2  UNL     1     -34.688   4.746   4.145  1.00 20.00     0.003 A 
HETATM    3  C3  UNL     1     -34.312   6.249   5.997  1.00 20.00     0.003 A 
HETATM    4  C4  UNL     1     -33.796   5.484   3.365  1.00 20.00     0.037 A 
HETATM    5  C5  UNL     1     -33.420   6.986   5.219  1.00 20.00     0.037 A 
HETATM    6  C6  UNL     1     -33.163   6.604   3.902  1.00 20.00     0.068 A 
ENDROOT
BRANCH   6   7
HETATM    7  O9  UNL     1     -32.291   7.322   3.143  1.00 20.00    -0.350 OA
BRANCH   7   8
HETATM    8  C7  UNL     1     -32.490   7.301   1.731  1.00 20.00     0.190 C 
BRANCH   8   9
HETATM    9  C8  UNL     1     -32.832   8.697   1.241  1.00 20.00     0.141 C 
HETATM   10 CL10 UNL     1     -33.454   8.647  -0.428  1.00 20.00    -0.128 Cl
ENDBRANCH   8   9
ENDBRANCH   7   8
ENDBRANCH   6   7
TORSDOF 3
ENDMDL
MODEL 2
REMARK VINA RESULT:      -4.3     11.286     11.888
REMARK  3 active torsions:
REMARK  status: ('A' for Active; 'I' for Inactive)
REMARK    1  A    between atoms: C6_6  and  O9_9 
REMARK    2  A    between atoms: C7_7  and  C8_8 
REMARK    3  A    between atoms: C7_7  and  O9_9 
ROOT
HETATM    1  C1  UNL     1     -33.975  16.905  -1.868  1.00 20.00     0.000 A 
HETATM    2  C2  UNL     1     -35.194  16.233  -1.953  1.00 20.00     0.003 A 
HETATM    3  C3  UNL     1     -32.965  16.636  -2.792  1.00 20.00     0.003 A 
HETATM    4  C4  UNL     1     -35.404  15.293  -2.964  1.00 20.00     0.037 A 
HETATM    5  C5  UNL     1     -33.174  15.697  -3.801  1.00 20.00     0.037 A 
HETATM    6  C6  UNL     1     -34.394  15.026  -3.887  1.00 20.00     0.068 A 
ENDROOT
BRANCH   6   7
HETATM    7  O9  UNL     1     -34.597  14.108  -4.871  1.00 20.00    -0.350 OA
BRANCH   7   8
HETATM    8  C7  UNL     1     -35.747  14.285  -5.697  1.00 20.00     0.190 C 
BRANCH   8   9
HETATM    9  C8  UNL     1     -35.431  15.263  -6.813  1.00 20.00     0.141 C 
HETATM   10 CL10 UNL     1     -33.754  15.055  -7.380  1.00 20.00    -0.128 Cl
ENDBRANCH   8   9
ENDBRANCH   7   8
ENDBRANCH   6   7
TORSDOF 3
ENDMDL
MODEL 3
REMARK VINA RESULT:      -4.3     11.291     11.885
REMARK  3 active torsions:
REMARK  status: ('A' for Active; 'I' for Inactive)
REMARK    1  A    between atoms: C6_6  and  O9_9 
REMARK    2  A    between atoms: C7_7  and  C8_8 
REMARK    3  A    between atoms: C7_7  and  O9_9 
ROOT
HETATM    1  C1  UNL     1     -33.957  16.903  -1.890  1.00 20.00     0.000 A 
HETATM    2  C2  UNL     1     -32.951  16.613  -2.811  1.00 20.00     0.003 A 
HETATM    3  C3  UNL     1     -35.185  16.245  -1.969  1.00 20.00     0.003 A 
HETATM    4  C4  UNL     1     -33.172  15.664  -3.811  1.00 20.00     0.037 A 
HETATM    5  C5  UNL     1     -35.406  15.297  -2.968  1.00 20.00     0.037 A 
HETATM    6  C6  UNL     1     -34.399  15.007  -3.889  1.00 20.00     0.068 A 
ENDROOT
BRANCH   6   7
HETATM    7  O9  UNL     1     -34.616  14.084  -4.865  1.00 20.00    -0.350 OA
BRANCH   7   8
HETATM    8  C7  UNL     1     -35.762  14.271  -5.694  1.00 20.00     0.190 C 
BRANCH   8   9
HETATM    9  C8  UNL     1     -35.450  15.288  -6.776  1.00 20.00     0.141 C 
HETATM   10 CL10 UNL     1     -33.793  15.068  -7.393  1.00 20.00    -0.128 Cl
ENDBRANCH   8   9
ENDBRANCH   7   8
ENDBRANCH   6   7
TORSDOF 3
ENDMDL
MODEL 4
REMARK VINA RESULT:      -4.2     11.053     11.725
REMARK  3 active torsions:
REMARK  status: ('A' for Active; 'I' for Inactive)
REMARK    1  A    between atoms: C6_6  and  O9_9 
REMARK    2  A    between atoms: C7_7  and  C8_8 
REMARK    3  A    between atoms: C7_7  and  O9_9 
ROOT
HETATM    1  C1  UNL     1     -33.955  17.699  -1.195  1.00 20.00     0.000 A 
HETATM    2  C2  UNL     1     -35.047  16.835  -1.266  1.00 20.00     0.003 A 
HETATM    3  C3  UNL     1     -32.888  17.548  -2.081  1.00 20.00     0.003 A 
HETATM    4  C4  UNL     1     -35.073  15.819  -2.222  1.00 20.00     0.037 A 
HETATM    5  C5  UNL     1     -32.914  16.533  -3.037  1.00 20.00     0.037 A 
HETATM    6  C6  UNL     1     -34.007  15.668  -3.108  1.00 20.00     0.068 A 
ENDROOT
BRANCH   6   7
HETATM    7  O9  UNL     1     -34.030  14.677  -4.039  1.00 20.00    -0.350 OA
BRANCH   7   8
HETATM    8  C7  UNL     1     -34.144  15.071  -5.405  1.00 20.00     0.190 C 
BRANCH   8   9
HETATM    9  C8  UNL     1     -35.526  14.721  -5.926  1.00 20.00     0.141 C 
HETATM   10 CL10 UNL     1     -36.350  13.589  -4.823  1.00 20.00    -0.128 Cl
ENDBRANCH   8   9
ENDBRANCH   7   8
ENDBRANCH   6   7
TORSDOF 3
ENDMDL
MODEL 5
REMARK VINA RESULT:      -4.2     11.033     11.719
REMARK  3 active torsions:
REMARK  status: ('A' for Active; 'I' for Inactive)
REMARK    1  A    between atoms: C6_6  and  O9_9 
REMARK    2  A    between atoms: C7_7  and  C8_8 
REMARK    3  A    between atoms: C7_7  and  O9_9 
ROOT
HETATM    1  C1  UNL     1     -33.956  17.666  -1.232  1.00 20.00     0.000 A 
HETATM    2  C2  UNL     1     -32.887  17.518  -2.114  1.00 20.00     0.003 A 
HETATM    3  C3  UNL     1     -35.043  16.794  -1.301  1.00 20.00     0.003 A 
HETATM    4  C4  UNL     1     -32.904  16.497  -3.066  1.00 20.00     0.037 A 
HETATM    5  C5  UNL     1     -35.061  15.775  -2.253  1.00 20.00     0.037 A 
HETATM    6  C6  UNL     1     -33.991  15.626  -3.135  1.00 20.00     0.068 A 
ENDROOT
BRANCH   6   7
HETATM    7  O9  UNL     1     -34.009  14.632  -4.065  1.00 20.00    -0.350 OA
BRANCH   7   8
HETATM    8  C7  UNL     1     -34.141  15.023  -5.430  1.00 20.00     0.190 C 
BRANCH   8   9
HETATM    9  C8  UNL     1     -35.553  14.737  -5.910  1.00 20.00     0.141 C 
HETATM   10 CL10 UNL     1     -36.367  13.580  -4.826  1.00 20.00    -0.128 Cl
ENDBRANCH   8   9
ENDBRANCH   7   8
ENDBRANCH   6   7
TORSDOF 3
ENDMDL
MODEL 6
REMARK VINA RESULT:      -4.1     11.242     11.970
REMARK  3 active torsions:
REMARK  status: ('A' for Active; 'I' for Inactive)
REMARK    1  A    between atoms: C6_6  and  O9_9 
REMARK    2  A    between atoms: C7_7  and  C8_8 
REMARK    3  A    between atoms: C7_7  and  O9_9 
ROOT
HETATM    1  C1  UNL     1     -34.510  14.598  -3.926  1.00 20.00     0.000 A 
HETATM    2  C2  UNL     1     -33.249  15.182  -4.038  1.00 20.00     0.003 A 
HETATM    3  C3  UNL     1     -35.412  15.065  -2.969  1.00 20.00     0.003 A 
HETATM    4  C4  UNL     1     -32.889  16.233  -3.194  1.00 20.00     0.037 A 
HETATM    5  C5  UNL     1     -35.052  16.115  -2.126  1.00 20.00     0.037 A 
HETATM    6  C6  UNL     1     -33.791  16.700  -2.238  1.00 20.00     0.068 A 
ENDROOT
BRANCH   6   7
HETATM    7  O9  UNL     1     -33.439  17.724  -1.414  1.00 20.00    -0.350 OA
BRANCH   7   8
HETATM    8  C7  UNL     1     -32.234  18.422  -1.723  1.00 20.00     0.190 C 
BRANCH   8   9
HETATM    9  C8  UNL     1     -31.751  19.176  -0.497  1.00 20.00     0.141 C 
HETATM   10 CL10 UNL     1     -30.746  18.128   0.535  1.00 20.00    -0.128 Cl
ENDBRANCH   8   9
ENDBRANCH   7   8
ENDBRANCH   6   7
TORSDOF 3
ENDMDL
MODEL 7
REMARK VINA RESULT:      -4.0     11.213     11.847
REMARK  3 active torsions:
REMARK  status: ('A' for Active; 'I' for Inactive)
REMARK    1  A    between atoms: C6_6  and  O9_9 
REMARK    2  A    between atoms: C7_7  and  C8_8 
REMARK    3  A    between atoms: C7_7  and  O9_9 
ROOT
HETATM    1  C1  UNL     1     -34.663  14.396  -3.889  1.00 20.00     0.000 A 
HETATM    2  C2  UNL     1     -35.434  15.065  -2.938  1.00 20.00     0.003 A 
HETATM    3  C3  UNL     1     -33.361  14.820  -4.154  1.00 20.00     0.003 A 
HETATM    4  C4  UNL     1     -34.902  16.158  -2.252  1.00 20.00     0.037 A 
HETATM    5  C5  UNL     1     -32.830  15.913  -3.470  1.00 20.00     0.037 A 
HETATM    6  C6  UNL     1     -33.601  16.582  -2.518  1.00 20.00     0.068 A 
ENDROOT
BRANCH   6   7
HETATM    7  O9  UNL     1     -33.083  17.649  -1.851  1.00 20.00    -0.350 OA
BRANCH   7   8
HETATM    8  C7  UNL     1     -33.685  17.990  -0.604  1.00 20.00     0.190 C 
BRANCH   8   9
HETATM    9  C8  UNL     1     -32.663  18.667   0.290  1.00 20.00     0.141 C 
HETATM   10 CL10 UNL     1     -31.005  18.273  -0.233  1.00 20.00    -0.128 Cl
ENDBRANCH   8   9
ENDBRANCH   7   8
ENDBRANCH   6   7
TORSDOF 3
ENDMDL
MODEL 8
REMARK VINA RESULT:      -4.0     11.370     12.066
REMARK  3 active torsions:
REMARK  status: ('A' for Active; 'I' for Inactive)
REMARK    1  A    between atoms: C6_6  and  O9_9 
REMARK    2  A    between atoms: C7_7  and  C8_8 
REMARK    3  A    between atoms: C7_7  and  O9_9 
ROOT
HETATM    1  C1  UNL     1     -34.116  15.613  -3.141  1.00 20.00     0.000 A 
HETATM    2  C2  UNL     1     -32.997  16.443  -3.092  1.00 20.00     0.003 A 
HETATM    3  C3  UNL     1     -35.165  15.803  -2.242  1.00 20.00     0.003 A 
HETATM    4  C4  UNL     1     -32.926  17.464  -2.144  1.00 20.00     0.037 A 
HETATM    5  C5  UNL     1     -35.095  16.824  -1.294  1.00 20.00     0.037 A 
HETATM    6  C6  UNL     1     -33.975  17.654  -1.245  1.00 20.00     0.068 A 
ENDROOT
BRANCH   6   7
HETATM    7  O9  UNL     1     -33.906  18.649  -0.319  1.00 20.00    -0.350 OA
BRANCH   7   8
HETATM    8  C7  UNL     1     -32.972  18.480   0.746  1.00 20.00     0.190 C 
BRANCH   8   9
HETATM    9  C8  UNL     1     -33.704  18.051   2.005  1.00 20.00     0.141 C 
HETATM   10 CL10 UNL     1     -32.549  17.635   3.298  1.00 20.00    -0.128 Cl
ENDBRANCH   8   9
ENDBRANCH   7   8
ENDBRANCH   6   7
TORSDOF 3
ENDMDL
MODEL 9
REMARK VINA RESULT:      -3.8     11.121     11.739
REMARK  3 active torsions:
REMARK  status: ('A' for Active; 'I' for Inactive)
REMARK    1  A    between atoms: C6_6  and  O9_9 
REMARK    2  A    between atoms: C7_7  and  C8_8 
REMARK    3  A    between atoms: C7_7  and  O9_9 
ROOT
HETATM    1  C1  UNL     1     -33.217  17.116  -2.176  1.00 20.00     0.000 A 
HETATM    2  C2  UNL     1     -32.724  16.391  -3.260  1.00 20.00     0.003 A 
HETATM    3  C3  UNL     1     -34.483  16.831  -1.664  1.00 20.00     0.003 A 
HETATM    4  C4  UNL     1     -33.497  15.380  -3.833  1.00 20.00     0.037 A 
HETATM    5  C5  UNL     1     -35.256  15.821  -2.237  1.00 20.00     0.037 A 
HETATM    6  C6  UNL     1     -34.763  15.096  -3.321  1.00 20.00     0.068 A 
ENDROOT
BRANCH   6   7
HETATM    7  O9  UNL     1     -35.518  14.112  -3.881  1.00 20.00    -0.350 OA
BRANCH   7   8
HETATM    8  C7  UNL     1     -35.940  14.305  -5.230  1.00 20.00     0.190 C 
BRANCH   8   9
HETATM    9  C8  UNL     1     -37.124  15.253  -5.265  1.00 20.00     0.141 C 
HETATM   10 CL10 UNL     1     -38.423  14.684  -4.185  1.00 20.00    -0.128 Cl
ENDBRANCH   8   9
ENDBRANCH   7   8
ENDBRANCH   6   7
TORSDOF 3
ENDMDL
