MODEL 1
REMARK VINA RESULT:      -2.7      0.000      0.000
REMARK  0 active torsions:
REMARK  status: ('A' for Active; 'I' for Inactive)
ROOT
HETATM    1  C1  UNL     1     -33.833   6.893   5.951  1.00 20.00     0.016 C 
HETATM    2  C2  UNL     1     -34.655   5.628   6.011  1.00 20.00     0.081 C 
HETATM    3 BR3  UNL     1     -34.782   4.836   4.239  1.00 20.00    -0.097 Br
ENDROOT
TORSDOF 0
ENDMDL
MODEL 2
REMARK VINA RESULT:      -2.7      1.990      2.336
REMARK  0 active torsions:
REMARK  status: ('A' for Active; 'I' for Inactive)
ROOT
HETATM    1  C1  UNL     1     -34.808   4.697   4.354  1.00 20.00     0.016 C 
HETATM    2  C2  UNL     1     -34.807   5.205   5.777  1.00 20.00     0.081 C 
HETATM    3 BR3  UNL     1     -33.830   6.884   5.879  1.00 20.00    -0.097 Br
ENDROOT
TORSDOF 0
ENDMDL
MODEL 3
REMARK VINA RESULT:      -2.6      1.398      1.670
REMARK  0 active torsions:
REMARK  status: ('A' for Active; 'I' for Inactive)
ROOT
HETATM    1  C1  UNL     1     -34.660   5.530   5.769  1.00 20.00     0.016 C 
HETATM    2  C2  UNL     1     -35.134   5.116   4.395  1.00 20.00     0.081 C 
HETATM    3 BR3  UNL     1     -33.685   5.302   3.112  1.00 20.00    -0.097 Br
ENDROOT
TORSDOF 0
ENDMDL
MODEL 4
REMARK VINA RESULT:      -2.5      2.717      2.717
REMARK  0 active torsions:
REMARK  status: ('A' for Active; 'I' for Inactive)
ROOT
HETATM    1  C1  UNL     1     -32.852   6.517   2.843  1.00 20.00     0.016 C 
HETATM    2  C2  UNL     1     -33.566   5.185   2.865  1.00 20.00     0.081 C 
HETATM    3 BR3  UNL     1     -34.850   5.148   4.326  1.00 20.00    -0.097 Br
ENDROOT
TORSDOF 0
ENDMDL
MODEL 5
REMARK VINA RESULT:      -2.3      2.011      2.357
REMARK  0 active torsions:
REMARK  status: ('A' for Active; 'I' for Inactive)
ROOT
HETATM    1  C1  UNL     1     -34.919   5.145   4.609  1.00 20.00     0.016 C 
HETATM    2  C2  UNL     1     -34.089   6.385   4.375  1.00 20.00     0.081 C 
HETATM    3 BR3  UNL     1     -33.031   6.177   2.756  1.00 20.00    -0.097 Br
ENDROOT
TORSDOF 0
ENDMDL
MODEL 6
REMARK VINA RESULT:      -2.2      3.475      3.694
REMARK  0 active torsions:
REMARK  status: ('A' for Active; 'I' for Inactive)
ROOT
HETATM    1  C1  UNL     1     -32.489   7.655   1.640  1.00 20.00     0.016 C 
HETATM    2  C2  UNL     1     -32.596   6.905   2.947  1.00 20.00     0.081 C 
HETATM    3 BR3  UNL     1     -33.351   5.140   2.636  1.00 20.00    -0.097 Br
ENDROOT
TORSDOF 0
ENDMDL
MODEL 7
REMARK VINA RESULT:      -2.0      4.090      4.266
REMARK  0 active torsions:
REMARK  status: ('A' for Active; 'I' for Inactive)
ROOT
HETATM    1  C1  UNL     1     -33.129   5.623   2.566  1.00 20.00     0.016 C 
HETATM    2  C2  UNL     1     -32.524   6.984   2.819  1.00 20.00     0.081 C 
HETATM    3 BR3  UNL     1     -32.579   8.046   1.190  1.00 20.00    -0.097 Br
ENDROOT
TORSDOF 0
ENDMDL
MODEL 8
REMARK VINA RESULT:      -2.0      8.955      9.039
REMARK  0 active torsions:
REMARK  status: ('A' for Active; 'I' for Inactive)
ROOT
HETATM    1  C1  UNL     1     -41.481   8.881  -0.003  1.00 20.00     0.016 C 
HETATM    2  C2  UNL     1     -41.447   7.503   0.615  1.00 20.00     0.081 C 
HETATM    3 BR3  UNL     1     -41.231   6.160  -0.776  1.00 20.00    -0.097 Br
ENDROOT
TORSDOF 0
ENDMDL
MODEL 9
REMARK VINA RESULT:      -2.0      9.035      9.237
REMARK  0 active torsions:
REMARK  status: ('A' for Active; 'I' for Inactive)
ROOT
HETATM    1  C1  UNL     1     -41.078   5.989  -0.908  1.00 20.00     0.016 C 
HETATM    2  C2  UNL     1     -41.273   6.772   0.369  1.00 20.00     0.081 C 
HETATM    3 BR3  UNL     1     -41.548   8.653  -0.044  1.00 20.00    -0.097 Br
ENDROOT
TORSDOF 0
ENDMDL
