MODEL 1
REMARK VINA RESULT:      -4.9      0.000      0.000
REMARK  5 active torsions:
REMARK  status: ('A' for Active; 'I' for Inactive)
REMARK    1  A    between atoms: C1_1  and  C5_5 
REMARK    2  A    between atoms: C2_2  and  C6_6 
REMARK    3  A    between atoms: C3_3  and  O9_9 
REMARK    4  A    between atoms: C6_6  and  C7_7 
REMARK    5  A    between atoms: C7_7  and  O9_9 
ROOT
HETATM    1  C6  UNL     1     -33.055   6.767   2.975  1.00 20.00     0.053 C 
ENDROOT
BRANCH   1   2
HETATM    2  C2  UNL     1     -33.302   5.289   2.869  1.00 20.00    -0.029 C 
HETATM    3  C1  UNL     1     -34.261   4.642   3.545  1.00 20.00    -0.031 C 
BRANCH   3   4
HETATM    4  C5  UNL     1     -35.209   5.312   4.494  1.00 20.00     0.022 C 
HETATM    5  C4  UNL     1     -34.696   5.252   5.925  1.00 20.00     0.009 C 
ENDBRANCH   3   4
ENDBRANCH   1   2
BRANCH   1   6
HETATM    6  C7  UNL     1     -32.376   7.317   1.726  1.00 20.00     0.181 C 
BRANCH   6   7
HETATM    7  O9  UNL     1     -32.742   8.678   1.543  1.00 20.00    -0.328 OA
BRANCH   7   8
HETATM    8  C3  UNL     1     -33.042   9.040   0.264  1.00 20.00     0.398 C 
HETATM    9  O8  UNL     1     -33.659   8.390  -0.564  1.00 20.00    -0.276 OA
ENDBRANCH   7   8
ENDBRANCH   6   7
ENDBRANCH   1   6
TORSDOF 5
ENDMDL
MODEL 2
REMARK VINA RESULT:      -4.7      2.629      5.019
REMARK  5 active torsions:
REMARK  status: ('A' for Active; 'I' for Inactive)
REMARK    1  A    between atoms: C1_1  and  C5_5 
REMARK    2  A    between atoms: C2_2  and  C6_6 
REMARK    3  A    between atoms: C3_3  and  O9_9 
REMARK    4  A    between atoms: C6_6  and  C7_7 
REMARK    5  A    between atoms: C7_7  and  O9_9 
ROOT
HETATM    1  C6  UNL     1     -33.411   5.305   2.504  1.00 20.00     0.053 C 
ENDROOT
BRANCH   1   2
HETATM    2  C2  UNL     1     -32.765   6.514   3.119  1.00 20.00    -0.029 C 
HETATM    3  C1  UNL     1     -32.382   7.592   2.421  1.00 20.00    -0.031 C 
BRANCH   3   4
HETATM    4  C5  UNL     1     -32.550   7.727   0.936  1.00 20.00     0.022 C 
HETATM    5  C4  UNL     1     -32.966   9.139   0.552  1.00 20.00     0.009 C 
ENDBRANCH   3   4
ENDBRANCH   1   2
BRANCH   1   6
HETATM    6  C7  UNL     1     -34.115   4.449   3.550  1.00 20.00     0.181 C 
BRANCH   6   7
HETATM    7  O9  UNL     1     -35.063   5.239   4.256  1.00 20.00    -0.328 OA
BRANCH   7   8
HETATM    8  C3  UNL     1     -34.882   5.314   5.604  1.00 20.00     0.398 C 
HETATM    9  O8  UNL     1     -34.449   6.261   6.241  1.00 20.00    -0.276 OA
ENDBRANCH   7   8
ENDBRANCH   6   7
ENDBRANCH   1   6
TORSDOF 5
ENDMDL
MODEL 3
REMARK VINA RESULT:      -4.4     10.610     11.029
REMARK  5 active torsions:
REMARK  status: ('A' for Active; 'I' for Inactive)
REMARK    1  A    between atoms: C1_1  and  C5_5 
REMARK    2  A    between atoms: C2_2  and  C6_6 
REMARK    3  A    between atoms: C3_3  and  O9_9 
REMARK    4  A    between atoms: C6_6  and  C7_7 
REMARK    5  A    between atoms: C7_7  and  O9_9 
ROOT
HETATM    1  C6  UNL     1     -33.823  14.526  -4.149  1.00 20.00     0.053 C 
ENDROOT
BRANCH   1   2
HETATM    2  C2  UNL     1     -33.175  15.737  -3.542  1.00 20.00    -0.029 C 
HETATM    3  C1  UNL     1     -33.718  16.457  -2.551  1.00 20.00    -0.031 C 
BRANCH   3   4
HETATM    4  C5  UNL     1     -35.044  16.144  -1.923  1.00 20.00     0.022 C 
HETATM    5  C4  UNL     1     -35.280  16.985  -0.678  1.00 20.00     0.009 C 
ENDBRANCH   3   4
ENDBRANCH   1   2
BRANCH   1   6
HETATM    6  C7  UNL     1     -34.458  14.844  -5.498  1.00 20.00     0.181 C 
BRANCH   6   7
HETATM    7  O9  UNL     1     -35.567  13.981  -5.719  1.00 20.00    -0.328 OA
BRANCH   7   8
HETATM    8  C3  UNL     1     -36.287  13.652  -4.611  1.00 20.00     0.398 C 
HETATM    9  O8  UNL     1     -37.500  13.691  -4.479  1.00 20.00    -0.276 OA
ENDBRANCH   7   8
ENDBRANCH   6   7
ENDBRANCH   1   6
TORSDOF 5
ENDMDL
MODEL 4
REMARK VINA RESULT:      -4.3      1.297      2.254
REMARK  5 active torsions:
REMARK  status: ('A' for Active; 'I' for Inactive)
REMARK    1  A    between atoms: C1_1  and  C5_5 
REMARK    2  A    between atoms: C2_2  and  C6_6 
REMARK    3  A    between atoms: C3_3  and  O9_9 
REMARK    4  A    between atoms: C6_6  and  C7_7 
REMARK    5  A    between atoms: C7_7  and  O9_9 
ROOT
HETATM    1  C6  UNL     1     -33.686   4.430   3.476  1.00 20.00     0.053 C 
ENDROOT
BRANCH   1   2
HETATM    2  C2  UNL     1     -35.050   4.831   3.960  1.00 20.00    -0.029 C 
HETATM    3  C1  UNL     1     -35.283   5.390   5.156  1.00 20.00    -0.031 C 
BRANCH   3   4
HETATM    4  C5  UNL     1     -34.211   5.686   6.161  1.00 20.00     0.022 C 
HETATM    5  C4  UNL     1     -33.673   7.100   5.999  1.00 20.00     0.009 C 
ENDBRANCH   3   4
ENDBRANCH   1   2
BRANCH   1   6
HETATM    6  C7  UNL     1     -33.217   5.308   2.321  1.00 20.00     0.181 C 
BRANCH   6   7
HETATM    7  O9  UNL     1     -32.463   6.402   2.827  1.00 20.00    -0.328 OA
BRANCH   7   8
HETATM    8  C3  UNL     1     -32.629   7.585   2.172  1.00 20.00     0.398 C 
HETATM    9  O8  UNL     1     -32.314   7.845   1.022  1.00 20.00    -0.276 OA
ENDBRANCH   7   8
ENDBRANCH   6   7
ENDBRANCH   1   6
TORSDOF 5
ENDMDL
MODEL 5
REMARK VINA RESULT:      -4.1      2.954      4.971
REMARK  5 active torsions:
REMARK  status: ('A' for Active; 'I' for Inactive)
REMARK    1  A    between atoms: C1_1  and  C5_5 
REMARK    2  A    between atoms: C2_2  and  C6_6 
REMARK    3  A    between atoms: C3_3  and  O9_9 
REMARK    4  A    between atoms: C6_6  and  C7_7 
REMARK    5  A    between atoms: C7_7  and  O9_9 
ROOT
HETATM    1  C6  UNL     1     -33.773   7.182   3.716  1.00 20.00     0.053 C 
ENDROOT
BRANCH   1   2
HETATM    2  C2  UNL     1     -32.586   6.859   2.855  1.00 20.00    -0.029 C 
HETATM    3  C1  UNL     1     -32.235   7.567   1.772  1.00 20.00    -0.031 C 
BRANCH   3   4
HETATM    4  C5  UNL     1     -32.984   8.771   1.284  1.00 20.00     0.022 C 
HETATM    5  C4  UNL     1     -33.315   8.655  -0.196  1.00 20.00     0.009 C 
ENDBRANCH   3   4
ENDBRANCH   1   2
BRANCH   1   6
HETATM    6  C7  UNL     1     -33.599   6.656   5.136  1.00 20.00     0.181 C 
BRANCH   6   7
HETATM    7  O9  UNL     1     -34.733   5.880   5.502  1.00 20.00    -0.328 OA
BRANCH   7   8
HETATM    8  C3  UNL     1     -35.119   4.938   4.596  1.00 20.00     0.398 C 
HETATM    9  O8  UNL     1     -34.485   3.963   4.227  1.00 20.00    -0.276 OA
ENDBRANCH   7   8
ENDBRANCH   6   7
ENDBRANCH   1   6
TORSDOF 5
ENDMDL
MODEL 6
REMARK VINA RESULT:      -4.1      1.161      1.691
REMARK  5 active torsions:
REMARK  status: ('A' for Active; 'I' for Inactive)
REMARK    1  A    between atoms: C1_1  and  C5_5 
REMARK    2  A    between atoms: C2_2  and  C6_6 
REMARK    3  A    between atoms: C3_3  and  O9_9 
REMARK    4  A    between atoms: C6_6  and  C7_7 
REMARK    5  A    between atoms: C7_7  and  O9_9 
ROOT
HETATM    1  C6  UNL     1     -33.444   6.819   3.585  1.00 20.00     0.053 C 
ENDROOT
BRANCH   1   2
HETATM    2  C2  UNL     1     -33.430   7.031   5.072  1.00 20.00    -0.029 C 
HETATM    3  C1  UNL     1     -34.173   6.322   5.934  1.00 20.00    -0.031 C 
BRANCH   3   4
HETATM    4  C5  UNL     1     -35.112   5.227   5.522  1.00 20.00     0.022 C 
HETATM    5  C4  UNL     1     -34.497   4.345   4.447  1.00 20.00     0.009 C 
ENDBRANCH   3   4
ENDBRANCH   1   2
BRANCH   1   6
HETATM    6  C7  UNL     1     -32.175   7.350   2.929  1.00 20.00     0.181 C 
BRANCH   6   7
HETATM    7  O9  UNL     1     -32.355   7.410   1.520  1.00 20.00    -0.328 OA
BRANCH   7   8
HETATM    8  C3  UNL     1     -32.845   8.586   1.038  1.00 20.00     0.398 C 
HETATM    9  O8  UNL     1     -33.240   8.815  -0.095  1.00 20.00    -0.276 OA
ENDBRANCH   7   8
ENDBRANCH   6   7
ENDBRANCH   1   6
TORSDOF 5
ENDMDL
MODEL 7
REMARK VINA RESULT:      -4.0     10.462     11.013
REMARK  5 active torsions:
REMARK  status: ('A' for Active; 'I' for Inactive)
REMARK    1  A    between atoms: C1_1  and  C5_5 
REMARK    2  A    between atoms: C2_2  and  C6_6 
REMARK    3  A    between atoms: C3_3  and  O9_9 
REMARK    4  A    between atoms: C6_6  and  C7_7 
REMARK    5  A    between atoms: C7_7  and  O9_9 
ROOT
HETATM    1  C6  UNL     1     -33.892  15.219  -3.532  1.00 20.00     0.053 C 
ENDROOT
BRANCH   1   2
HETATM    2  C2  UNL     1     -33.305  16.433  -2.869  1.00 20.00    -0.029 C 
HETATM    3  C1  UNL     1     -33.897  17.095  -1.866  1.00 20.00    -0.031 C 
BRANCH   3   4
HETATM    4  C5  UNL     1     -35.221  16.708  -1.277  1.00 20.00     0.022 C 
HETATM    5  C4  UNL     1     -35.354  17.195   0.157  1.00 20.00     0.009 C 
ENDBRANCH   3   4
ENDBRANCH   1   2
BRANCH   1   6
HETATM    6  C7  UNL     1     -34.365  15.524  -4.948  1.00 20.00     0.181 C 
BRANCH   6   7
HETATM    7  O9  UNL     1     -34.891  14.343  -5.541  1.00 20.00    -0.328 OA
BRANCH   7   8
HETATM    8  C3  UNL     1     -35.874  13.717  -4.836  1.00 20.00     0.398 C 
HETATM    9  O8  UNL     1     -35.884  12.560  -4.447  1.00 20.00    -0.276 OA
ENDBRANCH   7   8
ENDBRANCH   6   7
ENDBRANCH   1   6
TORSDOF 5
ENDMDL
MODEL 8
REMARK VINA RESULT:      -4.0     10.474     11.372
REMARK  5 active torsions:
REMARK  status: ('A' for Active; 'I' for Inactive)
REMARK    1  A    between atoms: C1_1  and  C5_5 
REMARK    2  A    between atoms: C2_2  and  C6_6 
REMARK    3  A    between atoms: C3_3  and  O9_9 
REMARK    4  A    between atoms: C6_6  and  C7_7 
REMARK    5  A    between atoms: C7_7  and  O9_9 
ROOT
HETATM    1  C6  UNL     1     -33.212  15.551  -3.709  1.00 20.00     0.053 C 
ENDROOT
BRANCH   1   2
HETATM    2  C2  UNL     1     -34.032  16.036  -2.548  1.00 20.00    -0.029 C 
HETATM    3  C1  UNL     1     -33.757  17.149  -1.853  1.00 20.00    -0.031 C 
BRANCH   3   4
HETATM    4  C5  UNL     1     -32.596  18.052  -2.149  1.00 20.00     0.022 C 
HETATM    5  C4  UNL     1     -31.737  18.272  -0.914  1.00 20.00     0.009 C 
ENDBRANCH   3   4
ENDBRANCH   1   2
BRANCH   1   6
HETATM    6  C7  UNL     1     -34.047  14.727  -4.683  1.00 20.00     0.181 C 
BRANCH   6   7
HETATM    7  O9  UNL     1     -35.427  14.881  -4.378  1.00 20.00    -0.328 OA
BRANCH   7   8
HETATM    8  C3  UNL     1     -36.188  13.759  -4.510  1.00 20.00     0.398 C 
HETATM    9  O8  UNL     1     -35.803  12.601  -4.527  1.00 20.00    -0.276 OA
ENDBRANCH   7   8
ENDBRANCH   6   7
ENDBRANCH   1   6
TORSDOF 5
ENDMDL
MODEL 9
REMARK VINA RESULT:      -4.0     10.856     11.595
REMARK  5 active torsions:
REMARK  status: ('A' for Active; 'I' for Inactive)
REMARK    1  A    between atoms: C1_1  and  C5_5 
REMARK    2  A    between atoms: C2_2  and  C6_6 
REMARK    3  A    between atoms: C3_3  and  O9_9 
REMARK    4  A    between atoms: C6_6  and  C7_7 
REMARK    5  A    between atoms: C7_7  and  O9_9 
ROOT
HETATM    1  C6  UNL     1     -34.815  15.619  -5.906  1.00 20.00     0.053 C 
ENDROOT
BRANCH   1   2
HETATM    2  C2  UNL     1     -33.595  14.927  -5.370  1.00 20.00    -0.029 C 
HETATM    3  C1  UNL     1     -33.210  14.980  -4.087  1.00 20.00    -0.031 C 
BRANCH   3   4
HETATM    4  C5  UNL     1     -33.949  15.739  -3.025  1.00 20.00     0.022 C 
HETATM    5  C4  UNL     1     -33.131  16.914  -2.512  1.00 20.00     0.009 C 
ENDBRANCH   3   4
ENDBRANCH   1   2
BRANCH   1   6
HETATM    6  C7  UNL     1     -35.795  14.633  -6.530  1.00 20.00     0.181 C 
BRANCH   6   7
HETATM    7  O9  UNL     1     -36.097  13.604  -5.596  1.00 20.00    -0.328 OA
BRANCH   7   8
HETATM    8  C3  UNL     1     -36.858  13.980  -4.531  1.00 20.00     0.398 C 
HETATM    9  O8  UNL     1     -38.067  13.870  -4.409  1.00 20.00    -0.276 OA
ENDBRANCH   7   8
ENDBRANCH   6   7
ENDBRANCH   1   6
TORSDOF 5
ENDMDL
