MODEL 1
REMARK VINA RESULT:      -5.0      0.000      0.000
REMARK  0 active torsions:
REMARK  status: ('A' for Active; 'I' for Inactive)
ROOT
HETATM    1  C1  UNL     1     -33.325   6.522   3.711  1.00 20.00    -0.030 C 
HETATM    2  C2  UNL     1     -33.387   7.135   4.901  1.00 20.00    -0.030 C 
HETATM    3  C3  UNL     1     -34.093   5.274   3.392  1.00 20.00     0.026 C 
HETATM    4  C4  UNL     1     -34.203   6.618   6.049  1.00 20.00     0.026 C 
HETATM    5  C5  UNL     1     -35.183   4.958   4.420  1.00 20.00     0.004 C 
HETATM    6  C6  UNL     1     -34.683   5.180   5.845  1.00 20.00     0.004 C 
ENDROOT
TORSDOF 0
ENDMDL
MODEL 2
REMARK VINA RESULT:      -5.0      0.057      2.082
REMARK  0 active torsions:
REMARK  status: ('A' for Active; 'I' for Inactive)
ROOT
HETATM    1  C1  UNL     1     -33.343   7.118   4.841  1.00 20.00    -0.030 C 
HETATM    2  C2  UNL     1     -33.319   6.477   3.665  1.00 20.00    -0.030 C 
HETATM    3  C3  UNL     1     -34.151   6.647   6.013  1.00 20.00     0.026 C 
HETATM    4  C4  UNL     1     -34.124   5.242   3.387  1.00 20.00     0.026 C 
HETATM    5  C5  UNL     1     -34.675   5.218   5.849  1.00 20.00     0.004 C 
HETATM    6  C6  UNL     1     -35.204   4.980   4.438  1.00 20.00     0.004 C 
ENDROOT
TORSDOF 0
ENDMDL
MODEL 3
REMARK VINA RESULT:      -4.9      0.275      2.512
REMARK  0 active torsions:
REMARK  status: ('A' for Active; 'I' for Inactive)
ROOT
HETATM    1  C1  UNL     1     -34.091   6.467   6.014  1.00 20.00    -0.030 C 
HETATM    2  C2  UNL     1     -34.882   5.417   5.758  1.00 20.00    -0.030 C 
HETATM    3  C3  UNL     1     -33.235   7.122   4.971  1.00 20.00     0.026 C 
HETATM    4  C4  UNL     1     -34.969   4.766   4.409  1.00 20.00     0.026 C 
HETATM    5  C5  UNL     1     -33.593   6.696   3.544  1.00 20.00     0.004 C 
HETATM    6  C6  UNL     1     -33.846   5.193   3.462  1.00 20.00     0.004 C 
ENDROOT
TORSDOF 0
ENDMDL
MODEL 4
REMARK VINA RESULT:      -4.9      0.291      2.503
REMARK  0 active torsions:
REMARK  status: ('A' for Active; 'I' for Inactive)
ROOT
HETATM    1  C1  UNL     1     -34.737   4.652   4.521  1.00 20.00    -0.030 C 
HETATM    2  C2  UNL     1     -34.206   5.313   3.484  1.00 20.00    -0.030 C 
HETATM    3  C3  UNL     1     -34.719   5.179   5.925  1.00 20.00     0.026 C 
HETATM    4  C4  UNL     1     -33.507   6.633   3.625  1.00 20.00     0.026 C 
HETATM    5  C5  UNL     1     -34.338   6.660   6.008  1.00 20.00     0.004 C 
HETATM    6  C6  UNL     1     -33.174   6.985   5.076  1.00 20.00     0.004 C 
ENDROOT
TORSDOF 0
ENDMDL
MODEL 5
REMARK VINA RESULT:      -4.8      0.296      2.080
REMARK  0 active torsions:
REMARK  status: ('A' for Active; 'I' for Inactive)
ROOT
HETATM    1  C1  UNL     1     -34.236   5.330   3.514  1.00 20.00    -0.030 C 
HETATM    2  C2  UNL     1     -34.760   4.662   4.551  1.00 20.00    -0.030 C 
HETATM    3  C3  UNL     1     -33.534   6.647   3.659  1.00 20.00     0.026 C 
HETATM    4  C4  UNL     1     -34.729   5.178   5.959  1.00 20.00     0.026 C 
HETATM    5  C5  UNL     1     -33.189   6.989   5.111  1.00 20.00     0.004 C 
HETATM    6  C6  UNL     1     -34.347   6.657   6.049  1.00 20.00     0.004 C 
ENDROOT
TORSDOF 0
ENDMDL
MODEL 6
REMARK VINA RESULT:      -4.8      0.334      2.088
REMARK  0 active torsions:
REMARK  status: ('A' for Active; 'I' for Inactive)
ROOT
HETATM    1  C1  UNL     1     -34.792   5.381   5.762  1.00 20.00    -0.030 C 
HETATM    2  C2  UNL     1     -34.101   6.512   5.957  1.00 20.00    -0.030 C 
HETATM    3  C3  UNL     1     -34.801   4.641   4.457  1.00 20.00     0.026 C 
HETATM    4  C4  UNL     1     -33.292   7.174   4.882  1.00 20.00     0.026 C 
HETATM    5  C5  UNL     1     -33.709   5.110   3.492  1.00 20.00     0.004 C 
HETATM    6  C6  UNL     1     -33.592   6.632   3.483  1.00 20.00     0.004 C 
ENDROOT
TORSDOF 0
ENDMDL
MODEL 7
REMARK VINA RESULT:      -3.6     12.098     12.459
REMARK  0 active torsions:
REMARK  status: ('A' for Active; 'I' for Inactive)
ROOT
HETATM    1  C1  UNL     1     -33.585  14.528  -4.269  1.00 20.00    -0.030 C 
HETATM    2  C2  UNL     1     -32.957  15.565  -3.698  1.00 20.00    -0.030 C 
HETATM    3  C3  UNL     1     -35.026  14.202  -4.014  1.00 20.00     0.026 C 
HETATM    4  C4  UNL     1     -33.621  16.487  -2.719  1.00 20.00     0.026 C 
HETATM    5  C5  UNL     1     -35.785  15.332  -3.313  1.00 20.00     0.004 C 
HETATM    6  C6  UNL     1     -34.952  15.947  -2.191  1.00 20.00     0.004 C 
ENDROOT
TORSDOF 0
ENDMDL
MODEL 8
REMARK VINA RESULT:      -3.6     12.115     12.599
REMARK  0 active torsions:
REMARK  status: ('A' for Active; 'I' for Inactive)
ROOT
HETATM    1  C1  UNL     1     -32.949  15.540  -3.732  1.00 20.00    -0.030 C 
HETATM    2  C2  UNL     1     -33.595  14.519  -4.310  1.00 20.00    -0.030 C 
HETATM    3  C3  UNL     1     -33.593  16.458  -2.736  1.00 20.00     0.026 C 
HETATM    4  C4  UNL     1     -35.038  14.208  -4.047  1.00 20.00     0.026 C 
HETATM    5  C5  UNL     1     -34.929  15.930  -2.206  1.00 20.00     0.004 C 
HETATM    6  C6  UNL     1     -35.777  15.340  -3.330  1.00 20.00     0.004 C 
ENDROOT
TORSDOF 0
ENDMDL
MODEL 9
REMARK VINA RESULT:      -3.4      8.819      9.364
REMARK  0 active torsions:
REMARK  status: ('A' for Active; 'I' for Inactive)
ROOT
HETATM    1  C1  UNL     1     -42.273   8.109   0.633  1.00 20.00    -0.030 C 
HETATM    2  C2  UNL     1     -42.678   6.891   1.016  1.00 20.00    -0.030 C 
HETATM    3  C3  UNL     1     -41.356   8.339  -0.531  1.00 20.00     0.026 C 
HETATM    4  C4  UNL     1     -42.230   5.628   0.342  1.00 20.00     0.026 C 
HETATM    5  C5  UNL     1     -41.194   7.105  -1.423  1.00 20.00     0.004 C 
HETATM    6  C6  UNL     1     -41.034   5.836  -0.590  1.00 20.00     0.004 C 
ENDROOT
TORSDOF 0
ENDMDL
