MODEL 1
REMARK VINA RESULT:      -3.0      0.000      0.000
REMARK  3 active torsions:
REMARK  status: ('A' for Active; 'I' for Inactive)
REMARK    1  A    between atoms: C5_5  and  S7_7 
REMARK    2  A    between atoms: C6_6  and  S8_8 
REMARK    3  A    between atoms: S7_7  and  S8_8 
ROOT
HETATM    1  S7  UNL     1     -34.304  16.811  -4.579  1.00 20.00    -0.093 SA
ENDROOT
BRANCH   1   2
HETATM    2  C5  UNL     1     -33.803  16.261  -2.912  1.00 20.00     0.050 C 
HETATM    3  C1  UNL     1     -32.877  17.296  -2.286  1.00 20.00     0.022 C 
HETATM    4  C2  UNL     1     -35.041  16.030  -2.054  1.00 20.00     0.022 C 
ENDBRANCH   1   2
BRANCH   1   5
HETATM    5  S8  UNL     1     -34.144  15.062  -5.644  1.00 20.00    -0.093 SA
BRANCH   5   6
HETATM    6  C6  UNL     1     -35.870  14.532  -5.745  1.00 20.00     0.050 C 
HETATM    7  C3  UNL     1     -36.189  13.598  -4.584  1.00 20.00     0.022 C 
HETATM    8  C4  UNL     1     -36.784  15.751  -5.745  1.00 20.00     0.022 C 
ENDBRANCH   5   6
ENDBRANCH   1   5
TORSDOF 3
ENDMDL
MODEL 2
REMARK VINA RESULT:      -3.0      0.115      4.082
REMARK  3 active torsions:
REMARK  status: ('A' for Active; 'I' for Inactive)
REMARK    1  A    between atoms: C5_5  and  S7_7 
REMARK    2  A    between atoms: C6_6  and  S8_8 
REMARK    3  A    between atoms: S7_7  and  S8_8 
ROOT
HETATM    1  S7  UNL     1     -34.057  15.019  -5.518  1.00 20.00    -0.093 SA
ENDROOT
BRANCH   1   2
HETATM    2  C5  UNL     1     -35.816  14.572  -5.706  1.00 20.00     0.050 C 
HETATM    3  C1  UNL     1     -36.232  13.634  -4.579  1.00 20.00     0.022 C 
HETATM    4  C2  UNL     1     -36.668  15.835  -5.721  1.00 20.00     0.022 C 
ENDBRANCH   1   2
BRANCH   1   5
HETATM    5  S8  UNL     1     -34.201  16.797  -4.500  1.00 20.00    -0.093 SA
BRANCH   5   6
HETATM    6  C6  UNL     1     -33.767  16.296  -2.817  1.00 20.00     0.050 C 
HETATM    7  C3  UNL     1     -32.899  17.367  -2.169  1.00 20.00     0.022 C 
HETATM    8  C4  UNL     1     -35.037  16.046  -2.012  1.00 20.00     0.022 C 
ENDBRANCH   5   6
ENDBRANCH   1   5
TORSDOF 3
ENDMDL
MODEL 3
REMARK VINA RESULT:      -3.0     17.671     18.713
REMARK  3 active torsions:
REMARK  status: ('A' for Active; 'I' for Inactive)
REMARK    1  A    between atoms: C5_5  and  S7_7 
REMARK    2  A    between atoms: C6_6  and  S8_8 
REMARK    3  A    between atoms: S7_7  and  S8_8 
ROOT
HETATM    1  S7  UNL     1     -24.488  16.704  10.935  1.00 20.00    -0.093 SA
ENDROOT
BRANCH   1   2
HETATM    2  C5  UNL     1     -25.359  17.505  12.324  1.00 20.00     0.050 C 
HETATM    3  C1  UNL     1     -25.227  19.019  12.210  1.00 20.00     0.022 C 
HETATM    4  C2  UNL     1     -26.821  17.073  12.330  1.00 20.00     0.022 C 
ENDBRANCH   1   2
BRANCH   1   5
HETATM    5  S8  UNL     1     -22.670  17.658  10.997  1.00 20.00    -0.093 SA
BRANCH   5   6
HETATM    6  C6  UNL     1     -22.587  18.404   9.351  1.00 20.00     0.050 C 
HETATM    7  C3  UNL     1     -21.713  17.549   8.443  1.00 20.00     0.022 C 
HETATM    8  C4  UNL     1     -23.994  18.558   8.785  1.00 20.00     0.022 C 
ENDBRANCH   5   6
ENDBRANCH   1   5
TORSDOF 3
ENDMDL
MODEL 4
REMARK VINA RESULT:      -3.0      1.537      2.040
REMARK  3 active torsions:
REMARK  status: ('A' for Active; 'I' for Inactive)
REMARK    1  A    between atoms: C5_5  and  S7_7 
REMARK    2  A    between atoms: C6_6  and  S8_8 
REMARK    3  A    between atoms: S7_7  and  S8_8 
ROOT
HETATM    1  S7  UNL     1     -36.092  15.961  -3.739  1.00 20.00    -0.093 SA
ENDROOT
BRANCH   1   2
HETATM    2  C5  UNL     1     -34.798  15.780  -2.466  1.00 20.00     0.050 C 
HETATM    3  C1  UNL     1     -33.438  16.119  -3.063  1.00 20.00     0.022 C 
HETATM    4  C2  UNL     1     -35.121  16.675  -1.275  1.00 20.00     0.022 C 
ENDBRANCH   1   2
BRANCH   1   5
HETATM    5  S8  UNL     1     -35.954  14.158  -4.712  1.00 20.00    -0.093 SA
BRANCH   5   6
HETATM    6  C6  UNL     1     -35.597  14.679  -6.407  1.00 20.00     0.050 C 
HETATM    7  C3  UNL     1     -36.456  15.884  -6.766  1.00 20.00     0.022 C 
HETATM    8  C4  UNL     1     -34.112  14.993  -6.547  1.00 20.00     0.022 C 
ENDBRANCH   5   6
ENDBRANCH   1   5
TORSDOF 3
ENDMDL
MODEL 5
REMARK VINA RESULT:      -2.9     17.860     18.838
REMARK  3 active torsions:
REMARK  status: ('A' for Active; 'I' for Inactive)
REMARK    1  A    between atoms: C5_5  and  S7_7 
REMARK    2  A    between atoms: C6_6  and  S8_8 
REMARK    3  A    between atoms: S7_7  and  S8_8 
ROOT
HETATM    1  S7  UNL     1     -23.931  16.775  10.136  1.00 20.00    -0.093 SA
ENDROOT
BRANCH   1   2
HETATM    2  C5  UNL     1     -22.239  17.395  10.424  1.00 20.00     0.050 C 
HETATM    3  C1  UNL     1     -21.931  18.522   9.446  1.00 20.00     0.022 C 
HETATM    4  C2  UNL     1     -22.101  17.859  11.869  1.00 20.00     0.022 C 
ENDBRANCH   1   2
BRANCH   1   5
HETATM    5  S8  UNL     1     -24.982  18.532   9.976  1.00 20.00    -0.093 SA
BRANCH   5   6
HETATM    6  C6  UNL     1     -25.756  18.650  11.606  1.00 20.00     0.050 C 
HETATM    7  C3  UNL     1     -27.145  19.261  11.472  1.00 20.00     0.022 C 
HETATM    8  C4  UNL     1     -25.815  17.270  12.249  1.00 20.00     0.022 C 
ENDBRANCH   5   6
ENDBRANCH   1   5
TORSDOF 3
ENDMDL
MODEL 6
REMARK VINA RESULT:      -2.9     10.873     11.723
REMARK  3 active torsions:
REMARK  status: ('A' for Active; 'I' for Inactive)
REMARK    1  A    between atoms: C5_5  and  S7_7 
REMARK    2  A    between atoms: C6_6  and  S8_8 
REMARK    3  A    between atoms: S7_7  and  S8_8 
ROOT
HETATM    1  S7  UNL     1     -33.285   5.692   2.895  1.00 20.00    -0.093 SA
ENDROOT
BRANCH   1   2
HETATM    2  C5  UNL     1     -34.386   6.073   4.300  1.00 20.00     0.050 C 
HETATM    3  C1  UNL     1     -34.907   4.779   4.912  1.00 20.00     0.022 C 
HETATM    4  C2  UNL     1     -33.634   6.911   5.329  1.00 20.00     0.022 C 
ENDBRANCH   1   2
BRANCH   1   5
HETATM    5  S8  UNL     1     -32.249   7.455   2.707  1.00 20.00    -0.093 SA
BRANCH   5   6
HETATM    6  C6  UNL     1     -32.840   8.061   1.108  1.00 20.00     0.050 C 
HETATM    7  C3  UNL     1     -33.107   9.559   1.193  1.00 20.00     0.022 C 
HETATM    8  C4  UNL     1     -31.816   7.739   0.025  1.00 20.00     0.022 C 
ENDBRANCH   5   6
ENDBRANCH   1   5
TORSDOF 3
ENDMDL
MODEL 7
REMARK VINA RESULT:      -2.9     10.863     11.723
REMARK  3 active torsions:
REMARK  status: ('A' for Active; 'I' for Inactive)
REMARK    1  A    between atoms: C5_5  and  S7_7 
REMARK    2  A    between atoms: C6_6  and  S8_8 
REMARK    3  A    between atoms: S7_7  and  S8_8 
ROOT
HETATM    1  S7  UNL     1     -32.218   7.491   2.717  1.00 20.00    -0.093 SA
ENDROOT
BRANCH   1   2
HETATM    2  C5  UNL     1     -32.834   8.070   1.100  1.00 20.00     0.050 C 
HETATM    3  C1  UNL     1     -33.120   9.565   1.164  1.00 20.00     0.022 C 
HETATM    4  C2  UNL     1     -31.813   7.745   0.016  1.00 20.00     0.022 C 
ENDBRANCH   1   2
BRANCH   1   5
HETATM    5  S8  UNL     1     -33.262   5.737   2.941  1.00 20.00    -0.093 SA
BRANCH   5   6
HETATM    6  C6  UNL     1     -34.355   6.131   4.327  1.00 20.00     0.050 C 
HETATM    7  C3  UNL     1     -34.925   4.846   4.914  1.00 20.00     0.022 C 
HETATM    8  C4  UNL     1     -33.589   6.930   5.375  1.00 20.00     0.022 C 
ENDBRANCH   5   6
ENDBRANCH   1   5
TORSDOF 3
ENDMDL
MODEL 8
REMARK VINA RESULT:      -2.9      1.222      3.796
REMARK  3 active torsions:
REMARK  status: ('A' for Active; 'I' for Inactive)
REMARK    1  A    between atoms: C5_5  and  S7_7 
REMARK    2  A    between atoms: C6_6  and  S8_8 
REMARK    3  A    between atoms: S7_7  and  S8_8 
ROOT
HETATM    1  S7  UNL     1     -36.333  16.399  -4.463  1.00 20.00    -0.093 SA
ENDROOT
BRANCH   1   2
HETATM    2  C5  UNL     1     -36.555  14.877  -5.446  1.00 20.00     0.050 C 
HETATM    3  C1  UNL     1     -35.610  14.895  -6.641  1.00 20.00     0.022 C 
HETATM    4  C2  UNL     1     -36.314  13.657  -4.565  1.00 20.00     0.022 C 
ENDBRANCH   1   2
BRANCH   1   5
HETATM    5  S8  UNL     1     -34.425  16.944  -4.990  1.00 20.00    -0.093 SA
BRANCH   5   6
HETATM    6  C6  UNL     1     -33.446  16.179  -3.676  1.00 20.00     0.050 C 
HETATM    7  C3  UNL     1     -34.318  15.961  -2.446  1.00 20.00     0.022 C 
HETATM    8  C4  UNL     1     -32.849  14.868  -4.175  1.00 20.00     0.022 C 
ENDBRANCH   5   6
ENDBRANCH   1   5
TORSDOF 3
ENDMDL
MODEL 9
REMARK VINA RESULT:      -2.9      1.396      3.932
REMARK  3 active torsions:
REMARK  status: ('A' for Active; 'I' for Inactive)
REMARK    1  A    between atoms: C5_5  and  S7_7 
REMARK    2  A    between atoms: C6_6  and  S8_8 
REMARK    3  A    between atoms: S7_7  and  S8_8 
ROOT
HETATM    1  S7  UNL     1     -35.213  16.833  -5.260  1.00 20.00    -0.093 SA
ENDROOT
BRANCH   1   2
HETATM    2  C5  UNL     1     -35.317  15.470  -6.469  1.00 20.00     0.050 C 
HETATM    3  C1  UNL     1     -33.926  15.146  -7.000  1.00 20.00     0.022 C 
HETATM    4  C2  UNL     1     -35.959  14.252  -5.815  1.00 20.00     0.022 C 
ENDBRANCH   1   2
BRANCH   1   5
HETATM    5  S8  UNL     1     -36.192  16.018  -3.649  1.00 20.00    -0.093 SA
BRANCH   5   6
HETATM    6  C6  UNL     1     -34.839  15.793  -2.469  1.00 20.00     0.050 C 
HETATM    7  C3  UNL     1     -33.503  15.904  -3.192  1.00 20.00     0.022 C 
HETATM    8  C4  UNL     1     -34.955  16.823  -1.352  1.00 20.00     0.022 C 
ENDBRANCH   5   6
ENDBRANCH   1   5
TORSDOF 3
ENDMDL
