MODEL 1
REMARK VINA RESULT:      -6.0      0.000      0.000
REMARK  1 active torsions:
REMARK  status: ('A' for Active; 'I' for Inactive)
REMARK    1  A    between atoms: C6_6  and  C8_8 
ROOT
HETATM    1  C1  UNL     1     -34.977   5.163   5.415  1.00 20.00     0.000 A 
HETATM    2  C2  UNL     1     -34.699   4.762   4.109  1.00 20.00     0.001 A 
HETATM    3  C3  UNL     1     -34.342   6.283   5.952  1.00 20.00     0.001 A 
HETATM    4  C4  UNL     1     -33.785   5.481   3.339  1.00 20.00     0.007 A 
HETATM    5  C5  UNL     1     -33.427   7.002   5.183  1.00 20.00     0.007 A 
HETATM    6  C6  UNL     1     -33.148   6.601   3.876  1.00 20.00    -0.059 A 
ENDROOT
BRANCH   6   7
HETATM    7  C8  UNL     1     -32.170   7.369   3.054  1.00 20.00     0.034 C 
HETATM    8  C7  UNL     1     -32.676   7.627   1.637  1.00 20.00     0.010 C 
ENDBRANCH   6   7
TORSDOF 1
ENDMDL
MODEL 2
REMARK VINA RESULT:      -6.0      0.006      1.708
REMARK  1 active torsions:
REMARK  status: ('A' for Active; 'I' for Inactive)
REMARK    1  A    between atoms: C6_6  and  C8_8 
ROOT
HETATM    1  C1  UNL     1     -34.977   5.163   5.417  1.00 20.00     0.000 A 
HETATM    2  C2  UNL     1     -34.339   6.279   5.957  1.00 20.00     0.001 A 
HETATM    3  C3  UNL     1     -34.698   4.765   4.109  1.00 20.00     0.001 A 
HETATM    4  C4  UNL     1     -33.423   6.998   5.190  1.00 20.00     0.007 A 
HETATM    5  C5  UNL     1     -33.783   5.484   3.341  1.00 20.00     0.007 A 
HETATM    6  C6  UNL     1     -33.145   6.601   3.882  1.00 20.00    -0.059 A 
ENDROOT
BRANCH   6   7
HETATM    7  C8  UNL     1     -32.166   7.369   3.060  1.00 20.00     0.034 C 
HETATM    8  C7  UNL     1     -32.672   7.627   1.644  1.00 20.00     0.010 C 
ENDBRANCH   6   7
TORSDOF 1
ENDMDL
MODEL 3
REMARK VINA RESULT:      -5.1      1.114      2.216
REMARK  1 active torsions:
REMARK  status: ('A' for Active; 'I' for Inactive)
REMARK    1  A    between atoms: C6_6  and  C8_8 
ROOT
HETATM    1  C1  UNL     1     -34.714   5.976   6.364  1.00 20.00     0.000 A 
HETATM    2  C2  UNL     1     -33.843   6.964   5.908  1.00 20.00     0.001 A 
HETATM    3  C3  UNL     1     -35.091   4.933   5.518  1.00 20.00     0.001 A 
HETATM    4  C4  UNL     1     -33.347   6.909   4.606  1.00 20.00     0.007 A 
HETATM    5  C5  UNL     1     -34.597   4.878   4.216  1.00 20.00     0.007 A 
HETATM    6  C6  UNL     1     -33.724   5.866   3.759  1.00 20.00    -0.059 A 
ENDROOT
BRANCH   6   7
HETATM    7  C8  UNL     1     -33.196   5.807   2.366  1.00 20.00     0.034 C 
HETATM    8  C7  UNL     1     -33.046   4.374   1.862  1.00 20.00     0.010 C 
ENDBRANCH   6   7
TORSDOF 1
ENDMDL
MODEL 4
REMARK VINA RESULT:      -4.7      0.893      3.798
REMARK  1 active torsions:
REMARK  status: ('A' for Active; 'I' for Inactive)
REMARK    1  A    between atoms: C6_6  and  C8_8 
ROOT
HETATM    1  C1  UNL     1     -32.125   7.153   2.552  1.00 20.00     0.000 A 
HETATM    2  C2  UNL     1     -32.496   7.579   3.827  1.00 20.00     0.001 A 
HETATM    3  C3  UNL     1     -32.723   6.023   1.993  1.00 20.00     0.001 A 
HETATM    4  C4  UNL     1     -33.465   6.876   4.543  1.00 20.00     0.007 A 
HETATM    5  C5  UNL     1     -33.691   5.319   2.708  1.00 20.00     0.007 A 
HETATM    6  C6  UNL     1     -34.062   5.746   3.984  1.00 20.00    -0.059 A 
ENDROOT
BRANCH   6   7
HETATM    7  C8  UNL     1     -35.098   4.994   4.749  1.00 20.00     0.034 C 
HETATM    8  C7  UNL     1     -34.892   5.092   6.258  1.00 20.00     0.010 C 
ENDBRANCH   6   7
TORSDOF 1
ENDMDL
MODEL 5
REMARK VINA RESULT:      -4.7      0.893      3.392
REMARK  1 active torsions:
REMARK  status: ('A' for Active; 'I' for Inactive)
REMARK    1  A    between atoms: C6_6  and  C8_8 
ROOT
HETATM    1  C1  UNL     1     -32.116   7.166   2.577  1.00 20.00     0.000 A 
HETATM    2  C2  UNL     1     -32.697   6.031   2.013  1.00 20.00     0.001 A 
HETATM    3  C3  UNL     1     -32.507   7.592   3.847  1.00 20.00     0.001 A 
HETATM    4  C4  UNL     1     -33.668   5.321   2.719  1.00 20.00     0.007 A 
HETATM    5  C5  UNL     1     -33.478   6.883   4.552  1.00 20.00     0.007 A 
HETATM    6  C6  UNL     1     -34.060   5.747   3.988  1.00 20.00    -0.059 A 
ENDROOT
BRANCH   6   7
HETATM    7  C8  UNL     1     -35.099   4.989   4.743  1.00 20.00     0.034 C 
HETATM    8  C7  UNL     1     -34.880   5.049   6.252  1.00 20.00     0.010 C 
ENDBRANCH   6   7
TORSDOF 1
ENDMDL
MODEL 6
REMARK VINA RESULT:      -4.3     11.399     12.180
REMARK  1 active torsions:
REMARK  status: ('A' for Active; 'I' for Inactive)
REMARK    1  A    between atoms: C6_6  and  C8_8 
ROOT
HETATM    1  C1  UNL     1     -34.049  17.710  -1.081  1.00 20.00     0.000 A 
HETATM    2  C2  UNL     1     -32.950  17.583  -1.929  1.00 20.00     0.001 A 
HETATM    3  C3  UNL     1     -35.141  16.853  -1.220  1.00 20.00     0.001 A 
HETATM    4  C4  UNL     1     -32.942  16.599  -2.917  1.00 20.00     0.007 A 
HETATM    5  C5  UNL     1     -35.134  15.869  -2.209  1.00 20.00     0.007 A 
HETATM    6  C6  UNL     1     -34.033  15.742  -3.058  1.00 20.00    -0.059 A 
ENDROOT
BRANCH   6   7
HETATM    7  C8  UNL     1     -34.026  14.690  -4.114  1.00 20.00     0.034 C 
HETATM    8  C7  UNL     1     -35.291  13.837  -4.093  1.00 20.00     0.010 C 
ENDBRANCH   6   7
TORSDOF 1
ENDMDL
MODEL 7
REMARK VINA RESULT:      -4.3     11.385     12.165
REMARK  1 active torsions:
REMARK  status: ('A' for Active; 'I' for Inactive)
REMARK    1  A    between atoms: C6_6  and  C8_8 
ROOT
HETATM    1  C1  UNL     1     -34.070  17.708  -1.079  1.00 20.00     0.000 A 
HETATM    2  C2  UNL     1     -35.158  16.850  -1.226  1.00 20.00     0.001 A 
HETATM    3  C3  UNL     1     -32.964  17.584  -1.921  1.00 20.00     0.001 A 
HETATM    4  C4  UNL     1     -35.142  15.867  -2.215  1.00 20.00     0.007 A 
HETATM    5  C5  UNL     1     -32.947  16.600  -2.909  1.00 20.00     0.007 A 
HETATM    6  C6  UNL     1     -34.037  15.741  -3.057  1.00 20.00    -0.059 A 
ENDROOT
BRANCH   6   7
HETATM    7  C8  UNL     1     -34.018  14.689  -4.114  1.00 20.00     0.034 C 
HETATM    8  C7  UNL     1     -35.273  13.821  -4.092  1.00 20.00     0.010 C 
ENDBRANCH   6   7
TORSDOF 1
ENDMDL
MODEL 8
REMARK VINA RESULT:      -4.2     11.689     12.572
REMARK  1 active torsions:
REMARK  status: ('A' for Active; 'I' for Inactive)
REMARK    1  A    between atoms: C6_6  and  C8_8 
ROOT
HETATM    1  C1  UNL     1     -35.068  15.826  -2.256  1.00 20.00     0.000 A 
HETATM    2  C2  UNL     1     -35.196  16.728  -1.201  1.00 20.00     0.001 A 
HETATM    3  C3  UNL     1     -33.926  15.846  -3.056  1.00 20.00     0.001 A 
HETATM    4  C4  UNL     1     -34.182  17.650  -0.944  1.00 20.00     0.007 A 
HETATM    5  C5  UNL     1     -32.911  16.768  -2.801  1.00 20.00     0.007 A 
HETATM    6  C6  UNL     1     -33.039  17.670  -1.744  1.00 20.00    -0.059 A 
ENDROOT
BRANCH   6   7
HETATM    7  C8  UNL     1     -31.954  18.656  -1.471  1.00 20.00     0.034 C 
HETATM    8  C7  UNL     1     -31.128  18.286  -0.243  1.00 20.00     0.010 C 
ENDBRANCH   6   7
TORSDOF 1
ENDMDL
MODEL 9
REMARK VINA RESULT:      -4.2     11.555     12.233
REMARK  1 active torsions:
REMARK  status: ('A' for Active; 'I' for Inactive)
REMARK    1  A    between atoms: C6_6  and  C8_8 
ROOT
HETATM    1  C1  UNL     1     -34.437  14.514  -4.043  1.00 20.00     0.000 A 
HETATM    2  C2  UNL     1     -33.192  15.142  -4.054  1.00 20.00     0.001 A 
HETATM    3  C3  UNL     1     -35.422  14.934  -3.150  1.00 20.00     0.001 A 
HETATM    4  C4  UNL     1     -32.933  16.191  -3.173  1.00 20.00     0.007 A 
HETATM    5  C5  UNL     1     -35.163  15.983  -2.267  1.00 20.00     0.007 A 
HETATM    6  C6  UNL     1     -33.917  16.612  -2.279  1.00 20.00    -0.059 A 
ENDROOT
BRANCH   6   7
HETATM    7  C8  UNL     1     -33.641  17.732  -1.335  1.00 20.00     0.034 C 
HETATM    8  C7  UNL     1     -32.174  18.152  -1.345  1.00 20.00     0.010 C 
ENDBRANCH   6   7
TORSDOF 1
ENDMDL
