MODEL 1
REMARK VINA RESULT:      -5.7      0.000      0.000
REMARK  0 active torsions:
REMARK  status: ('A' for Active; 'I' for Inactive)
ROOT
HETATM    1  C1  UNL     1     -34.850   5.302   5.814  1.00 20.00     0.000 A 
HETATM    2  C2  UNL     1     -34.161   6.496   6.032  1.00 20.00     0.003 A 
HETATM    3  C3  UNL     1     -34.838   4.711   4.552  1.00 20.00     0.003 A 
HETATM    4  C4  UNL     1     -33.460   7.097   4.986  1.00 20.00     0.042 A 
HETATM    5  C5  UNL     1     -34.138   5.312   3.506  1.00 20.00     0.042 A 
HETATM    6  C6  UNL     1     -33.449   6.505   3.723  1.00 20.00     0.116 A 
HETATM    7  F7  UNL     1     -32.776   7.082   2.719  1.00 20.00    -0.206 F 
ENDROOT
TORSDOF 0
ENDMDL
MODEL 2
REMARK VINA RESULT:      -5.7      0.005      1.827
REMARK  0 active torsions:
REMARK  status: ('A' for Active; 'I' for Inactive)
ROOT
HETATM    1  C1  UNL     1     -34.852   5.303   5.816  1.00 20.00     0.000 A 
HETATM    2  C2  UNL     1     -34.838   4.711   4.552  1.00 20.00     0.003 A 
HETATM    3  C3  UNL     1     -34.164   6.495   6.035  1.00 20.00     0.003 A 
HETATM    4  C4  UNL     1     -34.135   5.313   3.508  1.00 20.00     0.042 A 
HETATM    5  C5  UNL     1     -33.461   7.097   4.992  1.00 20.00     0.042 A 
HETATM    6  C6  UNL     1     -33.446   6.507   3.729  1.00 20.00     0.116 A 
HETATM    7  F7  UNL     1     -32.771   7.085   2.726  1.00 20.00    -0.206 F 
ENDROOT
TORSDOF 0
ENDMDL
MODEL 3
REMARK VINA RESULT:      -5.6      0.913      1.401
REMARK  0 active torsions:
REMARK  status: ('A' for Active; 'I' for Inactive)
ROOT
HETATM    1  C1  UNL     1     -34.334   6.288   6.070  1.00 20.00     0.000 A 
HETATM    2  C2  UNL     1     -33.585   7.070   5.190  1.00 20.00     0.003 A 
HETATM    3  C3  UNL     1     -34.889   5.085   5.636  1.00 20.00     0.003 A 
HETATM    4  C4  UNL     1     -33.392   6.647   3.874  1.00 20.00     0.042 A 
HETATM    5  C5  UNL     1     -34.697   4.663   4.320  1.00 20.00     0.042 A 
HETATM    6  C6  UNL     1     -33.948   5.443   3.440  1.00 20.00     0.116 A 
HETATM    7  F7  UNL     1     -33.762   5.038   2.177  1.00 20.00    -0.206 F 
ENDROOT
TORSDOF 0
ENDMDL
MODEL 4
REMARK VINA RESULT:      -5.6      0.916      2.032
REMARK  0 active torsions:
REMARK  status: ('A' for Active; 'I' for Inactive)
ROOT
HETATM    1  C1  UNL     1     -34.305   6.333   6.061  1.00 20.00     0.000 A 
HETATM    2  C2  UNL     1     -34.877   5.128   5.649  1.00 20.00     0.003 A 
HETATM    3  C3  UNL     1     -33.554   7.091   5.163  1.00 20.00     0.003 A 
HETATM    4  C4  UNL     1     -34.697   4.683   4.339  1.00 20.00     0.042 A 
HETATM    5  C5  UNL     1     -33.374   6.646   3.854  1.00 20.00     0.042 A 
HETATM    6  C6  UNL     1     -33.945   5.442   3.442  1.00 20.00     0.116 A 
HETATM    7  F7  UNL     1     -33.773   5.014   2.184  1.00 20.00    -0.206 F 
ENDROOT
TORSDOF 0
ENDMDL
MODEL 5
REMARK VINA RESULT:      -5.3      1.730      2.510
REMARK  0 active torsions:
REMARK  status: ('A' for Active; 'I' for Inactive)
ROOT
HETATM    1  C1  UNL     1     -33.665   5.175   2.959  1.00 20.00     0.000 A 
HETATM    2  C2  UNL     1     -33.167   6.438   3.283  1.00 20.00     0.003 A 
HETATM    3  C3  UNL     1     -34.452   4.480   3.876  1.00 20.00     0.003 A 
HETATM    4  C4  UNL     1     -33.457   7.004   4.524  1.00 20.00     0.042 A 
HETATM    5  C5  UNL     1     -34.742   5.046   5.117  1.00 20.00     0.042 A 
HETATM    6  C6  UNL     1     -34.244   6.308   5.441  1.00 20.00     0.116 A 
HETATM    7  F7  UNL     1     -34.523   6.852   6.634  1.00 20.00    -0.206 F 
ENDROOT
TORSDOF 0
ENDMDL
MODEL 6
REMARK VINA RESULT:      -5.3      1.730      2.879
REMARK  0 active torsions:
REMARK  status: ('A' for Active; 'I' for Inactive)
ROOT
HETATM    1  C1  UNL     1     -33.682   5.199   2.965  1.00 20.00     0.000 A 
HETATM    2  C2  UNL     1     -34.492   4.515   3.873  1.00 20.00     0.003 A 
HETATM    3  C3  UNL     1     -33.159   6.447   3.299  1.00 20.00     0.003 A 
HETATM    4  C4  UNL     1     -34.779   5.083   5.115  1.00 20.00     0.042 A 
HETATM    5  C5  UNL     1     -33.446   7.015   4.541  1.00 20.00     0.042 A 
HETATM    6  C6  UNL     1     -34.256   6.332   5.448  1.00 20.00     0.116 A 
HETATM    7  F7  UNL     1     -34.532   6.877   6.641  1.00 20.00    -0.206 F 
ENDROOT
TORSDOF 0
ENDMDL
MODEL 7
REMARK VINA RESULT:      -5.2      1.909      2.682
REMARK  0 active torsions:
REMARK  status: ('A' for Active; 'I' for Inactive)
ROOT
HETATM    1  C1  UNL     1     -33.159   5.868   2.735  1.00 20.00     0.000 A 
HETATM    2  C2  UNL     1     -33.206   6.888   3.686  1.00 20.00     0.003 A 
HETATM    3  C3  UNL     1     -33.822   4.664   2.970  1.00 20.00     0.003 A 
HETATM    4  C4  UNL     1     -33.916   6.702   4.873  1.00 20.00     0.042 A 
HETATM    5  C5  UNL     1     -34.531   4.478   4.156  1.00 20.00     0.042 A 
HETATM    6  C6  UNL     1     -34.578   5.496   5.107  1.00 20.00     0.116 A 
HETATM    7  F7  UNL     1     -35.260   5.318   6.247  1.00 20.00    -0.206 F 
ENDROOT
TORSDOF 0
ENDMDL
MODEL 8
REMARK VINA RESULT:      -5.2      1.904      3.209
REMARK  0 active torsions:
REMARK  status: ('A' for Active; 'I' for Inactive)
ROOT
HETATM    1  C1  UNL     1     -33.137   5.872   2.708  1.00 20.00     0.000 A 
HETATM    2  C2  UNL     1     -33.796   4.665   2.949  1.00 20.00     0.003 A 
HETATM    3  C3  UNL     1     -33.193   6.897   3.650  1.00 20.00     0.003 A 
HETATM    4  C4  UNL     1     -34.510   4.486   4.134  1.00 20.00     0.042 A 
HETATM    5  C5  UNL     1     -33.907   6.719   4.835  1.00 20.00     0.042 A 
HETATM    6  C6  UNL     1     -34.566   5.514   5.077  1.00 20.00     0.116 A 
HETATM    7  F7  UNL     1     -35.252   5.341   6.215  1.00 20.00    -0.206 F 
ENDROOT
TORSDOF 0
ENDMDL
MODEL 9
REMARK VINA RESULT:      -5.0      1.029      2.094
REMARK  0 active torsions:
REMARK  status: ('A' for Active; 'I' for Inactive)
ROOT
HETATM    1  C1  UNL     1     -34.968   4.746   4.387  1.00 20.00     0.000 A 
HETATM    2  C2  UNL     1     -34.185   5.314   3.381  1.00 20.00     0.003 A 
HETATM    3  C3  UNL     1     -34.923   5.262   5.681  1.00 20.00     0.003 A 
HETATM    4  C4  UNL     1     -33.356   6.399   3.671  1.00 20.00     0.042 A 
HETATM    5  C5  UNL     1     -34.094   6.346   5.972  1.00 20.00     0.042 A 
HETATM    6  C6  UNL     1     -33.311   6.914   4.967  1.00 20.00     0.116 A 
HETATM    7  F7  UNL     1     -32.516   7.955   5.246  1.00 20.00    -0.206 F 
ENDROOT
TORSDOF 0
ENDMDL
