MODEL 1
REMARK VINA RESULT:      -6.6      0.000      0.000
REMARK  0 active torsions:
REMARK  status: ('A' for Active; 'I' for Inactive)
ROOT
HETATM    1  C1  UNL     1     -34.498   6.168   6.236  1.00 20.00     0.001 A 
HETATM    2  C2  UNL     1     -35.014   4.993   5.661  1.00 20.00     0.001 A 
HETATM    3  C3  UNL     1     -33.654   7.010   5.507  1.00 20.00     0.012 A 
HETATM    4  C4  UNL     1     -34.695   4.640   4.348  1.00 20.00     0.008 A 
HETATM    5  C5  UNL     1     -33.344   6.653   4.206  1.00 20.00    -0.030 A 
HETATM    6  C6  UNL     1     -33.859   5.480   3.634  1.00 20.00    -0.044 A 
HETATM    7  C7  UNL     1     -32.505   7.326   3.229  1.00 20.00     0.008 A 
HETATM    8  C8  UNL     1     -32.512   6.589   2.107  1.00 20.00    -0.021 A 
HETATM    9  C9  UNL     1     -33.361   5.347   2.230  1.00 20.00     0.066 A 
ENDROOT
TORSDOF 0
ENDMDL
MODEL 2
REMARK VINA RESULT:      -6.5      0.063      1.980
REMARK  0 active torsions:
REMARK  status: ('A' for Active; 'I' for Inactive)
ROOT
HETATM    1  C1  UNL     1     -35.029   4.979   5.644  1.00 20.00     0.001 A 
HETATM    2  C2  UNL     1     -34.515   6.140   6.245  1.00 20.00     0.001 A 
HETATM    3  C3  UNL     1     -34.697   4.648   4.327  1.00 20.00     0.012 A 
HETATM    4  C4  UNL     1     -33.661   6.992   5.541  1.00 20.00     0.008 A 
HETATM    5  C5  UNL     1     -33.850   5.497   3.637  1.00 20.00    -0.030 A 
HETATM    6  C6  UNL     1     -33.338   6.656   4.238  1.00 20.00    -0.044 A 
HETATM    7  C7  UNL     1     -33.343   5.407   2.278  1.00 20.00     0.008 A 
HETATM    8  C8  UNL     1     -32.554   6.472   2.064  1.00 20.00    -0.021 A 
HETATM    9  C9  UNL     1     -32.458   7.379   3.267  1.00 20.00     0.066 A 
ENDROOT
TORSDOF 0
ENDMDL
MODEL 3
REMARK VINA RESULT:      -6.3      0.614      3.718
REMARK  0 active torsions:
REMARK  status: ('A' for Active; 'I' for Inactive)
ROOT
HETATM    1  C1  UNL     1     -32.892   5.899   1.939  1.00 20.00     0.001 A 
HETATM    2  C2  UNL     1     -32.369   7.068   2.516  1.00 20.00     0.001 A 
HETATM    3  C3  UNL     1     -33.747   5.064   2.664  1.00 20.00     0.012 A 
HETATM    4  C4  UNL     1     -32.690   7.424   3.829  1.00 20.00     0.008 A 
HETATM    5  C5  UNL     1     -34.061   5.423   3.963  1.00 20.00    -0.030 A 
HETATM    6  C6  UNL     1     -33.537   6.591   4.538  1.00 20.00    -0.044 A 
HETATM    7  C7  UNL     1     -34.909   4.757   4.936  1.00 20.00     0.008 A 
HETATM    8  C8  UNL     1     -34.900   5.493   6.059  1.00 20.00    -0.021 A 
HETATM    9  C9  UNL     1     -34.040   6.728   5.940  1.00 20.00     0.066 A 
ENDROOT
TORSDOF 0
ENDMDL
MODEL 4
REMARK VINA RESULT:      -6.3      0.594      3.147
REMARK  0 active torsions:
REMARK  status: ('A' for Active; 'I' for Inactive)
ROOT
HETATM    1  C1  UNL     1     -32.309   7.254   2.658  1.00 20.00     0.001 A 
HETATM    2  C2  UNL     1     -32.790   6.117   1.988  1.00 20.00     0.001 A 
HETATM    3  C3  UNL     1     -32.681   7.517   3.979  1.00 20.00     0.012 A 
HETATM    4  C4  UNL     1     -33.652   5.221   2.626  1.00 20.00     0.008 A 
HETATM    5  C5  UNL     1     -33.535   6.625   4.604  1.00 20.00    -0.030 A 
HETATM    6  C6  UNL     1     -34.014   5.490   3.933  1.00 20.00    -0.044 A 
HETATM    7  C7  UNL     1     -34.081   6.643   5.950  1.00 20.00     0.008 A 
HETATM    8  C8  UNL     1     -34.862   5.560   6.091  1.00 20.00    -0.021 A 
HETATM    9  C9  UNL     1     -34.911   4.711   4.844  1.00 20.00     0.066 A 
ENDROOT
TORSDOF 0
ENDMDL
MODEL 5
REMARK VINA RESULT:      -4.9     11.672     12.410
REMARK  0 active torsions:
REMARK  status: ('A' for Active; 'I' for Inactive)
ROOT
HETATM    1  C1  UNL     1     -33.538  14.571  -4.444  1.00 20.00     0.001 A 
HETATM    2  C2  UNL     1     -34.846  14.231  -4.059  1.00 20.00     0.001 A 
HETATM    3  C3  UNL     1     -32.848  15.602  -3.801  1.00 20.00     0.012 A 
HETATM    4  C4  UNL     1     -35.488  14.917  -3.025  1.00 20.00     0.008 A 
HETATM    5  C5  UNL     1     -33.490  16.275  -2.777  1.00 20.00    -0.030 A 
HETATM    6  C6  UNL     1     -34.796  15.935  -2.394  1.00 20.00    -0.044 A 
HETATM    7  C7  UNL     1     -33.025  17.372  -1.945  1.00 20.00     0.008 A 
HETATM    8  C8  UNL     1     -34.012  17.685  -1.090  1.00 20.00    -0.021 A 
HETATM    9  C9  UNL     1     -35.237  16.821  -1.271  1.00 20.00     0.066 A 
ENDROOT
TORSDOF 0
ENDMDL
MODEL 6
REMARK VINA RESULT:      -4.9     11.663     12.472
REMARK  0 active torsions:
REMARK  status: ('A' for Active; 'I' for Inactive)
ROOT
HETATM    1  C1  UNL     1     -34.880  14.230  -4.038  1.00 20.00     0.001 A 
HETATM    2  C2  UNL     1     -33.574  14.572  -4.427  1.00 20.00     0.001 A 
HETATM    3  C3  UNL     1     -35.522  14.916  -3.004  1.00 20.00     0.012 A 
HETATM    4  C4  UNL     1     -32.886  15.607  -3.788  1.00 20.00     0.008 A 
HETATM    5  C5  UNL     1     -34.834  15.940  -2.377  1.00 20.00    -0.030 A 
HETATM    6  C6  UNL     1     -33.530  16.280  -2.766  1.00 20.00    -0.044 A 
HETATM    7  C7  UNL     1     -35.245  16.810  -1.289  1.00 20.00     0.008 A 
HETATM    8  C8  UNL     1     -34.228  17.647  -1.027  1.00 20.00    -0.021 A 
HETATM    9  C9  UNL     1     -33.035  17.414  -1.923  1.00 20.00     0.066 A 
ENDROOT
TORSDOF 0
ENDMDL
MODEL 7
REMARK VINA RESULT:      -4.9     11.758     12.400
REMARK  0 active torsions:
REMARK  status: ('A' for Active; 'I' for Inactive)
ROOT
HETATM    1  C1  UNL     1     -33.275  18.131  -0.907  1.00 20.00     0.001 A 
HETATM    2  C2  UNL     1     -34.554  17.776  -0.447  1.00 20.00     0.001 A 
HETATM    3  C3  UNL     1     -32.705  17.485  -2.007  1.00 20.00     0.012 A 
HETATM    4  C4  UNL     1     -35.288  16.769  -1.079  1.00 20.00     0.008 A 
HETATM    5  C5  UNL     1     -33.438  16.489  -2.628  1.00 20.00    -0.030 A 
HETATM    6  C6  UNL     1     -34.716  16.136  -2.168  1.00 20.00    -0.044 A 
HETATM    7  C7  UNL     1     -33.104  15.661  -3.774  1.00 20.00     0.008 A 
HETATM    8  C8  UNL     1     -34.139  14.836  -4.000  1.00 20.00    -0.021 A 
HETATM    9  C9  UNL     1     -35.270  15.038  -3.021  1.00 20.00     0.066 A 
ENDROOT
TORSDOF 0
ENDMDL
MODEL 8
REMARK VINA RESULT:      -4.9     11.770     12.452
REMARK  0 active torsions:
REMARK  status: ('A' for Active; 'I' for Inactive)
ROOT
HETATM    1  C1  UNL     1     -34.558  17.781  -0.445  1.00 20.00     0.001 A 
HETATM    2  C2  UNL     1     -33.273  18.119  -0.900  1.00 20.00     0.001 A 
HETATM    3  C3  UNL     1     -35.301  16.780  -1.078  1.00 20.00     0.012 A 
HETATM    4  C4  UNL     1     -32.706  17.462  -1.995  1.00 20.00     0.008 A 
HETATM    5  C5  UNL     1     -34.732  16.134  -2.161  1.00 20.00    -0.030 A 
HETATM    6  C6  UNL     1     -33.449  16.473  -2.614  1.00 20.00    -0.044 A 
HETATM    7  C7  UNL     1     -35.263  15.072  -2.998  1.00 20.00     0.008 A 
HETATM    8  C8  UNL     1     -34.337  14.778  -3.924  1.00 20.00    -0.021 A 
HETATM    9  C9  UNL     1     -33.091  15.621  -3.791  1.00 20.00     0.066 A 
ENDROOT
TORSDOF 0
ENDMDL
MODEL 9
REMARK VINA RESULT:      -4.6     15.631     16.228
REMARK  0 active torsions:
REMARK  status: ('A' for Active; 'I' for Inactive)
ROOT
HETATM    1  C1  UNL     1     -25.425  16.537  12.281  1.00 20.00     0.001 A 
HETATM    2  C2  UNL     1     -25.998  17.814  12.153  1.00 20.00     0.001 A 
HETATM    3  C3  UNL     1     -24.426  16.110  11.402  1.00 20.00     0.012 A 
HETATM    4  C4  UNL     1     -25.582  18.686  11.144  1.00 20.00     0.008 A 
HETATM    5  C5  UNL     1     -24.020  16.980  10.407  1.00 20.00    -0.030 A 
HETATM    6  C6  UNL     1     -24.592  18.254  10.280  1.00 20.00    -0.044 A 
HETATM    7  C7  UNL     1     -23.018  16.808   9.369  1.00 20.00     0.008 A 
HETATM    8  C8  UNL     1     -22.984  17.935   8.640  1.00 20.00    -0.021 A 
HETATM    9  C9  UNL     1     -23.966  18.973   9.126  1.00 20.00     0.066 A 
ENDROOT
TORSDOF 0
ENDMDL
