MODEL 1
REMARK VINA RESULT:      -6.0      0.000      0.000
REMARK  0 active torsions:
REMARK  status: ('A' for Active; 'I' for Inactive)
ROOT
HETATM    1  C1  UNL     1     -35.022   4.994   5.668  1.00 20.00     0.001 A 
HETATM    2  C2  UNL     1     -34.504   6.151   6.246  1.00 20.00     0.002 A 
HETATM    3  C3  UNL     1     -34.705   4.648   4.349  1.00 20.00     0.014 A 
HETATM    4  C4  UNL     1     -33.654   6.997   5.528  1.00 20.00     0.030 A 
HETATM    5  C5  UNL     1     -33.329   5.446   2.282  1.00 20.00     0.030 A 
HETATM    6  C6  UNL     1     -32.534   6.556   2.111  1.00 20.00     0.089 A 
HETATM    7  C7  UNL     1     -33.850   5.485   3.606  1.00 20.00    -0.008 A 
HETATM    8  C8  UNL     1     -33.345   6.639   4.211  1.00 20.00     0.042 A 
HETATM    9  N9  UNL     1     -32.550   7.269   3.281  1.00 20.00    -0.365 N 
HETATM   10  H16 UNL     1     -32.050   8.133   3.438  1.00 20.00     0.165 HD
ENDROOT
TORSDOF 0
ENDMDL
MODEL 2
REMARK VINA RESULT:      -5.9      0.855      1.935
REMARK  0 active torsions:
REMARK  status: ('A' for Active; 'I' for Inactive)
ROOT
HETATM    1  C1  UNL     1     -34.515   6.121   6.246  1.00 20.00     0.001 A 
HETATM    2  C2  UNL     1     -35.019   4.985   5.617  1.00 20.00     0.002 A 
HETATM    3  C3  UNL     1     -33.657   6.994   5.568  1.00 20.00     0.014 A 
HETATM    4  C4  UNL     1     -34.684   4.685   4.294  1.00 20.00     0.030 A 
HETATM    5  C5  UNL     1     -32.484   7.360   3.267  1.00 20.00     0.030 A 
HETATM    6  C6  UNL     1     -32.519   6.607   2.116  1.00 20.00     0.089 A 
HETATM    7  C7  UNL     1     -33.305   6.713   4.233  1.00 20.00    -0.008 A 
HETATM    8  C8  UNL     1     -33.826   5.568   3.628  1.00 20.00     0.042 A 
HETATM    9  N9  UNL     1     -33.333   5.529   2.343  1.00 20.00    -0.365 N 
HETATM   10  H16 UNL     1     -33.540   4.808   1.666  1.00 20.00     0.165 HD
ENDROOT
TORSDOF 0
ENDMDL
MODEL 3
REMARK VINA RESULT:      -5.5      1.448      3.680
REMARK  0 active torsions:
REMARK  status: ('A' for Active; 'I' for Inactive)
ROOT
HETATM    1  C1  UNL     1     -32.439   6.978   2.615  1.00 20.00     0.001 A 
HETATM    2  C2  UNL     1     -32.943   5.814   2.040  1.00 20.00     0.002 A 
HETATM    3  C3  UNL     1     -32.788   7.341   3.921  1.00 20.00     0.014 A 
HETATM    4  C4  UNL     1     -33.810   4.977   2.748  1.00 20.00     0.030 A 
HETATM    5  C5  UNL     1     -34.212   6.568   5.966  1.00 20.00     0.030 A 
HETATM    6  C6  UNL     1     -35.013   5.461   6.130  1.00 20.00     0.089 A 
HETATM    7  C7  UNL     1     -33.660   6.512   4.655  1.00 20.00    -0.008 A 
HETATM    8  C8  UNL     1     -34.150   5.351   4.052  1.00 20.00     0.042 A 
HETATM    9  N9  UNL     1     -34.968   4.733   4.971  1.00 20.00    -0.365 N 
HETATM   10  H16 UNL     1     -35.464   3.867   4.812  1.00 20.00     0.165 HD
ENDROOT
TORSDOF 0
ENDMDL
MODEL 4
REMARK VINA RESULT:      -5.3      1.199      3.132
REMARK  0 active torsions:
REMARK  status: ('A' for Active; 'I' for Inactive)
ROOT
HETATM    1  C1  UNL     1     -32.882   5.920   1.940  1.00 20.00     0.001 A 
HETATM    2  C2  UNL     1     -32.358   7.071   2.525  1.00 20.00     0.002 A 
HETATM    3  C3  UNL     1     -33.749   5.085   2.653  1.00 20.00     0.014 A 
HETATM    4  C4  UNL     1     -32.684   7.425   3.837  1.00 20.00     0.030 A 
HETATM    5  C5  UNL     1     -34.919   4.823   4.970  1.00 20.00     0.030 A 
HETATM    6  C6  UNL     1     -34.866   5.617   6.093  1.00 20.00     0.089 A 
HETATM    7  C7  UNL     1     -34.091   5.421   3.978  1.00 20.00    -0.008 A 
HETATM    8  C8  UNL     1     -33.552   6.581   4.538  1.00 20.00     0.042 A 
HETATM    9  N9  UNL     1     -34.040   6.675   5.822  1.00 20.00    -0.365 N 
HETATM   10  H16 UNL     1     -33.819   7.418   6.472  1.00 20.00     0.165 HD
ENDROOT
TORSDOF 0
ENDMDL
MODEL 5
REMARK VINA RESULT:      -4.8     15.545     16.153
REMARK  0 active torsions:
REMARK  status: ('A' for Active; 'I' for Inactive)
ROOT
HETATM    1  C1  UNL     1     -26.007  17.848  12.077  1.00 20.00     0.001 A 
HETATM    2  C2  UNL     1     -25.601  16.540  12.332  1.00 20.00     0.002 A 
HETATM    3  C3  UNL     1     -25.403  18.601  11.063  1.00 20.00     0.014 A 
HETATM    4  C4  UNL     1     -24.583  15.943  11.584  1.00 20.00     0.030 A 
HETATM    5  C5  UNL     1     -23.562  18.476   9.219  1.00 20.00     0.030 A 
HETATM    6  C6  UNL     1     -22.714  17.450   8.871  1.00 20.00     0.089 A 
HETATM    7  C7  UNL     1     -24.374  18.020  10.296  1.00 20.00    -0.008 A 
HETATM    8  C8  UNL     1     -23.988  16.707  10.574  1.00 20.00     0.042 A 
HETATM    9  N9  UNL     1     -22.979  16.387   9.694  1.00 20.00    -0.365 N 
HETATM   10  H16 UNL     1     -22.503  15.496   9.660  1.00 20.00     0.165 HD
ENDROOT
TORSDOF 0
ENDMDL
MODEL 6
REMARK VINA RESULT:      -4.8     11.836     12.393
REMARK  0 active torsions:
REMARK  status: ('A' for Active; 'I' for Inactive)
ROOT
HETATM    1  C1  UNL     1     -34.659  17.417  -0.877  1.00 20.00     0.001 A 
HETATM    2  C2  UNL     1     -33.426  17.955  -1.239  1.00 20.00     0.002 A 
HETATM    3  C3  UNL     1     -35.198  16.328  -1.573  1.00 20.00     0.014 A 
HETATM    4  C4  UNL     1     -32.693  17.425  -2.305  1.00 20.00     0.030 A 
HETATM    5  C5  UNL     1     -34.712  14.702  -3.554  1.00 20.00     0.030 A 
HETATM    6  C6  UNL     1     -33.637  14.633  -4.411  1.00 20.00     0.089 A 
HETATM    7  C7  UNL     1     -34.477  15.777  -2.651  1.00 20.00    -0.008 A 
HETATM    8  C8  UNL     1     -33.244  16.337  -2.991  1.00 20.00     0.042 A 
HETATM    9  N9  UNL     1     -32.757  15.623  -4.062  1.00 20.00    -0.365 N 
HETATM   10  H16 UNL     1     -31.876  15.803  -4.525  1.00 20.00     0.165 HD
ENDROOT
TORSDOF 0
ENDMDL
MODEL 7
REMARK VINA RESULT:      -4.5     12.258     12.425
REMARK  0 active torsions:
REMARK  status: ('A' for Active; 'I' for Inactive)
ROOT
HETATM    1  C1  UNL     1     -32.959  15.800  -3.412  1.00 20.00     0.001 A 
HETATM    2  C2  UNL     1     -33.678  16.494  -2.441  1.00 20.00     0.002 A 
HETATM    3  C3  UNL     1     -33.606  14.937  -4.304  1.00 20.00     0.014 A 
HETATM    4  C4  UNL     1     -35.063  16.350  -2.331  1.00 20.00     0.030 A 
HETATM    5  C5  UNL     1     -35.962  14.008  -4.930  1.00 20.00     0.030 A 
HETATM    6  C6  UNL     1     -37.198  14.259  -4.379  1.00 20.00     0.089 A 
HETATM    7  C7  UNL     1     -35.003  14.776  -4.212  1.00 20.00    -0.008 A 
HETATM    8  C8  UNL     1     -35.698  15.485  -3.229  1.00 20.00     0.042 A 
HETATM    9  N9  UNL     1     -37.028  15.152  -3.355  1.00 20.00    -0.365 N 
HETATM   10  H16 UNL     1     -37.772  15.515  -2.773  1.00 20.00     0.165 HD
ENDROOT
TORSDOF 0
ENDMDL
MODEL 8
REMARK VINA RESULT:      -4.5     15.634     16.431
REMARK  0 active torsions:
REMARK  status: ('A' for Active; 'I' for Inactive)
ROOT
HETATM    1  C1  UNL     1     -22.797  17.987   8.574  1.00 20.00     0.001 A 
HETATM    2  C2  UNL     1     -23.722  19.028   8.600  1.00 20.00     0.002 A 
HETATM    3  C3  UNL     1     -22.894  16.919   9.474  1.00 20.00     0.014 A 
HETATM    4  C4  UNL     1     -24.772  19.036   9.523  1.00 20.00     0.030 A 
HETATM    5  C5  UNL     1     -24.339  16.009  11.446  1.00 20.00     0.030 A 
HETATM    6  C6  UNL     1     -25.462  16.530  12.046  1.00 20.00     0.089 A 
HETATM    7  C7  UNL     1     -23.943  16.906  10.414  1.00 20.00    -0.008 A 
HETATM    8  C8  UNL     1     -24.857  17.963  10.416  1.00 20.00     0.042 A 
HETATM    9  N9  UNL     1     -25.767  17.708  11.417  1.00 20.00    -0.365 N 
HETATM   10  H16 UNL     1     -26.548  18.305  11.653  1.00 20.00     0.165 HD
ENDROOT
TORSDOF 0
ENDMDL
MODEL 9
REMARK VINA RESULT:      -4.5     16.499     17.291
REMARK  0 active torsions:
REMARK  status: ('A' for Active; 'I' for Inactive)
ROOT
HETATM    1  C1  UNL     1     -24.955  18.874   8.650  1.00 20.00     0.001 A 
HETATM    2  C2  UNL     1     -23.750  18.570   8.022  1.00 20.00     0.002 A 
HETATM    3  C3  UNL     1     -25.100  18.723  10.034  1.00 20.00     0.014 A 
HETATM    4  C4  UNL     1     -22.652  18.108   8.753  1.00 20.00     0.030 A 
HETATM    5  C5  UNL     1     -23.801  17.995  12.176  1.00 20.00     0.030 A 
HETATM    6  C6  UNL     1     -22.508  17.550  12.330  1.00 20.00     0.089 A 
HETATM    7  C7  UNL     1     -24.007  18.259  10.792  1.00 20.00    -0.008 A 
HETATM    8  C8  UNL     1     -22.810  17.962  10.136  1.00 20.00     0.042 A 
HETATM    9  N9  UNL     1     -21.919  17.535  11.093  1.00 20.00    -0.365 N 
HETATM   10  H16 UNL     1     -20.966  17.250  10.910  1.00 20.00     0.165 HD
ENDROOT
TORSDOF 0
ENDMDL
