MODEL 1
REMARK VINA RESULT:      -5.3      0.000      0.000
REMARK  0 active torsions:
REMARK  status: ('A' for Active; 'I' for Inactive)
ROOT
HETATM    1  C1  UNL     1     -34.837   5.311   5.909  1.00 20.00     0.000 A 
HETATM    2  C2  UNL     1     -34.127   6.498   6.093  1.00 20.00     0.001 A 
HETATM    3  C3  UNL     1     -34.878   4.710   4.651  1.00 20.00     0.001 A 
HETATM    4  C4  UNL     1     -33.457   7.082   5.019  1.00 20.00     0.018 A 
HETATM    5  C5  UNL     1     -34.208   5.296   3.577  1.00 20.00     0.018 A 
HETATM    6  C6  UNL     1     -33.498   6.482   3.760  1.00 20.00     0.006 A 
HETATM    7  I7  UNL     1     -32.500   7.353   2.160  1.00 20.00    -0.045 I 
ENDROOT
TORSDOF 0
ENDMDL
MODEL 2
REMARK VINA RESULT:      -5.3      0.009      1.827
REMARK  0 active torsions:
REMARK  status: ('A' for Active; 'I' for Inactive)
ROOT
HETATM    1  C1  UNL     1     -34.845   5.310   5.902  1.00 20.00     0.000 A 
HETATM    2  C2  UNL     1     -34.878   4.708   4.644  1.00 20.00     0.001 A 
HETATM    3  C3  UNL     1     -34.140   6.499   6.088  1.00 20.00     0.001 A 
HETATM    4  C4  UNL     1     -34.205   5.295   3.573  1.00 20.00     0.018 A 
HETATM    5  C5  UNL     1     -33.466   7.086   5.016  1.00 20.00     0.018 A 
HETATM    6  C6  UNL     1     -33.499   6.484   3.758  1.00 20.00     0.006 A 
HETATM    7  I7  UNL     1     -32.497   7.358   2.162  1.00 20.00    -0.045 I 
ENDROOT
TORSDOF 0
ENDMDL
MODEL 3
REMARK VINA RESULT:      -3.8     12.092     12.501
REMARK  0 active torsions:
REMARK  status: ('A' for Active; 'I' for Inactive)
ROOT
HETATM    1  C1  UNL     1     -34.749  14.415  -3.938  1.00 20.00     0.000 A 
HETATM    2  C2  UNL     1     -35.479  15.090  -2.960  1.00 20.00     0.001 A 
HETATM    3  C3  UNL     1     -33.443  14.807  -4.229  1.00 20.00     0.001 A 
HETATM    4  C4  UNL     1     -34.903  16.158  -2.273  1.00 20.00     0.018 A 
HETATM    5  C5  UNL     1     -32.866  15.876  -3.542  1.00 20.00     0.018 A 
HETATM    6  C6  UNL     1     -33.596  16.552  -2.564  1.00 20.00     0.006 A 
HETATM    7  I7  UNL     1     -32.737  18.142  -1.540  1.00 20.00    -0.045 I 
ENDROOT
TORSDOF 0
ENDMDL
MODEL 4
REMARK VINA RESULT:      -3.7     12.106     12.529
REMARK  0 active torsions:
REMARK  status: ('A' for Active; 'I' for Inactive)
ROOT
HETATM    1  C1  UNL     1     -34.746  14.410  -3.946  1.00 20.00     0.000 A 
HETATM    2  C2  UNL     1     -33.436  14.789  -4.240  1.00 20.00     0.001 A 
HETATM    3  C3  UNL     1     -35.472  15.101  -2.975  1.00 20.00     0.001 A 
HETATM    4  C4  UNL     1     -32.852  15.858  -3.562  1.00 20.00     0.018 A 
HETATM    5  C5  UNL     1     -34.886  16.170  -2.297  1.00 20.00     0.018 A 
HETATM    6  C6  UNL     1     -33.576  16.549  -2.590  1.00 20.00     0.006 A 
HETATM    7  I7  UNL     1     -32.705  18.142  -1.581  1.00 20.00    -0.045 I 
ENDROOT
TORSDOF 0
ENDMDL
MODEL 5
REMARK VINA RESULT:      -3.7     12.045     12.639
REMARK  0 active torsions:
REMARK  status: ('A' for Active; 'I' for Inactive)
ROOT
HETATM    1  C1  UNL     1     -34.100  17.818  -0.674  1.00 20.00     0.000 A 
HETATM    2  C2  UNL     1     -35.139  16.919  -0.913  1.00 20.00     0.001 A 
HETATM    3  C3  UNL     1     -32.991  17.845  -1.521  1.00 20.00     0.001 A 
HETATM    4  C4  UNL     1     -35.071  16.047  -1.998  1.00 20.00     0.018 A 
HETATM    5  C5  UNL     1     -32.923  16.971  -2.606  1.00 20.00     0.018 A 
HETATM    6  C6  UNL     1     -33.962  16.072  -2.845  1.00 20.00     0.006 A 
HETATM    7  I7  UNL     1     -33.860  14.772  -4.462  1.00 20.00    -0.045 I 
ENDROOT
TORSDOF 0
ENDMDL
MODEL 6
REMARK VINA RESULT:      -3.7     12.069     12.592
REMARK  0 active torsions:
REMARK  status: ('A' for Active; 'I' for Inactive)
ROOT
HETATM    1  C1  UNL     1     -34.041  17.831  -0.687  1.00 20.00     0.000 A 
HETATM    2  C2  UNL     1     -32.937  17.815  -1.540  1.00 20.00     0.001 A 
HETATM    3  C3  UNL     1     -35.111  16.965  -0.913  1.00 20.00     0.001 A 
HETATM    4  C4  UNL     1     -32.904  16.933  -2.619  1.00 20.00     0.018 A 
HETATM    5  C5  UNL     1     -35.078  16.083  -1.993  1.00 20.00     0.018 A 
HETATM    6  C6  UNL     1     -33.974  16.067  -2.847  1.00 20.00     0.006 A 
HETATM    7  I7  UNL     1     -33.924  14.752  -4.455  1.00 20.00    -0.045 I 
ENDROOT
TORSDOF 0
ENDMDL
MODEL 7
REMARK VINA RESULT:      -3.7     12.201     12.744
REMARK  0 active torsions:
REMARK  status: ('A' for Active; 'I' for Inactive)
ROOT
HETATM    1  C1  UNL     1     -34.091  15.416  -3.442  1.00 20.00     0.000 A 
HETATM    2  C2  UNL     1     -32.984  16.254  -3.311  1.00 20.00     0.001 A 
HETATM    3  C3  UNL     1     -35.170  15.543  -2.566  1.00 20.00     0.001 A 
HETATM    4  C4  UNL     1     -32.955  17.220  -2.306  1.00 20.00     0.018 A 
HETATM    5  C5  UNL     1     -35.141  16.510  -1.560  1.00 20.00     0.018 A 
HETATM    6  C6  UNL     1     -34.033  17.348  -1.430  1.00 20.00     0.006 A 
HETATM    7  I7  UNL     1     -33.991  18.787   0.068  1.00 20.00    -0.045 I 
ENDROOT
TORSDOF 0
ENDMDL
MODEL 8
REMARK VINA RESULT:      -3.7     12.139     12.834
REMARK  0 active torsions:
REMARK  status: ('A' for Active; 'I' for Inactive)
ROOT
HETATM    1  C1  UNL     1     -33.231  16.065  -3.367  1.00 20.00     0.000 A 
HETATM    2  C2  UNL     1     -34.462  15.495  -3.043  1.00 20.00     0.001 A 
HETATM    3  C3  UNL     1     -32.738  17.135  -2.620  1.00 20.00     0.001 A 
HETATM    4  C4  UNL     1     -35.201  15.995  -1.972  1.00 20.00     0.018 A 
HETATM    5  C5  UNL     1     -33.479  17.636  -1.548  1.00 20.00     0.018 A 
HETATM    6  C6  UNL     1     -34.710  17.066  -1.224  1.00 20.00     0.006 A 
HETATM    7  I7  UNL     1     -35.811  17.810   0.373  1.00 20.00    -0.045 I 
ENDROOT
TORSDOF 0
ENDMDL
MODEL 9
REMARK VINA RESULT:      -3.6      1.097      1.479
REMARK  0 active torsions:
REMARK  status: ('A' for Active; 'I' for Inactive)
ROOT
HETATM    1  C1  UNL     1     -34.444   6.394   6.317  1.00 20.00     0.000 A 
HETATM    2  C2  UNL     1     -33.638   7.157   5.473  1.00 20.00     0.001 A 
HETATM    3  C3  UNL     1     -34.954   5.171   5.879  1.00 20.00     0.001 A 
HETATM    4  C4  UNL     1     -33.341   6.699   4.190  1.00 20.00     0.018 A 
HETATM    5  C5  UNL     1     -34.657   4.713   4.594  1.00 20.00     0.018 A 
HETATM    6  C6  UNL     1     -33.851   5.477   3.750  1.00 20.00     0.006 A 
HETATM    7  I7  UNL     1     -33.409   4.793   1.839  1.00 20.00    -0.045 I 
ENDROOT
TORSDOF 0
ENDMDL
