MODEL 1
REMARK VINA RESULT:      -2.5      0.000      0.000
REMARK  0 active torsions:
REMARK  status: ('A' for Active; 'I' for Inactive)
ROOT
HETATM    1  C1  UNL     1     -32.772   6.564   2.667  1.00 20.00     0.016 C 
HETATM    2  C2  UNL     1     -33.517   5.245   2.785  1.00 20.00     0.075 C 
HETATM    3  I3  UNL     1     -34.769   5.231   4.509  1.00 20.00    -0.090 I 
ENDROOT
TORSDOF 0
ENDMDL
MODEL 2
REMARK VINA RESULT:      -2.4      1.091      1.395
REMARK  0 active torsions:
REMARK  status: ('A' for Active; 'I' for Inactive)
ROOT
HETATM    1  C1  UNL     1     -33.483   5.181   2.738  1.00 20.00     0.016 C 
HETATM    2  C2  UNL     1     -34.257   4.364   3.760  1.00 20.00     0.075 C 
HETATM    3  I3  UNL     1     -34.610   5.497   5.529  1.00 20.00    -0.090 I 
ENDROOT
TORSDOF 0
ENDMDL
MODEL 3
REMARK VINA RESULT:      -2.3      2.893      2.893
REMARK  0 active torsions:
REMARK  status: ('A' for Active; 'I' for Inactive)
ROOT
HETATM    1  C1  UNL     1     -33.857   6.967   6.084  1.00 20.00     0.016 C 
HETATM    2  C2  UNL     1     -34.625   5.659   5.984  1.00 20.00     0.075 C 
HETATM    3  I3  UNL     1     -34.503   4.856   4.014  1.00 20.00    -0.090 I 
ENDROOT
TORSDOF 0
ENDMDL
MODEL 4
REMARK VINA RESULT:      -2.3      2.555      2.798
REMARK  0 active torsions:
REMARK  status: ('A' for Active; 'I' for Inactive)
ROOT
HETATM    1  C1  UNL     1     -34.716   5.396   5.764  1.00 20.00     0.016 C 
HETATM    2  C2  UNL     1     -34.872   4.724   4.409  1.00 20.00     0.075 C 
HETATM    3  I3  UNL     1     -33.485   5.519   3.002  1.00 20.00    -0.090 I 
ENDROOT
TORSDOF 0
ENDMDL
MODEL 5
REMARK VINA RESULT:      -2.1      2.495      2.798
REMARK  0 active torsions:
REMARK  status: ('A' for Active; 'I' for Inactive)
ROOT
HETATM    1  C1  UNL     1     -34.866   5.308   5.520  1.00 20.00     0.016 C 
HETATM    2  C2  UNL     1     -34.196   6.302   4.587  1.00 20.00     0.075 C 
HETATM    3  I3  UNL     1     -33.413   5.320   2.866  1.00 20.00    -0.090 I 
ENDROOT
TORSDOF 0
ENDMDL
MODEL 6
REMARK VINA RESULT:      -2.1      8.717      8.741
REMARK  0 active torsions:
REMARK  status: ('A' for Active; 'I' for Inactive)
ROOT
HETATM    1  C1  UNL     1     -40.968   5.610  -0.962  1.00 20.00     0.016 C 
HETATM    2  C2  UNL     1     -41.400   6.303   0.320  1.00 20.00     0.075 C 
HETATM    3  I3  UNL     1     -41.714   8.384  -0.010  1.00 20.00    -0.090 I 
ENDROOT
TORSDOF 0
ENDMDL
MODEL 7
REMARK VINA RESULT:      -2.0      8.726      8.799
REMARK  0 active torsions:
REMARK  status: ('A' for Active; 'I' for Inactive)
ROOT
HETATM    1  C1  UNL     1     -41.469   8.909  -0.025  1.00 20.00     0.016 C 
HETATM    2  C2  UNL     1     -41.430   7.571   0.694  1.00 20.00     0.075 C 
HETATM    3  I3  UNL     1     -41.388   5.959  -0.699  1.00 20.00    -0.090 I 
ENDROOT
TORSDOF 0
ENDMDL
MODEL 8
REMARK VINA RESULT:      -1.9     15.154     15.437
REMARK  0 active torsions:
REMARK  status: ('A' for Active; 'I' for Inactive)
ROOT
HETATM    1  C1  UNL     1     -25.075  19.062   3.170  1.00 20.00     0.016 C 
HETATM    2  C2  UNL     1     -26.429  18.742   3.782  1.00 20.00     0.075 C 
HETATM    3  I3  UNL     1     -26.443  19.182   5.866  1.00 20.00    -0.090 I 
ENDROOT
TORSDOF 0
ENDMDL
MODEL 9
REMARK VINA RESULT:      -1.8     15.779     15.846
REMARK  0 active torsions:
REMARK  status: ('A' for Active; 'I' for Inactive)
ROOT
HETATM    1  C1  UNL     1     -21.293   8.431  -6.006  1.00 20.00     0.016 C 
HETATM    2  C2  UNL     1     -21.996   9.771  -6.147  1.00 20.00     0.075 C 
HETATM    3  I3  UNL     1     -23.180   9.824  -7.918  1.00 20.00    -0.090 I 
ENDROOT
TORSDOF 0
ENDMDL
