MODEL 1
REMARK VINA RESULT:      -5.6      0.000      0.000
REMARK  2 active torsions:
REMARK  status: ('A' for Active; 'I' for Inactive)
REMARK    1  A    between atoms: C6_6  and  C9_9 
REMARK    2  A    between atoms: C9_9  and  C10_10 
ROOT
HETATM    1  C1  UNL     1     -34.891   5.352   5.384  1.00 20.00     0.000 A 
HETATM    2  C2  UNL     1     -34.197   6.471   5.843  1.00 20.00     0.001 A 
HETATM    3  C3  UNL     1     -34.714   4.910   4.074  1.00 20.00     0.001 A 
HETATM    4  C4  UNL     1     -33.326   7.149   4.990  1.00 20.00     0.007 A 
HETATM    5  C5  UNL     1     -33.842   5.588   3.221  1.00 20.00     0.007 A 
HETATM    6  C6  UNL     1     -33.148   6.707   3.679  1.00 20.00    -0.058 A 
ENDROOT
BRANCH   6   7
HETATM    7  C9  UNL     1     -32.205   7.441   2.756  1.00 20.00     0.042 C 
BRANCH   7   8
HETATM    8  C10 UNL     1     -32.853   7.886   1.430  1.00 20.00    -0.019 C 
HETATM    9  C7  UNL     1     -33.162   9.386   1.418  1.00 20.00     0.010 C 
HETATM   10  C8  UNL     1     -31.927   7.542   0.260  1.00 20.00     0.010 C 
ENDBRANCH   7   8
ENDBRANCH   6   7
TORSDOF 2
ENDMDL
MODEL 2
REMARK VINA RESULT:      -5.6      0.616      1.631
REMARK  2 active torsions:
REMARK  status: ('A' for Active; 'I' for Inactive)
REMARK    1  A    between atoms: C6_6  and  C9_9 
REMARK    2  A    between atoms: C9_9  and  C10_10 
ROOT
HETATM    1  C1  UNL     1     -34.752   4.677   4.549  1.00 20.00     0.000 A 
HETATM    2  C2  UNL     1     -34.125   4.332   3.351  1.00 20.00     0.001 A 
HETATM    3  C3  UNL     1     -34.570   5.949   5.091  1.00 20.00     0.001 A 
HETATM    4  C4  UNL     1     -33.316   5.259   2.696  1.00 20.00     0.007 A 
HETATM    5  C5  UNL     1     -33.760   6.877   4.435  1.00 20.00     0.007 A 
HETATM    6  C6  UNL     1     -33.133   6.532   3.238  1.00 20.00    -0.058 A 
ENDROOT
BRANCH   6   7
HETATM    7  C9  UNL     1     -32.256   7.536   2.528  1.00 20.00     0.042 C 
BRANCH   7   8
HETATM    8  C10 UNL     1     -32.807   7.989   1.163  1.00 20.00    -0.019 C 
HETATM    9  C7  UNL     1     -33.141   9.483   1.145  1.00 20.00     0.010 C 
HETATM   10  C8  UNL     1     -31.789   7.676   0.063  1.00 20.00     0.010 C 
ENDBRANCH   7   8
ENDBRANCH   6   7
TORSDOF 2
ENDMDL
MODEL 3
REMARK VINA RESULT:      -4.7     10.826     11.579
REMARK  2 active torsions:
REMARK  status: ('A' for Active; 'I' for Inactive)
REMARK    1  A    between atoms: C6_6  and  C9_9 
REMARK    2  A    between atoms: C9_9  and  C10_10 
ROOT
HETATM    1  C1  UNL     1     -34.007  17.809  -0.886  1.00 20.00     0.000 A 
HETATM    2  C2  UNL     1     -35.103  16.954  -1.000  1.00 20.00     0.001 A 
HETATM    3  C3  UNL     1     -32.930  17.684  -1.763  1.00 20.00     0.001 A 
HETATM    4  C4  UNL     1     -35.122  15.973  -1.991  1.00 20.00     0.007 A 
HETATM    5  C5  UNL     1     -32.950  16.703  -2.756  1.00 20.00     0.007 A 
HETATM    6  C6  UNL     1     -34.045  15.848  -2.869  1.00 20.00    -0.058 A 
ENDROOT
BRANCH   6   7
HETATM    7  C9  UNL     1     -34.066  14.786  -3.943  1.00 20.00     0.042 C 
BRANCH   7   8
HETATM    8  C10 UNL     1     -35.293  14.863  -4.871  1.00 20.00    -0.019 C 
HETATM    9  C7  UNL     1     -34.893  14.957  -6.346  1.00 20.00     0.010 C 
HETATM   10  C8  UNL     1     -36.182  13.635  -4.657  1.00 20.00     0.010 C 
ENDBRANCH   7   8
ENDBRANCH   6   7
TORSDOF 2
ENDMDL
MODEL 4
REMARK VINA RESULT:      -4.7     10.838     11.564
REMARK  2 active torsions:
REMARK  status: ('A' for Active; 'I' for Inactive)
REMARK    1  A    between atoms: C6_6  and  C9_9 
REMARK    2  A    between atoms: C9_9  and  C10_10 
ROOT
HETATM    1  C1  UNL     1     -34.009  17.806  -0.881  1.00 20.00     0.000 A 
HETATM    2  C2  UNL     1     -32.925  17.664  -1.748  1.00 20.00     0.001 A 
HETATM    3  C3  UNL     1     -35.116  16.968  -1.004  1.00 20.00     0.001 A 
HETATM    4  C4  UNL     1     -32.950  16.682  -2.739  1.00 20.00     0.007 A 
HETATM    5  C5  UNL     1     -35.140  15.986  -1.995  1.00 20.00     0.007 A 
HETATM    6  C6  UNL     1     -34.058  15.843  -2.862  1.00 20.00    -0.058 A 
ENDROOT
BRANCH   6   7
HETATM    7  C9  UNL     1     -34.085  14.781  -3.935  1.00 20.00     0.042 C 
BRANCH   7   8
HETATM    8  C10 UNL     1     -35.302  14.877  -4.876  1.00 20.00    -0.019 C 
HETATM    9  C7  UNL     1     -34.885  14.969  -6.346  1.00 20.00     0.010 C 
HETATM   10  C8  UNL     1     -36.210  13.661  -4.673  1.00 20.00     0.010 C 
ENDBRANCH   7   8
ENDBRANCH   6   7
TORSDOF 2
ENDMDL
MODEL 5
REMARK VINA RESULT:      -4.4     10.673     11.826
REMARK  2 active torsions:
REMARK  status: ('A' for Active; 'I' for Inactive)
REMARK    1  A    between atoms: C6_6  and  C9_9 
REMARK    2  A    between atoms: C9_9  and  C10_10 
ROOT
HETATM    1  C1  UNL     1     -34.733  14.371  -3.765  1.00 20.00     0.000 A 
HETATM    2  C2  UNL     1     -33.435  14.669  -4.180  1.00 20.00     0.001 A 
HETATM    3  C3  UNL     1     -35.402  15.228  -2.893  1.00 20.00     0.001 A 
HETATM    4  C4  UNL     1     -32.806  15.826  -3.722  1.00 20.00     0.007 A 
HETATM    5  C5  UNL     1     -34.772  16.386  -2.435  1.00 20.00     0.007 A 
HETATM    6  C6  UNL     1     -33.475  16.685  -2.849  1.00 20.00    -0.058 A 
ENDROOT
BRANCH   6   7
HETATM    7  C9  UNL     1     -32.794  17.938  -2.352  1.00 20.00     0.042 C 
BRANCH   7   8
HETATM    8  C10 UNL     1     -32.652  18.003  -0.819  1.00 20.00    -0.019 C 
HETATM    9  C7  UNL     1     -31.212  18.296  -0.387  1.00 20.00     0.010 C 
HETATM   10  C8  UNL     1     -33.587  19.078  -0.258  1.00 20.00     0.010 C 
ENDBRANCH   7   8
ENDBRANCH   6   7
TORSDOF 2
ENDMDL
MODEL 6
REMARK VINA RESULT:      -4.3     11.063     11.925
REMARK  2 active torsions:
REMARK  status: ('A' for Active; 'I' for Inactive)
REMARK    1  A    between atoms: C6_6  and  C9_9 
REMARK    2  A    between atoms: C9_9  and  C10_10 
ROOT
HETATM    1  C1  UNL     1     -31.775  18.685   1.135  1.00 20.00     0.000 A 
HETATM    2  C2  UNL     1     -31.135  18.531  -0.095  1.00 20.00     0.001 A 
HETATM    3  C3  UNL     1     -33.145  18.456   1.243  1.00 20.00     0.001 A 
HETATM    4  C4  UNL     1     -31.868  18.148  -1.218  1.00 20.00     0.007 A 
HETATM    5  C5  UNL     1     -33.879  18.072   0.119  1.00 20.00     0.007 A 
HETATM    6  C6  UNL     1     -33.239  17.918  -1.111  1.00 20.00    -0.058 A 
ENDROOT
BRANCH   6   7
HETATM    7  C9  UNL     1     -34.033  17.504  -2.327  1.00 20.00     0.042 C 
BRANCH   7   8
HETATM    8  C10 UNL     1     -34.061  15.982  -2.564  1.00 20.00    -0.019 C 
HETATM    9  C7  UNL     1     -35.458  15.485  -2.946  1.00 20.00     0.010 C 
HETATM   10  C8  UNL     1     -33.063  15.610  -3.664  1.00 20.00     0.010 C 
ENDBRANCH   7   8
ENDBRANCH   6   7
TORSDOF 2
ENDMDL
MODEL 7
REMARK VINA RESULT:      -4.3     10.987     11.873
REMARK  2 active torsions:
REMARK  status: ('A' for Active; 'I' for Inactive)
REMARK    1  A    between atoms: C6_6  and  C9_9 
REMARK    2  A    between atoms: C9_9  and  C10_10 
ROOT
HETATM    1  C1  UNL     1     -34.246  17.602  -0.772  1.00 20.00     0.000 A 
HETATM    2  C2  UNL     1     -35.207  16.672  -1.169  1.00 20.00     0.001 A 
HETATM    3  C3  UNL     1     -33.069  17.747  -1.505  1.00 20.00     0.001 A 
HETATM    4  C4  UNL     1     -34.990  15.887  -2.301  1.00 20.00     0.007 A 
HETATM    5  C5  UNL     1     -32.852  16.961  -2.638  1.00 20.00     0.007 A 
HETATM    6  C6  UNL     1     -33.812  16.031  -3.035  1.00 20.00    -0.058 A 
ENDROOT
BRANCH   6   7
HETATM    7  C9  UNL     1     -33.576  15.180  -4.260  1.00 20.00     0.042 C 
BRANCH   7   8
HETATM    8  C10 UNL     1     -34.453  15.569  -5.467  1.00 20.00    -0.019 C 
HETATM    9  C7  UNL     1     -34.581  17.088  -5.617  1.00 20.00     0.010 C 
HETATM   10  C8  UNL     1     -33.864  14.973  -6.748  1.00 20.00     0.010 C 
ENDBRANCH   7   8
ENDBRANCH   6   7
TORSDOF 2
ENDMDL
MODEL 8
REMARK VINA RESULT:      -4.0     10.601     11.968
REMARK  2 active torsions:
REMARK  status: ('A' for Active; 'I' for Inactive)
REMARK    1  A    between atoms: C6_6  and  C9_9 
REMARK    2  A    between atoms: C9_9  and  C10_10 
ROOT
HETATM    1  C1  UNL     1     -36.044  14.406  -5.819  1.00 20.00     0.000 A 
HETATM    2  C2  UNL     1     -35.776  13.749  -4.617  1.00 20.00     0.001 A 
HETATM    3  C3  UNL     1     -35.384  15.595  -6.127  1.00 20.00     0.001 A 
HETATM    4  C4  UNL     1     -34.847  14.283  -3.724  1.00 20.00     0.007 A 
HETATM    5  C5  UNL     1     -34.455  16.129  -5.233  1.00 20.00     0.007 A 
HETATM    6  C6  UNL     1     -34.187  15.473  -4.032  1.00 20.00    -0.058 A 
ENDROOT
BRANCH   6   7
HETATM    7  C9  UNL     1     -33.181  16.050  -3.064  1.00 20.00     0.042 C 
BRANCH   7   8
HETATM    8  C10 UNL     1     -33.695  17.283  -2.295  1.00 20.00    -0.019 C 
HETATM    9  C7  UNL     1     -34.807  16.920  -1.307  1.00 20.00     0.010 C 
HETATM   10  C8  UNL     1     -32.537  17.945  -1.545  1.00 20.00     0.010 C 
ENDBRANCH   7   8
ENDBRANCH   6   7
TORSDOF 2
ENDMDL
MODEL 9
REMARK VINA RESULT:      -4.0     10.856     11.519
REMARK  2 active torsions:
REMARK  status: ('A' for Active; 'I' for Inactive)
REMARK    1  A    between atoms: C6_6  and  C9_9 
REMARK    2  A    between atoms: C9_9  and  C10_10 
ROOT
HETATM    1  C1  UNL     1     -33.640  18.308   1.628  1.00 20.00     0.000 A 
HETATM    2  C2  UNL     1     -34.871  17.686   1.419  1.00 20.00     0.001 A 
HETATM    3  C3  UNL     1     -32.787  18.547   0.552  1.00 20.00     0.001 A 
HETATM    4  C4  UNL     1     -35.248  17.302   0.132  1.00 20.00     0.007 A 
HETATM    5  C5  UNL     1     -33.164  18.163  -0.736  1.00 20.00     0.007 A 
HETATM    6  C6  UNL     1     -34.394  17.541  -0.946  1.00 20.00    -0.058 A 
ENDROOT
BRANCH   6   7
HETATM    7  C9  UNL     1     -34.802  17.124  -2.339  1.00 20.00     0.042 C 
BRANCH   7   8
HETATM    8  C10 UNL     1     -34.359  15.698  -2.717  1.00 20.00    -0.019 C 
HETATM    9  C7  UNL     1     -35.453  14.937  -3.471  1.00 20.00     0.010 C 
HETATM   10  C8  UNL     1     -33.091  15.759  -3.574  1.00 20.00     0.010 C 
ENDBRANCH   7   8
ENDBRANCH   6   7
TORSDOF 2
ENDMDL
