MODEL 1
REMARK VINA RESULT:      -5.6      0.000      0.000
REMARK  0 active torsions:
REMARK  status: ('A' for Active; 'I' for Inactive)
ROOT
HETATM    1  C1  UNL     1     -34.062   4.222   3.243  1.00 20.00     0.001 A 
HETATM    2  C2  UNL     1     -33.383   5.135   2.437  1.00 20.00     0.007 A 
HETATM    3  C3  UNL     1     -34.484   4.596   4.518  1.00 20.00     0.007 A 
HETATM    4  C4  UNL     1     -33.546   6.797   4.183  1.00 20.00     0.013 A 
HETATM    5  C5  UNL     1     -33.124   6.423   2.907  1.00 20.00    -0.061 A 
HETATM    6  C6  UNL     1     -34.227   5.884   4.988  1.00 20.00    -0.061 A 
HETATM    7  C7  UNL     1     -32.399   7.399   2.044  1.00 20.00     0.048 C 
HETATM    8  C8  UNL     1     -34.678   6.284   6.352  1.00 20.00     0.048 C 
ENDROOT
TORSDOF 0
ENDMDL
MODEL 2
REMARK VINA RESULT:      -5.6      0.021      3.028
REMARK  0 active torsions:
REMARK  status: ('A' for Active; 'I' for Inactive)
ROOT
HETATM    1  C1  UNL     1     -34.086   4.214   3.249  1.00 20.00     0.001 A 
HETATM    2  C2  UNL     1     -34.500   4.599   4.523  1.00 20.00     0.007 A 
HETATM    3  C3  UNL     1     -33.397   5.117   2.438  1.00 20.00     0.007 A 
HETATM    4  C4  UNL     1     -33.538   6.788   4.177  1.00 20.00     0.013 A 
HETATM    5  C5  UNL     1     -34.227   5.885   4.988  1.00 20.00    -0.061 A 
HETATM    6  C6  UNL     1     -33.123   6.403   2.902  1.00 20.00    -0.061 A 
HETATM    7  C7  UNL     1     -34.669   6.294   6.352  1.00 20.00     0.048 C 
HETATM    8  C8  UNL     1     -32.387   7.368   2.035  1.00 20.00     0.048 C 
ENDROOT
TORSDOF 0
ENDMDL
MODEL 3
REMARK VINA RESULT:      -4.6      0.805      2.194
REMARK  0 active torsions:
REMARK  status: ('A' for Active; 'I' for Inactive)
ROOT
HETATM    1  C1  UNL     1     -32.915   7.219   3.609  1.00 20.00     0.001 A 
HETATM    2  C2  UNL     1     -32.796   6.275   2.590  1.00 20.00     0.007 A 
HETATM    3  C3  UNL     1     -33.661   6.923   4.750  1.00 20.00     0.007 A 
HETATM    4  C4  UNL     1     -34.169   4.739   3.851  1.00 20.00     0.013 A 
HETATM    5  C5  UNL     1     -33.422   5.035   2.709  1.00 20.00    -0.061 A 
HETATM    6  C6  UNL     1     -34.287   5.683   4.871  1.00 20.00    -0.061 A 
HETATM    7  C7  UNL     1     -33.292   4.027   1.619  1.00 20.00     0.048 C 
HETATM    8  C8  UNL     1     -35.085   5.365   6.090  1.00 20.00     0.048 C 
ENDROOT
TORSDOF 0
ENDMDL
MODEL 4
REMARK VINA RESULT:      -4.6      0.806      3.581
REMARK  0 active torsions:
REMARK  status: ('A' for Active; 'I' for Inactive)
ROOT
HETATM    1  C1  UNL     1     -32.912   7.215   3.602  1.00 20.00     0.001 A 
HETATM    2  C2  UNL     1     -33.656   6.921   4.745  1.00 20.00     0.007 A 
HETATM    3  C3  UNL     1     -32.797   6.269   2.583  1.00 20.00     0.007 A 
HETATM    4  C4  UNL     1     -34.170   4.737   3.849  1.00 20.00     0.013 A 
HETATM    5  C5  UNL     1     -34.285   5.683   4.869  1.00 20.00    -0.061 A 
HETATM    6  C6  UNL     1     -33.426   5.031   2.706  1.00 20.00    -0.061 A 
HETATM    7  C7  UNL     1     -35.082   5.371   6.090  1.00 20.00     0.048 C 
HETATM    8  C8  UNL     1     -33.303   4.019   1.617  1.00 20.00     0.048 C 
ENDROOT
TORSDOF 0
ENDMDL
MODEL 5
REMARK VINA RESULT:      -4.5     11.740     12.124
REMARK  0 active torsions:
REMARK  status: ('A' for Active; 'I' for Inactive)
ROOT
HETATM    1  C1  UNL     1     -32.924  15.532  -3.811  1.00 20.00     0.001 A 
HETATM    2  C2  UNL     1     -33.835  14.657  -4.403  1.00 20.00     0.007 A 
HETATM    3  C3  UNL     1     -33.314  16.310  -2.721  1.00 20.00     0.007 A 
HETATM    4  C4  UNL     1     -35.524  15.340  -2.817  1.00 20.00     0.013 A 
HETATM    5  C5  UNL     1     -35.134  14.561  -3.908  1.00 20.00    -0.061 A 
HETATM    6  C6  UNL     1     -34.613  16.214  -2.224  1.00 20.00    -0.061 A 
HETATM    7  C7  UNL     1     -36.106  13.624  -4.541  1.00 20.00     0.048 C 
HETATM    8  C8  UNL     1     -35.030  17.047  -1.059  1.00 20.00     0.048 C 
ENDROOT
TORSDOF 0
ENDMDL
MODEL 6
REMARK VINA RESULT:      -4.5     11.740     12.255
REMARK  0 active torsions:
REMARK  status: ('A' for Active; 'I' for Inactive)
ROOT
HETATM    1  C1  UNL     1     -32.924  15.532  -3.811  1.00 20.00     0.001 A 
HETATM    2  C2  UNL     1     -33.315  16.309  -2.721  1.00 20.00     0.007 A 
HETATM    3  C3  UNL     1     -33.834  14.657  -4.405  1.00 20.00     0.007 A 
HETATM    4  C4  UNL     1     -35.524  15.336  -2.818  1.00 20.00     0.013 A 
HETATM    5  C5  UNL     1     -34.614  16.212  -2.224  1.00 20.00    -0.061 A 
HETATM    6  C6  UNL     1     -35.134  14.560  -3.909  1.00 20.00    -0.061 A 
HETATM    7  C7  UNL     1     -35.030  17.045  -1.059  1.00 20.00     0.048 C 
HETATM    8  C8  UNL     1     -36.107  13.624  -4.543  1.00 20.00     0.048 C 
ENDROOT
TORSDOF 0
ENDMDL
MODEL 7
REMARK VINA RESULT:      -4.5     11.651     12.396
REMARK  0 active torsions:
REMARK  status: ('A' for Active; 'I' for Inactive)
ROOT
HETATM    1  C1  UNL     1     -32.772  17.284  -2.491  1.00 20.00     0.001 A 
HETATM    2  C2  UNL     1     -33.118  16.200  -3.296  1.00 20.00     0.007 A 
HETATM    3  C3  UNL     1     -33.615  17.677  -1.451  1.00 20.00     0.007 A 
HETATM    4  C4  UNL     1     -35.151  15.902  -2.024  1.00 20.00     0.013 A 
HETATM    5  C5  UNL     1     -34.307  15.509  -3.064  1.00 20.00    -0.061 A 
HETATM    6  C6  UNL     1     -34.804  16.987  -1.218  1.00 20.00    -0.061 A 
HETATM    7  C7  UNL     1     -34.675  14.348  -3.925  1.00 20.00     0.048 C 
HETATM    8  C8  UNL     1     -35.706  17.407  -0.107  1.00 20.00     0.048 C 
ENDROOT
TORSDOF 0
ENDMDL
MODEL 8
REMARK VINA RESULT:      -4.5     11.649     12.621
REMARK  0 active torsions:
REMARK  status: ('A' for Active; 'I' for Inactive)
ROOT
HETATM    1  C1  UNL     1     -32.775  17.282  -2.490  1.00 20.00     0.001 A 
HETATM    2  C2  UNL     1     -33.620  17.676  -1.453  1.00 20.00     0.007 A 
HETATM    3  C3  UNL     1     -33.119  16.197  -3.296  1.00 20.00     0.007 A 
HETATM    4  C4  UNL     1     -35.153  15.899  -2.026  1.00 20.00     0.013 A 
HETATM    5  C5  UNL     1     -34.809  16.985  -1.220  1.00 20.00    -0.061 A 
HETATM    6  C6  UNL     1     -34.308  15.506  -3.064  1.00 20.00    -0.061 A 
HETATM    7  C7  UNL     1     -35.712  17.408  -0.113  1.00 20.00     0.048 C 
HETATM    8  C8  UNL     1     -34.675  14.345  -3.925  1.00 20.00     0.048 C 
ENDROOT
TORSDOF 0
ENDMDL
MODEL 9
REMARK VINA RESULT:      -4.4     11.883     12.714
REMARK  0 active torsions:
REMARK  status: ('A' for Active; 'I' for Inactive)
ROOT
HETATM    1  C1  UNL     1     -35.249  16.428  -1.612  1.00 20.00     0.001 A 
HETATM    2  C2  UNL     1     -34.308  17.390  -1.247  1.00 20.00     0.007 A 
HETATM    3  C3  UNL     1     -34.976  15.547  -2.658  1.00 20.00     0.007 A 
HETATM    4  C4  UNL     1     -32.821  16.592  -2.976  1.00 20.00     0.013 A 
HETATM    5  C5  UNL     1     -33.094  17.473  -1.928  1.00 20.00    -0.061 A 
HETATM    6  C6  UNL     1     -33.762  15.628  -3.340  1.00 20.00    -0.061 A 
HETATM    7  C7  UNL     1     -32.088  18.501  -1.536  1.00 20.00     0.048 C 
HETATM    8  C8  UNL     1     -33.470  14.688  -4.459  1.00 20.00     0.048 C 
ENDROOT
TORSDOF 0
ENDMDL
