MODEL 1
REMARK VINA RESULT:      -5.5      0.000      0.000
REMARK  1 active torsions:
REMARK  status: ('A' for Active; 'I' for Inactive)
REMARK    1  A    between atoms: C2_2  and  C8_8 
ROOT
HETATM    1  C1  UNL     1     -33.944   6.233   4.757  1.00 20.00    -0.081 C 
HETATM    2  C2  UNL     1     -33.252   6.281   3.608  1.00 20.00    -0.078 C 
HETATM    3  C3  UNL     1     -34.841   5.032   4.805  1.00 20.00     0.034 C 
HETATM    4  C4  UNL     1     -33.586   5.120   2.719  1.00 20.00     0.034 C 
HETATM    5  C5  UNL     1     -34.330   4.172   3.654  1.00 20.00     0.009 C 
HETATM    6  C6  UNL     1     -33.943   7.190   5.898  1.00 20.00     0.043 C 
ENDROOT
BRANCH   2   7
HETATM    7  C8  UNL     1     -32.281   7.306   3.136  1.00 20.00     0.030 C 
HETATM    8  C7  UNL     1     -32.528   7.646   1.679  1.00 20.00     0.010 C 
ENDBRANCH   2   7
TORSDOF 1
ENDMDL
MODEL 2
REMARK VINA RESULT:      -5.1      0.609      2.244
REMARK  1 active torsions:
REMARK  status: ('A' for Active; 'I' for Inactive)
REMARK    1  A    between atoms: C2_2  and  C8_8 
ROOT
HETATM    1  C1  UNL     1     -33.633   5.180   3.229  1.00 20.00    -0.081 C 
HETATM    2  C2  UNL     1     -33.204   6.380   3.647  1.00 20.00    -0.078 C 
HETATM    3  C3  UNL     1     -34.614   4.584   4.194  1.00 20.00     0.034 C 
HETATM    4  C4  UNL     1     -33.834   6.763   4.954  1.00 20.00     0.034 C 
HETATM    5  C5  UNL     1     -34.977   5.763   5.091  1.00 20.00     0.009 C 
HETATM    6  C6  UNL     1     -33.247   4.412   2.014  1.00 20.00     0.043 C 
ENDROOT
BRANCH   2   7
HETATM    7  C8  UNL     1     -32.214   7.298   3.018  1.00 20.00     0.030 C 
HETATM    8  C7  UNL     1     -32.709   7.773   1.666  1.00 20.00     0.010 C 
ENDBRANCH   2   7
TORSDOF 1
ENDMDL
MODEL 3
REMARK VINA RESULT:      -4.8      1.244      2.335
REMARK  1 active torsions:
REMARK  status: ('A' for Active; 'I' for Inactive)
REMARK    1  A    between atoms: C2_2  and  C8_8 
ROOT
HETATM    1  C1  UNL     1     -33.412   6.756   4.616  1.00 20.00    -0.081 C 
HETATM    2  C2  UNL     1     -34.014   5.841   3.841  1.00 20.00    -0.078 C 
HETATM    3  C3  UNL     1     -33.989   6.766   6.000  1.00 20.00     0.034 C 
HETATM    4  C4  UNL     1     -35.082   5.104   4.593  1.00 20.00     0.034 C 
HETATM    5  C5  UNL     1     -34.800   5.474   6.045  1.00 20.00     0.009 C 
HETATM    6  C6  UNL     1     -32.331   7.720   4.269  1.00 20.00     0.043 C 
ENDROOT
BRANCH   2   7
HETATM    7  C8  UNL     1     -33.777   5.519   2.406  1.00 20.00     0.030 C 
HETATM    8  C7  UNL     1     -32.984   4.234   2.270  1.00 20.00     0.010 C 
ENDBRANCH   2   7
TORSDOF 1
ENDMDL
MODEL 4
REMARK VINA RESULT:      -4.8      0.979      3.764
REMARK  1 active torsions:
REMARK  status: ('A' for Active; 'I' for Inactive)
REMARK    1  A    between atoms: C2_2  and  C8_8 
ROOT
HETATM    1  C1  UNL     1     -33.250   5.580   2.755  1.00 20.00    -0.081 C 
HETATM    2  C2  UNL     1     -33.894   5.802   3.911  1.00 20.00    -0.078 C 
HETATM    3  C3  UNL     1     -32.379   6.742   2.381  1.00 20.00     0.034 C 
HETATM    4  C4  UNL     1     -33.549   7.146   4.480  1.00 20.00     0.034 C 
HETATM    5  C5  UNL     1     -32.328   7.562   3.666  1.00 20.00     0.009 C 
HETATM    6  C6  UNL     1     -33.323   4.401   1.848  1.00 20.00     0.043 C 
ENDROOT
BRANCH   2   7
HETATM    7  C8  UNL     1     -34.871   4.936   4.626  1.00 20.00     0.030 C 
HETATM    8  C7  UNL     1     -34.812   5.184   6.121  1.00 20.00     0.010 C 
ENDBRANCH   2   7
TORSDOF 1
ENDMDL
MODEL 5
REMARK VINA RESULT:      -4.5      0.819      3.045
REMARK  1 active torsions:
REMARK  status: ('A' for Active; 'I' for Inactive)
REMARK    1  A    between atoms: C2_2  and  C8_8 
ROOT
HETATM    1  C1  UNL     1     -33.316   6.822   4.376  1.00 20.00    -0.081 C 
HETATM    2  C2  UNL     1     -33.962   5.774   3.843  1.00 20.00    -0.078 C 
HETATM    3  C3  UNL     1     -32.259   7.342   3.448  1.00 20.00     0.034 C 
HETATM    4  C4  UNL     1     -33.432   5.439   2.481  1.00 20.00     0.034 C 
HETATM    5  C5  UNL     1     -32.597   6.664   2.124  1.00 20.00     0.009 C 
HETATM    6  C6  UNL     1     -33.497   7.462   5.708  1.00 20.00     0.043 C 
ENDROOT
BRANCH   2   7
HETATM    7  C8  UNL     1     -35.051   4.943   4.427  1.00 20.00     0.030 C 
HETATM    8  C7  UNL     1     -34.854   4.777   5.922  1.00 20.00     0.010 C 
ENDBRANCH   2   7
TORSDOF 1
ENDMDL
MODEL 6
REMARK VINA RESULT:      -4.3      0.799      2.915
REMARK  1 active torsions:
REMARK  status: ('A' for Active; 'I' for Inactive)
REMARK    1  A    between atoms: C2_2  and  C8_8 
ROOT
HETATM    1  C1  UNL     1     -33.100   6.132   2.888  1.00 20.00    -0.081 C 
HETATM    2  C2  UNL     1     -33.755   6.042   4.056  1.00 20.00    -0.078 C 
HETATM    3  C3  UNL     1     -33.086   4.817   2.167  1.00 20.00     0.034 C 
HETATM    4  C4  UNL     1     -34.274   4.654   4.288  1.00 20.00     0.034 C 
HETATM    5  C5  UNL     1     -34.133   4.000   2.918  1.00 20.00     0.009 C 
HETATM    6  C6  UNL     1     -32.407   7.303   2.284  1.00 20.00     0.043 C 
ENDROOT
BRANCH   2   7
HETATM    7  C8  UNL     1     -33.979   7.089   5.092  1.00 20.00     0.030 C 
HETATM    8  C7  UNL     1     -34.350   6.456   6.419  1.00 20.00     0.010 C 
ENDBRANCH   2   7
TORSDOF 1
ENDMDL
MODEL 7
REMARK VINA RESULT:      -4.1     11.496     12.182
REMARK  1 active torsions:
REMARK  status: ('A' for Active; 'I' for Inactive)
REMARK    1  A    between atoms: C2_2  and  C8_8 
ROOT
HETATM    1  C1  UNL     1     -33.614  15.242  -3.659  1.00 20.00    -0.081 C 
HETATM    2  C2  UNL     1     -34.925  14.989  -3.517  1.00 20.00    -0.078 C 
HETATM    3  C3  UNL     1     -33.199  16.438  -2.855  1.00 20.00     0.034 C 
HETATM    4  C4  UNL     1     -35.578  15.980  -2.599  1.00 20.00     0.034 C 
HETATM    5  C5  UNL     1     -34.391  16.665  -1.931  1.00 20.00     0.009 C 
HETATM    6  C6  UNL     1     -32.603  14.535  -4.492  1.00 20.00     0.043 C 
ENDROOT
BRANCH   2   7
HETATM    7  C8  UNL     1     -35.752  13.927  -4.153  1.00 20.00     0.030 C 
HETATM    8  C7  UNL     1     -37.172  14.414  -4.372  1.00 20.00     0.010 C 
ENDBRANCH   2   7
TORSDOF 1
ENDMDL
MODEL 8
REMARK VINA RESULT:      -4.1     11.641     12.370
REMARK  1 active torsions:
REMARK  status: ('A' for Active; 'I' for Inactive)
REMARK    1  A    between atoms: C2_2  and  C8_8 
ROOT
HETATM    1  C1  UNL     1     -33.302  17.626  -1.475  1.00 20.00    -0.081 C 
HETATM    2  C2  UNL     1     -33.779  16.654  -2.268  1.00 20.00    -0.078 C 
HETATM    3  C3  UNL     1     -34.314  18.039  -0.449  1.00 20.00     0.034 C 
HETATM    4  C4  UNL     1     -35.180  16.276  -1.890  1.00 20.00     0.034 C 
HETATM    5  C5  UNL     1     -35.355  16.926  -0.521  1.00 20.00     0.009 C 
HETATM    6  C6  UNL     1     -31.983  18.313  -1.517  1.00 20.00     0.043 C 
ENDROOT
BRANCH   2   7
HETATM    7  C8  UNL     1     -33.128  15.978  -3.424  1.00 20.00     0.030 C 
HETATM    8  C7  UNL     1     -33.970  14.813  -3.907  1.00 20.00     0.010 C 
ENDBRANCH   2   7
TORSDOF 1
ENDMDL
MODEL 9
REMARK VINA RESULT:      -4.0     11.700     12.457
REMARK  1 active torsions:
REMARK  status: ('A' for Active; 'I' for Inactive)
REMARK    1  A    between atoms: C2_2  and  C8_8 
ROOT
HETATM    1  C1  UNL     1     -34.421  17.023  -1.399  1.00 20.00    -0.081 C 
HETATM    2  C2  UNL     1     -33.330  17.529  -1.995  1.00 20.00    -0.078 C 
HETATM    3  C3  UNL     1     -35.010  15.901  -2.199  1.00 20.00     0.034 C 
HETATM    4  C4  UNL     1     -33.030  16.819  -3.282  1.00 20.00     0.034 C 
HETATM    5  C5  UNL     1     -33.907  15.573  -3.201  1.00 20.00     0.009 C 
HETATM    6  C6  UNL     1     -35.084  17.445  -0.135  1.00 20.00     0.043 C 
ENDROOT
BRANCH   2   7
HETATM    7  C8  UNL     1     -32.462  18.660  -1.566  1.00 20.00     0.030 C 
HETATM    8  C7  UNL     1     -31.403  18.183  -0.592  1.00 20.00     0.010 C 
ENDBRANCH   2   7
TORSDOF 1
ENDMDL
