MODEL 1
REMARK VINA RESULT:      -5.8      0.000      0.000
REMARK  0 active torsions:
REMARK  status: ('A' for Active; 'I' for Inactive)
ROOT
HETATM    1  C1  UNL     1     -34.693   5.170   5.867  1.00 20.00     0.000 C 
HETATM    2  C2  UNL     1     -35.084   4.844   4.429  1.00 20.00     0.000 C 
HETATM    3  C3  UNL     1     -34.290   6.634   6.020  1.00 20.00     0.000 C 
HETATM    4  C4  UNL     1     -33.981   5.225   3.445  1.00 20.00     0.004 C 
HETATM    5  C5  UNL     1     -33.185   7.019   5.038  1.00 20.00     0.004 C 
HETATM    6  C6  UNL     1     -33.579   6.699   3.590  1.00 20.00    -0.018 C 
HETATM    7  C7  UNL     1     -32.439   7.044   2.633  1.00 20.00     0.010 C 
ENDROOT
TORSDOF 0
ENDMDL
MODEL 2
REMARK VINA RESULT:      -5.3      0.607      1.986
REMARK  0 active torsions:
REMARK  status: ('A' for Active; 'I' for Inactive)
ROOT
HETATM    1  C1  UNL     1     -35.027   5.208   5.309  1.00 20.00     0.000 C 
HETATM    2  C2  UNL     1     -34.077   6.307   5.775  1.00 20.00     0.000 C 
HETATM    3  C3  UNL     1     -34.408   4.368   4.196  1.00 20.00     0.000 C 
HETATM    4  C4  UNL     1     -33.609   7.178   4.612  1.00 20.00     0.004 C 
HETATM    5  C5  UNL     1     -33.939   5.235   3.030  1.00 20.00     0.004 C 
HETATM    6  C6  UNL     1     -32.978   6.337   3.494  1.00 20.00    -0.018 C 
HETATM    7  C7  UNL     1     -32.565   7.223   2.320  1.00 20.00     0.010 C 
ENDROOT
TORSDOF 0
ENDMDL
MODEL 3
REMARK VINA RESULT:      -5.0      0.824      1.444
REMARK  0 active torsions:
REMARK  status: ('A' for Active; 'I' for Inactive)
ROOT
HETATM    1  C1  UNL     1     -34.268   6.159   6.107  1.00 20.00     0.000 C 
HETATM    2  C2  UNL     1     -35.112   5.061   5.469  1.00 20.00     0.000 C 
HETATM    3  C3  UNL     1     -33.830   7.199   5.079  1.00 20.00     0.000 C 
HETATM    4  C4  UNL     1     -34.392   4.411   4.289  1.00 20.00     0.004 C 
HETATM    5  C5  UNL     1     -33.108   6.553   3.898  1.00 20.00     0.004 C 
HETATM    6  C6  UNL     1     -33.958   5.452   3.249  1.00 20.00    -0.018 C 
HETATM    7  C7  UNL     1     -33.194   4.786   2.105  1.00 20.00     0.010 C 
ENDROOT
TORSDOF 0
ENDMDL
MODEL 4
REMARK VINA RESULT:      -4.8      0.924      3.398
REMARK  0 active torsions:
REMARK  status: ('A' for Active; 'I' for Inactive)
ROOT
HETATM    1  C1  UNL     1     -32.638   5.957   2.510  1.00 20.00     0.000 C 
HETATM    2  C2  UNL     1     -33.141   7.168   3.288  1.00 20.00     0.000 C 
HETATM    3  C3  UNL     1     -33.671   4.834   2.490  1.00 20.00     0.000 C 
HETATM    4  C4  UNL     1     -33.581   6.788   4.700  1.00 20.00     0.004 C 
HETATM    5  C5  UNL     1     -34.111   4.449   3.901  1.00 20.00     0.004 C 
HETATM    6  C6  UNL     1     -34.627   5.664   4.683  1.00 20.00    -0.018 C 
HETATM    7  C7  UNL     1     -35.011   5.265   6.107  1.00 20.00     0.010 C 
ENDROOT
TORSDOF 0
ENDMDL
MODEL 5
REMARK VINA RESULT:      -4.8      0.645      2.181
REMARK  0 active torsions:
REMARK  status: ('A' for Active; 'I' for Inactive)
ROOT
HETATM    1  C1  UNL     1     -34.518   6.548   6.023  1.00 20.00     0.000 C 
HETATM    2  C2  UNL     1     -33.295   7.074   5.279  1.00 20.00     0.000 C 
HETATM    3  C3  UNL     1     -34.696   5.047   5.818  1.00 20.00     0.000 C 
HETATM    4  C4  UNL     1     -33.342   6.715   3.795  1.00 20.00     0.004 C 
HETATM    5  C5  UNL     1     -34.745   4.684   4.335  1.00 20.00     0.004 C 
HETATM    6  C6  UNL     1     -33.512   5.205   3.584  1.00 20.00    -0.018 C 
HETATM    7  C7  UNL     1     -33.609   4.876   2.095  1.00 20.00     0.010 C 
ENDROOT
TORSDOF 0
ENDMDL
MODEL 6
REMARK VINA RESULT:      -4.6      0.966      3.007
REMARK  0 active torsions:
REMARK  status: ('A' for Active; 'I' for Inactive)
ROOT
HETATM    1  C1  UNL     1     -33.134   4.758   2.521  1.00 20.00     0.000 C 
HETATM    2  C2  UNL     1     -33.010   6.278   2.498  1.00 20.00     0.000 C 
HETATM    3  C3  UNL     1     -34.341   4.307   3.338  1.00 20.00     0.000 C 
HETATM    4  C4  UNL     1     -32.979   6.862   3.909  1.00 20.00     0.004 C 
HETATM    5  C5  UNL     1     -34.313   4.887   4.750  1.00 20.00     0.004 C 
HETATM    6  C6  UNL     1     -34.196   6.417   4.731  1.00 20.00    -0.018 C 
HETATM    7  C7  UNL     1     -34.116   6.969   6.154  1.00 20.00     0.010 C 
ENDROOT
TORSDOF 0
ENDMDL
MODEL 7
REMARK VINA RESULT:      -4.6      0.914      2.869
REMARK  0 active torsions:
REMARK  status: ('A' for Active; 'I' for Inactive)
ROOT
HETATM    1  C1  UNL     1     -32.953   6.491   2.352  1.00 20.00     0.000 C 
HETATM    2  C2  UNL     1     -33.327   5.029   2.578  1.00 20.00     0.000 C 
HETATM    3  C3  UNL     1     -32.515   7.164   3.649  1.00 20.00     0.000 C 
HETATM    4  C4  UNL     1     -34.383   4.880   3.670  1.00 20.00     0.004 C 
HETATM    5  C5  UNL     1     -33.570   7.019   4.743  1.00 20.00     0.004 C 
HETATM    6  C6  UNL     1     -33.942   5.549   4.979  1.00 20.00    -0.018 C 
HETATM    7  C7  UNL     1     -35.036   5.433   6.039  1.00 20.00     0.010 C 
ENDROOT
TORSDOF 0
ENDMDL
MODEL 8
REMARK VINA RESULT:      -4.2      8.913      9.434
REMARK  0 active torsions:
REMARK  status: ('A' for Active; 'I' for Inactive)
ROOT
HETATM    1  C1  UNL     1     -42.448   5.198  -0.455  1.00 20.00     0.000 C 
HETATM    2  C2  UNL     1     -42.738   5.774   0.928  1.00 20.00     0.000 C 
HETATM    3  C3  UNL     1     -41.147   5.748  -1.030  1.00 20.00     0.000 C 
HETATM    4  C4  UNL     1     -42.735   7.301   0.913  1.00 20.00     0.004 C 
HETATM    5  C5  UNL     1     -41.142   7.276  -1.048  1.00 20.00     0.004 C 
HETATM    6  C6  UNL     1     -41.424   7.859   0.342  1.00 20.00    -0.018 C 
HETATM    7  C7  UNL     1     -41.466   9.385   0.289  1.00 20.00     0.010 C 
ENDROOT
TORSDOF 0
ENDMDL
MODEL 9
REMARK VINA RESULT:      -3.9     11.821     12.421
REMARK  0 active torsions:
REMARK  status: ('A' for Active; 'I' for Inactive)
ROOT
HETATM    1  C1  UNL     1     -33.218  16.480  -3.159  1.00 20.00     0.000 C 
HETATM    2  C2  UNL     1     -32.770  15.264  -3.963  1.00 20.00     0.000 C 
HETATM    3  C3  UNL     1     -34.388  16.145  -2.239  1.00 20.00     0.000 C 
HETATM    4  C4  UNL     1     -33.930  14.644  -4.738  1.00 20.00     0.004 C 
HETATM    5  C5  UNL     1     -35.551  15.526  -3.011  1.00 20.00     0.004 C 
HETATM    6  C6  UNL     1     -35.106  14.297  -3.815  1.00 20.00    -0.018 C 
HETATM    7  C7  UNL     1     -36.274  13.728  -4.620  1.00 20.00     0.010 C 
ENDROOT
TORSDOF 0
ENDMDL
