MODEL 1
REMARK VINA RESULT:      -6.5      0.000      0.000
REMARK  3 active torsions:
REMARK  status: ('A' for Active; 'I' for Inactive)
REMARK    1  A    between atoms: C6_6  and  C8_8 
REMARK    2  A    between atoms: C8_8  and  C10_10 
REMARK    3  A    between atoms: C9_9  and  C10_10 
ROOT
HETATM    1  C1  UNL     1     -34.982   5.131   5.453  1.00 20.00     0.000 A 
HETATM    2  C2  UNL     1     -34.692   4.759   4.141  1.00 20.00     0.001 A 
HETATM    3  C3  UNL     1     -34.362   6.247   6.015  1.00 20.00     0.001 A 
HETATM    4  C4  UNL     1     -33.781   5.503   3.390  1.00 20.00     0.007 A 
HETATM    5  C5  UNL     1     -33.451   6.991   5.265  1.00 20.00     0.007 A 
HETATM    6  C6  UNL     1     -33.161   6.618   3.952  1.00 20.00    -0.058 A 
ENDROOT
BRANCH   6   7
HETATM    7  C8  UNL     1     -32.176   7.423   3.141  1.00 20.00     0.038 C 
BRANCH   7   8
HETATM    8  C10 UNL     1     -32.507   7.374   1.647  1.00 20.00     0.004 C 
BRANCH   8   9
HETATM    9  C9  UNL     1     -32.912   8.751   1.124  1.00 20.00    -0.004 C 
HETATM   10  C7  UNL     1     -33.359   8.686  -0.329  1.00 20.00     0.005 C 
ENDBRANCH   8   9
ENDBRANCH   7   8
ENDBRANCH   6   7
TORSDOF 3
ENDMDL
MODEL 2
REMARK VINA RESULT:      -4.7     10.560     11.591
REMARK  3 active torsions:
REMARK  status: ('A' for Active; 'I' for Inactive)
REMARK    1  A    between atoms: C6_6  and  C8_8 
REMARK    2  A    between atoms: C8_8  and  C10_10 
REMARK    3  A    between atoms: C9_9  and  C10_10 
ROOT
HETATM    1  C1  UNL     1     -34.029  17.701  -1.046  1.00 20.00     0.000 A 
HETATM    2  C2  UNL     1     -35.107  16.827  -1.182  1.00 20.00     0.001 A 
HETATM    3  C3  UNL     1     -32.942  17.608  -1.916  1.00 20.00     0.001 A 
HETATM    4  C4  UNL     1     -35.099  15.859  -2.186  1.00 20.00     0.007 A 
HETATM    5  C5  UNL     1     -32.934  16.640  -2.921  1.00 20.00     0.007 A 
HETATM    6  C6  UNL     1     -34.012  15.766  -3.055  1.00 20.00    -0.058 A 
ENDROOT
BRANCH   6   7
HETATM    7  C8  UNL     1     -34.003  14.720  -4.142  1.00 20.00     0.038 C 
BRANCH   7   8
HETATM    8  C10 UNL     1     -35.152  13.723  -3.971  1.00 20.00     0.004 C 
BRANCH   8   9
HETATM    9  C9  UNL     1     -36.210  13.904  -5.059  1.00 20.00    -0.004 C 
HETATM   10  C7  UNL     1     -35.653  14.654  -6.259  1.00 20.00     0.005 C 
ENDBRANCH   8   9
ENDBRANCH   7   8
ENDBRANCH   6   7
TORSDOF 3
ENDMDL
MODEL 3
REMARK VINA RESULT:      -4.7     10.564     11.601
REMARK  3 active torsions:
REMARK  status: ('A' for Active; 'I' for Inactive)
REMARK    1  A    between atoms: C6_6  and  C8_8 
REMARK    2  A    between atoms: C8_8  and  C10_10 
REMARK    3  A    between atoms: C9_9  and  C10_10 
ROOT
HETATM    1  C1  UNL     1     -34.035  17.701  -1.067  1.00 20.00     0.000 A 
HETATM    2  C2  UNL     1     -32.948  17.606  -1.935  1.00 20.00     0.001 A 
HETATM    3  C3  UNL     1     -35.111  16.822  -1.196  1.00 20.00     0.001 A 
HETATM    4  C4  UNL     1     -32.936  16.631  -2.933  1.00 20.00     0.007 A 
HETATM    5  C5  UNL     1     -35.098  15.847  -2.194  1.00 20.00     0.007 A 
HETATM    6  C6  UNL     1     -34.011  15.753  -3.062  1.00 20.00    -0.058 A 
ENDROOT
BRANCH   6   7
HETATM    7  C8  UNL     1     -33.999  14.699  -4.142  1.00 20.00     0.038 C 
BRANCH   7   8
HETATM    8  C10 UNL     1     -35.162  13.717  -3.980  1.00 20.00     0.004 C 
BRANCH   8   9
HETATM    9  C9  UNL     1     -36.219  13.927  -5.064  1.00 20.00    -0.004 C 
HETATM   10  C7  UNL     1     -35.640  14.638  -6.277  1.00 20.00     0.005 C 
ENDBRANCH   8   9
ENDBRANCH   7   8
ENDBRANCH   6   7
TORSDOF 3
ENDMDL
MODEL 4
REMARK VINA RESULT:      -4.7     10.908     11.880
REMARK  3 active torsions:
REMARK  status: ('A' for Active; 'I' for Inactive)
REMARK    1  A    between atoms: C6_6  and  C8_8 
REMARK    2  A    between atoms: C8_8  and  C10_10 
REMARK    3  A    between atoms: C9_9  and  C10_10 
ROOT
HETATM    1  C1  UNL     1     -34.478  14.491  -4.041  1.00 20.00     0.000 A 
HETATM    2  C2  UNL     1     -35.432  14.951  -3.134  1.00 20.00     0.001 A 
HETATM    3  C3  UNL     1     -33.214  15.081  -4.083  1.00 20.00     0.001 A 
HETATM    4  C4  UNL     1     -35.123  16.002  -2.270  1.00 20.00     0.007 A 
HETATM    5  C5  UNL     1     -32.905  16.131  -3.219  1.00 20.00     0.007 A 
HETATM    6  C6  UNL     1     -33.860  16.592  -2.313  1.00 20.00    -0.058 A 
ENDROOT
BRANCH   6   7
HETATM    7  C8  UNL     1     -33.526  17.728  -1.379  1.00 20.00     0.038 C 
BRANCH   7   8
HETATM    8  C10 UNL     1     -32.138  18.305  -1.671  1.00 20.00     0.004 C 
BRANCH   8   9
HETATM    9  C9  UNL     1     -31.299  18.402  -0.397  1.00 20.00    -0.004 C 
HETATM   10  C7  UNL     1     -32.175  18.465   0.845  1.00 20.00     0.005 C 
ENDBRANCH   8   9
ENDBRANCH   7   8
ENDBRANCH   6   7
TORSDOF 3
ENDMDL
MODEL 5
REMARK VINA RESULT:      -4.6     10.995     11.969
REMARK  3 active torsions:
REMARK  status: ('A' for Active; 'I' for Inactive)
REMARK    1  A    between atoms: C6_6  and  C8_8 
REMARK    2  A    between atoms: C8_8  and  C10_10 
REMARK    3  A    between atoms: C9_9  and  C10_10 
ROOT
HETATM    1  C1  UNL     1     -34.532  15.013  -3.662  1.00 20.00     0.000 A 
HETATM    2  C2  UNL     1     -33.277  15.602  -3.806  1.00 20.00     0.001 A 
HETATM    3  C3  UNL     1     -35.385  15.429  -2.639  1.00 20.00     0.001 A 
HETATM    4  C4  UNL     1     -32.873  16.607  -2.926  1.00 20.00     0.007 A 
HETATM    5  C5  UNL     1     -34.981  16.434  -1.760  1.00 20.00     0.007 A 
HETATM    6  C6  UNL     1     -33.725  17.022  -1.904  1.00 20.00    -0.058 A 
ENDROOT
BRANCH   6   7
HETATM    7  C8  UNL     1     -33.288  18.109  -0.953  1.00 20.00     0.038 C 
BRANCH   7   8
HETATM    8  C10 UNL     1     -31.828  18.505  -1.185  1.00 20.00     0.004 C 
BRANCH   8   9
HETATM    9  C9  UNL     1     -31.008  18.374   0.098  1.00 20.00    -0.004 C 
HETATM   10  C7  UNL     1     -31.896  18.393   1.333  1.00 20.00     0.005 C 
ENDBRANCH   8   9
ENDBRANCH   7   8
ENDBRANCH   6   7
TORSDOF 3
ENDMDL
MODEL 6
REMARK VINA RESULT:      -4.3     10.823     11.696
REMARK  3 active torsions:
REMARK  status: ('A' for Active; 'I' for Inactive)
REMARK    1  A    between atoms: C6_6  and  C8_8 
REMARK    2  A    between atoms: C8_8  and  C10_10 
REMARK    3  A    between atoms: C9_9  and  C10_10 
ROOT
HETATM    1  C1  UNL     1     -34.815  14.214  -4.187  1.00 20.00     0.000 A 
HETATM    2  C2  UNL     1     -33.499  14.611  -4.423  1.00 20.00     0.001 A 
HETATM    3  C3  UNL     1     -35.569  14.849  -3.199  1.00 20.00     0.001 A 
HETATM    4  C4  UNL     1     -32.936  15.643  -3.671  1.00 20.00     0.007 A 
HETATM    5  C5  UNL     1     -35.006  15.880  -2.447  1.00 20.00     0.007 A 
HETATM    6  C6  UNL     1     -33.690  16.276  -2.683  1.00 20.00    -0.058 A 
ENDROOT
BRANCH   6   7
HETATM    7  C8  UNL     1     -33.082  17.392  -1.870  1.00 20.00     0.038 C 
BRANCH   7   8
HETATM    8  C10 UNL     1     -34.159  18.270  -1.229  1.00 20.00     0.004 C 
BRANCH   8   9
HETATM    9  C9  UNL     1     -34.093  18.205   0.297  1.00 20.00    -0.004 C 
HETATM   10  C7  UNL     1     -35.278  17.445   0.874  1.00 20.00     0.005 C 
ENDBRANCH   8   9
ENDBRANCH   7   8
ENDBRANCH   6   7
TORSDOF 3
ENDMDL
MODEL 7
REMARK VINA RESULT:      -4.2     10.758     11.769
REMARK  3 active torsions:
REMARK  status: ('A' for Active; 'I' for Inactive)
REMARK    1  A    between atoms: C6_6  and  C8_8 
REMARK    2  A    between atoms: C8_8  and  C10_10 
REMARK    3  A    between atoms: C9_9  and  C10_10 
ROOT
HETATM    1  C1  UNL     1     -33.380  17.257  -2.140  1.00 20.00     0.000 A 
HETATM    2  C2  UNL     1     -32.804  16.616  -3.236  1.00 20.00     0.001 A 
HETATM    3  C3  UNL     1     -34.611  16.825  -1.646  1.00 20.00     0.001 A 
HETATM    4  C4  UNL     1     -33.459  15.542  -3.840  1.00 20.00     0.007 A 
HETATM    5  C5  UNL     1     -35.266  15.751  -2.250  1.00 20.00     0.007 A 
HETATM    6  C6  UNL     1     -34.690  15.111  -3.347  1.00 20.00    -0.058 A 
ENDROOT
BRANCH   6   7
HETATM    7  C8  UNL     1     -35.399  13.950  -3.999  1.00 20.00     0.038 C 
BRANCH   7   8
HETATM    8  C10 UNL     1     -35.938  14.327  -5.382  1.00 20.00     0.004 C 
BRANCH   8   9
HETATM    9  C9  UNL     1     -37.110  15.301  -5.272  1.00 20.00    -0.004 C 
HETATM   10  C7  UNL     1     -38.176  14.787  -4.317  1.00 20.00     0.005 C 
ENDBRANCH   8   9
ENDBRANCH   7   8
ENDBRANCH   6   7
TORSDOF 3
ENDMDL
MODEL 8
REMARK VINA RESULT:      -4.2     10.875     12.020
REMARK  3 active torsions:
REMARK  status: ('A' for Active; 'I' for Inactive)
REMARK    1  A    between atoms: C6_6  and  C8_8 
REMARK    2  A    between atoms: C8_8  and  C10_10 
REMARK    3  A    between atoms: C9_9  and  C10_10 
ROOT
HETATM    1  C1  UNL     1     -31.441  18.520   1.060  1.00 20.00     0.000 A 
HETATM    2  C2  UNL     1     -32.779  18.429   1.443  1.00 20.00     0.001 A 
HETATM    3  C3  UNL     1     -31.087  18.366  -0.281  1.00 20.00     0.001 A 
HETATM    4  C4  UNL     1     -33.763  18.181   0.486  1.00 20.00     0.007 A 
HETATM    5  C5  UNL     1     -32.071  18.118  -1.238  1.00 20.00     0.007 A 
HETATM    6  C6  UNL     1     -33.409  18.026  -0.854  1.00 20.00    -0.058 A 
ENDROOT
BRANCH   6   7
HETATM    7  C8  UNL     1     -34.472  17.758  -1.890  1.00 20.00     0.038 C 
BRANCH   7   8
HETATM    8  C10 UNL     1     -34.798  16.265  -1.987  1.00 20.00     0.004 C 
BRANCH   8   9
HETATM    9  C9  UNL     1     -34.003  15.597  -3.108  1.00 20.00    -0.004 C 
HETATM   10  C7  UNL     1     -34.791  14.467  -3.754  1.00 20.00     0.005 C 
ENDBRANCH   8   9
ENDBRANCH   7   8
ENDBRANCH   6   7
TORSDOF 3
ENDMDL
MODEL 9
REMARK VINA RESULT:      -4.2     10.695     11.624
REMARK  3 active torsions:
REMARK  status: ('A' for Active; 'I' for Inactive)
REMARK    1  A    between atoms: C6_6  and  C8_8 
REMARK    2  A    between atoms: C8_8  and  C10_10 
REMARK    3  A    between atoms: C9_9  and  C10_10 
ROOT
HETATM    1  C1  UNL     1     -33.731  18.610   0.884  1.00 20.00     0.000 A 
HETATM    2  C2  UNL     1     -32.809  18.552  -0.161  1.00 20.00     0.001 A 
HETATM    3  C3  UNL     1     -34.925  17.893   0.802  1.00 20.00     0.001 A 
HETATM    4  C4  UNL     1     -33.082  17.778  -1.289  1.00 20.00     0.007 A 
HETATM    5  C5  UNL     1     -35.197  17.119  -0.326  1.00 20.00     0.007 A 
HETATM    6  C6  UNL     1     -34.276  17.062  -1.371  1.00 20.00    -0.058 A 
ENDROOT
BRANCH   6   7
HETATM    7  C8  UNL     1     -34.571  16.225  -2.591  1.00 20.00     0.038 C 
BRANCH   7   8
HETATM    8  C10 UNL     1     -33.305  15.962  -3.411  1.00 20.00     0.004 C 
BRANCH   8   9
HETATM    9  C9  UNL     1     -33.419  14.661  -4.205  1.00 20.00    -0.004 C 
HETATM   10  C7  UNL     1     -34.767  13.992  -3.988  1.00 20.00     0.005 C 
ENDBRANCH   8   9
ENDBRANCH   7   8
ENDBRANCH   6   7
TORSDOF 3
ENDMDL
