MODEL 1
REMARK VINA RESULT:      -4.8      0.000      0.000
REMARK  5 active torsions:
REMARK  status: ('A' for Active; 'I' for Inactive)
REMARK    1  A    between atoms: C6_6  and  C8_8 
REMARK    2  A    between atoms: C8_8  and  C10_10 
REMARK    3  A    between atoms: C9_9  and  C11_11 
REMARK    4  A    between atoms: C10_10  and  C12_12 
REMARK    5  A    between atoms: C11_11  and  C12_12 
ROOT
HETATM    1  C1  UNL     1     -34.924   5.572   6.263  1.00 20.00     0.000 A 
HETATM    2  C2  UNL     1     -35.116   4.688   5.201  1.00 20.00     0.001 A 
HETATM    3  C3  UNL     1     -34.133   6.708   6.091  1.00 20.00     0.001 A 
HETATM    4  C4  UNL     1     -34.515   4.940   3.968  1.00 20.00     0.007 A 
HETATM    5  C5  UNL     1     -33.534   6.960   4.858  1.00 20.00     0.007 A 
HETATM    6  C6  UNL     1     -33.725   6.076   3.796  1.00 20.00    -0.058 A 
ENDROOT
BRANCH   6   7
HETATM    7  C8  UNL     1     -33.080   6.347   2.471  1.00 20.00     0.038 C 
BRANCH   7   8
HETATM    8  C10 UNL     1     -31.951   7.372   2.589  1.00 20.00     0.005 C 
BRANCH   8   9
HETATM    9  C12 UNL     1     -31.786   8.165   1.291  1.00 20.00     0.000 C 
BRANCH   9  10
HETATM   10  C11 UNL     1     -32.883   9.220   1.140  1.00 20.00    -0.000 C 
BRANCH  10  11
HETATM   11  C9  UNL     1     -33.645   9.045  -0.173  1.00 20.00    -0.005 C 
HETATM   12  C7  UNL     1     -33.107   7.872  -0.977  1.00 20.00     0.005 C 
ENDBRANCH  10  11
ENDBRANCH   9  10
ENDBRANCH   8   9
ENDBRANCH   7   8
ENDBRANCH   6   7
TORSDOF 5
ENDMDL
MODEL 2
REMARK VINA RESULT:      -4.8      0.092      1.397
REMARK  5 active torsions:
REMARK  status: ('A' for Active; 'I' for Inactive)
REMARK    1  A    between atoms: C6_6  and  C8_8 
REMARK    2  A    between atoms: C8_8  and  C10_10 
REMARK    3  A    between atoms: C9_9  and  C11_11 
REMARK    4  A    between atoms: C10_10  and  C12_12 
REMARK    5  A    between atoms: C11_11  and  C12_12 
ROOT
HETATM    1  C1  UNL     1     -34.954   5.484   6.162  1.00 20.00     0.000 A 
HETATM    2  C2  UNL     1     -34.127   6.601   6.048  1.00 20.00     0.001 A 
HETATM    3  C3  UNL     1     -35.148   4.644   5.066  1.00 20.00     0.001 A 
HETATM    4  C4  UNL     1     -33.493   6.878   4.837  1.00 20.00     0.007 A 
HETATM    5  C5  UNL     1     -34.514   4.920   3.856  1.00 20.00     0.007 A 
HETATM    6  C6  UNL     1     -33.687   6.038   3.740  1.00 20.00    -0.058 A 
ENDROOT
BRANCH   6   7
HETATM    7  C8  UNL     1     -33.006   6.334   2.440  1.00 20.00     0.038 C 
BRANCH   7   8
HETATM    8  C10 UNL     1     -31.947   7.429   2.590  1.00 20.00     0.005 C 
BRANCH   8   9
HETATM    9  C12 UNL     1     -31.786   8.225   1.293  1.00 20.00     0.000 C 
BRANCH   9  10
HETATM   10  C11 UNL     1     -32.890   9.273   1.143  1.00 20.00    -0.000 C 
BRANCH  10  11
HETATM   11  C9  UNL     1     -33.651   9.094  -0.170  1.00 20.00    -0.005 C 
HETATM   12  C7  UNL     1     -33.135   7.898  -0.955  1.00 20.00     0.005 C 
ENDBRANCH  10  11
ENDBRANCH   9  10
ENDBRANCH   8   9
ENDBRANCH   7   8
ENDBRANCH   6   7
TORSDOF 5
ENDMDL
MODEL 3
REMARK VINA RESULT:      -4.8     10.445     11.815
REMARK  5 active torsions:
REMARK  status: ('A' for Active; 'I' for Inactive)
REMARK    1  A    between atoms: C6_6  and  C8_8 
REMARK    2  A    between atoms: C8_8  and  C10_10 
REMARK    3  A    between atoms: C9_9  and  C11_11 
REMARK    4  A    between atoms: C10_10  and  C12_12 
REMARK    5  A    between atoms: C11_11  and  C12_12 
ROOT
HETATM    1  C1  UNL     1     -34.492  14.386  -4.117  1.00 20.00     0.000 A 
HETATM    2  C2  UNL     1     -35.461  14.850  -3.228  1.00 20.00     0.001 A 
HETATM    3  C3  UNL     1     -33.230  14.979  -4.145  1.00 20.00     0.001 A 
HETATM    4  C4  UNL     1     -35.168  15.907  -2.367  1.00 20.00     0.007 A 
HETATM    5  C5  UNL     1     -32.936  16.034  -3.283  1.00 20.00     0.007 A 
HETATM    6  C6  UNL     1     -33.905  16.500  -2.394  1.00 20.00    -0.058 A 
ENDROOT
BRANCH   6   7
HETATM    7  C8  UNL     1     -33.590  17.634  -1.469  1.00 20.00     0.038 C 
BRANCH   7   8
HETATM    8  C10 UNL     1     -32.200  18.216  -1.738  1.00 20.00     0.005 C 
BRANCH   8   9
HETATM    9  C12 UNL     1     -31.453  18.494  -0.432  1.00 20.00     0.000 C 
BRANCH   9  10
HETATM   10  C11 UNL     1     -32.413  18.545   0.757  1.00 20.00    -0.000 C 
BRANCH  10  11
HETATM   11  C9  UNL     1     -31.681  18.287   2.073  1.00 20.00    -0.005 C 
HETATM   12  C7  UNL     1     -32.608  17.685   3.118  1.00 20.00     0.005 C 
ENDBRANCH  10  11
ENDBRANCH   9  10
ENDBRANCH   8   9
ENDBRANCH   7   8
ENDBRANCH   6   7
TORSDOF 5
ENDMDL
MODEL 4
REMARK VINA RESULT:      -4.8     10.422     11.966
REMARK  5 active torsions:
REMARK  status: ('A' for Active; 'I' for Inactive)
REMARK    1  A    between atoms: C6_6  and  C8_8 
REMARK    2  A    between atoms: C8_8  and  C10_10 
REMARK    3  A    between atoms: C9_9  and  C11_11 
REMARK    4  A    between atoms: C10_10  and  C12_12 
REMARK    5  A    between atoms: C11_11  and  C12_12 
ROOT
HETATM    1  C1  UNL     1     -33.759  17.595  -1.787  1.00 20.00     0.000 A 
HETATM    2  C2  UNL     1     -32.867  17.129  -2.753  1.00 20.00     0.001 A 
HETATM    3  C3  UNL     1     -34.937  16.894  -1.529  1.00 20.00     0.001 A 
HETATM    4  C4  UNL     1     -33.154  15.962  -3.461  1.00 20.00     0.007 A 
HETATM    5  C5  UNL     1     -35.222  15.727  -2.235  1.00 20.00     0.007 A 
HETATM    6  C6  UNL     1     -34.331  15.260  -3.202  1.00 20.00    -0.058 A 
ENDROOT
BRANCH   6   7
HETATM    7  C8  UNL     1     -34.639  14.007  -3.961  1.00 20.00     0.038 C 
BRANCH   7   8
HETATM    8  C10 UNL     1     -36.004  14.080  -4.649  1.00 20.00     0.005 C 
BRANCH   8   9
HETATM    9  C12 UNL     1     -35.899  14.753  -6.019  1.00 20.00     0.000 C 
BRANCH   9  10
HETATM   10  C11 UNL     1     -36.572  16.126  -6.017  1.00 20.00    -0.000 C 
BRANCH  10  11
HETATM   11  C9  UNL     1     -35.540  17.251  -6.079  1.00 20.00    -0.005 C 
HETATM   12  C7  UNL     1     -35.764  18.275  -4.978  1.00 20.00     0.005 C 
ENDBRANCH  10  11
ENDBRANCH   9  10
ENDBRANCH   8   9
ENDBRANCH   7   8
ENDBRANCH   6   7
TORSDOF 5
ENDMDL
MODEL 5
REMARK VINA RESULT:      -4.8     10.411     11.942
REMARK  5 active torsions:
REMARK  status: ('A' for Active; 'I' for Inactive)
REMARK    1  A    between atoms: C6_6  and  C8_8 
REMARK    2  A    between atoms: C8_8  and  C10_10 
REMARK    3  A    between atoms: C9_9  and  C11_11 
REMARK    4  A    between atoms: C10_10  and  C12_12 
REMARK    5  A    between atoms: C11_11  and  C12_12 
ROOT
HETATM    1  C1  UNL     1     -33.774  17.614  -1.805  1.00 20.00     0.000 A 
HETATM    2  C2  UNL     1     -34.945  16.903  -1.543  1.00 20.00     0.001 A 
HETATM    3  C3  UNL     1     -32.876  17.149  -2.766  1.00 20.00     0.001 A 
HETATM    4  C4  UNL     1     -35.218  15.727  -2.241  1.00 20.00     0.007 A 
HETATM    5  C5  UNL     1     -33.149  15.974  -3.465  1.00 20.00     0.007 A 
HETATM    6  C6  UNL     1     -34.320  15.262  -3.202  1.00 20.00    -0.058 A 
ENDROOT
BRANCH   6   7
HETATM    7  C8  UNL     1     -34.612  14.000  -3.953  1.00 20.00     0.038 C 
BRANCH   7   8
HETATM    8  C10 UNL     1     -35.981  14.049  -4.635  1.00 20.00     0.005 C 
BRANCH   8   9
HETATM    9  C12 UNL     1     -35.890  14.713  -6.011  1.00 20.00     0.000 C 
BRANCH   9  10
HETATM   10  C11 UNL     1     -36.568  16.084  -6.013  1.00 20.00    -0.000 C 
BRANCH  10  11
HETATM   11  C9  UNL     1     -35.540  17.211  -6.100  1.00 20.00    -0.005 C 
HETATM   12  C7  UNL     1     -35.758  18.249  -5.010  1.00 20.00     0.005 C 
ENDBRANCH  10  11
ENDBRANCH   9  10
ENDBRANCH   8   9
ENDBRANCH   7   8
ENDBRANCH   6   7
TORSDOF 5
ENDMDL
MODEL 6
REMARK VINA RESULT:      -4.6     10.640     11.824
REMARK  5 active torsions:
REMARK  status: ('A' for Active; 'I' for Inactive)
REMARK    1  A    between atoms: C6_6  and  C8_8 
REMARK    2  A    between atoms: C8_8  and  C10_10 
REMARK    3  A    between atoms: C9_9  and  C11_11 
REMARK    4  A    between atoms: C10_10  and  C12_12 
REMARK    5  A    between atoms: C11_11  and  C12_12 
ROOT
HETATM    1  C1  UNL     1     -33.882  17.705  -1.176  1.00 20.00     0.000 A 
HETATM    2  C2  UNL     1     -35.056  16.953  -1.154  1.00 20.00     0.001 A 
HETATM    3  C3  UNL     1     -32.880  17.408  -2.100  1.00 20.00     0.001 A 
HETATM    4  C4  UNL     1     -35.228  15.902  -2.055  1.00 20.00     0.007 A 
HETATM    5  C5  UNL     1     -33.052  16.358  -3.001  1.00 20.00     0.007 A 
HETATM    6  C6  UNL     1     -34.226  15.605  -2.979  1.00 20.00    -0.058 A 
ENDROOT
BRANCH   6   7
HETATM    7  C8  UNL     1     -34.410  14.477  -3.947  1.00 20.00     0.038 C 
BRANCH   7   8
HETATM    8  C10 UNL     1     -33.568  14.670  -5.210  1.00 20.00     0.005 C 
BRANCH   8   9
HETATM    9  C12 UNL     1     -34.382  15.334  -6.322  1.00 20.00     0.000 C 
BRANCH   9  10
HETATM   10  C11 UNL     1     -35.855  14.926  -6.253  1.00 20.00    -0.000 C 
BRANCH  10  11
HETATM   11  C9  UNL     1     -36.771  16.149  -6.272  1.00 20.00    -0.005 C 
HETATM   12  C7  UNL     1     -36.107  17.353  -5.624  1.00 20.00     0.005 C 
ENDBRANCH  10  11
ENDBRANCH   9  10
ENDBRANCH   8   9
ENDBRANCH   7   8
ENDBRANCH   6   7
TORSDOF 5
ENDMDL
MODEL 7
REMARK VINA RESULT:      -4.6     10.441     11.708
REMARK  5 active torsions:
REMARK  status: ('A' for Active; 'I' for Inactive)
REMARK    1  A    between atoms: C6_6  and  C8_8 
REMARK    2  A    between atoms: C8_8  and  C10_10 
REMARK    3  A    between atoms: C9_9  and  C11_11 
REMARK    4  A    between atoms: C10_10  and  C12_12 
REMARK    5  A    between atoms: C11_11  and  C12_12 
ROOT
HETATM    1  C1  UNL     1     -31.404  18.940   2.192  1.00 20.00     0.000 A 
HETATM    2  C2  UNL     1     -30.549  18.754   1.105  1.00 20.00     0.001 A 
HETATM    3  C3  UNL     1     -32.780  18.775   2.033  1.00 20.00     0.001 A 
HETATM    4  C4  UNL     1     -31.071  18.404  -0.140  1.00 20.00     0.007 A 
HETATM    5  C5  UNL     1     -33.301  18.425   0.789  1.00 20.00     0.007 A 
HETATM    6  C6  UNL     1     -32.447  18.239  -0.298  1.00 20.00    -0.058 A 
ENDROOT
BRANCH   6   7
HETATM    7  C8  UNL     1     -33.008  17.863  -1.635  1.00 20.00     0.038 C 
BRANCH   7   8
HETATM    8  C10 UNL     1     -34.399  17.238  -1.511  1.00 20.00     0.005 C 
BRANCH   8   9
HETATM    9  C12 UNL     1     -34.537  16.010  -2.414  1.00 20.00     0.000 C 
BRANCH   9  10
HETATM   10  C11 UNL     1     -33.325  15.858  -3.335  1.00 20.00    -0.000 C 
BRANCH  10  11
HETATM   11  C9  UNL     1     -33.471  14.643  -4.250  1.00 20.00    -0.005 C 
HETATM   12  C7  UNL     1     -34.795  13.930  -4.022  1.00 20.00     0.005 C 
ENDBRANCH  10  11
ENDBRANCH   9  10
ENDBRANCH   8   9
ENDBRANCH   7   8
ENDBRANCH   6   7
TORSDOF 5
ENDMDL
MODEL 8
REMARK VINA RESULT:      -4.4     10.530     11.726
REMARK  5 active torsions:
REMARK  status: ('A' for Active; 'I' for Inactive)
REMARK    1  A    between atoms: C6_6  and  C8_8 
REMARK    2  A    between atoms: C8_8  and  C10_10 
REMARK    3  A    between atoms: C9_9  and  C11_11 
REMARK    4  A    between atoms: C10_10  and  C12_12 
REMARK    5  A    between atoms: C11_11  and  C12_12 
ROOT
HETATM    1  C1  UNL     1     -34.904  14.248  -4.067  1.00 20.00     0.000 A 
HETATM    2  C2  UNL     1     -35.569  15.028  -3.120  1.00 20.00     0.001 A 
HETATM    3  C3  UNL     1     -33.568  14.509  -4.371  1.00 20.00     0.001 A 
HETATM    4  C4  UNL     1     -34.898  16.069  -2.480  1.00 20.00     0.007 A 
HETATM    5  C5  UNL     1     -32.897  15.549  -3.729  1.00 20.00     0.007 A 
HETATM    6  C6  UNL     1     -33.562  16.330  -2.784  1.00 20.00    -0.058 A 
ENDROOT
BRANCH   6   7
HETATM    7  C8  UNL     1     -32.842  17.448  -2.095  1.00 20.00     0.038 C 
BRANCH   7   8
HETATM    8  C10 UNL     1     -33.757  18.203  -1.129  1.00 20.00     0.005 C 
BRANCH   8   9
HETATM    9  C12 UNL     1     -33.119  18.326   0.256  1.00 20.00     0.000 C 
BRANCH   9  10
HETATM   10  C11 UNL     1     -34.161  18.166   1.364  1.00 20.00    -0.000 C 
BRANCH  10  11
HETATM   11  C9  UNL     1     -35.349  17.329   0.894  1.00 20.00    -0.005 C 
HETATM   12  C7  UNL     1     -36.672  17.988   1.251  1.00 20.00     0.005 C 
ENDBRANCH  10  11
ENDBRANCH   9  10
ENDBRANCH   8   9
ENDBRANCH   7   8
ENDBRANCH   6   7
TORSDOF 5
ENDMDL
MODEL 9
REMARK VINA RESULT:      -4.3     10.522     11.662
REMARK  5 active torsions:
REMARK  status: ('A' for Active; 'I' for Inactive)
REMARK    1  A    between atoms: C6_6  and  C8_8 
REMARK    2  A    between atoms: C8_8  and  C10_10 
REMARK    3  A    between atoms: C9_9  and  C11_11 
REMARK    4  A    between atoms: C10_10  and  C12_12 
REMARK    5  A    between atoms: C11_11  and  C12_12 
ROOT
HETATM    1  C1  UNL     1     -32.857  18.415  -0.390  1.00 20.00     0.000 A 
HETATM    2  C2  UNL     1     -34.121  18.058   0.079  1.00 20.00     0.001 A 
HETATM    3  C3  UNL     1     -32.394  17.908  -1.604  1.00 20.00     0.001 A 
HETATM    4  C4  UNL     1     -34.921  17.192  -0.665  1.00 20.00     0.007 A 
HETATM    5  C5  UNL     1     -33.194  17.043  -2.348  1.00 20.00     0.007 A 
HETATM    6  C6  UNL     1     -34.459  16.685  -1.879  1.00 20.00    -0.058 A 
ENDROOT
BRANCH   6   7
HETATM    7  C8  UNL     1     -35.318  15.755  -2.679  1.00 20.00     0.038 C 
BRANCH   7   8
HETATM    8  C10 UNL     1     -34.480  14.800  -3.532  1.00 20.00     0.005 C 
BRANCH   8   9
HETATM    9  C12 UNL     1     -35.358  13.744  -4.205  1.00 20.00     0.000 C 
BRANCH   9  10
HETATM   10  C11 UNL     1     -36.050  14.305  -5.448  1.00 20.00    -0.000 C 
BRANCH  10  11
HETATM   11  C9  UNL     1     -35.036  14.874  -6.440  1.00 20.00    -0.005 C 
HETATM   12  C7  UNL     1     -35.684  15.192  -7.778  1.00 20.00     0.005 C 
ENDBRANCH  10  11
ENDBRANCH   9  10
ENDBRANCH   8   9
ENDBRANCH   7   8
ENDBRANCH   6   7
TORSDOF 5
ENDMDL
