MODEL 1
REMARK VINA RESULT:      -5.5      0.000      0.000
REMARK  1 active torsions:
REMARK  status: ('A' for Active; 'I' for Inactive)
REMARK    1  A    between atoms: C6_6  and  N8_8 
ROOT
HETATM    1  C1  UNL     1     -34.947   5.216   5.530  1.00 20.00     0.000 A 
HETATM    2  C2  UNL     1     -34.742   4.780   4.221  1.00 20.00     0.002 A 
HETATM    3  C3  UNL     1     -34.269   6.339   6.005  1.00 20.00     0.002 A 
HETATM    4  C4  UNL     1     -33.859   5.466   3.387  1.00 20.00     0.029 A 
HETATM    5  C5  UNL     1     -33.386   7.026   5.171  1.00 20.00     0.029 A 
HETATM    6  C6  UNL     1     -33.182   6.589   3.862  1.00 20.00     0.027 A 
ENDROOT
BRANCH   6   7
HETATM    7  N8  UNL     1     -32.289   7.284   3.019  1.00 20.00    -0.394 N 
HETATM    8  C7  UNL     1     -32.603   7.624   1.667  1.00 20.00     0.146 C 
HETATM    9  H17 UNL     1     -31.401   7.538   3.410  1.00 20.00     0.159 HD
ENDBRANCH   6   7
TORSDOF 1
ENDMDL
MODEL 2
REMARK VINA RESULT:      -5.5      0.028      1.708
REMARK  1 active torsions:
REMARK  status: ('A' for Active; 'I' for Inactive)
REMARK    1  A    between atoms: C6_6  and  N8_8 
ROOT
HETATM    1  C1  UNL     1     -34.963   5.209   5.529  1.00 20.00     0.000 A 
HETATM    2  C2  UNL     1     -34.275   6.328   5.999  1.00 20.00     0.002 A 
HETATM    3  C3  UNL     1     -34.766   4.770   4.220  1.00 20.00     0.002 A 
HETATM    4  C4  UNL     1     -33.391   7.007   5.161  1.00 20.00     0.029 A 
HETATM    5  C5  UNL     1     -33.882   5.449   3.381  1.00 20.00     0.029 A 
HETATM    6  C6  UNL     1     -33.195   6.568   3.852  1.00 20.00     0.027 A 
ENDROOT
BRANCH   6   7
HETATM    7  N8  UNL     1     -32.302   7.254   3.003  1.00 20.00    -0.394 N 
HETATM    8  C7  UNL     1     -32.619   7.590   1.650  1.00 20.00     0.146 C 
HETATM    9  H17 UNL     1     -31.411   7.506   3.389  1.00 20.00     0.159 HD
ENDBRANCH   6   7
TORSDOF 1
ENDMDL
MODEL 3
REMARK VINA RESULT:      -4.2      1.378      2.314
REMARK  1 active torsions:
REMARK  status: ('A' for Active; 'I' for Inactive)
REMARK    1  A    between atoms: C6_6  and  N8_8 
ROOT
HETATM    1  C1  UNL     1     -34.440   6.290   6.377  1.00 20.00     0.000 A 
HETATM    2  C2  UNL     1     -33.645   7.131   5.599  1.00 20.00     0.002 A 
HETATM    3  C3  UNL     1     -34.976   5.128   5.823  1.00 20.00     0.002 A 
HETATM    4  C4  UNL     1     -33.385   6.810   4.267  1.00 20.00     0.029 A 
HETATM    5  C5  UNL     1     -34.717   4.806   4.490  1.00 20.00     0.029 A 
HETATM    6  C6  UNL     1     -33.921   5.647   3.712  1.00 20.00     0.027 A 
ENDROOT
BRANCH   6   7
HETATM    7  N8  UNL     1     -33.660   5.322   2.365  1.00 20.00    -0.394 N 
HETATM    8  C7  UNL     1     -32.985   4.124   1.972  1.00 20.00     0.146 C 
HETATM    9  H17 UNL     1     -33.970   5.977   1.671  1.00 20.00     0.159 HD
ENDBRANCH   6   7
TORSDOF 1
ENDMDL
MODEL 4
REMARK VINA RESULT:      -4.1     15.455     15.942
REMARK  1 active torsions:
REMARK  status: ('A' for Active; 'I' for Inactive)
REMARK    1  A    between atoms: C6_6  and  N8_8 
ROOT
HETATM    1  C1  UNL     1     -25.995  17.557  12.285  1.00 20.00     0.000 A 
HETATM    2  C2  UNL     1     -25.495  18.514  11.403  1.00 20.00     0.002 A 
HETATM    3  C3  UNL     1     -25.423  16.286  12.332  1.00 20.00     0.002 A 
HETATM    4  C4  UNL     1     -24.422  18.202  10.568  1.00 20.00     0.029 A 
HETATM    5  C5  UNL     1     -24.350  15.972  11.497  1.00 20.00     0.029 A 
HETATM    6  C6  UNL     1     -23.850  16.931  10.615  1.00 20.00     0.027 A 
ENDROOT
BRANCH   6   7
HETATM    7  N8  UNL     1     -22.765  16.613   9.771  1.00 20.00    -0.394 N 
HETATM    8  C7  UNL     1     -22.474  17.339   8.574  1.00 20.00     0.146 C 
HETATM    9  H17 UNL     1     -22.188  15.840  10.044  1.00 20.00     0.159 HD
ENDBRANCH   6   7
TORSDOF 1
ENDMDL
MODEL 5
REMARK VINA RESULT:      -4.1     11.869     12.501
REMARK  1 active torsions:
REMARK  status: ('A' for Active; 'I' for Inactive)
REMARK    1  A    between atoms: C6_6  and  N8_8 
ROOT
HETATM    1  C1  UNL     1     -34.975  15.900  -2.265  1.00 20.00     0.000 A 
HETATM    2  C2  UNL     1     -33.669  16.295  -2.551  1.00 20.00     0.002 A 
HETATM    3  C3  UNL     1     -35.686  15.127  -3.184  1.00 20.00     0.002 A 
HETATM    4  C4  UNL     1     -33.073  15.918  -3.755  1.00 20.00     0.029 A 
HETATM    5  C5  UNL     1     -35.091  14.749  -4.388  1.00 20.00     0.029 A 
HETATM    6  C6  UNL     1     -33.784  15.145  -4.673  1.00 20.00     0.027 A 
ENDROOT
BRANCH   6   7
HETATM    7  N8  UNL     1     -33.183  14.764  -5.890  1.00 20.00    -0.394 N 
HETATM    8  C7  UNL     1     -33.751  15.069  -7.167  1.00 20.00     0.146 C 
HETATM    9  H17 UNL     1     -32.320  14.257  -5.831  1.00 20.00     0.159 HD
ENDBRANCH   6   7
TORSDOF 1
ENDMDL
MODEL 6
REMARK VINA RESULT:      -4.1     11.863     12.417
REMARK  1 active torsions:
REMARK  status: ('A' for Active; 'I' for Inactive)
REMARK    1  A    between atoms: C6_6  and  N8_8 
ROOT
HETATM    1  C1  UNL     1     -34.977  15.948  -2.215  1.00 20.00     0.000 A 
HETATM    2  C2  UNL     1     -35.684  15.156  -3.120  1.00 20.00     0.002 A 
HETATM    3  C3  UNL     1     -33.677  16.357  -2.514  1.00 20.00     0.002 A 
HETATM    4  C4  UNL     1     -35.091  14.773  -4.323  1.00 20.00     0.029 A 
HETATM    5  C5  UNL     1     -33.084  15.974  -3.717  1.00 20.00     0.029 A 
HETATM    6  C6  UNL     1     -33.792  15.183  -4.622  1.00 20.00     0.027 A 
ENDROOT
BRANCH   6   7
HETATM    7  N8  UNL     1     -33.192  14.796  -5.839  1.00 20.00    -0.394 N 
HETATM    8  C7  UNL     1     -33.773  15.076  -7.115  1.00 20.00     0.146 C 
HETATM    9  H17 UNL     1     -32.320  14.304  -5.779  1.00 20.00     0.159 HD
ENDBRANCH   6   7
TORSDOF 1
ENDMDL
MODEL 7
REMARK VINA RESULT:      -3.9     11.778     12.358
REMARK  1 active torsions:
REMARK  status: ('A' for Active; 'I' for Inactive)
REMARK    1  A    between atoms: C6_6  and  N8_8 
ROOT
HETATM    1  C1  UNL     1     -34.363  17.241  -1.228  1.00 20.00     0.000 A 
HETATM    2  C2  UNL     1     -35.180  16.229  -1.731  1.00 20.00     0.002 A 
HETATM    3  C3  UNL     1     -33.154  17.539  -1.857  1.00 20.00     0.002 A 
HETATM    4  C4  UNL     1     -34.788  15.515  -2.863  1.00 20.00     0.029 A 
HETATM    5  C5  UNL     1     -32.762  16.825  -2.989  1.00 20.00     0.029 A 
HETATM    6  C6  UNL     1     -33.579  15.813  -3.492  1.00 20.00     0.027 A 
ENDROOT
BRANCH   6   7
HETATM    7  N8  UNL     1     -33.182  15.091  -4.637  1.00 20.00    -0.394 N 
HETATM    8  C7  UNL     1     -33.986  15.001  -5.816  1.00 20.00     0.146 C 
HETATM    9  H17 UNL     1     -32.293  14.629  -4.597  1.00 20.00     0.159 HD
ENDBRANCH   6   7
TORSDOF 1
ENDMDL
MODEL 8
REMARK VINA RESULT:      -3.9      9.399      9.799
REMARK  1 active torsions:
REMARK  status: ('A' for Active; 'I' for Inactive)
REMARK    1  A    between atoms: C6_6  and  N8_8 
ROOT
HETATM    1  C1  UNL     1     -42.131   8.085   0.552  1.00 20.00     0.000 A 
HETATM    2  C2  UNL     1     -41.379   8.117  -0.622  1.00 20.00     0.002 A 
HETATM    3  C3  UNL     1     -42.617   6.870   1.035  1.00 20.00     0.002 A 
HETATM    4  C4  UNL     1     -41.112   6.935  -1.313  1.00 20.00     0.029 A 
HETATM    5  C5  UNL     1     -42.351   5.687   0.344  1.00 20.00     0.029 A 
HETATM    6  C6  UNL     1     -41.599   5.720  -0.830  1.00 20.00     0.027 A 
ENDROOT
BRANCH   6   7
HETATM    7  N8  UNL     1     -41.330   4.524  -1.527  1.00 20.00    -0.394 N 
HETATM    8  C7  UNL     1     -42.300   3.870  -2.349  1.00 20.00     0.146 C 
HETATM    9  H17 UNL     1     -40.411   4.136  -1.425  1.00 20.00     0.159 HD
ENDBRANCH   6   7
TORSDOF 1
ENDMDL
MODEL 9
REMARK VINA RESULT:      -3.9      9.350      9.747
REMARK  1 active torsions:
REMARK  status: ('A' for Active; 'I' for Inactive)
REMARK    1  A    between atoms: C6_6  and  N8_8 
ROOT
HETATM    1  C1  UNL     1     -42.248   8.204   0.510  1.00 20.00     0.000 A 
HETATM    2  C2  UNL     1     -42.691   6.982   1.014  1.00 20.00     0.002 A 
HETATM    3  C3  UNL     1     -41.439   8.238  -0.625  1.00 20.00     0.002 A 
HETATM    4  C4  UNL     1     -42.326   5.793   0.383  1.00 20.00     0.029 A 
HETATM    5  C5  UNL     1     -41.073   7.049  -1.257  1.00 20.00     0.029 A 
HETATM    6  C6  UNL     1     -41.517   5.826  -0.753  1.00 20.00     0.027 A 
ENDROOT
BRANCH   6   7
HETATM    7  N8  UNL     1     -41.147   4.625  -1.392  1.00 20.00    -0.394 N 
HETATM    8  C7  UNL     1     -42.002   3.938  -2.310  1.00 20.00     0.146 C 
HETATM    9  H17 UNL     1     -40.240   4.256  -1.175  1.00 20.00     0.159 HD
ENDBRANCH   6   7
TORSDOF 1
ENDMDL
