MODEL 1
REMARK VINA RESULT:      -6.3      0.000      0.000
REMARK  2 active torsions:
REMARK  status: ('A' for Active; 'I' for Inactive)
REMARK    1  A    between atoms: C6_6  and  C8_8 
REMARK    2  A    between atoms: C8_8  and  C9_9 
ROOT
HETATM    1  C1  UNL     1     -34.940   5.134   5.373  1.00 20.00     0.000 A 
HETATM    2  C2  UNL     1     -34.328   6.261   5.923  1.00 20.00     0.001 A 
HETATM    3  C3  UNL     1     -34.673   4.770   4.053  1.00 20.00     0.001 A 
HETATM    4  C4  UNL     1     -33.450   7.023   5.153  1.00 20.00     0.007 A 
HETATM    5  C5  UNL     1     -33.795   5.532   3.284  1.00 20.00     0.007 A 
HETATM    6  C6  UNL     1     -33.183   6.659   3.833  1.00 20.00    -0.058 A 
ENDROOT
BRANCH   6   7
HETATM    7  C8  UNL     1     -32.244   7.474   3.009  1.00 20.00     0.038 C 
BRANCH   7   8
HETATM    8  C9  UNL     1     -32.569   7.390   1.510  1.00 20.00     0.000 C 
HETATM    9  C7  UNL     1     -32.851   8.759   0.912  1.00 20.00     0.005 C 
ENDBRANCH   7   8
ENDBRANCH   6   7
TORSDOF 2
ENDMDL
MODEL 2
REMARK VINA RESULT:      -6.3      0.018      1.611
REMARK  2 active torsions:
REMARK  status: ('A' for Active; 'I' for Inactive)
REMARK    1  A    between atoms: C6_6  and  C8_8 
REMARK    2  A    between atoms: C8_8  and  C9_9 
ROOT
HETATM    1  C1  UNL     1     -34.940   5.126   5.386  1.00 20.00     0.000 A 
HETATM    2  C2  UNL     1     -34.674   4.762   4.067  1.00 20.00     0.001 A 
HETATM    3  C3  UNL     1     -34.330   6.254   5.936  1.00 20.00     0.001 A 
HETATM    4  C4  UNL     1     -33.795   5.525   3.297  1.00 20.00     0.007 A 
HETATM    5  C5  UNL     1     -33.453   7.016   5.166  1.00 20.00     0.007 A 
HETATM    6  C6  UNL     1     -33.185   6.652   3.846  1.00 20.00    -0.058 A 
ENDROOT
BRANCH   6   7
HETATM    7  C8  UNL     1     -32.245   7.468   3.024  1.00 20.00     0.038 C 
BRANCH   7   8
HETATM    8  C9  UNL     1     -32.560   7.372   1.523  1.00 20.00     0.000 C 
HETATM    9  C7  UNL     1     -32.836   8.736   0.912  1.00 20.00     0.005 C 
ENDBRANCH   7   8
ENDBRANCH   6   7
TORSDOF 2
ENDMDL
MODEL 3
REMARK VINA RESULT:      -4.5     11.183     12.001
REMARK  2 active torsions:
REMARK  status: ('A' for Active; 'I' for Inactive)
REMARK    1  A    between atoms: C6_6  and  C8_8 
REMARK    2  A    between atoms: C8_8  and  C9_9 
ROOT
HETATM    1  C1  UNL     1     -34.471  14.487  -4.073  1.00 20.00     0.000 A 
HETATM    2  C2  UNL     1     -33.210  15.081  -4.102  1.00 20.00     0.001 A 
HETATM    3  C3  UNL     1     -35.435  14.938  -3.171  1.00 20.00     0.001 A 
HETATM    4  C4  UNL     1     -32.911  16.126  -3.227  1.00 20.00     0.007 A 
HETATM    5  C5  UNL     1     -35.136  15.983  -2.297  1.00 20.00     0.007 A 
HETATM    6  C6  UNL     1     -33.874  16.577  -2.325  1.00 20.00    -0.058 A 
ENDROOT
BRANCH   6   7
HETATM    7  C8  UNL     1     -33.556  17.695  -1.389  1.00 20.00     0.038 C 
BRANCH   7   8
HETATM    8  C9  UNL     1     -32.170  18.299  -1.663  1.00 20.00     0.000 C 
HETATM    9  C7  UNL     1     -31.322  18.371  -0.403  1.00 20.00     0.005 C 
ENDBRANCH   7   8
ENDBRANCH   6   7
TORSDOF 2
ENDMDL
MODEL 4
REMARK VINA RESULT:      -4.5     11.239     12.011
REMARK  2 active torsions:
REMARK  status: ('A' for Active; 'I' for Inactive)
REMARK    1  A    between atoms: C6_6  and  C8_8 
REMARK    2  A    between atoms: C8_8  and  C9_9 
ROOT
HETATM    1  C1  UNL     1     -34.511  14.646  -4.003  1.00 20.00     0.000 A 
HETATM    2  C2  UNL     1     -35.446  15.088  -3.068  1.00 20.00     0.001 A 
HETATM    3  C3  UNL     1     -33.237  15.212  -4.038  1.00 20.00     0.001 A 
HETATM    4  C4  UNL     1     -35.107  16.098  -2.167  1.00 20.00     0.007 A 
HETATM    5  C5  UNL     1     -32.898  16.221  -3.137  1.00 20.00     0.007 A 
HETATM    6  C6  UNL     1     -33.833  16.664  -2.201  1.00 20.00    -0.058 A 
ENDROOT
BRANCH   6   7
HETATM    7  C8  UNL     1     -33.470  17.744  -1.238  1.00 20.00     0.038 C 
BRANCH   7   8
HETATM    8  C9  UNL     1     -32.083  18.336  -1.530  1.00 20.00     0.000 C 
HETATM    9  C7  UNL     1     -31.218  18.401  -0.282  1.00 20.00     0.005 C 
ENDBRANCH   7   8
ENDBRANCH   6   7
TORSDOF 2
ENDMDL
MODEL 5
REMARK VINA RESULT:      -4.5     11.125     11.851
REMARK  2 active torsions:
REMARK  status: ('A' for Active; 'I' for Inactive)
REMARK    1  A    between atoms: C6_6  and  C8_8 
REMARK    2  A    between atoms: C8_8  and  C9_9 
ROOT
HETATM    1  C1  UNL     1     -34.038  17.727  -1.081  1.00 20.00     0.000 A 
HETATM    2  C2  UNL     1     -35.118  16.853  -1.197  1.00 20.00     0.001 A 
HETATM    3  C3  UNL     1     -32.943  17.601  -1.936  1.00 20.00     0.001 A 
HETATM    4  C4  UNL     1     -35.104  15.851  -2.167  1.00 20.00     0.007 A 
HETATM    5  C5  UNL     1     -32.929  16.599  -2.906  1.00 20.00     0.007 A 
HETATM    6  C6  UNL     1     -34.009  15.724  -3.022  1.00 20.00    -0.058 A 
ENDROOT
BRANCH   6   7
HETATM    7  C8  UNL     1     -33.993  14.652  -4.060  1.00 20.00     0.038 C 
BRANCH   7   8
HETATM    8  C9  UNL     1     -35.358  13.962  -4.199  1.00 20.00     0.000 C 
HETATM    9  C7  UNL     1     -36.036  14.303  -5.516  1.00 20.00     0.005 C 
ENDBRANCH   7   8
ENDBRANCH   6   7
TORSDOF 2
ENDMDL
MODEL 6
REMARK VINA RESULT:      -4.5     11.107     11.836
REMARK  2 active torsions:
REMARK  status: ('A' for Active; 'I' for Inactive)
REMARK    1  A    between atoms: C6_6  and  C8_8 
REMARK    2  A    between atoms: C8_8  and  C9_9 
ROOT
HETATM    1  C1  UNL     1     -34.071  17.730  -1.084  1.00 20.00     0.000 A 
HETATM    2  C2  UNL     1     -32.975  17.600  -1.937  1.00 20.00     0.001 A 
HETATM    3  C3  UNL     1     -35.151  16.854  -1.197  1.00 20.00     0.001 A 
HETATM    4  C4  UNL     1     -32.959  16.594  -2.903  1.00 20.00     0.007 A 
HETATM    5  C5  UNL     1     -35.134  15.848  -2.163  1.00 20.00     0.007 A 
HETATM    6  C6  UNL     1     -34.038  15.719  -3.017  1.00 20.00    -0.058 A 
ENDROOT
BRANCH   6   7
HETATM    7  C8  UNL     1     -34.022  14.643  -4.050  1.00 20.00     0.038 C 
BRANCH   7   8
HETATM    8  C9  UNL     1     -35.383  13.943  -4.177  1.00 20.00     0.000 C 
HETATM    9  C7  UNL     1     -36.073  14.275  -5.490  1.00 20.00     0.005 C 
ENDBRANCH   7   8
ENDBRANCH   6   7
TORSDOF 2
ENDMDL
MODEL 7
REMARK VINA RESULT:      -4.2     11.129     11.849
REMARK  2 active torsions:
REMARK  status: ('A' for Active; 'I' for Inactive)
REMARK    1  A    between atoms: C6_6  and  C8_8 
REMARK    2  A    between atoms: C8_8  and  C9_9 
ROOT
HETATM    1  C1  UNL     1     -34.140  14.527  -4.173  1.00 20.00     0.000 A 
HETATM    2  C2  UNL     1     -33.005  15.318  -3.991  1.00 20.00     0.001 A 
HETATM    3  C3  UNL     1     -35.274  14.743  -3.391  1.00 20.00     0.001 A 
HETATM    4  C4  UNL     1     -33.005  16.325  -3.027  1.00 20.00     0.007 A 
HETATM    5  C5  UNL     1     -35.274  15.751  -2.427  1.00 20.00     0.007 A 
HETATM    6  C6  UNL     1     -34.139  16.542  -2.244  1.00 20.00    -0.058 A 
ENDROOT
BRANCH   6   7
HETATM    7  C8  UNL     1     -34.140  17.619  -1.212  1.00 20.00     0.038 C 
BRANCH   7   8
HETATM    8  C9  UNL     1     -35.158  17.347  -0.095  1.00 20.00     0.000 C 
HETATM    9  C7  UNL     1     -34.649  17.807   1.262  1.00 20.00     0.005 C 
ENDBRANCH   7   8
ENDBRANCH   6   7
TORSDOF 2
ENDMDL
MODEL 8
REMARK VINA RESULT:      -4.1     11.179     12.031
REMARK  2 active torsions:
REMARK  status: ('A' for Active; 'I' for Inactive)
REMARK    1  A    between atoms: C6_6  and  C8_8 
REMARK    2  A    between atoms: C8_8  and  C9_9 
ROOT
HETATM    1  C1  UNL     1     -33.374  17.032  -2.127  1.00 20.00     0.000 A 
HETATM    2  C2  UNL     1     -32.802  16.378  -3.218  1.00 20.00     0.001 A 
HETATM    3  C3  UNL     1     -34.661  16.697  -1.707  1.00 20.00     0.001 A 
HETATM    4  C4  UNL     1     -33.519  15.387  -3.889  1.00 20.00     0.007 A 
HETATM    5  C5  UNL     1     -35.377  15.706  -2.378  1.00 20.00     0.007 A 
HETATM    6  C6  UNL     1     -34.806  15.051  -3.470  1.00 20.00    -0.058 A 
ENDROOT
BRANCH   6   7
HETATM    7  C8  UNL     1     -35.573  13.992  -4.188  1.00 20.00     0.038 C 
BRANCH   7   8
HETATM    8  C9  UNL     1     -35.827  14.359  -5.658  1.00 20.00     0.000 C 
HETATM    9  C7  UNL     1     -36.678  15.612  -5.793  1.00 20.00     0.005 C 
ENDBRANCH   7   8
ENDBRANCH   6   7
TORSDOF 2
ENDMDL
MODEL 9
REMARK VINA RESULT:      -4.1     11.266     12.219
REMARK  2 active torsions:
REMARK  status: ('A' for Active; 'I' for Inactive)
REMARK    1  A    between atoms: C6_6  and  C8_8 
REMARK    2  A    between atoms: C8_8  and  C9_9 
ROOT
HETATM    1  C1  UNL     1     -34.121  15.620  -3.119  1.00 20.00     0.000 A 
HETATM    2  C2  UNL     1     -32.986  16.430  -3.097  1.00 20.00     0.001 A 
HETATM    3  C3  UNL     1     -35.153  15.839  -2.206  1.00 20.00     0.001 A 
HETATM    4  C4  UNL     1     -32.883  17.460  -2.161  1.00 20.00     0.007 A 
HETATM    5  C5  UNL     1     -35.050  16.868  -1.272  1.00 20.00     0.007 A 
HETATM    6  C6  UNL     1     -33.915  17.679  -1.248  1.00 20.00    -0.058 A 
ENDROOT
BRANCH   6   7
HETATM    7  C8  UNL     1     -33.805  18.779  -0.248  1.00 20.00     0.038 C 
BRANCH   7   8
HETATM    8  C9  UNL     1     -32.840  18.427   0.895  1.00 20.00     0.000 C 
HETATM    9  C7  UNL     1     -33.581  18.030   2.162  1.00 20.00     0.005 C 
ENDBRANCH   7   8
ENDBRANCH   6   7
TORSDOF 2
ENDMDL
