MODEL 1
REMARK VINA RESULT:      -6.1      0.000      0.000
REMARK  0 active torsions:
REMARK  status: ('A' for Active; 'I' for Inactive)
ROOT
HETATM    1  C1  UNL     1     -34.538   6.139   6.387  1.00 20.00     0.001 A 
HETATM    2  C2  UNL     1     -35.052   4.979   5.812  1.00 20.00     0.001 A 
HETATM    3  C3  UNL     1     -32.254   7.194   2.222  1.00 20.00     0.001 A 
HETATM    4  C4  UNL     1     -32.767   6.034   1.647  1.00 20.00     0.001 A 
HETATM    5  C5  UNL     1     -33.714   6.982   5.641  1.00 20.00     0.012 A 
HETATM    6  C6  UNL     1     -34.742   4.660   4.490  1.00 20.00     0.012 A 
HETATM    7  C7  UNL     1     -32.564   7.513   3.545  1.00 20.00     0.012 A 
HETATM    8  C8  UNL     1     -33.591   5.191   2.392  1.00 20.00     0.012 A 
HETATM    9  C9  UNL     1     -33.392   6.676   4.309  1.00 20.00    -0.026 A 
HETATM   10  C10 UNL     1     -33.914   5.497   3.725  1.00 20.00    -0.026 A 
ENDROOT
TORSDOF 0
ENDMDL
MODEL 2
REMARK VINA RESULT:      -6.1      0.029      2.070
REMARK  0 active torsions:
REMARK  status: ('A' for Active; 'I' for Inactive)
ROOT
HETATM    1  C1  UNL     1     -35.058   4.962   5.797  1.00 20.00     0.001 A 
HETATM    2  C2  UNL     1     -34.552   6.116   6.389  1.00 20.00     0.001 A 
HETATM    3  C3  UNL     1     -32.751   6.073   1.659  1.00 20.00     0.001 A 
HETATM    4  C4  UNL     1     -32.246   7.227   2.251  1.00 20.00     0.001 A 
HETATM    5  C5  UNL     1     -34.738   4.659   4.473  1.00 20.00     0.012 A 
HETATM    6  C6  UNL     1     -33.727   6.970   5.658  1.00 20.00     0.012 A 
HETATM    7  C7  UNL     1     -33.578   5.217   2.390  1.00 20.00     0.012 A 
HETATM    8  C8  UNL     1     -32.566   7.531   3.574  1.00 20.00     0.012 A 
HETATM    9  C9  UNL     1     -33.908   5.508   3.723  1.00 20.00    -0.026 A 
HETATM   10  C10 UNL     1     -33.395   6.681   4.325  1.00 20.00    -0.026 A 
ENDROOT
TORSDOF 0
ENDMDL
MODEL 3
REMARK VINA RESULT:      -6.1      0.057      4.019
REMARK  0 active torsions:
REMARK  status: ('A' for Active; 'I' for Inactive)
ROOT
HETATM    1  C1  UNL     1     -32.820   5.975   1.621  1.00 20.00     0.001 A 
HETATM    2  C2  UNL     1     -32.303   7.150   2.162  1.00 20.00     0.001 A 
HETATM    3  C3  UNL     1     -35.026   5.001   5.847  1.00 20.00     0.001 A 
HETATM    4  C4  UNL     1     -34.508   6.175   6.388  1.00 20.00     0.001 A 
HETATM    5  C5  UNL     1     -33.627   5.145   2.399  1.00 20.00     0.012 A 
HETATM    6  C6  UNL     1     -32.591   7.496   3.481  1.00 20.00     0.012 A 
HETATM    7  C7  UNL     1     -34.738   4.654   4.526  1.00 20.00     0.012 A 
HETATM    8  C8  UNL     1     -33.701   7.005   5.610  1.00 20.00     0.012 A 
HETATM    9  C9  UNL     1     -33.927   5.479   3.730  1.00 20.00    -0.026 A 
HETATM   10  C10 UNL     1     -33.401   6.672   4.279  1.00 20.00    -0.026 A 
ENDROOT
TORSDOF 0
ENDMDL
MODEL 4
REMARK VINA RESULT:      -6.1      0.056      3.445
REMARK  0 active torsions:
REMARK  status: ('A' for Active; 'I' for Inactive)
ROOT
HETATM    1  C1  UNL     1     -32.276   7.128   2.173  1.00 20.00     0.001 A 
HETATM    2  C2  UNL     1     -32.791   5.952   1.633  1.00 20.00     0.001 A 
HETATM    3  C3  UNL     1     -34.526   6.181   6.382  1.00 20.00     0.001 A 
HETATM    4  C4  UNL     1     -35.041   5.005   5.842  1.00 20.00     0.001 A 
HETATM    5  C5  UNL     1     -32.576   7.482   3.488  1.00 20.00     0.012 A 
HETATM    6  C6  UNL     1     -33.607   5.128   2.407  1.00 20.00     0.012 A 
HETATM    7  C7  UNL     1     -33.709   7.006   5.607  1.00 20.00     0.012 A 
HETATM    8  C8  UNL     1     -34.741   4.651   4.527  1.00 20.00     0.012 A 
HETATM    9  C9  UNL     1     -33.397   6.664   4.282  1.00 20.00    -0.026 A 
HETATM   10  C10 UNL     1     -33.920   5.469   3.733  1.00 20.00    -0.026 A 
ENDROOT
TORSDOF 0
ENDMDL
MODEL 5
REMARK VINA RESULT:      -5.2     11.624     12.236
REMARK  0 active torsions:
REMARK  status: ('A' for Active; 'I' for Inactive)
ROOT
HETATM    1  C1  UNL     1     -33.311  18.079  -0.947  1.00 20.00     0.001 A 
HETATM    2  C2  UNL     1     -34.599  17.755  -0.529  1.00 20.00     0.001 A 
HETATM    3  C3  UNL     1     -33.585  14.690  -4.426  1.00 20.00     0.001 A 
HETATM    4  C4  UNL     1     -34.873  14.365  -4.008  1.00 20.00     0.001 A 
HETATM    5  C5  UNL     1     -32.734  17.401  -2.020  1.00 20.00     0.012 A 
HETATM    6  C6  UNL     1     -35.312  16.751  -1.183  1.00 20.00     0.012 A 
HETATM    7  C7  UNL     1     -32.871  15.694  -3.772  1.00 20.00     0.012 A 
HETATM    8  C8  UNL     1     -35.450  15.043  -2.935  1.00 20.00     0.012 A 
HETATM    9  C9  UNL     1     -33.438  16.387  -2.690  1.00 20.00    -0.026 A 
HETATM   10  C10 UNL     1     -34.747  16.057  -2.265  1.00 20.00    -0.026 A 
ENDROOT
TORSDOF 0
ENDMDL
MODEL 6
REMARK VINA RESULT:      -5.2     11.604     12.449
REMARK  0 active torsions:
REMARK  status: ('A' for Active; 'I' for Inactive)
ROOT
HETATM    1  C1  UNL     1     -33.613  14.702  -4.425  1.00 20.00     0.001 A 
HETATM    2  C2  UNL     1     -34.889  14.374  -3.974  1.00 20.00     0.001 A 
HETATM    3  C3  UNL     1     -33.260  18.098  -0.959  1.00 20.00     0.001 A 
HETATM    4  C4  UNL     1     -34.536  17.771  -0.508  1.00 20.00     0.001 A 
HETATM    5  C5  UNL     1     -32.885  15.709  -3.790  1.00 20.00     0.012 A 
HETATM    6  C6  UNL     1     -35.441  15.053  -2.888  1.00 20.00     0.012 A 
HETATM    7  C7  UNL     1     -32.707  17.419  -2.045  1.00 20.00     0.012 A 
HETATM    8  C8  UNL     1     -35.264  16.764  -1.143  1.00 20.00     0.012 A 
HETATM    9  C9  UNL     1     -33.426  16.402  -2.695  1.00 20.00    -0.026 A 
HETATM   10  C10 UNL     1     -34.723  16.070  -2.238  1.00 20.00    -0.026 A 
ENDROOT
TORSDOF 0
ENDMDL
MODEL 7
REMARK VINA RESULT:      -5.2     11.613     12.312
REMARK  0 active torsions:
REMARK  status: ('A' for Active; 'I' for Inactive)
ROOT
HETATM    1  C1  UNL     1     -34.619  17.767  -0.528  1.00 20.00     0.001 A 
HETATM    2  C2  UNL     1     -33.333  18.102  -0.944  1.00 20.00     0.001 A 
HETATM    3  C3  UNL     1     -34.855  14.362  -3.995  1.00 20.00     0.001 A 
HETATM    4  C4  UNL     1     -33.570  14.697  -4.412  1.00 20.00     0.001 A 
HETATM    5  C5  UNL     1     -35.322  16.754  -1.179  1.00 20.00     0.012 A 
HETATM    6  C6  UNL     1     -32.748  17.425  -2.013  1.00 20.00     0.012 A 
HETATM    7  C7  UNL     1     -35.442  15.039  -2.925  1.00 20.00     0.012 A 
HETATM    8  C8  UNL     1     -32.867  15.710  -3.760  1.00 20.00     0.012 A 
HETATM    9  C9  UNL     1     -34.747  16.061  -2.258  1.00 20.00    -0.026 A 
HETATM   10  C10 UNL     1     -33.441  16.402  -2.681  1.00 20.00    -0.026 A 
ENDROOT
TORSDOF 0
ENDMDL
MODEL 8
REMARK VINA RESULT:      -5.2     11.627     12.530
REMARK  0 active torsions:
REMARK  status: ('A' for Active; 'I' for Inactive)
ROOT
HETATM    1  C1  UNL     1     -34.914  14.392  -3.996  1.00 20.00     0.001 A 
HETATM    2  C2  UNL     1     -33.638  14.729  -4.440  1.00 20.00     0.001 A 
HETATM    3  C3  UNL     1     -34.588  17.759  -0.500  1.00 20.00     0.001 A 
HETATM    4  C4  UNL     1     -33.312  18.097  -0.943  1.00 20.00     0.001 A 
HETATM    5  C5  UNL     1     -35.473  15.058  -2.906  1.00 20.00     0.012 A 
HETATM    6  C6  UNL     1     -32.918  15.734  -3.795  1.00 20.00     0.012 A 
HETATM    7  C7  UNL     1     -35.309  16.754  -1.145  1.00 20.00     0.012 A 
HETATM    8  C8  UNL     1     -32.753  17.430  -2.033  1.00 20.00     0.012 A 
HETATM    9  C9  UNL     1     -34.761  16.073  -2.245  1.00 20.00    -0.026 A 
HETATM   10  C10 UNL     1     -33.465  16.416  -2.695  1.00 20.00    -0.026 A 
ENDROOT
TORSDOF 0
ENDMDL
MODEL 9
REMARK VINA RESULT:      -4.9     15.628     16.562
REMARK  0 active torsions:
REMARK  status: ('A' for Active; 'I' for Inactive)
ROOT
HETATM    1  C1  UNL     1     -22.830  17.753   8.434  1.00 20.00     0.001 A 
HETATM    2  C2  UNL     1     -23.525  18.959   8.379  1.00 20.00     0.001 A 
HETATM    3  C3  UNL     1     -25.427  16.435  12.332  1.00 20.00     0.001 A 
HETATM    4  C4  UNL     1     -26.121  17.641  12.277  1.00 20.00     0.001 A 
HETATM    5  C5  UNL     1     -23.127  16.822   9.428  1.00 20.00     0.012 A 
HETATM    6  C6  UNL     1     -24.517  19.236   9.319  1.00 20.00     0.012 A 
HETATM    7  C7  UNL     1     -24.434  16.158  11.391  1.00 20.00     0.012 A 
HETATM    8  C8  UNL     1     -25.824  18.573  11.283  1.00 20.00     0.012 A 
HETATM    9  C9  UNL     1     -24.123  17.084  10.383  1.00 20.00    -0.026 A 
HETATM   10  C10 UNL     1     -24.828  18.310  10.327  1.00 20.00    -0.026 A 
ENDROOT
TORSDOF 0
ENDMDL
