MODEL 1
REMARK VINA RESULT:      -6.3      0.000      0.000
REMARK  0 active torsions:
REMARK  status: ('A' for Active; 'I' for Inactive)
ROOT
HETATM    1  C1  UNL     1     -34.282   6.501   6.030  1.00 20.00     0.001 A 
HETATM    2  C2  UNL     1     -34.872   5.272   5.740  1.00 20.00     0.001 A 
HETATM    3  C3  UNL     1     -33.480   7.133   5.079  1.00 20.00     0.007 A 
HETATM    4  C4  UNL     1     -34.661   4.673   4.497  1.00 20.00     0.007 A 
HETATM    5  C5  UNL     1     -33.270   6.534   3.836  1.00 20.00    -0.056 A 
HETATM    6  C6  UNL     1     -33.860   5.305   3.546  1.00 20.00    -0.056 A 
HETATM    7  C7  UNL     1     -32.409   7.230   2.832  1.00 20.00     0.049 C 
HETATM    8  C8  UNL     1     -33.648   4.644   2.223  1.00 20.00     0.049 C 
ENDROOT
TORSDOF 0
ENDMDL
MODEL 2
REMARK VINA RESULT:      -6.2      0.016      2.251
REMARK  0 active torsions:
REMARK  status: ('A' for Active; 'I' for Inactive)
ROOT
HETATM    1  C1  UNL     1     -34.871   5.249   5.737  1.00 20.00     0.001 A 
HETATM    2  C2  UNL     1     -34.285   6.478   6.034  1.00 20.00     0.001 A 
HETATM    3  C3  UNL     1     -34.661   4.657   4.491  1.00 20.00     0.007 A 
HETATM    4  C4  UNL     1     -33.488   7.118   5.084  1.00 20.00     0.007 A 
HETATM    5  C5  UNL     1     -33.863   5.297   3.542  1.00 20.00    -0.056 A 
HETATM    6  C6  UNL     1     -33.277   6.526   3.839  1.00 20.00    -0.056 A 
HETATM    7  C7  UNL     1     -33.651   4.644   2.215  1.00 20.00     0.049 C 
HETATM    8  C8  UNL     1     -32.420   7.230   2.838  1.00 20.00     0.049 C 
ENDROOT
TORSDOF 0
ENDMDL
MODEL 3
REMARK VINA RESULT:      -5.2      0.798      2.747
REMARK  0 active torsions:
REMARK  status: ('A' for Active; 'I' for Inactive)
ROOT
HETATM    1  C1  UNL     1     -32.893   6.134   2.490  1.00 20.00     0.001 A 
HETATM    2  C2  UNL     1     -33.533   4.896   2.504  1.00 20.00     0.001 A 
HETATM    3  C3  UNL     1     -32.958   6.967   3.607  1.00 20.00     0.007 A 
HETATM    4  C4  UNL     1     -34.240   4.488   3.637  1.00 20.00     0.007 A 
HETATM    5  C5  UNL     1     -33.664   6.559   4.740  1.00 20.00    -0.056 A 
HETATM    6  C6  UNL     1     -34.305   5.321   4.754  1.00 20.00    -0.056 A 
HETATM    7  C7  UNL     1     -33.719   7.467   5.925  1.00 20.00     0.049 C 
HETATM    8  C8  UNL     1     -35.067   4.864   5.955  1.00 20.00     0.049 C 
ENDROOT
TORSDOF 0
ENDMDL
MODEL 4
REMARK VINA RESULT:      -5.2      0.803      3.534
REMARK  0 active torsions:
REMARK  status: ('A' for Active; 'I' for Inactive)
ROOT
HETATM    1  C1  UNL     1     -33.555   4.888   2.507  1.00 20.00     0.001 A 
HETATM    2  C2  UNL     1     -32.919   6.129   2.493  1.00 20.00     0.001 A 
HETATM    3  C3  UNL     1     -34.250   4.473   3.643  1.00 20.00     0.007 A 
HETATM    4  C4  UNL     1     -32.977   6.956   3.615  1.00 20.00     0.007 A 
HETATM    5  C5  UNL     1     -34.309   5.300   4.766  1.00 20.00    -0.056 A 
HETATM    6  C6  UNL     1     -33.672   6.541   4.751  1.00 20.00    -0.056 A 
HETATM    7  C7  UNL     1     -35.060   4.835   5.971  1.00 20.00     0.049 C 
HETATM    8  C8  UNL     1     -33.721   7.442   5.941  1.00 20.00     0.049 C 
ENDROOT
TORSDOF 0
ENDMDL
MODEL 5
REMARK VINA RESULT:      -5.1      0.800      3.554
REMARK  0 active torsions:
REMARK  status: ('A' for Active; 'I' for Inactive)
ROOT
HETATM    1  C1  UNL     1     -32.687   6.172   2.125  1.00 20.00     0.001 A 
HETATM    2  C2  UNL     1     -32.164   7.240   2.852  1.00 20.00     0.001 A 
HETATM    3  C3  UNL     1     -33.658   5.348   2.695  1.00 20.00     0.007 A 
HETATM    4  C4  UNL     1     -32.611   7.486   4.151  1.00 20.00     0.007 A 
HETATM    5  C5  UNL     1     -34.105   5.594   3.993  1.00 20.00    -0.056 A 
HETATM    6  C6  UNL     1     -33.582   6.662   4.721  1.00 20.00    -0.056 A 
HETATM    7  C7  UNL     1     -35.146   4.699   4.583  1.00 20.00     0.049 C 
HETATM    8  C8  UNL     1     -34.044   6.944   6.113  1.00 20.00     0.049 C 
ENDROOT
TORSDOF 0
ENDMDL
MODEL 6
REMARK VINA RESULT:      -5.1      0.805      2.806
REMARK  0 active torsions:
REMARK  status: ('A' for Active; 'I' for Inactive)
ROOT
HETATM    1  C1  UNL     1     -32.159   7.251   2.845  1.00 20.00     0.001 A 
HETATM    2  C2  UNL     1     -32.693   6.187   2.120  1.00 20.00     0.001 A 
HETATM    3  C3  UNL     1     -32.594   7.496   4.148  1.00 20.00     0.007 A 
HETATM    4  C4  UNL     1     -33.663   5.366   2.696  1.00 20.00     0.007 A 
HETATM    5  C5  UNL     1     -33.564   6.675   4.725  1.00 20.00    -0.056 A 
HETATM    6  C6  UNL     1     -34.098   5.611   3.999  1.00 20.00    -0.056 A 
HETATM    7  C7  UNL     1     -34.013   6.956   6.122  1.00 20.00     0.049 C 
HETATM    8  C8  UNL     1     -35.138   4.720   4.596  1.00 20.00     0.049 C 
ENDROOT
TORSDOF 0
ENDMDL
MODEL 7
REMARK VINA RESULT:      -4.7      0.804      2.551
REMARK  0 active torsions:
REMARK  status: ('A' for Active; 'I' for Inactive)
ROOT
HETATM    1  C1  UNL     1     -34.026   4.498   2.974  1.00 20.00     0.001 A 
HETATM    2  C2  UNL     1     -34.771   4.403   4.149  1.00 20.00     0.001 A 
HETATM    3  C3  UNL     1     -33.165   5.578   2.778  1.00 20.00     0.007 A 
HETATM    4  C4  UNL     1     -34.654   5.388   5.130  1.00 20.00     0.007 A 
HETATM    5  C5  UNL     1     -33.048   6.563   3.759  1.00 20.00    -0.056 A 
HETATM    6  C6  UNL     1     -33.792   6.468   4.934  1.00 20.00    -0.056 A 
HETATM    7  C7  UNL     1     -32.118   7.709   3.529  1.00 20.00     0.049 C 
HETATM    8  C8  UNL     1     -33.684   7.511   5.998  1.00 20.00     0.049 C 
ENDROOT
TORSDOF 0
ENDMDL
MODEL 8
REMARK VINA RESULT:      -4.4     11.805     12.509
REMARK  0 active torsions:
REMARK  status: ('A' for Active; 'I' for Inactive)
ROOT
HETATM    1  C1  UNL     1     -33.497  14.678  -4.310  1.00 20.00     0.001 A 
HETATM    2  C2  UNL     1     -34.793  14.348  -3.914  1.00 20.00     0.001 A 
HETATM    3  C3  UNL     1     -32.823  15.729  -3.688  1.00 20.00     0.007 A 
HETATM    4  C4  UNL     1     -35.416  15.070  -2.895  1.00 20.00     0.007 A 
HETATM    5  C5  UNL     1     -33.446  16.450  -2.669  1.00 20.00    -0.056 A 
HETATM    6  C6  UNL     1     -34.741  16.121  -2.273  1.00 20.00    -0.056 A 
HETATM    7  C7  UNL     1     -32.704  17.571  -2.016  1.00 20.00     0.049 C 
HETATM    8  C8  UNL     1     -35.429  16.880  -1.185  1.00 20.00     0.049 C 
ENDROOT
TORSDOF 0
ENDMDL
MODEL 9
REMARK VINA RESULT:      -4.4     11.807     12.614
REMARK  0 active torsions:
REMARK  status: ('A' for Active; 'I' for Inactive)
ROOT
HETATM    1  C1  UNL     1     -34.858  14.363  -3.899  1.00 20.00     0.001 A 
HETATM    2  C2  UNL     1     -33.567  14.680  -4.321  1.00 20.00     0.001 A 
HETATM    3  C3  UNL     1     -35.452  15.086  -2.864  1.00 20.00     0.007 A 
HETATM    4  C4  UNL     1     -32.868  15.720  -3.708  1.00 20.00     0.007 A 
HETATM    5  C5  UNL     1     -34.753  16.127  -2.251  1.00 20.00    -0.056 A 
HETATM    6  C6  UNL     1     -33.462  16.443  -2.673  1.00 20.00    -0.056 A 
HETATM    7  C7  UNL     1     -35.409  16.889  -1.146  1.00 20.00     0.049 C 
HETATM    8  C8  UNL     1     -32.694  17.553  -2.031  1.00 20.00     0.049 C 
ENDROOT
TORSDOF 0
ENDMDL
