MODEL 1
REMARK VINA RESULT:      -5.5      0.000      0.000
REMARK  1 active torsions:
REMARK  status: ('A' for Active; 'I' for Inactive)
REMARK    1  A    between atoms: C6_6  and  N9_9 
ROOT
HETATM    1  N8  UNL     1     -33.053   9.200   0.783  1.00 20.00     0.068 N 
HETATM    2  N9  UNL     1     -32.144   7.160   1.642  1.00 20.00    -0.073 NA
HETATM    3  N10 UNL     1     -32.622   8.227   1.196  1.00 20.00    -0.162 NA
ENDROOT
BRANCH   2   4
HETATM    4  C6  UNL     1     -32.857   6.664   2.738  1.00 20.00     0.093 A 
HETATM    5  C3  UNL     1     -33.542   5.454   2.633  1.00 20.00     0.035 A 
HETATM    6  C1  UNL     1     -34.253   4.957   3.727  1.00 20.00     0.009 A 
HETATM    7  C5  UNL     1     -34.277   5.672   4.925  1.00 20.00    -0.062 A 
HETATM    8  C2  UNL     1     -33.591   6.883   5.029  1.00 20.00     0.009 A 
HETATM    9  C7  UNL     1     -35.036   5.143   6.094  1.00 20.00     0.048 C 
HETATM   10  C4  UNL     1     -32.881   7.379   3.936  1.00 20.00     0.035 A 
ENDBRANCH   2   4
TORSDOF 1
ENDMDL
MODEL 2
REMARK VINA RESULT:      -5.0     10.964     11.655
REMARK  1 active torsions:
REMARK  status: ('A' for Active; 'I' for Inactive)
REMARK    1  A    between atoms: C6_6  and  N9_9 
ROOT
HETATM    1  N8  UNL     1     -34.022  15.117  -7.057  1.00 20.00     0.068 N 
HETATM    2  N9  UNL     1     -34.030  14.115  -4.885  1.00 20.00    -0.073 NA
HETATM    3  N10 UNL     1     -34.025  14.643  -6.020  1.00 20.00    -0.162 NA
ENDROOT
BRANCH   2   4
HETATM    4  C6  UNL     1     -34.066  15.055  -3.851  1.00 20.00     0.093 A 
HETATM    5  C3  UNL     1     -35.190  15.144  -3.030  1.00 20.00     0.035 A 
HETATM    6  C1  UNL     1     -35.227  16.081  -1.996  1.00 20.00     0.009 A 
HETATM    7  C5  UNL     1     -34.138  16.929  -1.785  1.00 20.00    -0.062 A 
HETATM    8  C2  UNL     1     -33.015  16.840  -2.607  1.00 20.00     0.009 A 
HETATM    9  C7  UNL     1     -34.177  17.930  -0.681  1.00 20.00     0.048 C 
HETATM   10  C4  UNL     1     -32.979  15.903  -3.640  1.00 20.00     0.035 A 
ENDBRANCH   2   4
TORSDOF 1
ENDMDL
MODEL 3
REMARK VINA RESULT:      -5.0     10.969     11.698
REMARK  1 active torsions:
REMARK  status: ('A' for Active; 'I' for Inactive)
REMARK    1  A    between atoms: C6_6  and  N9_9 
ROOT
HETATM    1  N8  UNL     1     -34.039  15.119  -7.053  1.00 20.00     0.068 N 
HETATM    2  N9  UNL     1     -34.012  14.122  -4.879  1.00 20.00    -0.073 NA
HETATM    3  N10 UNL     1     -34.025  14.647  -6.015  1.00 20.00    -0.162 NA
ENDROOT
BRANCH   2   4
HETATM    4  C6  UNL     1     -34.049  15.064  -3.846  1.00 20.00     0.093 A 
HETATM    5  C3  UNL     1     -32.960  15.909  -3.636  1.00 20.00     0.035 A 
HETATM    6  C1  UNL     1     -32.995  16.850  -2.606  1.00 20.00     0.009 A 
HETATM    7  C5  UNL     1     -34.121  16.944  -1.787  1.00 20.00    -0.062 A 
HETATM    8  C2  UNL     1     -35.210  16.098  -1.998  1.00 20.00     0.009 A 
HETATM    9  C7  UNL     1     -34.160  17.949  -0.686  1.00 20.00     0.048 C 
HETATM   10  C4  UNL     1     -35.174  15.158  -3.027  1.00 20.00     0.035 A 
ENDBRANCH   2   4
TORSDOF 1
ENDMDL
MODEL 4
REMARK VINA RESULT:      -5.0     11.041     11.590
REMARK  1 active torsions:
REMARK  status: ('A' for Active; 'I' for Inactive)
REMARK    1  A    between atoms: C6_6  and  N9_9 
ROOT
HETATM    1  N8  UNL     1     -38.760  14.407  -4.404  1.00 20.00     0.068 N 
HETATM    2  N9  UNL     1     -36.535  13.530  -4.392  1.00 20.00    -0.073 NA
HETATM    3  N10 UNL     1     -37.698  13.992  -4.398  1.00 20.00    -0.162 NA
ENDROOT
BRANCH   2   4
HETATM    4  C6  UNL     1     -35.594  14.436  -3.895  1.00 20.00     0.093 A 
HETATM    5  C3  UNL     1     -34.269  14.371  -4.327  1.00 20.00     0.035 A 
HETATM    6  C1  UNL     1     -33.328  15.275  -3.833  1.00 20.00     0.009 A 
HETATM    7  C5  UNL     1     -33.715  16.246  -2.907  1.00 20.00    -0.062 A 
HETATM    8  C2  UNL     1     -35.039  16.311  -2.476  1.00 20.00     0.009 A 
HETATM    9  C7  UNL     1     -32.710  17.213  -2.378  1.00 20.00     0.048 C 
HETATM   10  C4  UNL     1     -35.979  15.406  -2.970  1.00 20.00     0.035 A 
ENDBRANCH   2   4
TORSDOF 1
ENDMDL
MODEL 5
REMARK VINA RESULT:      -5.0     11.074     11.655
REMARK  1 active torsions:
REMARK  status: ('A' for Active; 'I' for Inactive)
REMARK    1  A    between atoms: C6_6  and  N9_9 
ROOT
HETATM    1  N8  UNL     1     -38.818  14.411  -4.337  1.00 20.00     0.068 N 
HETATM    2  N9  UNL     1     -36.587  13.553  -4.428  1.00 20.00    -0.073 NA
HETATM    3  N10 UNL     1     -37.752  14.005  -4.380  1.00 20.00    -0.162 NA
ENDROOT
BRANCH   2   4
HETATM    4  C6  UNL     1     -35.636  14.449  -3.929  1.00 20.00     0.093 A 
HETATM    5  C3  UNL     1     -36.024  15.449  -3.037  1.00 20.00     0.035 A 
HETATM    6  C1  UNL     1     -35.076  16.344  -2.537  1.00 20.00     0.009 A 
HETATM    7  C5  UNL     1     -33.741  16.236  -2.930  1.00 20.00    -0.062 A 
HETATM    8  C2  UNL     1     -33.355  15.236  -3.822  1.00 20.00     0.009 A 
HETATM    9  C7  UNL     1     -32.729  17.192  -2.396  1.00 20.00     0.048 C 
HETATM   10  C4  UNL     1     -34.302  14.342  -4.321  1.00 20.00     0.035 A 
ENDBRANCH   2   4
TORSDOF 1
ENDMDL
MODEL 6
REMARK VINA RESULT:      -4.9     11.050     11.661
REMARK  1 active torsions:
REMARK  status: ('A' for Active; 'I' for Inactive)
REMARK    1  A    between atoms: C6_6  and  N9_9 
ROOT
HETATM    1  N8  UNL     1     -35.954  14.393  -7.058  1.00 20.00     0.068 N 
HETATM    2  N9  UNL     1     -35.519  13.626  -4.835  1.00 20.00    -0.073 NA
HETATM    3  N10 UNL     1     -35.744  14.030  -5.997  1.00 20.00    -0.162 NA
ENDROOT
BRANCH   2   4
HETATM    4  C6  UNL     1     -34.930  14.603  -4.026  1.00 20.00     0.093 A 
HETATM    5  C3  UNL     1     -33.594  14.954  -4.219  1.00 20.00     0.035 A 
HETATM    6  C1  UNL     1     -33.005  15.929  -3.413  1.00 20.00     0.009 A 
HETATM    7  C5  UNL     1     -33.755  16.554  -2.415  1.00 20.00    -0.062 A 
HETATM    8  C2  UNL     1     -35.091  16.202  -2.222  1.00 20.00     0.009 A 
HETATM    9  C7  UNL     1     -33.127  17.595  -1.553  1.00 20.00     0.048 C 
HETATM   10  C4  UNL     1     -35.679  15.227  -3.028  1.00 20.00     0.035 A 
ENDBRANCH   2   4
TORSDOF 1
ENDMDL
MODEL 7
REMARK VINA RESULT:      -4.9     11.025     11.659
REMARK  1 active torsions:
REMARK  status: ('A' for Active; 'I' for Inactive)
REMARK    1  A    between atoms: C6_6  and  N9_9 
ROOT
HETATM    1  N8  UNL     1     -35.923  14.390  -7.014  1.00 20.00     0.068 N 
HETATM    2  N9  UNL     1     -35.433  13.623  -4.802  1.00 20.00    -0.073 NA
HETATM    3  N10 UNL     1     -35.688  14.028  -5.958  1.00 20.00    -0.162 NA
ENDROOT
BRANCH   2   4
HETATM    4  C6  UNL     1     -34.857  14.611  -3.997  1.00 20.00     0.093 A 
HETATM    5  C3  UNL     1     -35.617  15.235  -3.009  1.00 20.00     0.035 A 
HETATM    6  C1  UNL     1     -35.043  16.220  -2.204  1.00 20.00     0.009 A 
HETATM    7  C5  UNL     1     -33.706  16.579  -2.389  1.00 20.00    -0.062 A 
HETATM    8  C2  UNL     1     -32.947  15.955  -3.378  1.00 20.00     0.009 A 
HETATM    9  C7  UNL     1     -33.092  17.632  -1.531  1.00 20.00     0.048 C 
HETATM   10  C4  UNL     1     -33.522  14.970  -4.182  1.00 20.00     0.035 A 
ENDBRANCH   2   4
TORSDOF 1
ENDMDL
MODEL 8
REMARK VINA RESULT:      -4.9     15.567     15.916
REMARK  1 active torsions:
REMARK  status: ('A' for Active; 'I' for Inactive)
REMARK    1  A    between atoms: C6_6  and  N9_9 
ROOT
HETATM    1  N8  UNL     1     -26.298  18.802   5.915  1.00 20.00     0.068 N 
HETATM    2  N9  UNL     1     -24.035  19.033   6.654  1.00 20.00    -0.073 NA
HETATM    3  N10 UNL     1     -25.219  18.911   6.271  1.00 20.00    -0.162 NA
ENDROOT
BRANCH   2   4
HETATM    4  C6  UNL     1     -23.830  18.543   7.947  1.00 20.00     0.093 A 
HETATM    5  C3  UNL     1     -22.716  17.750   8.223  1.00 20.00     0.035 A 
HETATM    6  C1  UNL     1     -22.510  17.261   9.514  1.00 20.00     0.009 A 
HETATM    7  C5  UNL     1     -23.419  17.567  10.528  1.00 20.00    -0.062 A 
HETATM    8  C2  UNL     1     -24.533  18.359  10.251  1.00 20.00     0.009 A 
HETATM    9  C7  UNL     1     -23.200  17.044  11.907  1.00 20.00     0.048 C 
HETATM   10  C4  UNL     1     -24.738  18.848   8.961  1.00 20.00     0.035 A 
ENDBRANCH   2   4
TORSDOF 1
ENDMDL
MODEL 9
REMARK VINA RESULT:      -4.5     11.254     11.871
REMARK  1 active torsions:
REMARK  status: ('A' for Active; 'I' for Inactive)
REMARK    1  A    between atoms: C6_6  and  N9_9 
ROOT
HETATM    1  N8  UNL     1     -30.827  18.243  -0.227  1.00 20.00     0.068 N 
HETATM    2  N9  UNL     1     -33.004  18.598  -1.154  1.00 20.00    -0.073 NA
HETATM    3  N10 UNL     1     -31.865  18.409  -0.671  1.00 20.00    -0.162 NA
ENDROOT
BRANCH   2   4
HETATM    4  C6  UNL     1     -33.490  17.485  -1.847  1.00 20.00     0.093 A 
HETATM    5  C3  UNL     1     -34.715  16.923  -1.489  1.00 20.00     0.035 A 
HETATM    6  C1  UNL     1     -35.202  15.813  -2.181  1.00 20.00     0.009 A 
HETATM    7  C5  UNL     1     -34.462  15.266  -3.231  1.00 20.00    -0.062 A 
HETATM    8  C2  UNL     1     -33.237  15.829  -3.588  1.00 20.00     0.009 A 
HETATM    9  C7  UNL     1     -34.982  14.080  -3.970  1.00 20.00     0.048 C 
HETATM   10  C4  UNL     1     -32.751  16.938  -2.896  1.00 20.00     0.035 A 
ENDBRANCH   2   4
TORSDOF 1
ENDMDL
