MODEL 1
REMARK VINA RESULT:      -5.1      0.000      0.000
REMARK  0 active torsions:
REMARK  status: ('A' for Active; 'I' for Inactive)
ROOT
HETATM    1  C1  UNL     1     -33.681   6.795   5.239  1.00 20.00     0.007 A 
HETATM    2  C2  UNL     1     -33.009   7.367   4.158  1.00 20.00     0.007 A 
HETATM    3  C3  UNL     1     -34.330   4.929   3.847  1.00 20.00     0.007 A 
HETATM    4  C4  UNL     1     -33.657   5.502   2.767  1.00 20.00     0.007 A 
HETATM    5  C5  UNL     1     -34.341   5.576   5.083  1.00 20.00    -0.062 A 
HETATM    6  C6  UNL     1     -32.997   6.720   2.923  1.00 20.00    -0.062 A 
HETATM    7  C7  UNL     1     -35.061   4.964   6.237  1.00 20.00     0.048 C 
HETATM    8  C8  UNL     1     -32.279   7.333   1.768  1.00 20.00     0.048 C 
ENDROOT
TORSDOF 0
ENDMDL
MODEL 2
REMARK VINA RESULT:      -5.1      0.032      3.354
REMARK  0 active torsions:
REMARK  status: ('A' for Active; 'I' for Inactive)
ROOT
HETATM    1  C1  UNL     1     -32.982   7.378   4.179  1.00 20.00     0.007 A 
HETATM    2  C2  UNL     1     -33.659   6.808   5.257  1.00 20.00     0.007 A 
HETATM    3  C3  UNL     1     -33.663   5.532   2.776  1.00 20.00     0.007 A 
HETATM    4  C4  UNL     1     -34.340   4.963   3.856  1.00 20.00     0.007 A 
HETATM    5  C5  UNL     1     -32.985   6.740   2.939  1.00 20.00    -0.062 A 
HETATM    6  C6  UNL     1     -34.338   5.601   5.096  1.00 20.00    -0.062 A 
HETATM    7  C7  UNL     1     -32.261   7.348   1.785  1.00 20.00     0.048 C 
HETATM    8  C8  UNL     1     -35.060   4.992   6.250  1.00 20.00     0.048 C 
ENDROOT
TORSDOF 0
ENDMDL
MODEL 3
REMARK VINA RESULT:      -4.4     11.628     12.151
REMARK  0 active torsions:
REMARK  status: ('A' for Active; 'I' for Inactive)
ROOT
HETATM    1  C1  UNL     1     -35.544  15.521  -2.670  1.00 20.00     0.007 A 
HETATM    2  C2  UNL     1     -34.764  16.492  -2.041  1.00 20.00     0.007 A 
HETATM    3  C3  UNL     1     -33.685  14.963  -4.110  1.00 20.00     0.007 A 
HETATM    4  C4  UNL     1     -32.906  15.934  -3.479  1.00 20.00     0.007 A 
HETATM    5  C5  UNL     1     -35.004  14.757  -3.704  1.00 20.00    -0.062 A 
HETATM    6  C6  UNL     1     -33.446  16.699  -2.445  1.00 20.00    -0.062 A 
HETATM    7  C7  UNL     1     -35.835  13.719  -4.378  1.00 20.00     0.048 C 
HETATM    8  C8  UNL     1     -32.614  17.738  -1.772  1.00 20.00     0.048 C 
ENDROOT
TORSDOF 0
ENDMDL
MODEL 4
REMARK VINA RESULT:      -4.4     11.635     12.248
REMARK  0 active torsions:
REMARK  status: ('A' for Active; 'I' for Inactive)
ROOT
HETATM    1  C1  UNL     1     -34.768  16.500  -2.035  1.00 20.00     0.007 A 
HETATM    2  C2  UNL     1     -35.544  15.530  -2.668  1.00 20.00     0.007 A 
HETATM    3  C3  UNL     1     -32.904  15.944  -3.469  1.00 20.00     0.007 A 
HETATM    4  C4  UNL     1     -33.682  14.974  -4.103  1.00 20.00     0.007 A 
HETATM    5  C5  UNL     1     -33.448  16.707  -2.436  1.00 20.00    -0.062 A 
HETATM    6  C6  UNL     1     -35.002  14.767  -3.702  1.00 20.00    -0.062 A 
HETATM    7  C7  UNL     1     -32.616  17.743  -1.760  1.00 20.00     0.048 C 
HETATM    8  C8  UNL     1     -35.834  13.729  -4.378  1.00 20.00     0.048 C 
ENDROOT
TORSDOF 0
ENDMDL
MODEL 5
REMARK VINA RESULT:      -4.4     11.625     12.211
REMARK  0 active torsions:
REMARK  status: ('A' for Active; 'I' for Inactive)
ROOT
HETATM    1  C1  UNL     1     -33.640  15.048  -4.061  1.00 20.00     0.007 A 
HETATM    2  C2  UNL     1     -32.864  16.021  -3.431  1.00 20.00     0.007 A 
HETATM    3  C3  UNL     1     -35.492  15.582  -2.603  1.00 20.00     0.007 A 
HETATM    4  C4  UNL     1     -34.715  16.556  -1.974  1.00 20.00     0.007 A 
HETATM    5  C5  UNL     1     -34.954  14.829  -3.647  1.00 20.00    -0.062 A 
HETATM    6  C6  UNL     1     -33.401  16.775  -2.388  1.00 20.00    -0.062 A 
HETATM    7  C7  UNL     1     -35.785  13.790  -4.319  1.00 20.00     0.048 C 
HETATM    8  C8  UNL     1     -32.570  17.814  -1.715  1.00 20.00     0.048 C 
ENDROOT
TORSDOF 0
ENDMDL
MODEL 6
REMARK VINA RESULT:      -4.4     11.706     12.354
REMARK  0 active torsions:
REMARK  status: ('A' for Active; 'I' for Inactive)
ROOT
HETATM    1  C1  UNL     1     -32.948  17.444  -2.055  1.00 20.00     0.007 A 
HETATM    2  C2  UNL     1     -32.929  16.466  -3.049  1.00 20.00     0.007 A 
HETATM    3  C3  UNL     1     -35.139  16.696  -1.362  1.00 20.00     0.007 A 
HETATM    4  C4  UNL     1     -35.118  15.717  -2.356  1.00 20.00     0.007 A 
HETATM    5  C5  UNL     1     -34.053  17.559  -1.211  1.00 20.00    -0.062 A 
HETATM    6  C6  UNL     1     -34.014  15.603  -3.200  1.00 20.00    -0.062 A 
HETATM    7  C7  UNL     1     -34.076  18.604  -0.148  1.00 20.00     0.048 C 
HETATM    8  C8  UNL     1     -33.992  14.558  -4.264  1.00 20.00     0.048 C 
ENDROOT
TORSDOF 0
ENDMDL
MODEL 7
REMARK VINA RESULT:      -4.4     11.669     12.495
REMARK  0 active torsions:
REMARK  status: ('A' for Active; 'I' for Inactive)
ROOT
HETATM    1  C1  UNL     1     -35.160  15.767  -2.259  1.00 20.00     0.007 A 
HETATM    2  C2  UNL     1     -35.062  16.786  -1.311  1.00 20.00     0.007 A 
HETATM    3  C3  UNL     1     -32.987  16.370  -3.129  1.00 20.00     0.007 A 
HETATM    4  C4  UNL     1     -32.891  17.389  -2.180  1.00 20.00     0.007 A 
HETATM    5  C5  UNL     1     -34.122  15.559  -3.168  1.00 20.00    -0.062 A 
HETATM    6  C6  UNL     1     -33.928  17.597  -1.272  1.00 20.00    -0.062 A 
HETATM    7  C7  UNL     1     -34.224  14.471  -4.182  1.00 20.00     0.048 C 
HETATM    8  C8  UNL     1     -33.826  18.686  -0.258  1.00 20.00     0.048 C 
ENDROOT
TORSDOF 0
ENDMDL
MODEL 8
REMARK VINA RESULT:      -4.4     11.693     12.395
REMARK  0 active torsions:
REMARK  status: ('A' for Active; 'I' for Inactive)
ROOT
HETATM    1  C1  UNL     1     -35.112  16.731  -1.343  1.00 20.00     0.007 A 
HETATM    2  C2  UNL     1     -35.143  15.737  -2.320  1.00 20.00     0.007 A 
HETATM    3  C3  UNL     1     -32.923  17.413  -2.107  1.00 20.00     0.007 A 
HETATM    4  C4  UNL     1     -32.955  16.418  -3.085  1.00 20.00     0.007 A 
HETATM    5  C5  UNL     1     -34.002  17.570  -1.237  1.00 20.00    -0.062 A 
HETATM    6  C6  UNL     1     -34.065  15.580  -3.191  1.00 20.00    -0.062 A 
HETATM    7  C7  UNL     1     -33.967  18.634  -0.193  1.00 20.00     0.048 C 
HETATM    8  C8  UNL     1     -34.099  14.515  -4.235  1.00 20.00     0.048 C 
ENDROOT
TORSDOF 0
ENDMDL
MODEL 9
REMARK VINA RESULT:      -4.3      0.928      3.065
REMARK  0 active torsions:
REMARK  status: ('A' for Active; 'I' for Inactive)
ROOT
HETATM    1  C1  UNL     1     -32.958   6.175   2.911  1.00 20.00     0.007 A 
HETATM    2  C2  UNL     1     -33.180   6.922   4.068  1.00 20.00     0.007 A 
HETATM    3  C3  UNL     1     -34.329   4.394   3.799  1.00 20.00     0.007 A 
HETATM    4  C4  UNL     1     -34.550   5.143   4.956  1.00 20.00     0.007 A 
HETATM    5  C5  UNL     1     -33.534   4.912   2.776  1.00 20.00    -0.062 A 
HETATM    6  C6  UNL     1     -33.975   6.406   5.091  1.00 20.00    -0.062 A 
HETATM    7  C7  UNL     1     -33.298   4.111   1.541  1.00 20.00     0.048 C 
HETATM    8  C8  UNL     1     -34.210   7.206   6.328  1.00 20.00     0.048 C 
ENDROOT
TORSDOF 0
ENDMDL
