MODEL 1
REMARK VINA RESULT:      -6.6      0.000      0.000
REMARK  0 active torsions:
REMARK  status: ('A' for Active; 'I' for Inactive)
ROOT
HETATM    1  C1  UNL     1     -32.249   7.593   1.700  1.00 20.00     0.018 C 
HETATM    2  C2  UNL     1     -32.820   7.077   2.621  1.00 20.00    -0.078 C 
HETATM    3  C3  UNL     1     -34.827   5.267   5.860  1.00 20.00     0.000 A 
HETATM    4  C4  UNL     1     -34.153   6.475   6.045  1.00 20.00     0.001 A 
HETATM    5  C5  UNL     1     -34.837   4.658   4.605  1.00 20.00     0.001 A 
HETATM    6  C6  UNL     1     -33.490   7.072   4.973  1.00 20.00     0.020 A 
HETATM    7  C7  UNL     1     -34.174   5.257   3.535  1.00 20.00     0.020 A 
HETATM    8  C8  UNL     1     -33.500   6.464   3.718  1.00 20.00     0.016 A 
ENDROOT
TORSDOF 0
ENDMDL
MODEL 2
REMARK VINA RESULT:      -4.8      1.193      1.854
REMARK  0 active torsions:
REMARK  status: ('A' for Active; 'I' for Inactive)
ROOT
HETATM    1  C1  UNL     1     -33.277   4.288   1.475  1.00 20.00     0.018 C 
HETATM    2  C2  UNL     1     -33.523   4.788   2.539  1.00 20.00    -0.078 C 
HETATM    3  C3  UNL     1     -34.389   6.545   6.275  1.00 20.00     0.000 A 
HETATM    4  C4  UNL     1     -33.584   7.220   5.357  1.00 20.00     0.001 A 
HETATM    5  C5  UNL     1     -34.908   5.290   5.958  1.00 20.00     0.001 A 
HETATM    6  C6  UNL     1     -33.298   6.638   4.122  1.00 20.00     0.020 A 
HETATM    7  C7  UNL     1     -34.622   4.709   4.723  1.00 20.00     0.020 A 
HETATM    8  C8  UNL     1     -33.817   5.383   3.804  1.00 20.00     0.016 A 
ENDROOT
TORSDOF 0
ENDMDL
MODEL 3
REMARK VINA RESULT:      -4.5     11.503     12.274
REMARK  0 active torsions:
REMARK  status: ('A' for Active; 'I' for Inactive)
ROOT
HETATM    1  C1  UNL     1     -35.164  13.881  -4.160  1.00 20.00     0.018 C 
HETATM    2  C2  UNL     1     -34.797  14.792  -3.470  1.00 20.00    -0.078 C 
HETATM    3  C3  UNL     1     -33.507  17.989  -1.040  1.00 20.00     0.000 A 
HETATM    4  C4  UNL     1     -34.729  17.369  -0.784  1.00 20.00     0.001 A 
HETATM    5  C5  UNL     1     -32.710  17.553  -2.098  1.00 20.00     0.001 A 
HETATM    6  C6  UNL     1     -35.155  16.311  -1.587  1.00 20.00     0.020 A 
HETATM    7  C7  UNL     1     -33.137  16.496  -2.901  1.00 20.00     0.020 A 
HETATM    8  C8  UNL     1     -34.360  15.874  -2.647  1.00 20.00     0.016 A 
ENDROOT
TORSDOF 0
ENDMDL
MODEL 4
REMARK VINA RESULT:      -4.5     11.502     12.279
REMARK  0 active torsions:
REMARK  status: ('A' for Active; 'I' for Inactive)
ROOT
HETATM    1  C1  UNL     1     -35.166  13.876  -4.161  1.00 20.00     0.018 C 
HETATM    2  C2  UNL     1     -34.798  14.787  -3.470  1.00 20.00    -0.078 C 
HETATM    3  C3  UNL     1     -33.505  17.989  -1.048  1.00 20.00     0.000 A 
HETATM    4  C4  UNL     1     -32.709  17.550  -2.106  1.00 20.00     0.001 A 
HETATM    5  C5  UNL     1     -34.729  17.371  -0.791  1.00 20.00     0.001 A 
HETATM    6  C6  UNL     1     -33.137  16.491  -2.906  1.00 20.00     0.020 A 
HETATM    7  C7  UNL     1     -35.156  16.312  -1.592  1.00 20.00     0.020 A 
HETATM    8  C8  UNL     1     -34.361  15.872  -2.650  1.00 20.00     0.016 A 
ENDROOT
TORSDOF 0
ENDMDL
MODEL 5
REMARK VINA RESULT:      -4.5     11.649     12.307
REMARK  0 active torsions:
REMARK  status: ('A' for Active; 'I' for Inactive)
ROOT
HETATM    1  C1  UNL     1     -32.351  18.267  -1.352  1.00 20.00     0.018 C 
HETATM    2  C2  UNL     1     -32.909  17.392  -1.954  1.00 20.00    -0.078 C 
HETATM    3  C3  UNL     1     -34.869  14.313  -4.071  1.00 20.00     0.000 A 
HETATM    4  C4  UNL     1     -33.535  14.613  -4.351  1.00 20.00     0.001 A 
HETATM    5  C5  UNL     1     -35.554  15.031  -3.091  1.00 20.00     0.001 A 
HETATM    6  C6  UNL     1     -32.888  15.631  -3.651  1.00 20.00     0.020 A 
HETATM    7  C7  UNL     1     -34.906  16.048  -2.391  1.00 20.00     0.020 A 
HETATM    8  C8  UNL     1     -33.573  16.349  -2.671  1.00 20.00     0.016 A 
ENDROOT
TORSDOF 0
ENDMDL
MODEL 6
REMARK VINA RESULT:      -4.5     11.646     12.280
REMARK  0 active torsions:
REMARK  status: ('A' for Active; 'I' for Inactive)
ROOT
HETATM    1  C1  UNL     1     -32.298  18.256  -1.348  1.00 20.00     0.018 C 
HETATM    2  C2  UNL     1     -32.870  17.387  -1.947  1.00 20.00    -0.078 C 
HETATM    3  C3  UNL     1     -34.881  14.334  -4.053  1.00 20.00     0.000 A 
HETATM    4  C4  UNL     1     -35.547  15.050  -3.058  1.00 20.00     0.001 A 
HETATM    5  C5  UNL     1     -33.550  14.628  -4.352  1.00 20.00     0.001 A 
HETATM    6  C6  UNL     1     -34.881  16.059  -2.363  1.00 20.00     0.020 A 
HETATM    7  C7  UNL     1     -32.886  15.637  -3.657  1.00 20.00     0.020 A 
HETATM    8  C8  UNL     1     -33.551  16.353  -2.661  1.00 20.00     0.016 A 
ENDROOT
TORSDOF 0
ENDMDL
MODEL 7
REMARK VINA RESULT:      -4.4     11.597     12.255
REMARK  0 active torsions:
REMARK  status: ('A' for Active; 'I' for Inactive)
ROOT
HETATM    1  C1  UNL     1     -35.606  17.362  -0.223  1.00 20.00     0.018 C 
HETATM    2  C2  UNL     1     -35.176  16.758  -1.168  1.00 20.00    -0.078 C 
HETATM    3  C3  UNL     1     -33.665  14.638  -4.487  1.00 20.00     0.000 A 
HETATM    4  C4  UNL     1     -34.955  14.378  -4.022  1.00 20.00     0.001 A 
HETATM    5  C5  UNL     1     -32.876  15.598  -3.855  1.00 20.00     0.001 A 
HETATM    6  C6  UNL     1     -35.453  15.080  -2.925  1.00 20.00     0.020 A 
HETATM    7  C7  UNL     1     -33.375  16.299  -2.758  1.00 20.00     0.020 A 
HETATM    8  C8  UNL     1     -34.664  16.040  -2.292  1.00 20.00     0.016 A 
ENDROOT
TORSDOF 0
ENDMDL
MODEL 8
REMARK VINA RESULT:      -4.4     11.592     12.177
REMARK  0 active torsions:
REMARK  status: ('A' for Active; 'I' for Inactive)
ROOT
HETATM    1  C1  UNL     1     -35.604  17.365  -0.225  1.00 20.00     0.018 C 
HETATM    2  C2  UNL     1     -35.176  16.761  -1.170  1.00 20.00    -0.078 C 
HETATM    3  C3  UNL     1     -33.669  14.636  -4.488  1.00 20.00     0.000 A 
HETATM    4  C4  UNL     1     -32.880  15.601  -3.861  1.00 20.00     0.001 A 
HETATM    5  C5  UNL     1     -34.956  14.374  -4.018  1.00 20.00     0.001 A 
HETATM    6  C6  UNL     1     -33.379  16.302  -2.764  1.00 20.00     0.020 A 
HETATM    7  C7  UNL     1     -35.454  15.076  -2.921  1.00 20.00     0.020 A 
HETATM    8  C8  UNL     1     -34.666  16.041  -2.294  1.00 20.00     0.016 A 
ENDROOT
TORSDOF 0
ENDMDL
MODEL 9
REMARK VINA RESULT:      -4.2      0.939      3.482
REMARK  0 active torsions:
REMARK  status: ('A' for Active; 'I' for Inactive)
ROOT
HETATM    1  C1  UNL     1     -35.186   5.289   6.460  1.00 20.00     0.018 C 
HETATM    2  C2  UNL     1     -34.583   5.578   5.463  1.00 20.00    -0.078 C 
HETATM    3  C3  UNL     1     -32.463   6.595   1.961  1.00 20.00     0.000 A 
HETATM    4  C4  UNL     1     -32.424   7.440   3.069  1.00 20.00     0.001 A 
HETATM    5  C5  UNL     1     -33.203   5.414   2.009  1.00 20.00     0.001 A 
HETATM    6  C6  UNL     1     -33.125   7.103   4.227  1.00 20.00     0.020 A 
HETATM    7  C7  UNL     1     -33.904   5.077   3.167  1.00 20.00     0.020 A 
HETATM    8  C8  UNL     1     -33.865   5.922   4.277  1.00 20.00     0.016 A 
ENDROOT
TORSDOF 0
ENDMDL
