MODEL 1
REMARK VINA RESULT:      -5.7      0.000      0.000
REMARK  1 active torsions:
REMARK  status: ('A' for Active; 'I' for Inactive)
REMARK    1  A    between atoms: C6_6  and  N8_8 
ROOT
HETATM    1  N7  UNL     1     -32.949   8.106   0.981  1.00 20.00     0.068 N 
HETATM    2  N8  UNL     1     -32.090   7.242   3.040  1.00 20.00    -0.073 NA
HETATM    3  N9  UNL     1     -32.543   7.692   1.965  1.00 20.00    -0.162 NA
ENDROOT
BRANCH   2   4
HETATM    4  C6  UNL     1     -33.061   6.587   3.806  1.00 20.00     0.093 A 
HETATM    5  C4  UNL     1     -33.355   7.039   5.093  1.00 20.00     0.034 A 
HETATM    6  C2  UNL     1     -34.322   6.386   5.856  1.00 20.00     0.002 A 
HETATM    7  C1  UNL     1     -34.996   5.282   5.333  1.00 20.00     0.000 A 
HETATM    8  C3  UNL     1     -34.701   4.831   4.046  1.00 20.00     0.002 A 
HETATM    9  C5  UNL     1     -33.733   5.484   3.282  1.00 20.00     0.034 A 
ENDBRANCH   2   4
TORSDOF 1
ENDMDL
MODEL 2
REMARK VINA RESULT:      -5.7      0.027      1.611
REMARK  1 active torsions:
REMARK  status: ('A' for Active; 'I' for Inactive)
REMARK    1  A    between atoms: C6_6  and  N8_8 
ROOT
HETATM    1  N7  UNL     1     -32.925   8.086   0.996  1.00 20.00     0.068 N 
HETATM    2  N8  UNL     1     -32.083   7.251   3.073  1.00 20.00    -0.073 NA
HETATM    3  N9  UNL     1     -32.527   7.686   1.989  1.00 20.00    -0.162 NA
ENDROOT
BRANCH   2   4
HETATM    4  C6  UNL     1     -33.056   6.592   3.833  1.00 20.00     0.093 A 
HETATM    5  C4  UNL     1     -33.730   5.492   3.301  1.00 20.00     0.034 A 
HETATM    6  C2  UNL     1     -34.700   4.836   4.059  1.00 20.00     0.002 A 
HETATM    7  C1  UNL     1     -34.995   5.279   5.348  1.00 20.00     0.000 A 
HETATM    8  C3  UNL     1     -34.322   6.379   5.879  1.00 20.00     0.002 A 
HETATM    9  C5  UNL     1     -33.352   7.036   5.122  1.00 20.00     0.034 A 
ENDBRANCH   2   4
TORSDOF 1
ENDMDL
MODEL 3
REMARK VINA RESULT:      -4.8     11.222     11.794
REMARK  1 active torsions:
REMARK  status: ('A' for Active; 'I' for Inactive)
REMARK    1  A    between atoms: C6_6  and  N8_8 
ROOT
HETATM    1  N7  UNL     1     -38.380  14.330  -4.410  1.00 20.00     0.068 N 
HETATM    2  N8  UNL     1     -36.190  13.368  -4.426  1.00 20.00    -0.073 NA
HETATM    3  N9  UNL     1     -37.333  13.875  -4.416  1.00 20.00    -0.162 NA
ENDROOT
BRANCH   2   4
HETATM    4  C6  UNL     1     -35.200  14.255  -3.989  1.00 20.00     0.093 A 
HETATM    5  C4  UNL     1     -33.929  14.219  -4.564  1.00 20.00     0.034 A 
HETATM    6  C2  UNL     1     -32.941  15.103  -4.128  1.00 20.00     0.002 A 
HETATM    7  C1  UNL     1     -33.226  16.024  -3.119  1.00 20.00     0.000 A 
HETATM    8  C3  UNL     1     -34.497  16.059  -2.545  1.00 20.00     0.002 A 
HETATM    9  C5  UNL     1     -35.484  15.175  -2.981  1.00 20.00     0.034 A 
ENDBRANCH   2   4
TORSDOF 1
ENDMDL
MODEL 4
REMARK VINA RESULT:      -4.8     11.224     11.724
REMARK  1 active torsions:
REMARK  status: ('A' for Active; 'I' for Inactive)
REMARK    1  A    between atoms: C6_6  and  N8_8 
ROOT
HETATM    1  N7  UNL     1     -38.382  14.329  -4.409  1.00 20.00     0.068 N 
HETATM    2  N8  UNL     1     -36.192  13.367  -4.427  1.00 20.00    -0.073 NA
HETATM    3  N9  UNL     1     -37.335  13.874  -4.416  1.00 20.00    -0.162 NA
ENDROOT
BRANCH   2   4
HETATM    4  C6  UNL     1     -35.201  14.255  -3.992  1.00 20.00     0.093 A 
HETATM    5  C4  UNL     1     -35.485  15.175  -2.983  1.00 20.00     0.034 A 
HETATM    6  C2  UNL     1     -34.498  16.060  -2.548  1.00 20.00     0.002 A 
HETATM    7  C1  UNL     1     -33.227  16.022  -3.123  1.00 20.00     0.000 A 
HETATM    8  C3  UNL     1     -32.944  15.102  -4.132  1.00 20.00     0.002 A 
HETATM    9  C5  UNL     1     -33.932  14.217  -4.566  1.00 20.00     0.034 A 
ENDBRANCH   2   4
TORSDOF 1
ENDMDL
MODEL 5
REMARK VINA RESULT:      -4.7     11.272     12.028
REMARK  1 active torsions:
REMARK  status: ('A' for Active; 'I' for Inactive)
REMARK    1  A    between atoms: C6_6  and  N8_8 
ROOT
HETATM    1  N7  UNL     1     -33.972  15.076  -6.994  1.00 20.00     0.068 N 
HETATM    2  N8  UNL     1     -33.932  14.136  -4.795  1.00 20.00    -0.073 NA
HETATM    3  N9  UNL     1     -33.953  14.631  -5.943  1.00 20.00    -0.162 NA
ENDROOT
BRANCH   2   4
HETATM    4  C6  UNL     1     -34.007  15.102  -3.785  1.00 20.00     0.093 A 
HETATM    5  C4  UNL     1     -35.136  15.169  -2.967  1.00 20.00     0.034 A 
HETATM    6  C2  UNL     1     -35.211  16.132  -1.961  1.00 20.00     0.002 A 
HETATM    7  C1  UNL     1     -34.158  17.028  -1.773  1.00 20.00     0.000 A 
HETATM    8  C3  UNL     1     -33.031  16.961  -2.592  1.00 20.00     0.002 A 
HETATM    9  C5  UNL     1     -32.955  15.998  -3.598  1.00 20.00     0.034 A 
ENDBRANCH   2   4
TORSDOF 1
ENDMDL
MODEL 6
REMARK VINA RESULT:      -4.7     11.319     12.033
REMARK  1 active torsions:
REMARK  status: ('A' for Active; 'I' for Inactive)
REMARK    1  A    between atoms: C6_6  and  N8_8 
ROOT
HETATM    1  N7  UNL     1     -34.018  15.111  -7.044  1.00 20.00     0.068 N 
HETATM    2  N8  UNL     1     -33.988  14.141  -4.858  1.00 20.00    -0.073 NA
HETATM    3  N9  UNL     1     -34.004  14.652  -5.999  1.00 20.00    -0.162 NA
ENDROOT
BRANCH   2   4
HETATM    4  C6  UNL     1     -34.040  15.095  -3.835  1.00 20.00     0.093 A 
HETATM    5  C4  UNL     1     -32.965  15.960  -3.634  1.00 20.00     0.034 A 
HETATM    6  C2  UNL     1     -33.017  16.911  -2.614  1.00 20.00     0.002 A 
HETATM    7  C1  UNL     1     -34.145  16.997  -1.798  1.00 20.00     0.000 A 
HETATM    8  C3  UNL     1     -35.220  16.130  -2.000  1.00 20.00     0.002 A 
HETATM    9  C5  UNL     1     -35.167  15.179  -3.019  1.00 20.00     0.034 A 
ENDBRANCH   2   4
TORSDOF 1
ENDMDL
MODEL 7
REMARK VINA RESULT:      -4.4     15.420     16.347
REMARK  1 active torsions:
REMARK  status: ('A' for Active; 'I' for Inactive)
REMARK    1  A    between atoms: C6_6  and  N8_8 
ROOT
HETATM    1  N7  UNL     1     -24.446  19.157   6.870  1.00 20.00     0.068 N 
HETATM    2  N8  UNL     1     -22.672  17.862   7.817  1.00 20.00    -0.073 NA
HETATM    3  N9  UNL     1     -23.601  18.539   7.326  1.00 20.00    -0.162 NA
ENDROOT
BRANCH   2   4
HETATM    4  C6  UNL     1     -22.873  17.565   9.169  1.00 20.00     0.093 A 
HETATM    5  C4  UNL     1     -23.959  16.779   9.556  1.00 20.00     0.034 A 
HETATM    6  C2  UNL     1     -24.160  16.483  10.904  1.00 20.00     0.002 A 
HETATM    7  C1  UNL     1     -23.274  16.971  11.865  1.00 20.00     0.000 A 
HETATM    8  C3  UNL     1     -22.189  17.757  11.477  1.00 20.00     0.002 A 
HETATM    9  C5  UNL     1     -21.988  18.053  10.129  1.00 20.00     0.034 A 
ENDBRANCH   2   4
TORSDOF 1
ENDMDL
MODEL 8
REMARK VINA RESULT:      -4.4     15.442     16.312
REMARK  1 active torsions:
REMARK  status: ('A' for Active; 'I' for Inactive)
REMARK    1  A    between atoms: C6_6  and  N8_8 
ROOT
HETATM    1  N7  UNL     1     -24.403  19.213   6.888  1.00 20.00     0.068 N 
HETATM    2  N8  UNL     1     -22.676  17.839   7.809  1.00 20.00    -0.073 NA
HETATM    3  N9  UNL     1     -23.581  18.557   7.332  1.00 20.00    -0.162 NA
ENDROOT
BRANCH   2   4
HETATM    4  C6  UNL     1     -22.867  17.554   9.166  1.00 20.00     0.093 A 
HETATM    5  C4  UNL     1     -21.994  18.080  10.119  1.00 20.00     0.034 A 
HETATM    6  C2  UNL     1     -22.186  17.797  11.471  1.00 20.00     0.002 A 
HETATM    7  C1  UNL     1     -23.250  16.988  11.870  1.00 20.00     0.000 A 
HETATM    8  C3  UNL     1     -24.122  16.462  10.917  1.00 20.00     0.002 A 
HETATM    9  C5  UNL     1     -23.931  16.746   9.564  1.00 20.00     0.034 A 
ENDBRANCH   2   4
TORSDOF 1
ENDMDL
MODEL 9
REMARK VINA RESULT:      -4.3     15.566     15.898
REMARK  1 active torsions:
REMARK  status: ('A' for Active; 'I' for Inactive)
REMARK    1  A    between atoms: C6_6  and  N8_8 
ROOT
HETATM    1  N7  UNL     1     -26.188  18.841   5.949  1.00 20.00     0.068 N 
HETATM    2  N8  UNL     1     -23.919  19.015   6.685  1.00 20.00    -0.073 NA
HETATM    3  N9  UNL     1     -25.106  18.922   6.304  1.00 20.00    -0.162 NA
ENDROOT
BRANCH   2   4
HETATM    4  C6  UNL     1     -23.714  18.474   7.959  1.00 20.00     0.093 A 
HETATM    5  C4  UNL     1     -24.640  18.713   8.975  1.00 20.00     0.034 A 
HETATM    6  C2  UNL     1     -24.436  18.173  10.245  1.00 20.00     0.002 A 
HETATM    7  C1  UNL     1     -23.307  17.395  10.499  1.00 20.00     0.000 A 
HETATM    8  C3  UNL     1     -22.381  17.157   9.482  1.00 20.00     0.002 A 
HETATM    9  C5  UNL     1     -22.585  17.697   8.212  1.00 20.00     0.034 A 
ENDBRANCH   2   4
TORSDOF 1
ENDMDL
