MODEL 1
REMARK VINA RESULT:      -5.6      0.000      0.000
REMARK  2 active torsions:
REMARK  status: ('A' for Active; 'I' for Inactive)
REMARK    1  A    between atoms: C6_6  and  C10_10 
REMARK    2  A    between atoms: C9_9  and  C10_10 
ROOT
HETATM    1  C1  UNL     1     -34.979   4.864   5.550  1.00 20.00     0.000 A 
HETATM    2  C2  UNL     1     -34.485   6.047   6.097  1.00 20.00     0.001 A 
HETATM    3  C3  UNL     1     -34.733   4.558   4.211  1.00 20.00     0.001 A 
HETATM    4  C4  UNL     1     -33.745   6.926   5.306  1.00 20.00     0.007 A 
HETATM    5  C5  UNL     1     -33.993   5.435   3.420  1.00 20.00     0.007 A 
HETATM    6  C6  UNL     1     -33.499   6.621   3.967  1.00 20.00    -0.054 A 
ENDROOT
BRANCH   6   7
HETATM    7  C10 UNL     1     -32.693   7.576   3.104  1.00 20.00     0.014 C 
HETATM    8  C8  UNL     1     -31.246   7.662   3.604  1.00 20.00     0.015 C 
BRANCH   7   9
HETATM    9  C9  UNL     1     -32.720   7.210   1.606  1.00 20.00     0.004 C 
HETATM   10  C7  UNL     1     -32.801   8.428   0.694  1.00 20.00     0.006 C 
ENDBRANCH   7   9
ENDBRANCH   6   7
TORSDOF 2
ENDMDL
MODEL 2
REMARK VINA RESULT:      -5.6      0.051      1.529
REMARK  2 active torsions:
REMARK  status: ('A' for Active; 'I' for Inactive)
REMARK    1  A    between atoms: C6_6  and  C10_10 
REMARK    2  A    between atoms: C9_9  and  C10_10 
ROOT
HETATM    1  C1  UNL     1     -34.982   4.927   5.536  1.00 20.00     0.000 A 
HETATM    2  C2  UNL     1     -34.740   4.615   4.200  1.00 20.00     0.001 A 
HETATM    3  C3  UNL     1     -34.474   6.107   6.081  1.00 20.00     0.001 A 
HETATM    4  C4  UNL     1     -33.988   5.481   3.406  1.00 20.00     0.007 A 
HETATM    5  C5  UNL     1     -33.722   6.974   5.287  1.00 20.00     0.007 A 
HETATM    6  C6  UNL     1     -33.479   6.661   3.949  1.00 20.00    -0.054 A 
ENDROOT
BRANCH   6   7
HETATM    7  C10 UNL     1     -32.661   7.606   3.086  1.00 20.00     0.014 C 
HETATM    8  C8  UNL     1     -31.215   7.679   3.590  1.00 20.00     0.015 C 
BRANCH   7   9
HETATM    9  C9  UNL     1     -32.688   7.236   1.589  1.00 20.00     0.004 C 
HETATM   10  C7  UNL     1     -32.790   8.450   0.674  1.00 20.00     0.006 C 
ENDBRANCH   7   9
ENDBRANCH   6   7
TORSDOF 2
ENDMDL
MODEL 3
REMARK VINA RESULT:      -4.9     10.874     11.835
REMARK  2 active torsions:
REMARK  status: ('A' for Active; 'I' for Inactive)
REMARK    1  A    between atoms: C6_6  and  C10_10 
REMARK    2  A    between atoms: C9_9  and  C10_10 
ROOT
HETATM    1  C1  UNL     1     -34.028  17.767  -0.741  1.00 20.00     0.000 A 
HETATM    2  C2  UNL     1     -35.133  16.935  -0.916  1.00 20.00     0.001 A 
HETATM    3  C3  UNL     1     -32.965  17.715  -1.643  1.00 20.00     0.001 A 
HETATM    4  C4  UNL     1     -35.175  16.048  -1.992  1.00 20.00     0.007 A 
HETATM    5  C5  UNL     1     -33.007  16.829  -2.720  1.00 20.00     0.007 A 
HETATM    6  C6  UNL     1     -34.112  15.995  -2.894  1.00 20.00    -0.054 A 
ENDROOT
BRANCH   6   7
HETATM    7  C10 UNL     1     -34.156  15.031  -4.067  1.00 20.00     0.014 C 
HETATM    8  C8  UNL     1     -32.743  14.560  -4.431  1.00 20.00     0.015 C 
BRANCH   7   9
HETATM    9  C9  UNL     1     -35.077  13.819  -3.820  1.00 20.00     0.004 C 
HETATM   10  C7  UNL     1     -36.272  13.773  -4.764  1.00 20.00     0.006 C 
ENDBRANCH   7   9
ENDBRANCH   6   7
TORSDOF 2
ENDMDL
MODEL 4
REMARK VINA RESULT:      -4.8     11.249     12.072
REMARK  2 active torsions:
REMARK  status: ('A' for Active; 'I' for Inactive)
REMARK    1  A    between atoms: C6_6  and  C10_10 
REMARK    2  A    between atoms: C9_9  and  C10_10 
ROOT
HETATM    1  C1  UNL     1     -33.914  17.660  -1.271  1.00 20.00     0.000 A 
HETATM    2  C2  UNL     1     -32.891  17.419  -2.188  1.00 20.00     0.001 A 
HETATM    3  C3  UNL     1     -35.054  16.857  -1.270  1.00 20.00     0.001 A 
HETATM    4  C4  UNL     1     -33.009  16.375  -3.105  1.00 20.00     0.007 A 
HETATM    5  C5  UNL     1     -35.172  15.812  -2.187  1.00 20.00     0.007 A 
HETATM    6  C6  UNL     1     -34.149  15.572  -3.106  1.00 20.00    -0.054 A 
ENDROOT
BRANCH   6   7
HETATM    7  C10 UNL     1     -34.279  14.435  -4.104  1.00 20.00     0.014 C 
HETATM    8  C8  UNL     1     -35.739  13.979  -4.215  1.00 20.00     0.015 C 
BRANCH   7   9
HETATM    9  C9  UNL     1     -33.721  14.785  -5.498  1.00 20.00     0.004 C 
HETATM   10  C7  UNL     1     -34.808  15.133  -6.508  1.00 20.00     0.006 C 
ENDBRANCH   7   9
ENDBRANCH   6   7
TORSDOF 2
ENDMDL
MODEL 5
REMARK VINA RESULT:      -4.8     11.256     12.076
REMARK  2 active torsions:
REMARK  status: ('A' for Active; 'I' for Inactive)
REMARK    1  A    between atoms: C6_6  and  C10_10 
REMARK    2  A    between atoms: C9_9  and  C10_10 
ROOT
HETATM    1  C1  UNL     1     -33.909  17.679  -1.271  1.00 20.00     0.000 A 
HETATM    2  C2  UNL     1     -35.049  16.878  -1.271  1.00 20.00     0.001 A 
HETATM    3  C3  UNL     1     -32.884  17.436  -2.185  1.00 20.00     0.001 A 
HETATM    4  C4  UNL     1     -35.166  15.831  -2.186  1.00 20.00     0.007 A 
HETATM    5  C5  UNL     1     -33.000  16.389  -3.100  1.00 20.00     0.007 A 
HETATM    6  C6  UNL     1     -34.141  15.586  -3.101  1.00 20.00    -0.054 A 
ENDROOT
BRANCH   6   7
HETATM    7  C10 UNL     1     -34.267  14.447  -4.097  1.00 20.00     0.014 C 
HETATM    8  C8  UNL     1     -35.727  13.993  -4.214  1.00 20.00     0.015 C 
BRANCH   7   9
HETATM    9  C9  UNL     1     -33.701  14.794  -5.489  1.00 20.00     0.004 C 
HETATM   10  C7  UNL     1     -34.781  15.164  -6.498  1.00 20.00     0.006 C 
ENDBRANCH   7   9
ENDBRANCH   6   7
TORSDOF 2
ENDMDL
MODEL 6
REMARK VINA RESULT:      -4.7     11.312     12.208
REMARK  2 active torsions:
REMARK  status: ('A' for Active; 'I' for Inactive)
REMARK    1  A    between atoms: C6_6  and  C10_10 
REMARK    2  A    between atoms: C9_9  and  C10_10 
ROOT
HETATM    1  C1  UNL     1     -34.505  14.970  -3.574  1.00 20.00     0.000 A 
HETATM    2  C2  UNL     1     -33.246  15.536  -3.774  1.00 20.00     0.001 A 
HETATM    3  C3  UNL     1     -35.341  15.463  -2.572  1.00 20.00     0.001 A 
HETATM    4  C4  UNL     1     -32.822  16.595  -2.971  1.00 20.00     0.007 A 
HETATM    5  C5  UNL     1     -34.917  16.522  -1.769  1.00 20.00     0.007 A 
HETATM    6  C6  UNL     1     -33.657  17.089  -1.968  1.00 20.00    -0.054 A 
ENDROOT
BRANCH   6   7
HETATM    7  C10 UNL     1     -33.197  18.242  -1.094  1.00 20.00     0.014 C 
HETATM    8  C8  UNL     1     -33.847  18.158   0.293  1.00 20.00     0.015 C 
BRANCH   7   9
HETATM    9  C9  UNL     1     -31.663  18.328  -0.962  1.00 20.00     0.004 C 
HETATM   10  C7  UNL     1     -31.189  18.360   0.486  1.00 20.00     0.006 C 
ENDBRANCH   7   9
ENDBRANCH   6   7
TORSDOF 2
ENDMDL
MODEL 7
REMARK VINA RESULT:      -4.7     11.311     12.184
REMARK  2 active torsions:
REMARK  status: ('A' for Active; 'I' for Inactive)
REMARK    1  A    between atoms: C6_6  and  C10_10 
REMARK    2  A    between atoms: C9_9  and  C10_10 
ROOT
HETATM    1  C1  UNL     1     -34.501  14.970  -3.571  1.00 20.00     0.000 A 
HETATM    2  C2  UNL     1     -35.341  15.462  -2.574  1.00 20.00     0.001 A 
HETATM    3  C3  UNL     1     -33.242  15.538  -3.767  1.00 20.00     0.001 A 
HETATM    4  C4  UNL     1     -34.924  16.524  -1.772  1.00 20.00     0.007 A 
HETATM    5  C5  UNL     1     -32.824  16.600  -2.965  1.00 20.00     0.007 A 
HETATM    6  C6  UNL     1     -33.666  17.094  -1.967  1.00 20.00    -0.054 A 
ENDROOT
BRANCH   6   7
HETATM    7  C10 UNL     1     -33.210  18.250  -1.094  1.00 20.00     0.014 C 
HETATM    8  C8  UNL     1     -33.852  18.161   0.296  1.00 20.00     0.015 C 
BRANCH   7   9
HETATM    9  C9  UNL     1     -31.676  18.347  -0.969  1.00 20.00     0.004 C 
HETATM   10  C7  UNL     1     -31.192  18.346   0.476  1.00 20.00     0.006 C 
ENDBRANCH   7   9
ENDBRANCH   6   7
TORSDOF 2
ENDMDL
MODEL 8
REMARK VINA RESULT:      -4.6     15.081     15.959
REMARK  2 active torsions:
REMARK  status: ('A' for Active; 'I' for Inactive)
REMARK    1  A    between atoms: C6_6  and  C10_10 
REMARK    2  A    between atoms: C9_9  and  C10_10 
ROOT
HETATM    1  C1  UNL     1     -25.575  16.557  12.328  1.00 20.00     0.000 A 
HETATM    2  C2  UNL     1     -24.670  15.902  11.494  1.00 20.00     0.001 A 
HETATM    3  C3  UNL     1     -25.792  17.927  12.185  1.00 20.00     0.001 A 
HETATM    4  C4  UNL     1     -23.979  16.619  10.516  1.00 20.00     0.007 A 
HETATM    5  C5  UNL     1     -25.102  18.644  11.207  1.00 20.00     0.007 A 
HETATM    6  C6  UNL     1     -24.195  17.989  10.372  1.00 20.00    -0.054 A 
ENDROOT
BRANCH   6   7
HETATM    7  C10 UNL     1     -23.444  18.770   9.308  1.00 20.00     0.014 C 
HETATM    8  C8  UNL     1     -21.954  18.409   9.327  1.00 20.00     0.015 C 
BRANCH   7   9
HETATM    9  C9  UNL     1     -24.023  18.576   7.892  1.00 20.00     0.004 C 
HETATM   10  C7  UNL     1     -25.488  18.985   7.784  1.00 20.00     0.006 C 
ENDBRANCH   7   9
ENDBRANCH   6   7
TORSDOF 2
ENDMDL
MODEL 9
REMARK VINA RESULT:      -4.3     11.026     11.907
REMARK  2 active torsions:
REMARK  status: ('A' for Active; 'I' for Inactive)
REMARK    1  A    between atoms: C6_6  and  C10_10 
REMARK    2  A    between atoms: C9_9  and  C10_10 
ROOT
HETATM    1  C1  UNL     1     -34.096  18.130   0.682  1.00 20.00     0.000 A 
HETATM    2  C2  UNL     1     -35.214  17.367   0.348  1.00 20.00     0.001 A 
HETATM    3  C3  UNL     1     -33.064  18.297  -0.242  1.00 20.00     0.001 A 
HETATM    4  C4  UNL     1     -35.301  16.769  -0.910  1.00 20.00     0.007 A 
HETATM    5  C5  UNL     1     -33.150  17.700  -1.499  1.00 20.00     0.007 A 
HETATM    6  C6  UNL     1     -34.268  16.935  -1.833  1.00 20.00    -0.054 A 
ENDROOT
BRANCH   6   7
HETATM    7  C10 UNL     1     -34.361  16.285  -3.203  1.00 20.00     0.014 C 
HETATM    8  C8  UNL     1     -33.005  15.696  -3.612  1.00 20.00     0.015 C 
BRANCH   7   9
HETATM    9  C9  UNL     1     -35.460  15.207  -3.289  1.00 20.00     0.004 C 
HETATM   10  C7  UNL     1     -34.991  13.927  -3.970  1.00 20.00     0.006 C 
ENDBRANCH   7   9
ENDBRANCH   6   7
TORSDOF 2
ENDMDL
