MODEL 1
REMARK VINA RESULT:      -6.2      0.000      0.000
REMARK  1 active torsions:
REMARK  status: ('A' for Active; 'I' for Inactive)
REMARK    1  A    between atoms: C6_6  and  C8_8 
ROOT
HETATM    1  C1  UNL     1     -34.935   5.161   5.526  1.00 20.00     0.000 A 
HETATM    2  C2  UNL     1     -34.276   6.297   5.995  1.00 20.00     0.001 A 
HETATM    3  C3  UNL     1     -34.736   4.729   4.215  1.00 20.00     0.001 A 
HETATM    4  C4  UNL     1     -33.419   7.004   5.151  1.00 20.00     0.011 A 
HETATM    5  C5  UNL     1     -33.878   5.436   3.371  1.00 20.00     0.011 A 
HETATM    6  C6  UNL     1     -33.220   6.573   3.840  1.00 20.00    -0.037 A 
ENDROOT
BRANCH   6   7
HETATM    7  C8  UNL     1     -32.326   7.309   2.959  1.00 20.00     0.001 C 
HETATM    8  C7  UNL     1     -32.583   7.548   1.680  1.00 20.00     0.012 C 
ENDBRANCH   6   7
TORSDOF 1
ENDMDL
MODEL 2
REMARK VINA RESULT:      -6.1      0.007      1.708
REMARK  1 active torsions:
REMARK  status: ('A' for Active; 'I' for Inactive)
REMARK    1  A    between atoms: C6_6  and  C8_8 
ROOT
HETATM    1  C1  UNL     1     -34.931   5.165   5.527  1.00 20.00     0.000 A 
HETATM    2  C2  UNL     1     -34.731   4.732   4.216  1.00 20.00     0.001 A 
HETATM    3  C3  UNL     1     -34.276   6.304   5.993  1.00 20.00     0.001 A 
HETATM    4  C4  UNL     1     -33.873   5.437   3.372  1.00 20.00     0.011 A 
HETATM    5  C5  UNL     1     -33.418   7.010   5.149  1.00 20.00     0.011 A 
HETATM    6  C6  UNL     1     -33.217   6.576   3.839  1.00 20.00    -0.037 A 
ENDROOT
BRANCH   6   7
HETATM    7  C8  UNL     1     -32.322   7.313   2.958  1.00 20.00     0.001 C 
HETATM    8  C7  UNL     1     -32.585   7.562   1.683  1.00 20.00     0.012 C 
ENDBRANCH   6   7
TORSDOF 1
ENDMDL
MODEL 3
REMARK VINA RESULT:      -5.1      1.123      2.264
REMARK  1 active torsions:
REMARK  status: ('A' for Active; 'I' for Inactive)
REMARK    1  A    between atoms: C6_6  and  C8_8 
ROOT
HETATM    1  C1  UNL     1     -34.537   6.222   6.346  1.00 20.00     0.000 A 
HETATM    2  C2  UNL     1     -35.007   5.070   5.714  1.00 20.00     0.001 A 
HETATM    3  C3  UNL     1     -33.697   7.099   5.662  1.00 20.00     0.001 A 
HETATM    4  C4  UNL     1     -34.635   4.795   4.399  1.00 20.00     0.011 A 
HETATM    5  C5  UNL     1     -33.325   6.825   4.345  1.00 20.00     0.011 A 
HETATM    6  C6  UNL     1     -33.794   5.673   3.714  1.00 20.00    -0.037 A 
ENDROOT
BRANCH   6   7
HETATM    7  C8  UNL     1     -33.406   5.387   2.341  1.00 20.00     0.001 C 
HETATM    8  C7  UNL     1     -33.068   4.180   1.908  1.00 20.00     0.012 C 
ENDBRANCH   6   7
TORSDOF 1
ENDMDL
MODEL 4
REMARK VINA RESULT:      -4.7      0.896      3.389
REMARK  1 active torsions:
REMARK  status: ('A' for Active; 'I' for Inactive)
REMARK    1  A    between atoms: C6_6  and  C8_8 
ROOT
HETATM    1  C1  UNL     1     -32.274   6.857   2.285  1.00 20.00     0.000 A 
HETATM    2  C2  UNL     1     -32.567   7.494   3.491  1.00 20.00     0.001 A 
HETATM    3  C3  UNL     1     -32.897   5.651   1.964  1.00 20.00     0.001 A 
HETATM    4  C4  UNL     1     -33.480   6.924   4.377  1.00 20.00     0.011 A 
HETATM    5  C5  UNL     1     -33.812   5.081   2.851  1.00 20.00     0.011 A 
HETATM    6  C6  UNL     1     -34.103   5.718   4.056  1.00 20.00    -0.037 A 
ENDROOT
BRANCH   6   7
HETATM    7  C8  UNL     1     -35.056   5.124   4.981  1.00 20.00     0.001 C 
HETATM    8  C7  UNL     1     -34.892   5.102   6.297  1.00 20.00     0.012 C 
ENDBRANCH   6   7
TORSDOF 1
ENDMDL
MODEL 5
REMARK VINA RESULT:      -4.7      0.897      3.793
REMARK  1 active torsions:
REMARK  status: ('A' for Active; 'I' for Inactive)
REMARK    1  A    between atoms: C6_6  and  C8_8 
ROOT
HETATM    1  C1  UNL     1     -32.299   6.832   2.261  1.00 20.00     0.000 A 
HETATM    2  C2  UNL     1     -32.902   5.612   1.954  1.00 20.00     0.001 A 
HETATM    3  C3  UNL     1     -32.598   7.475   3.462  1.00 20.00     0.001 A 
HETATM    4  C4  UNL     1     -33.806   5.037   2.846  1.00 20.00     0.011 A 
HETATM    5  C5  UNL     1     -33.503   6.899   4.355  1.00 20.00     0.011 A 
HETATM    6  C6  UNL     1     -34.106   5.680   4.047  1.00 20.00    -0.037 A 
ENDROOT
BRANCH   6   7
HETATM    7  C8  UNL     1     -35.049   5.080   4.978  1.00 20.00     0.001 C 
HETATM    8  C7  UNL     1     -34.901   5.106   6.296  1.00 20.00     0.012 C 
ENDBRANCH   6   7
TORSDOF 1
ENDMDL
MODEL 6
REMARK VINA RESULT:      -4.3     11.484     12.248
REMARK  1 active torsions:
REMARK  status: ('A' for Active; 'I' for Inactive)
REMARK    1  A    between atoms: C6_6  and  C8_8 
ROOT
HETATM    1  C1  UNL     1     -33.666  17.737  -1.549  1.00 20.00     0.000 A 
HETATM    2  C2  UNL     1     -34.848  17.039  -1.300  1.00 20.00     0.001 A 
HETATM    3  C3  UNL     1     -32.802  17.309  -2.557  1.00 20.00     0.001 A 
HETATM    4  C4  UNL     1     -35.165  15.912  -2.057  1.00 20.00     0.011 A 
HETATM    5  C5  UNL     1     -33.120  16.182  -3.316  1.00 20.00     0.011 A 
HETATM    6  C6  UNL     1     -34.301  15.484  -3.066  1.00 20.00    -0.037 A 
ENDROOT
BRANCH   6   7
HETATM    7  C8  UNL     1     -34.632  14.309  -3.857  1.00 20.00     0.001 C 
HETATM    8  C7  UNL     1     -35.842  14.065  -4.344  1.00 20.00     0.012 C 
ENDBRANCH   6   7
TORSDOF 1
ENDMDL
MODEL 7
REMARK VINA RESULT:      -4.3     11.489     12.263
REMARK  1 active torsions:
REMARK  status: ('A' for Active; 'I' for Inactive)
REMARK    1  A    between atoms: C6_6  and  C8_8 
ROOT
HETATM    1  C1  UNL     1     -33.662  17.733  -1.536  1.00 20.00     0.000 A 
HETATM    2  C2  UNL     1     -32.798  17.302  -2.543  1.00 20.00     0.001 A 
HETATM    3  C3  UNL     1     -34.848  17.040  -1.291  1.00 20.00     0.001 A 
HETATM    4  C4  UNL     1     -33.121  16.180  -3.306  1.00 20.00     0.011 A 
HETATM    5  C5  UNL     1     -35.170  15.917  -2.053  1.00 20.00     0.011 A 
HETATM    6  C6  UNL     1     -34.306  15.487  -3.060  1.00 20.00    -0.037 A 
ENDROOT
BRANCH   6   7
HETATM    7  C8  UNL     1     -34.642  14.316  -3.855  1.00 20.00     0.001 C 
HETATM    8  C7  UNL     1     -35.854  14.077  -4.338  1.00 20.00     0.012 C 
ENDBRANCH   6   7
TORSDOF 1
ENDMDL
MODEL 8
REMARK VINA RESULT:      -4.3     11.752     12.493
REMARK  1 active torsions:
REMARK  status: ('A' for Active; 'I' for Inactive)
REMARK    1  A    between atoms: C6_6  and  C8_8 
ROOT
HETATM    1  C1  UNL     1     -35.108  15.826  -2.304  1.00 20.00     0.000 A 
HETATM    2  C2  UNL     1     -35.244  16.706  -1.230  1.00 20.00     0.001 A 
HETATM    3  C3  UNL     1     -33.940  15.832  -3.067  1.00 20.00     0.001 A 
HETATM    4  C4  UNL     1     -34.214  17.594  -0.922  1.00 20.00     0.011 A 
HETATM    5  C5  UNL     1     -32.909  16.719  -2.757  1.00 20.00     0.011 A 
HETATM    6  C6  UNL     1     -33.047  17.600  -1.684  1.00 20.00    -0.037 A 
ENDROOT
BRANCH   6   7
HETATM    7  C8  UNL     1     -31.971  18.525  -1.362  1.00 20.00     0.001 C 
HETATM    8  C7  UNL     1     -31.122  18.348  -0.359  1.00 20.00     0.012 C 
ENDBRANCH   6   7
TORSDOF 1
ENDMDL
MODEL 9
REMARK VINA RESULT:      -4.2     11.540     12.261
REMARK  1 active torsions:
REMARK  status: ('A' for Active; 'I' for Inactive)
REMARK    1  A    between atoms: C6_6  and  C8_8 
ROOT
HETATM    1  C1  UNL     1     -34.522  14.441  -4.033  1.00 20.00     0.000 A 
HETATM    2  C2  UNL     1     -33.259  15.023  -4.143  1.00 20.00     0.001 A 
HETATM    3  C3  UNL     1     -35.432  14.921  -3.092  1.00 20.00     0.001 A 
HETATM    4  C4  UNL     1     -32.906  16.085  -3.310  1.00 20.00     0.011 A 
HETATM    5  C5  UNL     1     -35.079  15.984  -2.259  1.00 20.00     0.011 A 
HETATM    6  C6  UNL     1     -33.816  16.565  -2.369  1.00 20.00    -0.037 A 
ENDROOT
BRANCH   6   7
HETATM    7  C8  UNL     1     -33.448  17.673  -1.501  1.00 20.00     0.001 C 
HETATM    8  C7  UNL     1     -32.208  18.121  -1.363  1.00 20.00     0.012 C 
ENDBRANCH   6   7
TORSDOF 1
ENDMDL
