MODEL 1
REMARK VINA RESULT:      -5.3      0.000      0.000
REMARK  0 active torsions:
REMARK  status: ('A' for Active; 'I' for Inactive)
ROOT
HETATM    1  C1  UNL     1     -34.969   5.188   5.951  1.00 20.00     0.001 A 
HETATM    2  C2  UNL     1     -34.398   6.396   6.323  1.00 20.00     0.001 A 
HETATM    3  C3  UNL     1     -34.750   4.668   4.671  1.00 20.00     0.013 A 
HETATM    4  C4  UNL     1     -33.599   7.112   5.428  1.00 20.00     0.019 A 
HETATM    5  C5  UNL     1     -33.580   5.044   2.392  1.00 20.00     0.020 A 
HETATM    6  C6  UNL     1     -32.772   5.993   1.813  1.00 20.00     0.051 A 
HETATM    7  C7  UNL     1     -33.945   5.369   3.742  1.00 20.00    -0.019 A 
HETATM    8  C8  UNL     1     -33.381   6.585   4.140  1.00 20.00     0.015 A 
HETATM    9  S9  UNL     1     -32.438   7.283   2.875  1.00 20.00    -0.101 SA
ENDROOT
TORSDOF 0
ENDMDL
MODEL 2
REMARK VINA RESULT:      -5.2      0.978      2.035
REMARK  0 active torsions:
REMARK  status: ('A' for Active; 'I' for Inactive)
ROOT
HETATM    1  C1  UNL     1     -34.570   6.139   6.277  1.00 20.00     0.001 A 
HETATM    2  C2  UNL     1     -35.042   4.975   5.688  1.00 20.00     0.001 A 
HETATM    3  C3  UNL     1     -33.726   6.998   5.566  1.00 20.00     0.013 A 
HETATM    4  C4  UNL     1     -34.683   4.643   4.379  1.00 20.00     0.019 A 
HETATM    5  C5  UNL     1     -32.501   7.403   3.321  1.00 20.00     0.020 A 
HETATM    6  C6  UNL     1     -32.372   6.767   2.109  1.00 20.00     0.051 A 
HETATM    7  C7  UNL     1     -33.344   6.689   4.239  1.00 20.00    -0.019 A 
HETATM    8  C8  UNL     1     -33.832   5.511   3.667  1.00 20.00     0.015 A 
HETATM    9  S9  UNL     1     -33.257   5.312   2.053  1.00 20.00    -0.101 SA
ENDROOT
TORSDOF 0
ENDMDL
MODEL 3
REMARK VINA RESULT:      -4.8      1.329      3.268
REMARK  0 active torsions:
REMARK  status: ('A' for Active; 'I' for Inactive)
ROOT
HETATM    1  C1  UNL     1     -32.877   5.859   1.786  1.00 20.00     0.001 A 
HETATM    2  C2  UNL     1     -32.375   7.038   2.320  1.00 20.00     0.001 A 
HETATM    3  C3  UNL     1     -33.703   5.033   2.554  1.00 20.00     0.013 A 
HETATM    4  C4  UNL     1     -32.685   7.415   3.629  1.00 20.00     0.019 A 
HETATM    5  C5  UNL     1     -34.852   4.713   4.853  1.00 20.00     0.020 A 
HETATM    6  C6  UNL     1     -34.932   5.389   6.047  1.00 20.00     0.051 A 
HETATM    7  C7  UNL     1     -34.036   5.388   3.883  1.00 20.00    -0.019 A 
HETATM    8  C8  UNL     1     -33.518   6.579   4.399  1.00 20.00     0.015 A 
HETATM    9  S9  UNL     1     -34.033   6.837   6.025  1.00 20.00    -0.101 SA
ENDROOT
TORSDOF 0
ENDMDL
MODEL 4
REMARK VINA RESULT:      -4.6      1.659      3.797
REMARK  0 active torsions:
REMARK  status: ('A' for Active; 'I' for Inactive)
ROOT
HETATM    1  C1  UNL     1     -31.964   7.645   2.957  1.00 20.00     0.001 A 
HETATM    2  C2  UNL     1     -32.426   6.669   2.086  1.00 20.00     0.001 A 
HETATM    3  C3  UNL     1     -32.438   7.700   4.271  1.00 20.00     0.013 A 
HETATM    4  C4  UNL     1     -33.369   5.728   2.506  1.00 20.00     0.019 A 
HETATM    5  C5  UNL     1     -34.022   6.616   6.010  1.00 20.00     0.020 A 
HETATM    6  C6  UNL     1     -34.908   5.566   6.057  1.00 20.00     0.051 A 
HETATM    7  C7  UNL     1     -33.395   6.761   4.727  1.00 20.00    -0.019 A 
HETATM    8  C8  UNL     1     -33.845   5.787   3.831  1.00 20.00     0.015 A 
HETATM    9  S9  UNL     1     -35.001   4.741   4.569  1.00 20.00    -0.101 SA
ENDROOT
TORSDOF 0
ENDMDL
MODEL 5
REMARK VINA RESULT:      -4.4     15.834     16.218
REMARK  0 active torsions:
REMARK  status: ('A' for Active; 'I' for Inactive)
ROOT
HETATM    1  C1  UNL     1     -25.407  16.551  12.270  1.00 20.00     0.001 A 
HETATM    2  C2  UNL     1     -25.991  17.802  12.125  1.00 20.00     0.001 A 
HETATM    3  C3  UNL     1     -24.403  16.135  11.391  1.00 20.00     0.013 A 
HETATM    4  C4  UNL     1     -25.588  18.661  11.100  1.00 20.00     0.019 A 
HETATM    5  C5  UNL     1     -22.976  16.781   9.329  1.00 20.00     0.020 A 
HETATM    6  C6  UNL     1     -22.850  17.856   8.481  1.00 20.00     0.051 A 
HETATM    7  C7  UNL     1     -23.973  16.983  10.342  1.00 20.00    -0.019 A 
HETATM    8  C8  UNL     1     -24.577  18.237  10.216  1.00 20.00     0.015 A 
HETATM    9  S9  UNL     1     -23.920  19.119   8.886  1.00 20.00    -0.101 SA
ENDROOT
TORSDOF 0
ENDMDL
MODEL 6
REMARK VINA RESULT:      -4.3     11.849     12.641
REMARK  0 active torsions:
REMARK  status: ('A' for Active; 'I' for Inactive)
ROOT
HETATM    1  C1  UNL     1     -33.578  14.571  -4.384  1.00 20.00     0.001 A 
HETATM    2  C2  UNL     1     -34.879  14.296  -3.987  1.00 20.00     0.001 A 
HETATM    3  C3  UNL     1     -32.852  15.593  -3.765  1.00 20.00     0.013 A 
HETATM    4  C4  UNL     1     -35.483  15.035  -2.967  1.00 20.00     0.019 A 
HETATM    5  C5  UNL     1     -32.901  17.444  -1.954  1.00 20.00     0.020 A 
HETATM    6  C6  UNL     1     -33.793  17.932  -1.029  1.00 20.00     0.051 A 
HETATM    7  C7  UNL     1     -33.437  16.360  -2.728  1.00 20.00    -0.019 A 
HETATM    8  C8  UNL     1     -34.748  16.064  -2.346  1.00 20.00     0.015 A 
HETATM    9  S9  UNL     1     -35.280  17.101  -1.074  1.00 20.00    -0.101 SA
ENDROOT
TORSDOF 0
ENDMDL
MODEL 7
REMARK VINA RESULT:      -4.3     11.857     12.567
REMARK  0 active torsions:
REMARK  status: ('A' for Active; 'I' for Inactive)
ROOT
HETATM    1  C1  UNL     1     -34.806  14.338  -3.945  1.00 20.00     0.001 A 
HETATM    2  C2  UNL     1     -33.533  14.711  -4.355  1.00 20.00     0.001 A 
HETATM    3  C3  UNL     1     -35.434  15.013  -2.894  1.00 20.00     0.013 A 
HETATM    4  C4  UNL     1     -32.862  15.762  -3.727  1.00 20.00     0.019 A 
HETATM    5  C5  UNL     1     -35.213  16.914  -1.150  1.00 20.00     0.020 A 
HETATM    6  C6  UNL     1     -34.277  17.856  -0.791  1.00 20.00     0.051 A 
HETATM    7  C7  UNL     1     -34.779  16.083  -2.237  1.00 20.00    -0.019 A 
HETATM    8  C8  UNL     1     -33.499  16.439  -2.668  1.00 20.00     0.015 A 
HETATM    9  S9  UNL     1     -32.871  17.757  -1.749  1.00 20.00    -0.101 SA
ENDROOT
TORSDOF 0
ENDMDL
MODEL 8
REMARK VINA RESULT:      -4.3     15.829     16.541
REMARK  0 active torsions:
REMARK  status: ('A' for Active; 'I' for Inactive)
ROOT
HETATM    1  C1  UNL     1     -22.883  17.765   8.464  1.00 20.00     0.001 A 
HETATM    2  C2  UNL     1     -23.659  18.915   8.502  1.00 20.00     0.001 A 
HETATM    3  C3  UNL     1     -23.053  16.767   9.428  1.00 20.00     0.013 A 
HETATM    4  C4  UNL     1     -24.619  19.093   9.501  1.00 20.00     0.019 A 
HETATM    5  C5  UNL     1     -24.371  16.046  11.537  1.00 20.00     0.020 A 
HETATM    6  C6  UNL     1     -25.371  16.556  12.330  1.00 20.00     0.051 A 
HETATM    7  C7  UNL     1     -24.018  16.918  10.453  1.00 20.00    -0.019 A 
HETATM    8  C8  UNL     1     -24.787  18.085  10.470  1.00 20.00     0.015 A 
HETATM    9  S9  UNL     1     -25.901  18.083  11.788  1.00 20.00    -0.101 SA
ENDROOT
TORSDOF 0
ENDMDL
MODEL 9
REMARK VINA RESULT:      -4.2     16.270     16.782
REMARK  0 active torsions:
REMARK  status: ('A' for Active; 'I' for Inactive)
ROOT
HETATM    1  C1  UNL     1     -23.356  18.453   8.552  1.00 20.00     0.001 A 
HETATM    2  C2  UNL     1     -22.894  17.296   9.161  1.00 20.00     0.001 A 
HETATM    3  C3  UNL     1     -24.441  19.150   9.092  1.00 20.00     0.013 A 
HETATM    4  C4  UNL     1     -23.504  16.808  10.320  1.00 20.00     0.019 A 
HETATM    5  C5  UNL     1     -26.196  19.214  10.995  1.00 20.00     0.020 A 
HETATM    6  C6  UNL     1     -26.524  18.460  12.097  1.00 20.00     0.051 A 
HETATM    7  C7  UNL     1     -25.081  18.681  10.264  1.00 20.00    -0.019 A 
HETATM    8  C8  UNL     1     -24.597  17.513  10.860  1.00 20.00     0.015 A 
HETATM    9  S9  UNL     1     -25.503  17.106  12.271  1.00 20.00    -0.101 SA
ENDROOT
TORSDOF 0
ENDMDL
