MODEL 1
REMARK VINA RESULT:      -4.7      0.000      0.000
REMARK  1 active torsions:
REMARK  status: ('A' for Active; 'I' for Inactive)
REMARK    1  A    between atoms: C6_6  and  S8_8 
ROOT
HETATM    1  C1  UNL     1     -35.058   5.113   5.396  1.00 20.00     0.000 A 
HETATM    2  C2  UNL     1     -34.724   4.760   4.088  1.00 20.00     0.001 A 
HETATM    3  C3  UNL     1     -34.445   6.209   6.001  1.00 20.00     0.001 A 
HETATM    4  C4  UNL     1     -33.776   5.504   3.386  1.00 20.00     0.018 A 
HETATM    5  C5  UNL     1     -33.497   6.954   5.299  1.00 20.00     0.018 A 
HETATM    6  C6  UNL     1     -33.163   6.602   3.991  1.00 20.00    -0.000 A 
ENDROOT
BRANCH   6   7
HETATM    7  S8  UNL     1     -31.952   7.553   3.094  1.00 20.00    -0.134 SA
HETATM    8  C7  UNL     1     -32.823   7.747   1.523  1.00 20.00     0.095 C 
ENDBRANCH   6   7
TORSDOF 1
ENDMDL
MODEL 2
REMARK VINA RESULT:      -4.7      0.003      1.708
REMARK  1 active torsions:
REMARK  status: ('A' for Active; 'I' for Inactive)
REMARK    1  A    between atoms: C6_6  and  S8_8 
ROOT
HETATM    1  C1  UNL     1     -35.058   5.109   5.395  1.00 20.00     0.000 A 
HETATM    2  C2  UNL     1     -34.445   6.205   6.002  1.00 20.00     0.001 A 
HETATM    3  C3  UNL     1     -34.724   4.760   4.087  1.00 20.00     0.001 A 
HETATM    4  C4  UNL     1     -33.498   6.951   5.301  1.00 20.00     0.018 A 
HETATM    5  C5  UNL     1     -33.777   5.505   3.386  1.00 20.00     0.018 A 
HETATM    6  C6  UNL     1     -33.163   6.601   3.993  1.00 20.00    -0.000 A 
ENDROOT
BRANCH   6   7
HETATM    7  S8  UNL     1     -31.953   7.554   3.097  1.00 20.00    -0.134 SA
HETATM    8  C7  UNL     1     -32.824   7.744   1.525  1.00 20.00     0.095 C 
ENDBRANCH   6   7
TORSDOF 1
ENDMDL
MODEL 3
REMARK VINA RESULT:      -4.5      0.922      1.911
REMARK  1 active torsions:
REMARK  status: ('A' for Active; 'I' for Inactive)
REMARK    1  A    between atoms: C6_6  and  S8_8 
ROOT
HETATM    1  C1  UNL     1     -34.726   5.890   6.240  1.00 20.00     0.000 A 
HETATM    2  C2  UNL     1     -33.846   6.896   5.841  1.00 20.00     0.001 A 
HETATM    3  C3  UNL     1     -35.084   4.881   5.346  1.00 20.00     0.001 A 
HETATM    4  C4  UNL     1     -33.324   6.893   4.548  1.00 20.00     0.018 A 
HETATM    5  C5  UNL     1     -34.562   4.877   4.053  1.00 20.00     0.018 A 
HETATM    6  C6  UNL     1     -33.681   5.883   3.654  1.00 20.00    -0.000 A 
ENDROOT
BRANCH   6   7
HETATM    7  S8  UNL     1     -33.015   5.878   2.001  1.00 20.00    -0.134 SA
HETATM    8  C7  UNL     1     -32.473   7.599   1.890  1.00 20.00     0.095 C 
ENDBRANCH   6   7
TORSDOF 1
ENDMDL
MODEL 4
REMARK VINA RESULT:      -3.8     11.612     12.223
REMARK  1 active torsions:
REMARK  status: ('A' for Active; 'I' for Inactive)
REMARK    1  A    between atoms: C6_6  and  S8_8 
ROOT
HETATM    1  C1  UNL     1     -34.070  17.675  -1.001  1.00 20.00     0.000 A 
HETATM    2  C2  UNL     1     -32.966  17.613  -1.851  1.00 20.00     0.001 A 
HETATM    3  C3  UNL     1     -35.139  16.798  -1.182  1.00 20.00     0.001 A 
HETATM    4  C4  UNL     1     -32.929  16.674  -2.881  1.00 20.00     0.018 A 
HETATM    5  C5  UNL     1     -35.103  15.858  -2.212  1.00 20.00     0.018 A 
HETATM    6  C6  UNL     1     -33.998  15.795  -3.061  1.00 20.00    -0.000 A 
ENDROOT
BRANCH   6   7
HETATM    7  S8  UNL     1     -33.953  14.595  -4.377  1.00 20.00    -0.134 SA
HETATM    8  C7  UNL     1     -35.645  13.971  -4.274  1.00 20.00     0.095 C 
ENDBRANCH   6   7
TORSDOF 1
ENDMDL
MODEL 5
REMARK VINA RESULT:      -3.8     11.612     12.220
REMARK  1 active torsions:
REMARK  status: ('A' for Active; 'I' for Inactive)
REMARK    1  A    between atoms: C6_6  and  S8_8 
ROOT
HETATM    1  C1  UNL     1     -34.067  17.678  -1.009  1.00 20.00     0.000 A 
HETATM    2  C2  UNL     1     -35.130  16.792  -1.183  1.00 20.00     0.001 A 
HETATM    3  C3  UNL     1     -32.968  17.625  -1.866  1.00 20.00     0.001 A 
HETATM    4  C4  UNL     1     -35.095  15.854  -2.214  1.00 20.00     0.018 A 
HETATM    5  C5  UNL     1     -32.932  16.687  -2.897  1.00 20.00     0.018 A 
HETATM    6  C6  UNL     1     -33.997  15.802  -3.072  1.00 20.00    -0.000 A 
ENDROOT
BRANCH   6   7
HETATM    7  S8  UNL     1     -33.951  14.602  -4.389  1.00 20.00    -0.134 SA
HETATM    8  C7  UNL     1     -35.638  13.967  -4.278  1.00 20.00     0.095 C 
ENDBRANCH   6   7
TORSDOF 1
ENDMDL
MODEL 6
REMARK VINA RESULT:      -3.8     11.870     12.302
REMARK  1 active torsions:
REMARK  status: ('A' for Active; 'I' for Inactive)
REMARK    1  A    between atoms: C6_6  and  S8_8 
ROOT
HETATM    1  C1  UNL     1     -33.402  16.662  -2.400  1.00 20.00     0.000 A 
HETATM    2  C2  UNL     1     -34.740  16.558  -2.020  1.00 20.00     0.001 A 
HETATM    3  C3  UNL     1     -32.915  15.889  -3.453  1.00 20.00     0.001 A 
HETATM    4  C4  UNL     1     -35.591  15.682  -2.693  1.00 20.00     0.018 A 
HETATM    5  C5  UNL     1     -33.764  15.012  -4.127  1.00 20.00     0.018 A 
HETATM    6  C6  UNL     1     -35.103  14.910  -3.748  1.00 20.00    -0.000 A 
ENDROOT
BRANCH   6   7
HETATM    7  S8  UNL     1     -36.189  13.789  -4.608  1.00 20.00    -0.134 SA
HETATM    8  C7  UNL     1     -37.771  14.603  -4.295  1.00 20.00     0.095 C 
ENDBRANCH   6   7
TORSDOF 1
ENDMDL
MODEL 7
REMARK VINA RESULT:      -3.8     11.883     12.249
REMARK  1 active torsions:
REMARK  status: ('A' for Active; 'I' for Inactive)
REMARK    1  A    between atoms: C6_6  and  S8_8 
ROOT
HETATM    1  C1  UNL     1     -33.407  16.668  -2.412  1.00 20.00     0.000 A 
HETATM    2  C2  UNL     1     -32.927  15.886  -3.463  1.00 20.00     0.001 A 
HETATM    3  C3  UNL     1     -34.744  16.575  -2.029  1.00 20.00     0.001 A 
HETATM    4  C4  UNL     1     -33.784  15.012  -4.130  1.00 20.00     0.018 A 
HETATM    5  C5  UNL     1     -35.603  15.701  -2.696  1.00 20.00     0.018 A 
HETATM    6  C6  UNL     1     -35.122  14.919  -3.747  1.00 20.00    -0.000 A 
ENDROOT
BRANCH   6   7
HETATM    7  S8  UNL     1     -36.218  13.802  -4.600  1.00 20.00    -0.134 SA
HETATM    8  C7  UNL     1     -37.792  14.637  -4.298  1.00 20.00     0.095 C 
ENDBRANCH   6   7
TORSDOF 1
ENDMDL
MODEL 8
REMARK VINA RESULT:      -3.8     15.499     16.127
REMARK  1 active torsions:
REMARK  status: ('A' for Active; 'I' for Inactive)
REMARK    1  A    between atoms: C6_6  and  S8_8 
ROOT
HETATM    1  C1  UNL     1     -25.609  16.631  12.332  1.00 20.00     0.000 A 
HETATM    2  C2  UNL     1     -24.622  15.970  11.600  1.00 20.00     0.001 A 
HETATM    3  C3  UNL     1     -25.928  17.955  12.034  1.00 20.00     0.001 A 
HETATM    4  C4  UNL     1     -23.956  16.633  10.570  1.00 20.00     0.018 A 
HETATM    5  C5  UNL     1     -25.262  18.619  11.003  1.00 20.00     0.018 A 
HETATM    6  C6  UNL     1     -24.276  17.957  10.271  1.00 20.00    -0.000 A 
ENDROOT
BRANCH   6   7
HETATM    7  S8  UNL     1     -23.424  18.805   8.955  1.00 20.00    -0.134 SA
HETATM    8  C7  UNL     1     -21.754  18.166   9.217  1.00 20.00     0.095 C 
ENDBRANCH   6   7
TORSDOF 1
ENDMDL
MODEL 9
REMARK VINA RESULT:      -3.8     11.731     12.358
REMARK  1 active torsions:
REMARK  status: ('A' for Active; 'I' for Inactive)
REMARK    1  A    between atoms: C6_6  and  S8_8 
ROOT
HETATM    1  C1  UNL     1     -34.379  14.808  -3.813  1.00 20.00     0.000 A 
HETATM    2  C2  UNL     1     -35.364  15.176  -2.897  1.00 20.00     0.001 A 
HETATM    3  C3  UNL     1     -33.159  15.484  -3.832  1.00 20.00     0.001 A 
HETATM    4  C4  UNL     1     -35.130  16.218  -2.000  1.00 20.00     0.018 A 
HETATM    5  C5  UNL     1     -32.923  16.526  -2.936  1.00 20.00     0.018 A 
HETATM    6  C6  UNL     1     -33.909  16.893  -2.019  1.00 20.00    -0.000 A 
ENDROOT
BRANCH   6   7
HETATM    7  S8  UNL     1     -33.609  18.225  -0.874  1.00 20.00    -0.134 SA
HETATM    8  C7  UNL     1     -31.813  18.353  -1.025  1.00 20.00     0.095 C 
ENDBRANCH   6   7
TORSDOF 1
ENDMDL
