MODEL 1
REMARK VINA RESULT:      -3.8      0.000      0.000
REMARK  1 active torsions:
REMARK  status: ('A' for Active; 'I' for Inactive)
REMARK    1  A    between atoms: C4_4  and  S6_6 
ROOT
HETATM    1  C1  UNL     1     -34.356   6.261   6.154  1.00 20.00     0.009 A 
HETATM    2  C2  UNL     1     -33.565   6.993   5.223  1.00 20.00     0.026 A 
HETATM    3  C3  UNL     1     -34.913   5.135   5.586  1.00 20.00     0.051 A 
HETATM    4  C4  UNL     1     -33.547   6.401   3.979  1.00 20.00     0.038 A 
HETATM    5  S5  UNL     1     -34.481   4.966   3.938  1.00 20.00    -0.095 SA
ENDROOT
BRANCH   4   6
HETATM    6  S6  UNL     1     -32.689   6.991   2.568  1.00 20.00    -0.136 SA
HETATM    7  H10 UNL     1     -33.514   8.002   2.241  1.00 20.00     0.107 HD
ENDBRANCH   4   6
TORSDOF 1
ENDMDL
MODEL 2
REMARK VINA RESULT:      -3.7      1.300      1.713
REMARK  1 active torsions:
REMARK  status: ('A' for Active; 'I' for Inactive)
REMARK    1  A    between atoms: C4_4  and  S6_6 
ROOT
HETATM    1  C1  UNL     1     -35.042   4.845   4.862  1.00 20.00     0.009 A 
HETATM    2  C2  UNL     1     -34.367   5.236   3.670  1.00 20.00     0.026 A 
HETATM    3  C3  UNL     1     -34.719   5.657   5.928  1.00 20.00     0.051 A 
HETATM    4  C4  UNL     1     -33.554   6.329   3.869  1.00 20.00     0.038 A 
HETATM    5  S5  UNL     1     -33.607   6.882   5.490  1.00 20.00    -0.095 SA
ENDROOT
BRANCH   4   6
HETATM    6  S6  UNL     1     -32.561   7.112   2.654  1.00 20.00    -0.136 SA
HETATM    7  H10 UNL     1     -33.313   6.835   1.573  1.00 20.00     0.107 HD
ENDBRANCH   4   6
TORSDOF 1
ENDMDL
MODEL 3
REMARK VINA RESULT:      -2.9     12.180     12.480
REMARK  1 active torsions:
REMARK  status: ('A' for Active; 'I' for Inactive)
REMARK    1  A    between atoms: C4_4  and  S6_6 
ROOT
HETATM    1  C1  UNL     1     -33.986  16.273  -2.495  1.00 20.00     0.009 A 
HETATM    2  C2  UNL     1     -35.217  15.620  -2.792  1.00 20.00     0.026 A 
HETATM    3  C3  UNL     1     -32.991  15.930  -3.385  1.00 20.00     0.051 A 
HETATM    4  C4  UNL     1     -35.116  14.802  -3.896  1.00 20.00     0.038 A 
HETATM    5  S5  UNL     1     -33.542  14.825  -4.570  1.00 20.00    -0.095 SA
ENDROOT
BRANCH   4   6
HETATM    6  S6  UNL     1     -36.406  13.831  -4.581  1.00 20.00    -0.136 SA
HETATM    7  H10 UNL     1     -36.563  12.963  -3.565  1.00 20.00     0.107 HD
ENDBRANCH   4   6
TORSDOF 1
ENDMDL
MODEL 4
REMARK VINA RESULT:      -2.9     15.704     15.952
REMARK  1 active torsions:
REMARK  status: ('A' for Active; 'I' for Inactive)
REMARK    1  A    between atoms: C4_4  and  S6_6 
ROOT
HETATM    1  C1  UNL     1     -24.633  15.912  11.575  1.00 20.00     0.009 A 
HETATM    2  C2  UNL     1     -24.057  16.511  10.418  1.00 20.00     0.026 A 
HETATM    3  C3  UNL     1     -25.425  16.796  12.275  1.00 20.00     0.051 A 
HETATM    4  C4  UNL     1     -24.429  17.829  10.277  1.00 20.00     0.038 A 
HETATM    5  S5  UNL     1     -25.470  18.340  11.537  1.00 20.00    -0.095 SA
ENDROOT
BRANCH   4   6
HETATM    6  S6  UNL     1     -23.935  18.909   8.986  1.00 20.00    -0.136 SA
HETATM    7  H10 UNL     1     -23.039  19.641   9.671  1.00 20.00     0.107 HD
ENDBRANCH   4   6
TORSDOF 1
ENDMDL
MODEL 5
REMARK VINA RESULT:      -2.9     16.439     17.133
REMARK  1 active torsions:
REMARK  status: ('A' for Active; 'I' for Inactive)
REMARK    1  A    between atoms: C4_4  and  S6_6 
ROOT
HETATM    1  C1  UNL     1     -24.011  17.908  12.332  1.00 20.00     0.009 A 
HETATM    2  C2  UNL     1     -22.701  17.807  11.781  1.00 20.00     0.026 A 
HETATM    3  C3  UNL     1     -24.964  18.128  11.362  1.00 20.00     0.051 A 
HETATM    4  C4  UNL     1     -22.702  17.955  10.412  1.00 20.00     0.038 A 
HETATM    5  S5  UNL     1     -24.279  18.214   9.796  1.00 20.00    -0.095 SA
ENDROOT
BRANCH   4   6
HETATM    6  S6  UNL     1     -21.295  17.895   9.366  1.00 20.00    -0.136 SA
HETATM    7  H10 UNL     1     -21.714  16.933   8.523  1.00 20.00     0.107 HD
ENDBRANCH   4   6
TORSDOF 1
ENDMDL
MODEL 6
REMARK VINA RESULT:      -2.8     16.572     17.067
REMARK  1 active torsions:
REMARK  status: ('A' for Active; 'I' for Inactive)
REMARK    1  A    between atoms: C4_4  and  S6_6 
ROOT
HETATM    1  C1  UNL     1     -22.501  17.703  11.638  1.00 20.00     0.009 A 
HETATM    2  C2  UNL     1     -23.720  17.950  12.332  1.00 20.00     0.026 A 
HETATM    3  C3  UNL     1     -22.658  17.784  10.271  1.00 20.00     0.051 A 
HETATM    4  C4  UNL     1     -24.763  18.209  11.470  1.00 20.00     0.038 A 
HETATM    5  S5  UNL     1     -24.270  18.155   9.831  1.00 20.00    -0.095 SA
ENDROOT
BRANCH   4   6
HETATM    6  S6  UNL     1     -26.419  18.561  11.931  1.00 20.00    -0.136 SA
HETATM    7  H10 UNL     1     -26.405  19.891  11.723  1.00 20.00     0.107 HD
ENDBRANCH   4   6
TORSDOF 1
ENDMDL
MODEL 7
REMARK VINA RESULT:      -2.8     16.541     17.247
REMARK  1 active torsions:
REMARK  status: ('A' for Active; 'I' for Inactive)
REMARK    1  A    between atoms: C4_4  and  S6_6 
ROOT
HETATM    1  C1  UNL     1     -22.203  17.804   8.306  1.00 20.00     0.009 A 
HETATM    2  C2  UNL     1     -21.807  17.609   9.661  1.00 20.00     0.026 A 
HETATM    3  C3  UNL     1     -23.507  18.238   8.206  1.00 20.00     0.051 A 
HETATM    4  C4  UNL     1     -22.822  17.901  10.544  1.00 20.00     0.038 A 
HETATM    5  S5  UNL     1     -24.247  18.409   9.741  1.00 20.00    -0.095 SA
ENDROOT
BRANCH   4   6
HETATM    6  S6  UNL     1     -22.732  17.790  12.293  1.00 20.00    -0.136 SA
HETATM    7  H10 UNL     1     -23.872  17.109  12.508  1.00 20.00     0.107 HD
ENDBRANCH   4   6
TORSDOF 1
ENDMDL
MODEL 8
REMARK VINA RESULT:      -2.8      1.798      3.362
REMARK  1 active torsions:
REMARK  status: ('A' for Active; 'I' for Inactive)
REMARK    1  A    between atoms: C4_4  and  S6_6 
ROOT
HETATM    1  C1  UNL     1     -33.287   5.023   2.319  1.00 20.00     0.009 A 
HETATM    2  C2  UNL     1     -34.026   4.589   3.456  1.00 20.00     0.026 A 
HETATM    3  C3  UNL     1     -32.816   6.309   2.469  1.00 20.00     0.051 A 
HETATM    4  C4  UNL     1     -34.093   5.558   4.432  1.00 20.00     0.038 A 
HETATM    5  S5  UNL     1     -33.265   6.986   3.975  1.00 20.00    -0.095 SA
ENDROOT
BRANCH   4   6
HETATM    6  S6  UNL     1     -34.909   5.412   5.978  1.00 20.00    -0.136 SA
HETATM    7  H10 UNL     1     -34.194   6.320   6.667  1.00 20.00     0.107 HD
ENDBRANCH   4   6
TORSDOF 1
ENDMDL
MODEL 9
REMARK VINA RESULT:      -2.7     12.274     12.762
REMARK  1 active torsions:
REMARK  status: ('A' for Active; 'I' for Inactive)
REMARK    1  A    between atoms: C4_4  and  S6_6 
ROOT
HETATM    1  C1  UNL     1     -34.127  15.451  -3.337  1.00 20.00     0.009 A 
HETATM    2  C2  UNL     1     -35.090  15.741  -2.328  1.00 20.00     0.026 A 
HETATM    3  C3  UNL     1     -33.051  16.310  -3.286  1.00 20.00     0.051 A 
HETATM    4  C4  UNL     1     -34.715  16.810  -1.545  1.00 20.00     0.038 A 
HETATM    5  S5  UNL     1     -33.205  17.460  -2.027  1.00 20.00    -0.095 SA
ENDROOT
BRANCH   4   6
HETATM    6  S6  UNL     1     -35.625  17.474  -0.201  1.00 20.00    -0.136 SA
HETATM    7  H10 UNL     1     -34.878  18.571   0.023  1.00 20.00     0.107 HD
ENDBRANCH   4   6
TORSDOF 1
ENDMDL
