MODEL 1
REMARK VINA RESULT:      -6.1      0.000      0.000
REMARK  0 active torsions:
REMARK  status: ('A' for Active; 'I' for Inactive)
ROOT
HETATM    1  C1  UNL     1     -34.855   5.322   5.770  1.00 20.00     0.000 A 
HETATM    2  C2  UNL     1     -34.827   4.703   4.520  1.00 20.00     0.001 A 
HETATM    3  C3  UNL     1     -34.151   6.509   5.977  1.00 20.00     0.001 A 
HETATM    4  C4  UNL     1     -34.093   5.270   3.478  1.00 20.00     0.007 A 
HETATM    5  C5  UNL     1     -33.418   7.075   4.934  1.00 20.00     0.007 A 
HETATM    6  C6  UNL     1     -33.389   6.455   3.685  1.00 20.00    -0.062 A 
HETATM    7  C7  UNL     1     -32.604   7.062   2.570  1.00 20.00     0.048 C 
ENDROOT
TORSDOF 0
ENDMDL
MODEL 2
REMARK VINA RESULT:      -6.1      0.012      1.826
REMARK  0 active torsions:
REMARK  status: ('A' for Active; 'I' for Inactive)
ROOT
HETATM    1  C1  UNL     1     -34.858   5.318   5.777  1.00 20.00     0.000 A 
HETATM    2  C2  UNL     1     -34.154   6.504   5.987  1.00 20.00     0.001 A 
HETATM    3  C3  UNL     1     -34.831   4.704   4.525  1.00 20.00     0.001 A 
HETATM    4  C4  UNL     1     -33.424   7.076   4.945  1.00 20.00     0.007 A 
HETATM    5  C5  UNL     1     -34.101   5.276   3.483  1.00 20.00     0.007 A 
HETATM    6  C6  UNL     1     -33.397   6.462   3.694  1.00 20.00    -0.062 A 
HETATM    7  C7  UNL     1     -32.616   7.073   2.578  1.00 20.00     0.048 C 
ENDROOT
TORSDOF 0
ENDMDL
MODEL 3
REMARK VINA RESULT:      -5.5      0.702      2.026
REMARK  0 active torsions:
REMARK  status: ('A' for Active; 'I' for Inactive)
ROOT
HETATM    1  C1  UNL     1     -34.434   6.280   6.104  1.00 20.00     0.000 A 
HETATM    2  C2  UNL     1     -33.636   7.073   5.280  1.00 20.00     0.001 A 
HETATM    3  C3  UNL     1     -34.913   5.054   5.640  1.00 20.00     0.001 A 
HETATM    4  C4  UNL     1     -33.317   6.642   3.992  1.00 20.00     0.007 A 
HETATM    5  C5  UNL     1     -34.594   4.623   4.353  1.00 20.00     0.007 A 
HETATM    6  C6  UNL     1     -33.796   5.417   3.529  1.00 20.00    -0.062 A 
HETATM    7  C7  UNL     1     -33.455   4.955   2.151  1.00 20.00     0.048 C 
ENDROOT
TORSDOF 0
ENDMDL
MODEL 4
REMARK VINA RESULT:      -5.5      0.703      1.360
REMARK  0 active torsions:
REMARK  status: ('A' for Active; 'I' for Inactive)
ROOT
HETATM    1  C1  UNL     1     -34.429   6.279   6.112  1.00 20.00     0.000 A 
HETATM    2  C2  UNL     1     -34.908   5.051   5.655  1.00 20.00     0.001 A 
HETATM    3  C3  UNL     1     -33.636   7.071   5.281  1.00 20.00     0.001 A 
HETATM    4  C4  UNL     1     -34.592   4.614   4.369  1.00 20.00     0.007 A 
HETATM    5  C5  UNL     1     -33.321   6.634   3.995  1.00 20.00     0.007 A 
HETATM    6  C6  UNL     1     -33.799   5.406   3.539  1.00 20.00    -0.062 A 
HETATM    7  C7  UNL     1     -33.461   4.939   2.162  1.00 20.00     0.048 C 
ENDROOT
TORSDOF 0
ENDMDL
MODEL 5
REMARK VINA RESULT:      -5.2      0.893      2.775
REMARK  0 active torsions:
REMARK  status: ('A' for Active; 'I' for Inactive)
ROOT
HETATM    1  C1  UNL     1     -32.938   5.904   2.373  1.00 20.00     0.000 A 
HETATM    2  C2  UNL     1     -33.608   4.712   2.651  1.00 20.00     0.001 A 
HETATM    3  C3  UNL     1     -32.951   6.945   3.303  1.00 20.00     0.001 A 
HETATM    4  C4  UNL     1     -34.293   4.562   3.857  1.00 20.00     0.007 A 
HETATM    5  C5  UNL     1     -33.635   6.794   4.508  1.00 20.00     0.007 A 
HETATM    6  C6  UNL     1     -34.306   5.602   4.786  1.00 20.00    -0.062 A 
HETATM    7  C7  UNL     1     -35.038   5.443   6.076  1.00 20.00     0.048 C 
ENDROOT
TORSDOF 0
ENDMDL
MODEL 6
REMARK VINA RESULT:      -5.2      0.882      3.288
REMARK  0 active torsions:
REMARK  status: ('A' for Active; 'I' for Inactive)
ROOT
HETATM    1  C1  UNL     1     -32.942   5.939   2.382  1.00 20.00     0.000 A 
HETATM    2  C2  UNL     1     -32.963   6.968   3.323  1.00 20.00     0.001 A 
HETATM    3  C3  UNL     1     -33.605   4.740   2.645  1.00 20.00     0.001 A 
HETATM    4  C4  UNL     1     -33.644   6.798   4.528  1.00 20.00     0.007 A 
HETATM    5  C5  UNL     1     -34.288   4.570   3.849  1.00 20.00     0.007 A 
HETATM    6  C6  UNL     1     -34.307   5.600   4.791  1.00 20.00    -0.062 A 
HETATM    7  C7  UNL     1     -35.038   5.417   6.079  1.00 20.00     0.048 C 
ENDROOT
TORSDOF 0
ENDMDL
MODEL 7
REMARK VINA RESULT:      -4.1     11.845     12.548
REMARK  0 active torsions:
REMARK  status: ('A' for Active; 'I' for Inactive)
ROOT
HETATM    1  C1  UNL     1     -33.660  17.672  -1.434  1.00 20.00     0.000 A 
HETATM    2  C2  UNL     1     -34.862  16.988  -1.248  1.00 20.00     0.001 A 
HETATM    3  C3  UNL     1     -32.779  17.273  -2.440  1.00 20.00     0.001 A 
HETATM    4  C4  UNL     1     -35.181  15.905  -2.066  1.00 20.00     0.007 A 
HETATM    5  C5  UNL     1     -33.100  16.191  -3.259  1.00 20.00     0.007 A 
HETATM    6  C6  UNL     1     -34.301  15.506  -3.072  1.00 20.00    -0.062 A 
HETATM    7  C7  UNL     1     -34.642  14.348  -3.948  1.00 20.00     0.048 C 
ENDROOT
TORSDOF 0
ENDMDL
MODEL 8
REMARK VINA RESULT:      -4.1     11.850     12.559
REMARK  0 active torsions:
REMARK  status: ('A' for Active; 'I' for Inactive)
ROOT
HETATM    1  C1  UNL     1     -33.662  17.688  -1.439  1.00 20.00     0.000 A 
HETATM    2  C2  UNL     1     -32.780  17.269  -2.436  1.00 20.00     0.001 A 
HETATM    3  C3  UNL     1     -34.872  17.019  -1.253  1.00 20.00     0.001 A 
HETATM    4  C4  UNL     1     -33.109  16.183  -3.247  1.00 20.00     0.007 A 
HETATM    5  C5  UNL     1     -35.200  15.933  -2.063  1.00 20.00     0.007 A 
HETATM    6  C6  UNL     1     -34.318  15.515  -3.060  1.00 20.00    -0.062 A 
HETATM    7  C7  UNL     1     -34.671  14.352  -3.927  1.00 20.00     0.048 C 
ENDROOT
TORSDOF 0
ENDMDL
MODEL 9
REMARK VINA RESULT:      -4.0     11.978     12.416
REMARK  0 active torsions:
REMARK  status: ('A' for Active; 'I' for Inactive)
ROOT
HETATM    1  C1  UNL     1     -33.299  16.373  -2.755  1.00 20.00     0.000 A 
HETATM    2  C2  UNL     1     -34.618  16.349  -2.301  1.00 20.00     0.001 A 
HETATM    3  C3  UNL     1     -32.897  15.511  -3.776  1.00 20.00     0.001 A 
HETATM    4  C4  UNL     1     -35.534  15.463  -2.867  1.00 20.00     0.007 A 
HETATM    5  C5  UNL     1     -33.814  14.626  -4.342  1.00 20.00     0.007 A 
HETATM    6  C6  UNL     1     -35.133  14.602  -3.887  1.00 20.00    -0.062 A 
HETATM    7  C7  UNL     1     -36.113  13.654  -4.494  1.00 20.00     0.048 C 
ENDROOT
TORSDOF 0
ENDMDL
