@<TRIPOS>MOLECULE
ethylbenzene_1.pdb
   18    18     0     0     0
SMALL
NO_CHARGES

@<TRIPOS>ATOM
      1 C1         40.0430  -20.5930   14.1830 C.3       1 MOL         0.0000
      2 C2         39.4070  -19.3730   14.8600 C.3       1 MOL         0.0000
      3 C3         40.9300  -20.1910   12.9990 C.ar      1 MOL         0.0000
      4 C4         40.3610  -19.8840   11.7690 C.ar      1 MOL         0.0000
      5 C5         42.3120  -20.1340   13.1510 C.ar      1 MOL         0.0000
      6 C6         41.1680  -19.5210   10.6940 C.ar      1 MOL         0.0000
      7 C7         43.1190  -19.7700   12.0780 C.ar      1 MOL         0.0000
      8 C8         42.5490  -19.4630   10.8470 C.ar      1 MOL         0.0000
      9 H1         39.2506  -21.2492   13.8229 H         1 MOL         0.0000
     10 H2         40.6467  -21.1313   14.9136 H         1 MOL         0.0000
     11 H3         38.7865  -19.7018   15.6937 H         1 MOL         0.0000
     12 H4         38.7908  -18.8372   14.1380 H         1 MOL         0.0000
     13 H5         40.1914  -18.7124   15.2293 H         1 MOL         0.0000
     14 H6         39.2888  -19.9271   11.6464 H         1 MOL         0.0000
     15 H7         42.7593  -20.3730   14.1045 H         1 MOL         0.0000
     16 H8         40.7208  -19.2841    9.7399 H         1 MOL         0.0000
     17 H9         44.1910  -19.7257   12.2011 H         1 MOL         0.0000
     18 H10        43.1759  -19.1809   10.0140 H         1 MOL         0.0000
@<TRIPOS>BOND
     1    1    2 1
     2    1    3 1
     3    3    4 ar
     4    3    5 ar
     5    4    6 ar
     6    5    7 ar
     7    6    8 ar
     8    7    8 ar
     9    1    9 1
    10    1   10 1
    11    2   11 1
    12    2   12 1
    13    2   13 1
    14    4   14 1
    15    5   15 1
    16    6   16 1
    17    7   17 1
    18    8   18 1
