MODEL 1
REMARK VINA RESULT:      -5.6      0.000      0.000
REMARK  0 active torsions:
REMARK  status: ('A' for Active; 'I' for Inactive)
ROOT
HETATM    1  C1  UNL     1     -35.176   4.565   4.350  1.00 20.00     0.000 A 
HETATM    2  C2  UNL     1     -34.481   5.643   3.801  1.00 20.00     0.003 A 
HETATM    3  C3  UNL     1     -35.209   4.389   5.733  1.00 20.00     0.003 A 
HETATM    4  C4  UNL     1     -33.817   6.542   4.636  1.00 20.00     0.042 A 
HETATM    5  C5  UNL     1     -34.546   5.288   6.567  1.00 20.00     0.042 A 
HETATM    6  C6  UNL     1     -33.850   6.365   6.019  1.00 20.00     0.116 A 
HETATM    7  F7  UNL     1     -33.213   7.229   6.820  1.00 20.00    -0.206 F 
ENDROOT
TORSDOF 0
ENDMDL
MODEL 2
REMARK VINA RESULT:      -5.6      0.016      1.826
REMARK  0 active torsions:
REMARK  status: ('A' for Active; 'I' for Inactive)
ROOT
HETATM    1  C1  UNL     1     -35.180   4.567   4.366  1.00 20.00     0.000 A 
HETATM    2  C2  UNL     1     -35.209   4.397   5.750  1.00 20.00     0.003 A 
HETATM    3  C3  UNL     1     -34.479   5.637   3.809  1.00 20.00     0.003 A 
HETATM    4  C4  UNL     1     -34.537   5.299   6.577  1.00 20.00     0.042 A 
HETATM    5  C5  UNL     1     -33.807   6.537   4.635  1.00 20.00     0.042 A 
HETATM    6  C6  UNL     1     -33.837   6.369   6.019  1.00 20.00     0.116 A 
HETATM    7  F7  UNL     1     -33.192   7.234   6.813  1.00 20.00    -0.206 F 
ENDROOT
TORSDOF 0
ENDMDL
MODEL 3
REMARK VINA RESULT:      -5.6      1.912      2.629
REMARK  0 active torsions:
REMARK  status: ('A' for Active; 'I' for Inactive)
ROOT
HETATM    1  C1  UNL     1     -34.461   5.603   6.524  1.00 20.00     0.000 A 
HETATM    2  C2  UNL     1     -33.822   6.558   5.733  1.00 20.00     0.003 A 
HETATM    3  C3  UNL     1     -35.105   4.520   5.925  1.00 20.00     0.003 A 
HETATM    4  C4  UNL     1     -33.828   6.430   4.344  1.00 20.00     0.042 A 
HETATM    5  C5  UNL     1     -35.110   4.392   4.537  1.00 20.00     0.042 A 
HETATM    6  C6  UNL     1     -34.472   5.347   3.746  1.00 20.00     0.116 A 
HETATM    7  F7  UNL     1     -34.478   5.225   2.412  1.00 20.00    -0.206 F 
ENDROOT
TORSDOF 0
ENDMDL
MODEL 4
REMARK VINA RESULT:      -5.6      1.904      3.012
REMARK  0 active torsions:
REMARK  status: ('A' for Active; 'I' for Inactive)
ROOT
HETATM    1  C1  UNL     1     -34.461   5.616   6.529  1.00 20.00     0.000 A 
HETATM    2  C2  UNL     1     -35.115   4.543   5.924  1.00 20.00     0.003 A 
HETATM    3  C3  UNL     1     -33.802   6.563   5.745  1.00 20.00     0.003 A 
HETATM    4  C4  UNL     1     -35.109   4.417   4.535  1.00 20.00     0.042 A 
HETATM    5  C5  UNL     1     -33.796   6.437   4.356  1.00 20.00     0.042 A 
HETATM    6  C6  UNL     1     -34.450   5.364   3.751  1.00 20.00     0.116 A 
HETATM    7  F7  UNL     1     -34.444   5.243   2.417  1.00 20.00    -0.206 F 
ENDROOT
TORSDOF 0
ENDMDL
MODEL 5
REMARK VINA RESULT:      -5.3      1.626      2.417
REMARK  0 active torsions:
REMARK  status: ('A' for Active; 'I' for Inactive)
ROOT
HETATM    1  C1  UNL     1     -33.821   6.502   4.059  1.00 20.00     0.000 A 
HETATM    2  C2  UNL     1     -34.591   5.446   3.573  1.00 20.00     0.003 A 
HETATM    3  C3  UNL     1     -33.669   6.680   5.434  1.00 20.00     0.003 A 
HETATM    4  C4  UNL     1     -35.211   4.568   4.464  1.00 20.00     0.042 A 
HETATM    5  C5  UNL     1     -34.287   5.802   6.324  1.00 20.00     0.042 A 
HETATM    6  C6  UNL     1     -35.059   4.746   5.839  1.00 20.00     0.116 A 
HETATM    7  F7  UNL     1     -35.653   3.904   6.693  1.00 20.00    -0.206 F 
ENDROOT
TORSDOF 0
ENDMDL
MODEL 6
REMARK VINA RESULT:      -5.3      1.624      2.569
REMARK  0 active torsions:
REMARK  status: ('A' for Active; 'I' for Inactive)
ROOT
HETATM    1  C1  UNL     1     -33.825   6.498   4.057  1.00 20.00     0.000 A 
HETATM    2  C2  UNL     1     -33.657   6.675   5.431  1.00 20.00     0.003 A 
HETATM    3  C3  UNL     1     -34.610   5.450   3.579  1.00 20.00     0.003 A 
HETATM    4  C4  UNL     1     -34.274   5.800   6.326  1.00 20.00     0.042 A 
HETATM    5  C5  UNL     1     -35.228   4.577   4.474  1.00 20.00     0.042 A 
HETATM    6  C6  UNL     1     -35.060   4.752   5.848  1.00 20.00     0.116 A 
HETATM    7  F7  UNL     1     -35.653   3.913   6.707  1.00 20.00    -0.206 F 
ENDROOT
TORSDOF 0
ENDMDL
MODEL 7
REMARK VINA RESULT:      -3.9      8.910      9.711
REMARK  0 active torsions:
REMARK  status: ('A' for Active; 'I' for Inactive)
ROOT
HETATM    1  C1  UNL     1     -42.318   5.342  -2.644  1.00 20.00     0.000 A 
HETATM    2  C2  UNL     1     -42.183   6.688  -2.303  1.00 20.00     0.003 A 
HETATM    3  C3  UNL     1     -41.682   4.362  -1.882  1.00 20.00     0.003 A 
HETATM    4  C4  UNL     1     -41.410   7.053  -1.200  1.00 20.00     0.042 A 
HETATM    5  C5  UNL     1     -40.910   4.728  -0.780  1.00 20.00     0.042 A 
HETATM    6  C6  UNL     1     -40.774   6.073  -0.439  1.00 20.00     0.116 A 
HETATM    7  F7  UNL     1     -40.031   6.424   0.620  1.00 20.00    -0.206 F 
ENDROOT
TORSDOF 0
ENDMDL
MODEL 8
REMARK VINA RESULT:      -3.9      8.904      9.804
REMARK  0 active torsions:
REMARK  status: ('A' for Active; 'I' for Inactive)
ROOT
HETATM    1  C1  UNL     1     -42.310   5.318  -2.639  1.00 20.00     0.000 A 
HETATM    2  C2  UNL     1     -41.664   4.345  -1.876  1.00 20.00     0.003 A 
HETATM    3  C3  UNL     1     -42.187   6.666  -2.300  1.00 20.00     0.003 A 
HETATM    4  C4  UNL     1     -40.897   4.721  -0.773  1.00 20.00     0.042 A 
HETATM    5  C5  UNL     1     -41.419   7.041  -1.198  1.00 20.00     0.042 A 
HETATM    6  C6  UNL     1     -40.774   6.069  -0.434  1.00 20.00     0.116 A 
HETATM    7  F7  UNL     1     -40.037   6.429   0.624  1.00 20.00    -0.206 F 
ENDROOT
TORSDOF 0
ENDMDL
MODEL 9
REMARK VINA RESULT:      -3.8     12.521     12.768
REMARK  0 active torsions:
REMARK  status: ('A' for Active; 'I' for Inactive)
ROOT
HETATM    1  C1  UNL     1     -36.062  14.456  -3.798  1.00 20.00     0.000 A 
HETATM    2  C2  UNL     1     -35.444  15.504  -3.115  1.00 20.00     0.003 A 
HETATM    3  C3  UNL     1     -35.290  13.448  -4.376  1.00 20.00     0.003 A 
HETATM    4  C4  UNL     1     -34.053  15.543  -3.012  1.00 20.00     0.042 A 
HETATM    5  C5  UNL     1     -33.900  13.487  -4.271  1.00 20.00     0.042 A 
HETATM    6  C6  UNL     1     -33.281  14.535  -3.589  1.00 20.00     0.116 A 
HETATM    7  F7  UNL     1     -31.947  14.572  -3.490  1.00 20.00    -0.206 F 
ENDROOT
TORSDOF 0
ENDMDL
