MODEL 1
REMARK VINA RESULT:      -5.4      0.000      0.000
REMARK  4 active torsions:
REMARK  status: ('A' for Active; 'I' for Inactive)
REMARK    1  A    between atoms: C6_6  and  C7_7 
REMARK    2  A    between atoms: C7_7  and  C8_8 
REMARK    3  A    between atoms: C8_8  and  C9_9 
REMARK    4  A    between atoms: C9_9  and  S10_10 
ROOT
HETATM    1  C1  UNL     1     -35.089   5.038   6.395  1.00 20.00     0.000 A 
HETATM    2  C2  UNL     1     -35.288   4.340   5.204  1.00 20.00     0.001 A 
HETATM    3  C3  UNL     1     -34.220   6.128   6.428  1.00 20.00     0.001 A 
HETATM    4  C4  UNL     1     -34.619   4.733   4.045  1.00 20.00     0.007 A 
HETATM    5  C5  UNL     1     -33.550   6.520   5.269  1.00 20.00     0.007 A 
HETATM    6  C6  UNL     1     -33.750   5.823   4.078  1.00 20.00    -0.058 A 
ENDROOT
BRANCH   6   7
HETATM    7  C7  UNL     1     -33.033   6.243   2.839  1.00 20.00     0.039 C 
BRANCH   7   8
HETATM    8  C8  UNL     1     -32.181   7.518   2.998  1.00 20.00     0.014 C 
BRANCH   8   9
HETATM    9  C9  UNL     1     -31.829   8.155   1.653  1.00 20.00     0.071 C 
BRANCH   9  10
HETATM   10  S10 UNL     1     -32.536   9.824   1.532  1.00 20.00    -0.182 SA
HETATM   11  H22 UNL     1     -31.679  10.401   2.383  1.00 20.00     0.101 HD
ENDBRANCH   9  10
ENDBRANCH   8   9
ENDBRANCH   7   8
ENDBRANCH   6   7
TORSDOF 4
ENDMDL
MODEL 2
REMARK VINA RESULT:      -5.4      0.051      1.529
REMARK  4 active torsions:
REMARK  status: ('A' for Active; 'I' for Inactive)
REMARK    1  A    between atoms: C6_6  and  C7_7 
REMARK    2  A    between atoms: C7_7  and  C8_8 
REMARK    3  A    between atoms: C8_8  and  C9_9 
REMARK    4  A    between atoms: C9_9  and  S10_10 
ROOT
HETATM    1  C1  UNL     1     -35.051   5.018   6.361  1.00 20.00     0.000 A 
HETATM    2  C2  UNL     1     -34.195   6.118   6.386  1.00 20.00     0.001 A 
HETATM    3  C3  UNL     1     -35.259   4.322   5.171  1.00 20.00     0.001 A 
HETATM    4  C4  UNL     1     -33.547   6.525   5.219  1.00 20.00     0.007 A 
HETATM    5  C5  UNL     1     -34.611   4.728   4.004  1.00 20.00     0.007 A 
HETATM    6  C6  UNL     1     -33.755   5.829   4.029  1.00 20.00    -0.058 A 
ENDROOT
BRANCH   6   7
HETATM    7  C7  UNL     1     -33.063   6.263   2.780  1.00 20.00     0.039 C 
BRANCH   7   8
HETATM    8  C8  UNL     1     -32.183   7.518   2.944  1.00 20.00     0.014 C 
BRANCH   8   9
HETATM    9  C9  UNL     1     -31.840   8.168   1.603  1.00 20.00     0.071 C 
BRANCH   9  10
HETATM   10  S10 UNL     1     -32.521   9.850   1.514  1.00 20.00    -0.182 SA
HETATM   11  H22 UNL     1     -33.069   9.714   0.299  1.00 20.00     0.101 HD
ENDBRANCH   9  10
ENDBRANCH   8   9
ENDBRANCH   7   8
ENDBRANCH   6   7
TORSDOF 4
ENDMDL
MODEL 3
REMARK VINA RESULT:      -4.3     11.328     11.854
REMARK  4 active torsions:
REMARK  status: ('A' for Active; 'I' for Inactive)
REMARK    1  A    between atoms: C6_6  and  C7_7 
REMARK    2  A    between atoms: C7_7  and  C8_8 
REMARK    3  A    between atoms: C8_8  and  C9_9 
REMARK    4  A    between atoms: C9_9  and  S10_10 
ROOT
HETATM    1  C1  UNL     1     -35.180  13.417  -4.501  1.00 20.00     0.000 A 
HETATM    2  C2  UNL     1     -33.827  13.625  -4.236  1.00 20.00     0.001 A 
HETATM    3  C3  UNL     1     -36.138  14.258  -3.936  1.00 20.00     0.001 A 
HETATM    4  C4  UNL     1     -33.431  14.674  -3.406  1.00 20.00     0.007 A 
HETATM    5  C5  UNL     1     -35.743  15.307  -3.105  1.00 20.00     0.007 A 
HETATM    6  C6  UNL     1     -34.389  15.515  -2.841  1.00 20.00    -0.058 A 
ENDROOT
BRANCH   6   7
HETATM    7  C7  UNL     1     -33.967  16.637  -1.953  1.00 20.00     0.039 C 
BRANCH   7   8
HETATM    8  C8  UNL     1     -34.759  16.738  -0.635  1.00 20.00     0.014 C 
BRANCH   8   9
HETATM    9  C9  UNL     1     -34.265  17.878   0.256  1.00 20.00     0.071 C 
BRANCH   9  10
HETATM   10  S10 UNL     1     -35.177  17.903   1.828  1.00 20.00    -0.182 SA
HETATM   11  H22 UNL     1     -34.099  17.806   2.616  1.00 20.00     0.101 HD
ENDBRANCH   9  10
ENDBRANCH   8   9
ENDBRANCH   7   8
ENDBRANCH   6   7
TORSDOF 4
ENDMDL
MODEL 4
REMARK VINA RESULT:      -4.3     11.221     11.816
REMARK  4 active torsions:
REMARK  status: ('A' for Active; 'I' for Inactive)
REMARK    1  A    between atoms: C6_6  and  C7_7 
REMARK    2  A    between atoms: C7_7  and  C8_8 
REMARK    3  A    between atoms: C8_8  and  C9_9 
REMARK    4  A    between atoms: C9_9  and  S10_10 
ROOT
HETATM    1  C1  UNL     1     -34.986  13.293  -4.518  1.00 20.00     0.000 A 
HETATM    2  C2  UNL     1     -35.979  14.174  -4.091  1.00 20.00     0.001 A 
HETATM    3  C3  UNL     1     -33.659  13.502  -4.144  1.00 20.00     0.001 A 
HETATM    4  C4  UNL     1     -35.645  15.264  -3.288  1.00 20.00     0.007 A 
HETATM    5  C5  UNL     1     -33.326  14.593  -3.341  1.00 20.00     0.007 A 
HETATM    6  C6  UNL     1     -34.318  15.473  -2.913  1.00 20.00    -0.058 A 
ENDROOT
BRANCH   6   7
HETATM    7  C7  UNL     1     -33.961  16.640  -2.054  1.00 20.00     0.039 C 
BRANCH   7   8
HETATM    8  C8  UNL     1     -34.684  16.674  -0.694  1.00 20.00     0.014 C 
BRANCH   8   9
HETATM    9  C9  UNL     1     -34.228  17.844   0.180  1.00 20.00     0.071 C 
BRANCH   9  10
HETATM   10  S10 UNL     1     -35.223  17.934   1.697  1.00 20.00    -0.182 SA
HETATM   11  H22 UNL     1     -35.094  19.256   1.870  1.00 20.00     0.101 HD
ENDBRANCH   9  10
ENDBRANCH   8   9
ENDBRANCH   7   8
ENDBRANCH   6   7
TORSDOF 4
ENDMDL
MODEL 5
REMARK VINA RESULT:      -4.2     11.365     12.083
REMARK  4 active torsions:
REMARK  status: ('A' for Active; 'I' for Inactive)
REMARK    1  A    between atoms: C6_6  and  C7_7 
REMARK    2  A    between atoms: C7_7  and  C8_8 
REMARK    3  A    between atoms: C8_8  and  C9_9 
REMARK    4  A    between atoms: C9_9  and  S10_10 
ROOT
HETATM    1  C1  UNL     1     -34.065  18.455   1.457  1.00 20.00     0.000 A 
HETATM    2  C2  UNL     1     -35.011  17.534   1.007  1.00 20.00     0.001 A 
HETATM    3  C3  UNL     1     -32.998  18.817   0.635  1.00 20.00     0.001 A 
HETATM    4  C4  UNL     1     -34.890  16.975  -0.265  1.00 20.00     0.007 A 
HETATM    5  C5  UNL     1     -32.878  18.258  -0.637  1.00 20.00     0.007 A 
HETATM    6  C6  UNL     1     -33.823  17.337  -1.087  1.00 20.00    -0.058 A 
ENDROOT
BRANCH   6   7
HETATM    7  C7  UNL     1     -33.693  16.740  -2.448  1.00 20.00     0.039 C 
BRANCH   7   8
HETATM    8  C8  UNL     1     -34.490  15.436  -2.649  1.00 20.00     0.014 C 
BRANCH   8   9
HETATM    9  C9  UNL     1     -33.809  14.481  -3.630  1.00 20.00     0.071 C 
BRANCH   9  10
HETATM   10  S10 UNL     1     -35.039  13.444  -4.473  1.00 20.00    -0.182 SA
HETATM   11  H22 UNL     1     -34.177  12.864  -5.318  1.00 20.00     0.101 HD
ENDBRANCH   9  10
ENDBRANCH   8   9
ENDBRANCH   7   8
ENDBRANCH   6   7
TORSDOF 4
ENDMDL
MODEL 6
REMARK VINA RESULT:      -4.2     11.363     12.170
REMARK  4 active torsions:
REMARK  status: ('A' for Active; 'I' for Inactive)
REMARK    1  A    between atoms: C6_6  and  C7_7 
REMARK    2  A    between atoms: C7_7  and  C8_8 
REMARK    3  A    between atoms: C8_8  and  C9_9 
REMARK    4  A    between atoms: C9_9  and  S10_10 
ROOT
HETATM    1  C1  UNL     1     -34.069  18.485   1.475  1.00 20.00     0.000 A 
HETATM    2  C2  UNL     1     -33.008  18.844   0.645  1.00 20.00     0.001 A 
HETATM    3  C3  UNL     1     -35.023  17.568   1.033  1.00 20.00     0.001 A 
HETATM    4  C4  UNL     1     -32.900  18.285  -0.629  1.00 20.00     0.007 A 
HETATM    5  C5  UNL     1     -34.914  17.010  -0.240  1.00 20.00     0.007 A 
HETATM    6  C6  UNL     1     -33.853  17.368  -1.071  1.00 20.00    -0.058 A 
ENDROOT
BRANCH   6   7
HETATM    7  C7  UNL     1     -33.737  16.770  -2.433  1.00 20.00     0.039 C 
BRANCH   7   8
HETATM    8  C8  UNL     1     -34.562  15.484  -2.635  1.00 20.00     0.014 C 
BRANCH   8   9
HETATM    9  C9  UNL     1     -33.879  14.496  -3.582  1.00 20.00     0.071 C 
BRANCH   9  10
HETATM   10  S10 UNL     1     -35.114  13.485  -4.451  1.00 20.00    -0.182 SA
HETATM   11  H22 UNL     1     -34.254  12.553  -4.880  1.00 20.00     0.101 HD
ENDBRANCH   9  10
ENDBRANCH   8   9
ENDBRANCH   7   8
ENDBRANCH   6   7
TORSDOF 4
ENDMDL
MODEL 7
REMARK VINA RESULT:      -4.1     10.323     11.332
REMARK  4 active torsions:
REMARK  status: ('A' for Active; 'I' for Inactive)
REMARK    1  A    between atoms: C6_6  and  C7_7 
REMARK    2  A    between atoms: C7_7  and  C8_8 
REMARK    3  A    between atoms: C8_8  and  C9_9 
REMARK    4  A    between atoms: C9_9  and  S10_10 
ROOT
HETATM    1  C1  UNL     1     -41.073   7.043  -0.856  1.00 20.00     0.000 A 
HETATM    2  C2  UNL     1     -41.971   7.229  -1.907  1.00 20.00     0.001 A 
HETATM    3  C3  UNL     1     -40.657   5.757  -0.514  1.00 20.00     0.001 A 
HETATM    4  C4  UNL     1     -42.452   6.129  -2.617  1.00 20.00     0.007 A 
HETATM    5  C5  UNL     1     -41.138   4.657  -1.224  1.00 20.00     0.007 A 
HETATM    6  C6  UNL     1     -42.036   4.843  -2.275  1.00 20.00    -0.058 A 
ENDROOT
BRANCH   6   7
HETATM    7  C7  UNL     1     -42.551   3.666  -3.033  1.00 20.00     0.039 C 
BRANCH   7   8
HETATM    8  C8  UNL     1     -41.549   2.501  -3.157  1.00 20.00     0.014 C 
BRANCH   8   9
HETATM    9  C9  UNL     1     -41.819   1.627  -4.382  1.00 20.00     0.071 C 
BRANCH   9  10
HETATM   10  S10 UNL     1     -41.895  -0.127  -3.913  1.00 20.00    -0.182 SA
HETATM   11  H22 UNL     1     -42.738  -0.495  -4.886  1.00 20.00     0.101 HD
ENDBRANCH   9  10
ENDBRANCH   8   9
ENDBRANCH   7   8
ENDBRANCH   6   7
TORSDOF 4
ENDMDL
MODEL 8
REMARK VINA RESULT:      -4.1     11.245     12.463
REMARK  4 active torsions:
REMARK  status: ('A' for Active; 'I' for Inactive)
REMARK    1  A    between atoms: C6_6  and  C7_7 
REMARK    2  A    between atoms: C7_7  and  C8_8 
REMARK    3  A    between atoms: C8_8  and  C9_9 
REMARK    4  A    between atoms: C9_9  and  S10_10 
ROOT
HETATM    1  C1  UNL     1     -34.792  13.895  -5.814  1.00 20.00     0.000 A 
HETATM    2  C2  UNL     1     -34.458  15.236  -6.002  1.00 20.00     0.001 A 
HETATM    3  C3  UNL     1     -34.771  13.343  -4.534  1.00 20.00     0.001 A 
HETATM    4  C4  UNL     1     -34.103  16.026  -4.908  1.00 20.00     0.007 A 
HETATM    5  C5  UNL     1     -34.416  14.133  -3.440  1.00 20.00     0.007 A 
HETATM    6  C6  UNL     1     -34.082  15.473  -3.628  1.00 20.00    -0.058 A 
ENDROOT
BRANCH   6   7
HETATM    7  C7  UNL     1     -33.702  16.317  -2.458  1.00 20.00     0.039 C 
BRANCH   7   8
HETATM    8  C8  UNL     1     -34.748  16.343  -1.325  1.00 20.00     0.014 C 
BRANCH   8   9
HETATM    9  C9  UNL     1     -34.414  17.376  -0.247  1.00 20.00     0.071 C 
BRANCH   9  10
HETATM   10  S10 UNL     1     -33.311  18.659  -0.910  1.00 20.00    -0.182 SA
HETATM   11  H22 UNL     1     -34.211  19.650  -0.870  1.00 20.00     0.101 HD
ENDBRANCH   9  10
ENDBRANCH   8   9
ENDBRANCH   7   8
ENDBRANCH   6   7
TORSDOF 4
ENDMDL
MODEL 9
REMARK VINA RESULT:      -4.1     11.106     12.346
REMARK  4 active torsions:
REMARK  status: ('A' for Active; 'I' for Inactive)
REMARK    1  A    between atoms: C6_6  and  C7_7 
REMARK    2  A    between atoms: C7_7  and  C8_8 
REMARK    3  A    between atoms: C8_8  and  C9_9 
REMARK    4  A    between atoms: C9_9  and  S10_10 
ROOT
HETATM    1  C1  UNL     1     -33.631  19.032   0.106  1.00 20.00     0.000 A 
HETATM    2  C2  UNL     1     -34.412  17.991   0.608  1.00 20.00     0.001 A 
HETATM    3  C3  UNL     1     -33.187  18.995  -1.215  1.00 20.00     0.001 A 
HETATM    4  C4  UNL     1     -34.750  16.914  -0.211  1.00 20.00     0.007 A 
HETATM    5  C5  UNL     1     -33.524  17.918  -2.034  1.00 20.00     0.007 A 
HETATM    6  C6  UNL     1     -34.305  16.877  -1.532  1.00 20.00    -0.058 A 
ENDROOT
BRANCH   6   7
HETATM    7  C7  UNL     1     -34.665  15.725  -2.409  1.00 20.00     0.039 C 
BRANCH   7   8
HETATM    8  C8  UNL     1     -33.571  15.328  -3.419  1.00 20.00     0.014 C 
BRANCH   8   9
HETATM    9  C9  UNL     1     -33.583  13.831  -3.733  1.00 20.00     0.071 C 
BRANCH   9  10
HETATM   10  S10 UNL     1     -34.810  13.457  -5.019  1.00 20.00    -0.182 SA
HETATM   11  H22 UNL     1     -35.875  13.486  -4.207  1.00 20.00     0.101 HD
ENDBRANCH   9  10
ENDBRANCH   8   9
ENDBRANCH   7   8
ENDBRANCH   6   7
TORSDOF 4
ENDMDL
