MODEL 1
REMARK VINA RESULT:      -5.4      0.000      0.000
REMARK  3 active torsions:
REMARK  status: ('A' for Active; 'I' for Inactive)
REMARK    1  A    between atoms: C5_5  and  O9_9 
REMARK    2  A    between atoms: C6_6  and  O10_10 
REMARK    3  A    between atoms: C8_8  and  O10_10 
ROOT
HETATM    1  C1  UNL     1     -35.208   4.223   5.862  1.00 20.00     0.003 A 
HETATM    2  C2  UNL     1     -35.242   4.271   4.468  1.00 20.00     0.003 A 
HETATM    3  C3  UNL     1     -34.544   5.219   6.578  1.00 20.00     0.039 A 
HETATM    4  C4  UNL     1     -34.612   5.314   3.791  1.00 20.00     0.039 A 
HETATM    5  C5  UNL     1     -33.912   6.261   5.900  1.00 20.00     0.099 A 
HETATM    6  C6  UNL     1     -33.947   6.310   4.506  1.00 20.00     0.101 A 
ENDROOT
BRANCH   6   7
HETATM    7  O10 UNL     1     -33.333   7.323   3.833  1.00 20.00    -0.349 OA
BRANCH   7   8
HETATM    8  C8  UNL     1     -32.299   6.961   2.920  1.00 20.00     0.171 C 
HETATM    9  C7  UNL     1     -32.012   8.136   2.009  1.00 20.00     0.034 C 
ENDBRANCH   7   8
ENDBRANCH   6   7
BRANCH   5  10
HETATM   10  O9  UNL     1     -33.266   7.227   6.611  1.00 20.00    -0.358 OA
HETATM   11  H20 UNL     1     -32.314   7.200   6.425  1.00 20.00     0.217 HD
ENDBRANCH   5  10
TORSDOF 3
ENDMDL
MODEL 2
REMARK VINA RESULT:      -5.2      1.029      2.187
REMARK  3 active torsions:
REMARK  status: ('A' for Active; 'I' for Inactive)
REMARK    1  A    between atoms: C5_5  and  O9_9 
REMARK    2  A    between atoms: C6_6  and  O10_10 
REMARK    3  A    between atoms: C8_8  and  O10_10 
ROOT
HETATM    1  C1  UNL     1     -35.009   4.434   6.020  1.00 20.00     0.003 A 
HETATM    2  C2  UNL     1     -34.416   5.582   6.547  1.00 20.00     0.003 A 
HETATM    3  C3  UNL     1     -35.090   4.264   4.638  1.00 20.00     0.039 A 
HETATM    4  C4  UNL     1     -33.906   6.559   5.693  1.00 20.00     0.039 A 
HETATM    5  C5  UNL     1     -34.581   5.242   3.783  1.00 20.00     0.099 A 
HETATM    6  C6  UNL     1     -33.988   6.390   4.311  1.00 20.00     0.101 A 
ENDROOT
BRANCH   6   7
HETATM    7  O10 UNL     1     -33.488   7.352   3.487  1.00 20.00    -0.349 OA
BRANCH   7   8
HETATM    8  C8  UNL     1     -32.136   7.197   3.056  1.00 20.00     0.171 C 
HETATM    9  C7  UNL     1     -31.867   8.163   1.923  1.00 20.00     0.034 C 
ENDBRANCH   7   8
ENDBRANCH   6   7
BRANCH   5  10
HETATM   10  O9  UNL     1     -34.668   5.065   2.436  1.00 20.00    -0.358 OA
HETATM   11  H20 UNL     1     -33.831   4.719   2.088  1.00 20.00     0.217 HD
ENDBRANCH   5  10
TORSDOF 3
ENDMDL
MODEL 3
REMARK VINA RESULT:      -4.5     11.940     12.293
REMARK  3 active torsions:
REMARK  status: ('A' for Active; 'I' for Inactive)
REMARK    1  A    between atoms: C5_5  and  O9_9 
REMARK    2  A    between atoms: C6_6  and  O10_10 
REMARK    3  A    between atoms: C8_8  and  O10_10 
ROOT
HETATM    1  C1  UNL     1     -35.332  13.457  -4.505  1.00 20.00     0.003 A 
HETATM    2  C2  UNL     1     -36.120  14.365  -3.796  1.00 20.00     0.003 A 
HETATM    3  C3  UNL     1     -33.941  13.551  -4.451  1.00 20.00     0.039 A 
HETATM    4  C4  UNL     1     -35.517  15.365  -3.035  1.00 20.00     0.039 A 
HETATM    5  C5  UNL     1     -33.339  14.552  -3.691  1.00 20.00     0.099 A 
HETATM    6  C6  UNL     1     -34.126  15.460  -2.982  1.00 20.00     0.101 A 
ENDROOT
BRANCH   6   7
HETATM    7  O10 UNL     1     -33.549  16.443  -2.236  1.00 20.00    -0.349 OA
BRANCH   7   8
HETATM    8  C8  UNL     1     -34.269  16.893  -1.090  1.00 20.00     0.171 C 
HETATM    9  C7  UNL     1     -33.514  18.040  -0.453  1.00 20.00     0.034 C 
ENDBRANCH   7   8
ENDBRANCH   6   7
BRANCH   5  10
HETATM   10  O9  UNL     1     -31.980  14.634  -3.648  1.00 20.00    -0.358 OA
HETATM   11  H20 UNL     1     -31.706  15.485  -3.273  1.00 20.00     0.217 HD
ENDBRANCH   5  10
TORSDOF 3
ENDMDL
MODEL 4
REMARK VINA RESULT:      -4.5     12.014     13.233
REMARK  3 active torsions:
REMARK  status: ('A' for Active; 'I' for Inactive)
REMARK    1  A    between atoms: C5_5  and  O9_9 
REMARK    2  A    between atoms: C6_6  and  O10_10 
REMARK    3  A    between atoms: C8_8  and  O10_10 
ROOT
HETATM    1  C1  UNL     1     -34.535  14.941  -6.946  1.00 20.00     0.003 A 
HETATM    2  C2  UNL     1     -34.115  16.111  -6.311  1.00 20.00     0.003 A 
HETATM    3  C3  UNL     1     -34.887  13.825  -6.188  1.00 20.00     0.039 A 
HETATM    4  C4  UNL     1     -34.048  16.162  -4.920  1.00 20.00     0.039 A 
HETATM    5  C5  UNL     1     -34.818  13.876  -4.796  1.00 20.00     0.099 A 
HETATM    6  C6  UNL     1     -34.399  15.046  -4.161  1.00 20.00     0.101 A 
ENDROOT
BRANCH   6   7
HETATM    7  O10 UNL     1     -34.327  15.109  -2.803  1.00 20.00    -0.349 OA
BRANCH   7   8
HETATM    8  C8  UNL     1     -33.903  16.346  -2.233  1.00 20.00     0.171 C 
HETATM    9  C7  UNL     1     -34.658  16.578  -0.941  1.00 20.00     0.034 C 
ENDBRANCH   7   8
ENDBRANCH   6   7
BRANCH   5  10
HETATM   10  O9  UNL     1     -35.164  12.778  -4.068  1.00 20.00    -0.358 OA
HETATM   11  H20 UNL     1     -35.855  12.275  -4.526  1.00 20.00     0.217 HD
ENDBRANCH   5  10
TORSDOF 3
ENDMDL
MODEL 5
REMARK VINA RESULT:      -4.4     11.606     12.678
REMARK  3 active torsions:
REMARK  status: ('A' for Active; 'I' for Inactive)
REMARK    1  A    between atoms: C5_5  and  O9_9 
REMARK    2  A    between atoms: C6_6  and  O10_10 
REMARK    3  A    between atoms: C8_8  and  O10_10 
ROOT
HETATM    1  C1  UNL     1     -32.943  15.142  -3.518  1.00 20.00     0.003 A 
HETATM    2  C2  UNL     1     -33.778  16.174  -3.087  1.00 20.00     0.003 A 
HETATM    3  C3  UNL     1     -33.491  13.920  -3.907  1.00 20.00     0.039 A 
HETATM    4  C4  UNL     1     -35.158  15.982  -3.043  1.00 20.00     0.039 A 
HETATM    5  C5  UNL     1     -34.871  13.727  -3.863  1.00 20.00     0.099 A 
HETATM    6  C6  UNL     1     -35.706  14.759  -3.431  1.00 20.00     0.101 A 
ENDROOT
BRANCH   6   7
HETATM    7  O10 UNL     1     -37.055  14.583  -3.383  1.00 20.00    -0.349 OA
BRANCH   7   8
HETATM    8  C8  UNL     1     -37.826  15.195  -4.415  1.00 20.00     0.171 C 
HETATM    9  C7  UNL     1     -39.256  14.710  -4.317  1.00 20.00     0.034 C 
ENDBRANCH   7   8
ENDBRANCH   6   7
BRANCH   5  10
HETATM   10  O9  UNL     1     -35.392  12.528  -4.244  1.00 20.00    -0.358 OA
HETATM   11  H20 UNL     1     -34.837  11.802  -3.919  1.00 20.00     0.217 HD
ENDBRANCH   5  10
TORSDOF 3
ENDMDL
MODEL 6
REMARK VINA RESULT:      -4.3     11.644     13.514
REMARK  3 active torsions:
REMARK  status: ('A' for Active; 'I' for Inactive)
REMARK    1  A    between atoms: C5_5  and  O9_9 
REMARK    2  A    between atoms: C6_6  and  O10_10 
REMARK    3  A    between atoms: C8_8  and  O10_10 
ROOT
HETATM    1  C1  UNL     1     -33.274  15.538  -3.494  1.00 20.00     0.003 A 
HETATM    2  C2  UNL     1     -33.276  16.175  -4.735  1.00 20.00     0.003 A 
HETATM    3  C3  UNL     1     -33.957  14.333  -3.328  1.00 20.00     0.039 A 
HETATM    4  C4  UNL     1     -33.962  15.609  -5.808  1.00 20.00     0.039 A 
HETATM    5  C5  UNL     1     -34.644  13.768  -4.401  1.00 20.00     0.099 A 
HETATM    6  C6  UNL     1     -34.646  14.405  -5.642  1.00 20.00     0.101 A 
ENDROOT
BRANCH   6   7
HETATM    7  O10 UNL     1     -35.314  13.862  -6.698  1.00 20.00    -0.349 OA
BRANCH   7   8
HETATM    8  C8  UNL     1     -35.552  14.712  -7.819  1.00 20.00     0.171 C 
HETATM    9  C7  UNL     1     -37.031  15.027  -7.894  1.00 20.00     0.034 C 
ENDBRANCH   7   8
ENDBRANCH   6   7
BRANCH   5  10
HETATM   10  O9  UNL     1     -35.309  12.592  -4.225  1.00 20.00    -0.358 OA
HETATM   11  H20 UNL     1     -36.251  12.705  -4.428  1.00 20.00     0.217 HD
ENDBRANCH   5  10
TORSDOF 3
ENDMDL
MODEL 7
REMARK VINA RESULT:      -4.3      9.984     11.263
REMARK  3 active torsions:
REMARK  status: ('A' for Active; 'I' for Inactive)
REMARK    1  A    between atoms: C5_5  and  O9_9 
REMARK    2  A    between atoms: C6_6  and  O10_10 
REMARK    3  A    between atoms: C8_8  and  O10_10 
ROOT
HETATM    1  C1  UNL     1     -41.113   7.037  -0.878  1.00 20.00     0.003 A 
HETATM    2  C2  UNL     1     -40.678   5.764  -0.506  1.00 20.00     0.003 A 
HETATM    3  C3  UNL     1     -41.972   7.190  -1.966  1.00 20.00     0.039 A 
HETATM    4  C4  UNL     1     -41.102   4.646  -1.224  1.00 20.00     0.039 A 
HETATM    5  C5  UNL     1     -42.394   6.072  -2.684  1.00 20.00     0.099 A 
HETATM    6  C6  UNL     1     -41.960   4.799  -2.312  1.00 20.00     0.101 A 
ENDROOT
BRANCH   6   7
HETATM    7  O10 UNL     1     -42.366   3.699  -3.006  1.00 20.00    -0.349 OA
BRANCH   7   8
HETATM    8  C8  UNL     1     -41.455   2.603  -3.073  1.00 20.00     0.171 C 
HETATM    9  C7  UNL     1     -41.885   1.672  -4.187  1.00 20.00     0.034 C 
ENDBRANCH   7   8
ENDBRANCH   6   7
BRANCH   5  10
HETATM   10  O9  UNL     1     -43.232   6.235  -3.746  1.00 20.00    -0.358 OA
HETATM   11  H20 UNL     1     -43.797   7.012  -3.611  1.00 20.00     0.217 HD
ENDBRANCH   5  10
TORSDOF 3
ENDMDL
MODEL 8
REMARK VINA RESULT:      -4.2     11.959     12.443
REMARK  3 active torsions:
REMARK  status: ('A' for Active; 'I' for Inactive)
REMARK    1  A    between atoms: C5_5  and  O9_9 
REMARK    2  A    between atoms: C6_6  and  O10_10 
REMARK    3  A    between atoms: C8_8  and  O10_10 
ROOT
HETATM    1  C1  UNL     1     -34.119  13.580  -4.383  1.00 20.00     0.003 A 
HETATM    2  C2  UNL     1     -33.236  14.513  -3.837  1.00 20.00     0.003 A 
HETATM    3  C3  UNL     1     -35.491  13.709  -4.166  1.00 20.00     0.039 A 
HETATM    4  C4  UNL     1     -33.725  15.572  -3.075  1.00 20.00     0.039 A 
HETATM    5  C5  UNL     1     -35.980  14.768  -3.403  1.00 20.00     0.099 A 
HETATM    6  C6  UNL     1     -35.097  15.701  -2.857  1.00 20.00     0.101 A 
ENDROOT
BRANCH   6   7
HETATM    7  O10 UNL     1     -35.563  16.740  -2.109  1.00 20.00    -0.349 OA
BRANCH   7   8
HETATM    8  C8  UNL     1     -34.605  17.463  -1.338  1.00 20.00     0.171 C 
HETATM    9  C7  UNL     1     -34.875  17.224   0.133  1.00 20.00     0.034 C 
ENDBRANCH   7   8
ENDBRANCH   6   7
BRANCH   5  10
HETATM   10  O9  UNL     1     -37.322  14.882  -3.197  1.00 20.00    -0.358 OA
HETATM   11  H20 UNL     1     -37.747  14.014  -3.273  1.00 20.00     0.217 HD
ENDBRANCH   5  10
TORSDOF 3
ENDMDL
MODEL 9
REMARK VINA RESULT:      -4.1     11.724     13.046
REMARK  3 active torsions:
REMARK  status: ('A' for Active; 'I' for Inactive)
REMARK    1  A    between atoms: C5_5  and  O9_9 
REMARK    2  A    between atoms: C6_6  and  O10_10 
REMARK    3  A    between atoms: C8_8  and  O10_10 
ROOT
HETATM    1  C1  UNL     1     -34.823  13.824  -5.815  1.00 20.00     0.003 A 
HETATM    2  C2  UNL     1     -34.914  13.322  -4.516  1.00 20.00     0.003 A 
HETATM    3  C3  UNL     1     -34.291  15.094  -6.035  1.00 20.00     0.039 A 
HETATM    4  C4  UNL     1     -34.476  14.091  -3.439  1.00 20.00     0.039 A 
HETATM    5  C5  UNL     1     -33.854  15.864  -4.957  1.00 20.00     0.099 A 
HETATM    6  C6  UNL     1     -33.945  15.362  -3.659  1.00 20.00     0.101 A 
ENDROOT
BRANCH   6   7
HETATM    7  O10 UNL     1     -33.522  16.104  -2.598  1.00 20.00    -0.349 OA
BRANCH   7   8
HETATM    8  C8  UNL     1     -34.475  16.368  -1.570  1.00 20.00     0.171 C 
HETATM    9  C7  UNL     1     -33.928  17.442  -0.654  1.00 20.00     0.034 C 
ENDBRANCH   7   8
ENDBRANCH   6   7
BRANCH   5  10
HETATM   10  O9  UNL     1     -33.338  17.104  -5.186  1.00 20.00    -0.358 OA
HETATM   11  H20 UNL     1     -32.682  17.068  -5.899  1.00 20.00     0.217 HD
ENDBRANCH   5  10
TORSDOF 3
ENDMDL
