MODEL 1
REMARK VINA RESULT:      -5.2      0.000      0.000
REMARK  0 active torsions:
REMARK  status: ('A' for Active; 'I' for Inactive)
ROOT
HETATM    1  C1  UNL     1     -35.224   4.818   5.916  1.00 20.00     0.000 A 
HETATM    2  C2  UNL     1     -34.372   5.786   6.448  1.00 20.00     0.001 A 
HETATM    3  C3  UNL     1     -35.240   4.582   4.541  1.00 20.00     0.001 A 
HETATM    4  C4  UNL     1     -33.537   6.520   5.606  1.00 20.00     0.018 A 
HETATM    5  C5  UNL     1     -34.404   5.315   3.698  1.00 20.00     0.018 A 
HETATM    6  C6  UNL     1     -33.553   6.284   4.231  1.00 20.00     0.006 A 
HETATM    7  I7  UNL     1     -32.308   7.376   2.975  1.00 20.00    -0.045 I 
ENDROOT
TORSDOF 0
ENDMDL
MODEL 2
REMARK VINA RESULT:      -5.2      0.001      1.827
REMARK  0 active torsions:
REMARK  status: ('A' for Active; 'I' for Inactive)
ROOT
HETATM    1  C1  UNL     1     -35.223   4.818   5.916  1.00 20.00     0.000 A 
HETATM    2  C2  UNL     1     -35.239   4.583   4.542  1.00 20.00     0.001 A 
HETATM    3  C3  UNL     1     -34.372   5.787   6.449  1.00 20.00     0.001 A 
HETATM    4  C4  UNL     1     -34.403   5.315   3.699  1.00 20.00     0.018 A 
HETATM    5  C5  UNL     1     -33.537   6.520   5.606  1.00 20.00     0.018 A 
HETATM    6  C6  UNL     1     -33.552   6.284   4.231  1.00 20.00     0.006 A 
HETATM    7  I7  UNL     1     -32.308   7.376   2.976  1.00 20.00    -0.045 I 
ENDROOT
TORSDOF 0
ENDMDL
MODEL 3
REMARK VINA RESULT:      -3.8      9.485     10.372
REMARK  0 active torsions:
REMARK  status: ('A' for Active; 'I' for Inactive)
ROOT
HETATM    1  C1  UNL     1     -41.114   7.101  -0.903  1.00 20.00     0.000 A 
HETATM    2  C2  UNL     1     -41.954   7.101  -2.016  1.00 20.00     0.001 A 
HETATM    3  C3  UNL     1     -40.651   5.894  -0.377  1.00 20.00     0.001 A 
HETATM    4  C4  UNL     1     -42.332   5.894  -2.605  1.00 20.00     0.018 A 
HETATM    5  C5  UNL     1     -41.029   4.687  -0.966  1.00 20.00     0.018 A 
HETATM    6  C6  UNL     1     -41.869   4.687  -2.080  1.00 20.00     0.006 A 
HETATM    7  I7  UNL     1     -42.432   2.890  -2.957  1.00 20.00    -0.045 I 
ENDROOT
TORSDOF 0
ENDMDL
MODEL 4
REMARK VINA RESULT:      -3.8      9.485     10.294
REMARK  0 active torsions:
REMARK  status: ('A' for Active; 'I' for Inactive)
ROOT
HETATM    1  C1  UNL     1     -41.113   7.101  -0.902  1.00 20.00     0.000 A 
HETATM    2  C2  UNL     1     -40.651   5.894  -0.378  1.00 20.00     0.001 A 
HETATM    3  C3  UNL     1     -41.955   7.102  -2.015  1.00 20.00     0.001 A 
HETATM    4  C4  UNL     1     -41.028   4.687  -0.967  1.00 20.00     0.018 A 
HETATM    5  C5  UNL     1     -42.332   5.894  -2.604  1.00 20.00     0.018 A 
HETATM    6  C6  UNL     1     -41.869   4.687  -2.080  1.00 20.00     0.006 A 
HETATM    7  I7  UNL     1     -42.432   2.890  -2.957  1.00 20.00    -0.045 I 
ENDROOT
TORSDOF 0
ENDMDL
MODEL 5
REMARK VINA RESULT:      -3.8     12.143     12.408
REMARK  0 active torsions:
REMARK  status: ('A' for Active; 'I' for Inactive)
ROOT
HETATM    1  C1  UNL     1     -34.988  13.408  -4.599  1.00 20.00     0.000 A 
HETATM    2  C2  UNL     1     -36.104  14.136  -4.187  1.00 20.00     0.001 A 
HETATM    3  C3  UNL     1     -33.726  13.714  -4.088  1.00 20.00     0.001 A 
HETATM    4  C4  UNL     1     -35.959  15.171  -3.264  1.00 20.00     0.018 A 
HETATM    5  C5  UNL     1     -33.582  14.749  -3.164  1.00 20.00     0.018 A 
HETATM    6  C6  UNL     1     -34.698  15.478  -2.752  1.00 20.00     0.006 A 
HETATM    7  I7  UNL     1     -34.483  17.019  -1.375  1.00 20.00    -0.045 I 
ENDROOT
TORSDOF 0
ENDMDL
MODEL 6
REMARK VINA RESULT:      -3.8     12.151     12.368
REMARK  0 active torsions:
REMARK  status: ('A' for Active; 'I' for Inactive)
ROOT
HETATM    1  C1  UNL     1     -34.996  13.411  -4.598  1.00 20.00     0.000 A 
HETATM    2  C2  UNL     1     -33.734  13.721  -4.096  1.00 20.00     0.001 A 
HETATM    3  C3  UNL     1     -36.113  14.135  -4.177  1.00 20.00     0.001 A 
HETATM    4  C4  UNL     1     -33.585  14.754  -3.170  1.00 20.00     0.018 A 
HETATM    5  C5  UNL     1     -35.964  15.169  -3.251  1.00 20.00     0.018 A 
HETATM    6  C6  UNL     1     -34.700  15.478  -2.748  1.00 20.00     0.006 A 
HETATM    7  I7  UNL     1     -34.479  17.017  -1.370  1.00 20.00    -0.045 I 
ENDROOT
TORSDOF 0
ENDMDL
MODEL 7
REMARK VINA RESULT:      -3.7      9.519     10.398
REMARK  0 active torsions:
REMARK  status: ('A' for Active; 'I' for Inactive)
ROOT
HETATM    1  C1  UNL     1     -40.890   4.686  -0.745  1.00 20.00     0.000 A 
HETATM    2  C2  UNL     1     -41.690   4.261  -1.805  1.00 20.00     0.001 A 
HETATM    3  C3  UNL     1     -40.699   6.049  -0.517  1.00 20.00     0.001 A 
HETATM    4  C4  UNL     1     -42.300   5.199  -2.638  1.00 20.00     0.018 A 
HETATM    5  C5  UNL     1     -41.309   6.987  -1.350  1.00 20.00     0.018 A 
HETATM    6  C6  UNL     1     -42.110   6.562  -2.411  1.00 20.00     0.006 A 
HETATM    7  I7  UNL     1     -43.018   7.960  -3.651  1.00 20.00    -0.045 I 
ENDROOT
TORSDOF 0
ENDMDL
MODEL 8
REMARK VINA RESULT:      -3.6     12.700     13.728
REMARK  0 active torsions:
REMARK  status: ('A' for Active; 'I' for Inactive)
ROOT
HETATM    1  C1  UNL     1     -33.105  14.889  -3.624  1.00 20.00     0.000 A 
HETATM    2  C2  UNL     1     -33.821  13.751  -3.994  1.00 20.00     0.001 A 
HETATM    3  C3  UNL     1     -33.108  16.014  -4.449  1.00 20.00     0.001 A 
HETATM    4  C4  UNL     1     -34.540  13.736  -5.189  1.00 20.00     0.018 A 
HETATM    5  C5  UNL     1     -33.827  16.000  -5.644  1.00 20.00     0.018 A 
HETATM    6  C6  UNL     1     -34.543  14.861  -6.014  1.00 20.00     0.006 A 
HETATM    7  I7  UNL     1     -35.615  14.841  -7.794  1.00 20.00    -0.045 I 
ENDROOT
TORSDOF 0
ENDMDL
MODEL 9
REMARK VINA RESULT:      -3.6     12.712     13.689
REMARK  0 active torsions:
REMARK  status: ('A' for Active; 'I' for Inactive)
ROOT
HETATM    1  C1  UNL     1     -33.132  14.943  -3.609  1.00 20.00     0.000 A 
HETATM    2  C2  UNL     1     -33.135  16.056  -4.448  1.00 20.00     0.001 A 
HETATM    3  C3  UNL     1     -33.841  13.795  -3.968  1.00 20.00     0.001 A 
HETATM    4  C4  UNL     1     -33.848  16.025  -5.646  1.00 20.00     0.018 A 
HETATM    5  C5  UNL     1     -34.554  13.764  -5.167  1.00 20.00     0.018 A 
HETATM    6  C6  UNL     1     -34.557  14.879  -6.006  1.00 20.00     0.006 A 
HETATM    7  I7  UNL     1     -35.618  14.831  -7.792  1.00 20.00    -0.045 I 
ENDROOT
TORSDOF 0
ENDMDL
