MODEL 1
REMARK VINA RESULT:      -5.2      0.000      0.000
REMARK  0 active torsions:
REMARK  status: ('A' for Active; 'I' for Inactive)
ROOT
HETATM    1  C1  UNL     1     -35.181   4.894   5.965  1.00 20.00     0.002 A 
HETATM    2  C2  UNL     1     -34.347   5.872   6.506  1.00 20.00     0.002 A 
HETATM    3  C3  UNL     1     -35.162   4.641   4.593  1.00 20.00     0.025 A 
HETATM    4  C4  UNL     1     -33.493   6.599   5.674  1.00 20.00     0.025 A 
HETATM    5  C5  UNL     1     -34.309   5.367   3.762  1.00 20.00     0.055 A 
HETATM    6  C6  UNL     1     -33.475   6.345   4.303  1.00 20.00     0.055 A 
HETATM    7 CL7  UNL     1     -34.330   5.008   2.071  1.00 20.00    -0.083 Cl
HETATM    8 CL8  UNL     1     -32.396   7.278   3.326  1.00 20.00    -0.083 Cl
ENDROOT
TORSDOF 0
ENDMDL
MODEL 2
REMARK VINA RESULT:      -5.2      0.022      2.353
REMARK  0 active torsions:
REMARK  status: ('A' for Active; 'I' for Inactive)
ROOT
HETATM    1  C1  UNL     1     -34.366   5.847   6.501  1.00 20.00     0.002 A 
HETATM    2  C2  UNL     1     -35.199   4.873   5.952  1.00 20.00     0.002 A 
HETATM    3  C3  UNL     1     -33.508   6.577   5.677  1.00 20.00     0.025 A 
HETATM    4  C4  UNL     1     -35.175   4.627   4.578  1.00 20.00     0.025 A 
HETATM    5  C5  UNL     1     -33.483   6.332   4.304  1.00 20.00     0.055 A 
HETATM    6  C6  UNL     1     -34.317   5.357   3.755  1.00 20.00     0.055 A 
HETATM    7 CL7  UNL     1     -32.400   7.268   3.336  1.00 20.00    -0.083 Cl
HETATM    8 CL8  UNL     1     -34.333   5.006   2.063  1.00 20.00    -0.083 Cl
ENDROOT
TORSDOF 0
ENDMDL
MODEL 3
REMARK VINA RESULT:      -5.1      1.304      2.603
REMARK  0 active torsions:
REMARK  status: ('A' for Active; 'I' for Inactive)
ROOT
HETATM    1  C1  UNL     1     -35.279   4.311   5.844  1.00 20.00     0.002 A 
HETATM    2  C2  UNL     1     -35.185   4.223   4.455  1.00 20.00     0.002 A 
HETATM    3  C3  UNL     1     -34.618   5.334   6.524  1.00 20.00     0.025 A 
HETATM    4  C4  UNL     1     -34.430   5.157   3.746  1.00 20.00     0.025 A 
HETATM    5  C5  UNL     1     -33.862   6.268   5.816  1.00 20.00     0.055 A 
HETATM    6  C6  UNL     1     -33.769   6.180   4.427  1.00 20.00     0.055 A 
HETATM    7 CL7  UNL     1     -33.067   7.512   6.715  1.00 20.00    -0.083 Cl
HETATM    8 CL8  UNL     1     -32.848   7.306   3.493  1.00 20.00    -0.083 Cl
ENDROOT
TORSDOF 0
ENDMDL
MODEL 4
REMARK VINA RESULT:      -5.1      1.302      2.149
REMARK  0 active torsions:
REMARK  status: ('A' for Active; 'I' for Inactive)
ROOT
HETATM    1  C1  UNL     1     -35.186   4.229   4.445  1.00 20.00     0.002 A 
HETATM    2  C2  UNL     1     -35.282   4.314   5.834  1.00 20.00     0.002 A 
HETATM    3  C3  UNL     1     -34.427   5.162   3.739  1.00 20.00     0.025 A 
HETATM    4  C4  UNL     1     -34.619   5.334   6.518  1.00 20.00     0.025 A 
HETATM    5  C5  UNL     1     -33.764   6.182   4.422  1.00 20.00     0.055 A 
HETATM    6  C6  UNL     1     -33.860   6.267   5.811  1.00 20.00     0.055 A 
HETATM    7 CL7  UNL     1     -32.840   7.308   3.492  1.00 20.00    -0.083 Cl
HETATM    8 CL8  UNL     1     -33.062   7.506   6.714  1.00 20.00    -0.083 Cl
ENDROOT
TORSDOF 0
ENDMDL
MODEL 5
REMARK VINA RESULT:      -4.4      2.235      3.671
REMARK  0 active torsions:
REMARK  status: ('A' for Active; 'I' for Inactive)
ROOT
HETATM    1  C1  UNL     1     -33.292   6.267   2.935  1.00 20.00     0.002 A 
HETATM    2  C2  UNL     1     -34.209   5.219   2.851  1.00 20.00     0.002 A 
HETATM    3  C3  UNL     1     -33.016   6.856   4.169  1.00 20.00     0.025 A 
HETATM    4  C4  UNL     1     -34.850   4.760   4.002  1.00 20.00     0.025 A 
HETATM    5  C5  UNL     1     -33.657   6.397   5.320  1.00 20.00     0.055 A 
HETATM    6  C6  UNL     1     -34.574   5.350   5.236  1.00 20.00     0.055 A 
HETATM    7 CL7  UNL     1     -33.273   7.167   6.819  1.00 20.00    -0.083 Cl
HETATM    8 CL8  UNL     1     -35.401   4.737   6.625  1.00 20.00    -0.083 Cl
ENDROOT
TORSDOF 0
ENDMDL
MODEL 6
REMARK VINA RESULT:      -4.4      2.242      2.876
REMARK  0 active torsions:
REMARK  status: ('A' for Active; 'I' for Inactive)
ROOT
HETATM    1  C1  UNL     1     -34.181   5.175   2.892  1.00 20.00     0.002 A 
HETATM    2  C2  UNL     1     -33.283   6.240   2.967  1.00 20.00     0.002 A 
HETATM    3  C3  UNL     1     -34.825   4.722   4.044  1.00 20.00     0.025 A 
HETATM    4  C4  UNL     1     -33.028   6.852   4.195  1.00 20.00     0.025 A 
HETATM    5  C5  UNL     1     -34.570   5.333   5.271  1.00 20.00     0.055 A 
HETATM    6  C6  UNL     1     -33.672   6.398   5.347  1.00 20.00     0.055 A 
HETATM    7 CL7  UNL     1     -35.398   4.727   6.662  1.00 20.00    -0.083 Cl
HETATM    8 CL8  UNL     1     -33.314   7.197   6.837  1.00 20.00    -0.083 Cl
ENDROOT
TORSDOF 0
ENDMDL
MODEL 7
REMARK VINA RESULT:      -4.0      2.075      3.754
REMARK  0 active torsions:
REMARK  status: ('A' for Active; 'I' for Inactive)
ROOT
HETATM    1  C1  UNL     1     -32.127   7.018   3.141  1.00 20.00     0.002 A 
HETATM    2  C2  UNL     1     -32.778   6.069   2.353  1.00 20.00     0.002 A 
HETATM    3  C3  UNL     1     -32.520   7.215   4.464  1.00 20.00     0.025 A 
HETATM    4  C4  UNL     1     -33.824   5.317   2.889  1.00 20.00     0.025 A 
HETATM    5  C5  UNL     1     -33.565   6.464   5.001  1.00 20.00     0.055 A 
HETATM    6  C6  UNL     1     -34.217   5.515   4.213  1.00 20.00     0.055 A 
HETATM    7 CL7  UNL     1     -34.007   6.754   6.647  1.00 20.00    -0.083 Cl
HETATM    8 CL8  UNL     1     -35.519   4.553   4.819  1.00 20.00    -0.083 Cl
ENDROOT
TORSDOF 0
ENDMDL
MODEL 8
REMARK VINA RESULT:      -3.9     12.810     13.608
REMARK  0 active torsions:
REMARK  status: ('A' for Active; 'I' for Inactive)
ROOT
HETATM    1  C1  UNL     1     -33.609  13.816  -3.832  1.00 20.00     0.002 A 
HETATM    2  C2  UNL     1     -33.032  15.066  -3.613  1.00 20.00     0.002 A 
HETATM    3  C3  UNL     1     -34.385  13.595  -4.969  1.00 20.00     0.025 A 
HETATM    4  C4  UNL     1     -33.232  16.097  -4.532  1.00 20.00     0.025 A 
HETATM    5  C5  UNL     1     -34.586  14.625  -5.888  1.00 20.00     0.055 A 
HETATM    6  C6  UNL     1     -34.009  15.876  -5.669  1.00 20.00     0.055 A 
HETATM    7 CL7  UNL     1     -35.558  14.290  -7.277  1.00 20.00    -0.083 Cl
HETATM    8 CL8  UNL     1     -34.219  17.192  -6.769  1.00 20.00    -0.083 Cl
ENDROOT
TORSDOF 0
ENDMDL
MODEL 9
REMARK VINA RESULT:      -3.9     12.806     13.792
REMARK  0 active torsions:
REMARK  status: ('A' for Active; 'I' for Inactive)
ROOT
HETATM    1  C1  UNL     1     -33.070  15.056  -3.604  1.00 20.00     0.002 A 
HETATM    2  C2  UNL     1     -33.651  13.807  -3.825  1.00 20.00     0.002 A 
HETATM    3  C3  UNL     1     -33.250  16.083  -4.529  1.00 20.00     0.025 A 
HETATM    4  C4  UNL     1     -34.412  13.586  -4.973  1.00 20.00     0.025 A 
HETATM    5  C5  UNL     1     -34.010  15.862  -5.678  1.00 20.00     0.055 A 
HETATM    6  C6  UNL     1     -34.591  14.614  -5.899  1.00 20.00     0.055 A 
HETATM    7 CL7  UNL     1     -34.197  17.174  -6.788  1.00 20.00    -0.083 Cl
HETATM    8 CL8  UNL     1     -35.544  14.277  -7.302  1.00 20.00    -0.083 Cl
ENDROOT
TORSDOF 0
ENDMDL
