MODEL 1
REMARK VINA RESULT:      -5.4      0.000      0.000
REMARK  1 active torsions:
REMARK  status: ('A' for Active; 'I' for Inactive)
REMARK    1  A    between atoms: C6_6  and  N8_8 
ROOT
HETATM    1  N7  UNL     1     -31.105   7.632   3.699  1.00 20.00     0.068 N 
HETATM    2  N8  UNL     1     -33.280   6.833   3.107  1.00 20.00    -0.073 NA
HETATM    3  N9  UNL     1     -32.144   7.250   3.420  1.00 20.00    -0.162 NA
ENDROOT
BRANCH   2   4
HETATM    4  C6  UNL     1     -33.891   6.101   4.130  1.00 20.00     0.093 A 
HETATM    5  C4  UNL     1     -34.618   4.951   3.825  1.00 20.00     0.034 A 
HETATM    6  C2  UNL     1     -35.227   4.219   4.846  1.00 20.00     0.002 A 
HETATM    7  C1  UNL     1     -35.108   4.639   6.171  1.00 20.00     0.000 A 
HETATM    8  C3  UNL     1     -34.380   5.789   6.475  1.00 20.00     0.002 A 
HETATM    9  C5  UNL     1     -33.771   6.521   5.455  1.00 20.00     0.034 A 
ENDBRANCH   2   4
TORSDOF 1
ENDMDL
MODEL 2
REMARK VINA RESULT:      -5.4      0.045      1.611
REMARK  1 active torsions:
REMARK  status: ('A' for Active; 'I' for Inactive)
REMARK    1  A    between atoms: C6_6  and  N8_8 
ROOT
HETATM    1  N7  UNL     1     -31.074   7.631   3.710  1.00 20.00     0.068 N 
HETATM    2  N8  UNL     1     -33.262   6.875   3.106  1.00 20.00    -0.073 NA
HETATM    3  N9  UNL     1     -32.119   7.269   3.425  1.00 20.00    -0.162 NA
ENDROOT
BRANCH   2   4
HETATM    4  C6  UNL     1     -33.879   6.128   4.113  1.00 20.00     0.093 A 
HETATM    5  C4  UNL     1     -33.748   6.512   5.447  1.00 20.00     0.034 A 
HETATM    6  C2  UNL     1     -34.365   5.766   6.452  1.00 20.00     0.002 A 
HETATM    7  C1  UNL     1     -35.113   4.636   6.122  1.00 20.00     0.000 A 
HETATM    8  C3  UNL     1     -35.244   4.252   4.787  1.00 20.00     0.002 A 
HETATM    9  C5  UNL     1     -34.627   4.998   3.782  1.00 20.00     0.034 A 
ENDBRANCH   2   4
TORSDOF 1
ENDMDL
MODEL 3
REMARK VINA RESULT:      -4.3     10.289     11.145
REMARK  1 active torsions:
REMARK  status: ('A' for Active; 'I' for Inactive)
REMARK    1  A    between atoms: C6_6  and  N8_8 
ROOT
HETATM    1  N7  UNL     1     -43.159   8.237  -4.725  1.00 20.00     0.068 N 
HETATM    2  N8  UNL     1     -43.372   6.155  -3.567  1.00 20.00    -0.073 NA
HETATM    3  N9  UNL     1     -43.258   7.245  -4.170  1.00 20.00    -0.162 NA
ENDROOT
BRANCH   2   4
HETATM    4  C6  UNL     1     -42.440   6.005  -2.537  1.00 20.00     0.093 A 
HETATM    5  C4  UNL     1     -41.898   4.749  -2.263  1.00 20.00     0.034 A 
HETATM    6  C2  UNL     1     -40.967   4.599  -1.235  1.00 20.00     0.002 A 
HETATM    7  C1  UNL     1     -40.578   5.706  -0.480  1.00 20.00     0.000 A 
HETATM    8  C3  UNL     1     -41.120   6.962  -0.753  1.00 20.00     0.002 A 
HETATM    9  C5  UNL     1     -42.051   7.112  -1.782  1.00 20.00     0.034 A 
ENDBRANCH   2   4
TORSDOF 1
ENDMDL
MODEL 4
REMARK VINA RESULT:      -4.2     11.932     12.215
REMARK  1 active torsions:
REMARK  status: ('A' for Active; 'I' for Inactive)
REMARK    1  A    between atoms: C6_6  and  N8_8 
ROOT
HETATM    1  N7  UNL     1     -34.797  16.907  -0.083  1.00 20.00     0.068 N 
HETATM    2  N8  UNL     1     -33.731  16.645  -2.208  1.00 20.00    -0.073 NA
HETATM    3  N9  UNL     1     -34.290  16.779  -1.098  1.00 20.00    -0.162 NA
ENDROOT
BRANCH   2   4
HETATM    4  C6  UNL     1     -34.234  15.568  -2.943  1.00 20.00     0.093 A 
HETATM    5  C4  UNL     1     -33.361  14.623  -3.483  1.00 20.00     0.034 A 
HETATM    6  C2  UNL     1     -33.863  13.547  -4.216  1.00 20.00     0.002 A 
HETATM    7  C1  UNL     1     -35.239  13.417  -4.408  1.00 20.00     0.000 A 
HETATM    8  C3  UNL     1     -36.112  14.361  -3.868  1.00 20.00     0.002 A 
HETATM    9  C5  UNL     1     -35.609  15.437  -3.135  1.00 20.00     0.034 A 
ENDBRANCH   2   4
TORSDOF 1
ENDMDL
MODEL 5
REMARK VINA RESULT:      -4.2     11.937     12.224
REMARK  1 active torsions:
REMARK  status: ('A' for Active; 'I' for Inactive)
REMARK    1  A    between atoms: C6_6  and  N8_8 
ROOT
HETATM    1  N7  UNL     1     -34.797  16.925  -0.075  1.00 20.00     0.068 N 
HETATM    2  N8  UNL     1     -33.733  16.659  -2.201  1.00 20.00    -0.073 NA
HETATM    3  N9  UNL     1     -34.291  16.795  -1.091  1.00 20.00    -0.162 NA
ENDROOT
BRANCH   2   4
HETATM    4  C6  UNL     1     -34.241  15.584  -2.936  1.00 20.00     0.093 A 
HETATM    5  C4  UNL     1     -35.616  15.462  -3.135  1.00 20.00     0.034 A 
HETATM    6  C2  UNL     1     -36.123  14.389  -3.870  1.00 20.00     0.002 A 
HETATM    7  C1  UNL     1     -35.254  13.438  -4.404  1.00 20.00     0.000 A 
HETATM    8  C3  UNL     1     -33.878  13.559  -4.205  1.00 20.00     0.002 A 
HETATM    9  C5  UNL     1     -33.371  14.633  -3.470  1.00 20.00     0.034 A 
ENDBRANCH   2   4
TORSDOF 1
ENDMDL
MODEL 6
REMARK VINA RESULT:      -4.1     12.187     13.307
REMARK  1 active torsions:
REMARK  status: ('A' for Active; 'I' for Inactive)
REMARK    1  A    between atoms: C6_6  and  N8_8 
ROOT
HETATM    1  N7  UNL     1     -38.575  14.906  -3.734  1.00 20.00     0.068 N 
HETATM    2  N8  UNL     1     -36.508  13.718  -3.933  1.00 20.00    -0.073 NA
HETATM    3  N9  UNL     1     -37.587  14.342  -3.829  1.00 20.00    -0.162 NA
ENDROOT
BRANCH   2   4
HETATM    4  C6  UNL     1     -35.414  14.558  -4.159  1.00 20.00     0.093 A 
HETATM    5  C4  UNL     1     -34.617  14.968  -3.091  1.00 20.00     0.034 A 
HETATM    6  C2  UNL     1     -33.524  15.806  -3.316  1.00 20.00     0.002 A 
HETATM    7  C1  UNL     1     -33.230  16.234  -4.610  1.00 20.00     0.000 A 
HETATM    8  C3  UNL     1     -34.027  15.824  -5.679  1.00 20.00     0.002 A 
HETATM    9  C5  UNL     1     -35.120  14.986  -5.454  1.00 20.00     0.034 A 
ENDBRANCH   2   4
TORSDOF 1
ENDMDL
MODEL 7
REMARK VINA RESULT:      -4.1     12.189     13.238
REMARK  1 active torsions:
REMARK  status: ('A' for Active; 'I' for Inactive)
REMARK    1  A    between atoms: C6_6  and  N8_8 
ROOT
HETATM    1  N7  UNL     1     -38.566  14.902  -3.747  1.00 20.00     0.068 N 
HETATM    2  N8  UNL     1     -36.494  13.722  -3.938  1.00 20.00    -0.073 NA
HETATM    3  N9  UNL     1     -37.576  14.342  -3.838  1.00 20.00    -0.162 NA
ENDROOT
BRANCH   2   4
HETATM    4  C6  UNL     1     -35.402  14.567  -4.156  1.00 20.00     0.093 A 
HETATM    5  C4  UNL     1     -35.113  15.014  -5.446  1.00 20.00     0.034 A 
HETATM    6  C2  UNL     1     -34.023  15.858  -5.663  1.00 20.00     0.002 A 
HETATM    7  C1  UNL     1     -33.224  16.255  -4.591  1.00 20.00     0.000 A 
HETATM    8  C3  UNL     1     -33.513  15.808  -3.302  1.00 20.00     0.002 A 
HETATM    9  C5  UNL     1     -34.603  14.964  -3.084  1.00 20.00     0.034 A 
ENDBRANCH   2   4
TORSDOF 1
ENDMDL
MODEL 8
REMARK VINA RESULT:      -4.1     10.032     10.949
REMARK  1 active torsions:
REMARK  status: ('A' for Active; 'I' for Inactive)
REMARK    1  A    between atoms: C6_6  and  N8_8 
ROOT
HETATM    1  N7  UNL     1     -41.138   2.020  -3.785  1.00 20.00     0.068 N 
HETATM    2  N8  UNL     1     -42.570   3.204  -2.279  1.00 20.00    -0.073 NA
HETATM    3  N9  UNL     1     -41.819   2.588  -3.067  1.00 20.00    -0.162 NA
ENDROOT
BRANCH   2   4
HETATM    4  C6  UNL     1     -42.070   4.460  -1.923  1.00 20.00     0.093 A 
HETATM    5  C4  UNL     1     -41.188   4.580  -0.848  1.00 20.00     0.034 A 
HETATM    6  C2  UNL     1     -40.688   5.833  -0.492  1.00 20.00     0.002 A 
HETATM    7  C1  UNL     1     -41.070   6.965  -1.212  1.00 20.00     0.000 A 
HETATM    8  C3  UNL     1     -41.951   6.845  -2.287  1.00 20.00     0.002 A 
HETATM    9  C5  UNL     1     -42.451   5.592  -2.643  1.00 20.00     0.034 A 
ENDBRANCH   2   4
TORSDOF 1
ENDMDL
MODEL 9
REMARK VINA RESULT:      -4.0     12.665     13.550
REMARK  1 active torsions:
REMARK  status: ('A' for Active; 'I' for Inactive)
REMARK    1  A    between atoms: C6_6  and  N8_8 
ROOT
HETATM    1  N7  UNL     1     -33.979  18.586  -3.155  1.00 20.00     0.068 N 
HETATM    2  N8  UNL     1     -33.155  17.239  -4.951  1.00 20.00    -0.073 NA
HETATM    3  N9  UNL     1     -33.588  17.940  -4.011  1.00 20.00    -0.162 NA
ENDROOT
BRANCH   2   4
HETATM    4  C6  UNL     1     -33.598  15.915  -4.890  1.00 20.00     0.093 A 
HETATM    5  C4  UNL     1     -33.222  15.102  -3.820  1.00 20.00     0.034 A 
HETATM    6  C2  UNL     1     -33.665  13.780  -3.758  1.00 20.00     0.002 A 
HETATM    7  C1  UNL     1     -34.485  13.272  -4.766  1.00 20.00     0.000 A 
HETATM    8  C3  UNL     1     -34.861  14.085  -5.835  1.00 20.00     0.002 A 
HETATM    9  C5  UNL     1     -34.418  15.407  -5.898  1.00 20.00     0.034 A 
ENDBRANCH   2   4
TORSDOF 1
ENDMDL
