MODEL 1
REMARK VINA RESULT:      -5.1      0.000      0.000
REMARK  1 active torsions:
REMARK  status: ('A' for Active; 'I' for Inactive)
REMARK    1  A    between atoms: C6_6  and  C9_9 
ROOT
HETATM    1  C1  UNL     1     -34.021   6.051   6.193  1.00 20.00     0.007 A 
HETATM    2  C2  UNL     1     -35.115   4.664   4.544  1.00 20.00     0.007 A 
HETATM    3  C3  UNL     1     -33.366   6.745   5.175  1.00 20.00     0.007 A 
HETATM    4  C4  UNL     1     -34.460   5.357   3.526  1.00 20.00     0.007 A 
HETATM    5  C5  UNL     1     -34.897   5.011   5.877  1.00 20.00    -0.062 A 
HETATM    6  C6  UNL     1     -33.585   6.397   3.842  1.00 20.00    -0.059 A 
HETATM    7  C7  UNL     1     -35.597   4.270   6.964  1.00 20.00     0.048 C 
ENDROOT
BRANCH   6   8
HETATM    8  C9  UNL     1     -32.885   7.140   2.755  1.00 20.00     0.034 C 
HETATM    9  C8  UNL     1     -31.513   7.647   3.187  1.00 20.00     0.010 C 
ENDBRANCH   6   8
TORSDOF 1
ENDMDL
MODEL 2
REMARK VINA RESULT:      -5.1      0.023      1.611
REMARK  1 active torsions:
REMARK  status: ('A' for Active; 'I' for Inactive)
REMARK    1  A    between atoms: C6_6  and  C9_9 
ROOT
HETATM    1  C1  UNL     1     -35.110   4.646   4.524  1.00 20.00     0.007 A 
HETATM    2  C2  UNL     1     -34.041   6.035   6.188  1.00 20.00     0.007 A 
HETATM    3  C3  UNL     1     -34.450   5.348   3.514  1.00 20.00     0.007 A 
HETATM    4  C4  UNL     1     -33.381   6.736   5.178  1.00 20.00     0.007 A 
HETATM    5  C5  UNL     1     -34.904   4.990   5.861  1.00 20.00    -0.062 A 
HETATM    6  C6  UNL     1     -33.586   6.393   3.842  1.00 20.00    -0.059 A 
HETATM    7  C7  UNL     1     -35.609   4.241   6.940  1.00 20.00     0.048 C 
ENDROOT
BRANCH   6   8
HETATM    8  C9  UNL     1     -32.879   7.140   2.762  1.00 20.00     0.034 C 
HETATM    9  C8  UNL     1     -31.503   7.633   3.200  1.00 20.00     0.010 C 
ENDBRANCH   6   8
TORSDOF 1
ENDMDL
MODEL 3
REMARK VINA RESULT:      -5.0      0.988      1.966
REMARK  1 active torsions:
REMARK  status: ('A' for Active; 'I' for Inactive)
REMARK    1  A    between atoms: C6_6  and  C9_9 
ROOT
HETATM    1  C1  UNL     1     -34.553   5.060   3.772  1.00 20.00     0.007 A 
HETATM    2  C2  UNL     1     -33.546   6.389   5.521  1.00 20.00     0.007 A 
HETATM    3  C3  UNL     1     -33.782   5.729   2.820  1.00 20.00     0.007 A 
HETATM    4  C4  UNL     1     -32.775   7.057   4.569  1.00 20.00     0.007 A 
HETATM    5  C5  UNL     1     -34.434   5.390   5.122  1.00 20.00    -0.062 A 
HETATM    6  C6  UNL     1     -32.893   6.727   3.219  1.00 20.00    -0.059 A 
HETATM    7  C7  UNL     1     -35.257   4.676   6.140  1.00 20.00     0.048 C 
ENDROOT
BRANCH   6   8
HETATM    8  C9  UNL     1     -32.068   7.439   2.201  1.00 20.00     0.034 C 
HETATM    9  C8  UNL     1     -32.461   8.907   2.058  1.00 20.00     0.010 C 
ENDBRANCH   6   8
TORSDOF 1
ENDMDL
MODEL 4
REMARK VINA RESULT:      -4.6      0.841      3.945
REMARK  1 active torsions:
REMARK  status: ('A' for Active; 'I' for Inactive)
REMARK    1  A    between atoms: C6_6  and  C9_9 
ROOT
HETATM    1  C1  UNL     1     -32.854   7.104   4.377  1.00 20.00     0.007 A 
HETATM    2  C2  UNL     1     -33.411   5.999   2.301  1.00 20.00     0.007 A 
HETATM    3  C3  UNL     1     -33.703   6.237   5.066  1.00 20.00     0.007 A 
HETATM    4  C4  UNL     1     -34.259   5.132   2.990  1.00 20.00     0.007 A 
HETATM    5  C5  UNL     1     -32.708   6.984   2.994  1.00 20.00    -0.062 A 
HETATM    6  C6  UNL     1     -34.405   5.251   4.372  1.00 20.00    -0.059 A 
HETATM    7  C7  UNL     1     -31.802   7.910   2.257  1.00 20.00     0.048 C 
ENDROOT
BRANCH   6   8
HETATM    8  C9  UNL     1     -35.310   4.324   5.111  1.00 20.00     0.034 C 
HETATM    9  C8  UNL     1     -35.171   4.459   6.624  1.00 20.00     0.010 C 
ENDBRANCH   6   8
TORSDOF 1
ENDMDL
MODEL 5
REMARK VINA RESULT:      -4.2     12.216     12.620
REMARK  1 active torsions:
REMARK  status: ('A' for Active; 'I' for Inactive)
REMARK    1  A    between atoms: C6_6  and  C9_9 
ROOT
HETATM    1  C1  UNL     1     -35.710  14.842  -3.458  1.00 20.00     0.007 A 
HETATM    2  C2  UNL     1     -33.349  14.751  -3.966  1.00 20.00     0.007 A 
HETATM    3  C3  UNL     1     -35.464  15.820  -2.493  1.00 20.00     0.007 A 
HETATM    4  C4  UNL     1     -33.104  15.729  -3.002  1.00 20.00     0.007 A 
HETATM    5  C5  UNL     1     -34.652  14.309  -4.195  1.00 20.00    -0.062 A 
HETATM    6  C6  UNL     1     -34.161  16.263  -2.265  1.00 20.00    -0.059 A 
HETATM    7  C7  UNL     1     -34.914  13.264  -5.225  1.00 20.00     0.048 C 
ENDROOT
BRANCH   6   8
HETATM    8  C9  UNL     1     -33.901  17.309  -1.235  1.00 20.00     0.034 C 
HETATM    9  C8  UNL     1     -34.818  17.174  -0.024  1.00 20.00     0.010 C 
ENDBRANCH   6   8
TORSDOF 1
ENDMDL
MODEL 6
REMARK VINA RESULT:      -4.2      9.569     11.040
REMARK  1 active torsions:
REMARK  status: ('A' for Active; 'I' for Inactive)
REMARK    1  A    between atoms: C6_6  and  C9_9 
ROOT
HETATM    1  C1  UNL     1     -42.539   6.148  -2.495  1.00 20.00     0.007 A 
HETATM    2  C2  UNL     1     -40.835   5.188  -1.076  1.00 20.00     0.007 A 
HETATM    3  C3  UNL     1     -42.807   4.885  -3.026  1.00 20.00     0.007 A 
HETATM    4  C4  UNL     1     -41.104   3.926  -1.606  1.00 20.00     0.007 A 
HETATM    5  C5  UNL     1     -41.553   6.298  -1.519  1.00 20.00    -0.062 A 
HETATM    6  C6  UNL     1     -42.089   3.775  -2.581  1.00 20.00    -0.059 A 
HETATM    7  C7  UNL     1     -41.265   7.647  -0.952  1.00 20.00     0.048 C 
ENDROOT
BRANCH   6   8
HETATM    8  C9  UNL     1     -42.379   2.426  -3.148  1.00 20.00     0.034 C 
HETATM    9  C8  UNL     1     -41.185   1.842  -3.898  1.00 20.00     0.010 C 
ENDBRANCH   6   8
TORSDOF 1
ENDMDL
MODEL 7
REMARK VINA RESULT:      -4.2     12.195     13.589
REMARK  1 active torsions:
REMARK  status: ('A' for Active; 'I' for Inactive)
REMARK    1  A    between atoms: C6_6  and  C9_9 
ROOT
HETATM    1  C1  UNL     1     -35.202  14.540  -4.781  1.00 20.00     0.007 A 
HETATM    2  C2  UNL     1     -33.602  16.314  -5.147  1.00 20.00     0.007 A 
HETATM    3  C3  UNL     1     -35.251  14.864  -3.425  1.00 20.00     0.007 A 
HETATM    4  C4  UNL     1     -33.652  16.638  -3.791  1.00 20.00     0.007 A 
HETATM    5  C5  UNL     1     -34.378  15.266  -5.642  1.00 20.00    -0.062 A 
HETATM    6  C6  UNL     1     -34.476  15.913  -2.930  1.00 20.00    -0.059 A 
HETATM    7  C7  UNL     1     -34.324  14.920  -7.091  1.00 20.00     0.048 C 
ENDROOT
BRANCH   6   8
HETATM    8  C9  UNL     1     -34.531  16.259  -1.481  1.00 20.00     0.034 C 
HETATM    9  C8  UNL     1     -33.657  17.462  -1.137  1.00 20.00     0.010 C 
ENDBRANCH   6   8
TORSDOF 1
ENDMDL
MODEL 8
REMARK VINA RESULT:      -4.2     12.217     13.571
REMARK  1 active torsions:
REMARK  status: ('A' for Active; 'I' for Inactive)
REMARK    1  A    between atoms: C6_6  and  C9_9 
ROOT
HETATM    1  C1  UNL     1     -33.678  16.311  -5.216  1.00 20.00     0.007 A 
HETATM    2  C2  UNL     1     -35.294  14.550  -4.859  1.00 20.00     0.007 A 
HETATM    3  C3  UNL     1     -33.717  16.622  -3.856  1.00 20.00     0.007 A 
HETATM    4  C4  UNL     1     -35.332  14.861  -3.500  1.00 20.00     0.007 A 
HETATM    5  C5  UNL     1     -34.466  15.274  -5.717  1.00 20.00    -0.062 A 
HETATM    6  C6  UNL     1     -34.545  15.897  -2.999  1.00 20.00    -0.059 A 
HETATM    7  C7  UNL     1     -34.425  14.941  -7.170  1.00 20.00     0.048 C 
ENDROOT
BRANCH   6   8
HETATM    8  C9  UNL     1     -34.584  16.230  -1.546  1.00 20.00     0.034 C 
HETATM    9  C8  UNL     1     -33.686  17.413  -1.196  1.00 20.00     0.010 C 
ENDBRANCH   6   8
TORSDOF 1
ENDMDL
MODEL 9
REMARK VINA RESULT:      -4.1     12.195     12.861
REMARK  1 active torsions:
REMARK  status: ('A' for Active; 'I' for Inactive)
REMARK    1  A    between atoms: C6_6  and  C9_9 
ROOT
HETATM    1  C1  UNL     1     -32.979  18.826   1.056  1.00 20.00     0.007 A 
HETATM    2  C2  UNL     1     -35.064  17.636   1.335  1.00 20.00     0.007 A 
HETATM    3  C3  UNL     1     -32.877  18.339  -0.248  1.00 20.00     0.007 A 
HETATM    4  C4  UNL     1     -34.961  17.150   0.032  1.00 20.00     0.007 A 
HETATM    5  C5  UNL     1     -34.074  18.475   1.847  1.00 20.00    -0.062 A 
HETATM    6  C6  UNL     1     -33.867  17.501  -0.759  1.00 20.00    -0.059 A 
HETATM    7  C7  UNL     1     -34.185  18.994   3.240  1.00 20.00     0.048 C 
ENDROOT
BRANCH   6   8
HETATM    8  C9  UNL     1     -33.757  16.984  -2.153  1.00 20.00     0.034 C 
HETATM    9  C8  UNL     1     -34.637  15.759  -2.390  1.00 20.00     0.010 C 
ENDBRANCH   6   8
TORSDOF 1
ENDMDL
