MODEL 1
REMARK VINA RESULT:      -5.5      0.000      0.000
REMARK  1 active torsions:
REMARK  status: ('A' for Active; 'I' for Inactive)
REMARK    1  A    between atoms: C6_6  and  C9_9 
ROOT
HETATM    1  C1  UNL     1     -34.681   5.089   2.954  1.00 20.00     0.001 A 
HETATM    2  C2  UNL     1     -35.067   4.939   4.286  1.00 20.00     0.007 A 
HETATM    3  C3  UNL     1     -33.604   5.913   2.628  1.00 20.00     0.007 A 
HETATM    4  C4  UNL     1     -33.296   6.434   4.967  1.00 20.00     0.013 A 
HETATM    5  C5  UNL     1     -34.374   5.610   5.293  1.00 20.00    -0.061 A 
HETATM    6  C6  UNL     1     -32.911   6.585   3.635  1.00 20.00    -0.058 A 
HETATM    7  C7  UNL     1     -34.785   5.447   6.717  1.00 20.00     0.048 C 
ENDROOT
BRANCH   6   8
HETATM    8  C9  UNL     1     -31.759   7.466   3.287  1.00 20.00     0.034 C 
HETATM    9  C8  UNL     1     -31.998   8.252   2.000  1.00 20.00     0.010 C 
ENDBRANCH   6   8
TORSDOF 1
ENDMDL
MODEL 2
REMARK VINA RESULT:      -5.3      1.238      2.138
REMARK  1 active torsions:
REMARK  status: ('A' for Active; 'I' for Inactive)
REMARK    1  A    between atoms: C6_6  and  C9_9 
ROOT
HETATM    1  C1  UNL     1     -35.175   4.432   5.773  1.00 20.00     0.001 A 
HETATM    2  C2  UNL     1     -34.778   5.397   6.698  1.00 20.00     0.007 A 
HETATM    3  C3  UNL     1     -34.789   4.547   4.437  1.00 20.00     0.007 A 
HETATM    4  C4  UNL     1     -33.608   6.591   4.953  1.00 20.00     0.013 A 
HETATM    5  C5  UNL     1     -33.994   6.476   6.289  1.00 20.00    -0.061 A 
HETATM    6  C6  UNL     1     -34.005   5.625   4.027  1.00 20.00    -0.058 A 
HETATM    7  C7  UNL     1     -33.569   7.506   7.280  1.00 20.00     0.048 C 
ENDROOT
BRANCH   6   8
HETATM    8  C9  UNL     1     -33.594   5.748   2.599  1.00 20.00     0.034 C 
HETATM    9  C8  UNL     1     -32.410   6.694   2.416  1.00 20.00     0.010 C 
ENDBRANCH   6   8
TORSDOF 1
ENDMDL
MODEL 3
REMARK VINA RESULT:      -4.9      1.042      2.096
REMARK  1 active torsions:
REMARK  status: ('A' for Active; 'I' for Inactive)
REMARK    1  A    between atoms: C6_6  and  C9_9 
ROOT
HETATM    1  C1  UNL     1     -33.530   7.042   6.291  1.00 20.00     0.001 A 
HETATM    2  C2  UNL     1     -34.352   5.921   6.419  1.00 20.00     0.007 A 
HETATM    3  C3  UNL     1     -32.885   7.297   5.080  1.00 20.00     0.007 A 
HETATM    4  C4  UNL     1     -33.884   5.314   4.128  1.00 20.00     0.013 A 
HETATM    5  C5  UNL     1     -34.530   5.058   5.338  1.00 20.00    -0.061 A 
HETATM    6  C6  UNL     1     -33.063   6.434   3.999  1.00 20.00    -0.058 A 
HETATM    7  C7  UNL     1     -35.409   3.862   5.477  1.00 20.00     0.048 C 
ENDROOT
BRANCH   6   8
HETATM    8  C9  UNL     1     -32.372   6.708   2.706  1.00 20.00     0.034 C 
HETATM    9  C8  UNL     1     -32.190   8.201   2.450  1.00 20.00     0.010 C 
ENDBRANCH   6   8
TORSDOF 1
ENDMDL
MODEL 4
REMARK VINA RESULT:      -4.8      0.627      3.698
REMARK  1 active torsions:
REMARK  status: ('A' for Active; 'I' for Inactive)
REMARK    1  A    between atoms: C6_6  and  C9_9 
ROOT
HETATM    1  C1  UNL     1     -34.337   5.295   2.660  1.00 20.00     0.001 A 
HETATM    2  C2  UNL     1     -33.232   6.112   2.417  1.00 20.00     0.007 A 
HETATM    3  C3  UNL     1     -34.814   5.136   3.962  1.00 20.00     0.007 A 
HETATM    4  C4  UNL     1     -33.082   6.612   4.776  1.00 20.00     0.013 A 
HETATM    5  C5  UNL     1     -32.606   6.771   3.475  1.00 20.00    -0.061 A 
HETATM    6  C6  UNL     1     -34.187   5.795   5.019  1.00 20.00    -0.058 A 
HETATM    7  C7  UNL     1     -31.426   7.645   3.214  1.00 20.00     0.048 C 
ENDROOT
BRANCH   6   8
HETATM    8  C9  UNL     1     -34.697   5.624   6.411  1.00 20.00     0.034 C 
HETATM    9  C8  UNL     1     -35.269   4.230   6.652  1.00 20.00     0.010 C 
ENDBRANCH   6   8
TORSDOF 1
ENDMDL
MODEL 5
REMARK VINA RESULT:      -4.6     11.240     11.788
REMARK  1 active torsions:
REMARK  status: ('A' for Active; 'I' for Inactive)
REMARK    1  A    between atoms: C6_6  and  C9_9 
ROOT
HETATM    1  C1  UNL     1     -34.206  13.678  -4.152  1.00 20.00     0.001 A 
HETATM    2  C2  UNL     1     -35.580  13.691  -4.395  1.00 20.00     0.007 A 
HETATM    3  C3  UNL     1     -33.634  14.647  -3.327  1.00 20.00     0.007 A 
HETATM    4  C4  UNL     1     -35.810  15.641  -2.986  1.00 20.00     0.013 A 
HETATM    5  C5  UNL     1     -36.382  14.671  -3.811  1.00 20.00    -0.061 A 
HETATM    6  C6  UNL     1     -34.436  15.627  -2.744  1.00 20.00    -0.058 A 
HETATM    7  C7  UNL     1     -37.851  14.684  -4.069  1.00 20.00     0.048 C 
ENDROOT
BRANCH   6   8
HETATM    8  C9  UNL     1     -33.824  16.664  -1.863  1.00 20.00     0.034 C 
HETATM    9  C8  UNL     1     -34.613  16.866  -0.572  1.00 20.00     0.010 C 
ENDBRANCH   6   8
TORSDOF 1
ENDMDL
MODEL 6
REMARK VINA RESULT:      -4.5      1.710      3.451
REMARK  1 active torsions:
REMARK  status: ('A' for Active; 'I' for Inactive)
REMARK    1  A    between atoms: C6_6  and  C9_9 
ROOT
HETATM    1  C1  UNL     1     -35.191   4.282   5.878  1.00 20.00     0.001 A 
HETATM    2  C2  UNL     1     -35.136   4.295   4.484  1.00 20.00     0.007 A 
HETATM    3  C3  UNL     1     -34.567   5.292   6.611  1.00 20.00     0.007 A 
HETATM    4  C4  UNL     1     -33.835   6.330   4.555  1.00 20.00     0.013 A 
HETATM    5  C5  UNL     1     -34.459   5.319   3.823  1.00 20.00    -0.061 A 
HETATM    6  C6  UNL     1     -33.890   6.316   5.949  1.00 20.00    -0.058 A 
HETATM    7  C7  UNL     1     -34.402   5.334   2.332  1.00 20.00     0.048 C 
ENDROOT
BRANCH   6   8
HETATM    8  C9  UNL     1     -33.222   7.396   6.733  1.00 20.00     0.034 C 
HETATM    9  C8  UNL     1     -34.169   8.058   7.730  1.00 20.00     0.010 C 
ENDBRANCH   6   8
TORSDOF 1
ENDMDL
MODEL 7
REMARK VINA RESULT:      -4.4      8.987     10.534
REMARK  1 active torsions:
REMARK  status: ('A' for Active; 'I' for Inactive)
REMARK    1  A    between atoms: C6_6  and  C9_9 
ROOT
HETATM    1  C1  UNL     1     -40.634   5.896  -0.418  1.00 20.00     0.001 A 
HETATM    2  C2  UNL     1     -40.830   4.630  -0.970  1.00 20.00     0.007 A 
HETATM    3  C3  UNL     1     -41.269   7.006  -0.977  1.00 20.00     0.007 A 
HETATM    4  C4  UNL     1     -42.296   5.582  -2.637  1.00 20.00     0.013 A 
HETATM    5  C5  UNL     1     -41.662   4.473  -2.078  1.00 20.00    -0.061 A 
HETATM    6  C6  UNL     1     -42.100   6.849  -2.086  1.00 20.00    -0.058 A 
HETATM    7  C7  UNL     1     -41.872   3.118  -2.666  1.00 20.00     0.048 C 
ENDROOT
BRANCH   6   8
HETATM    8  C9  UNL     1     -42.778   8.036  -2.683  1.00 20.00     0.034 C 
HETATM    9  C8  UNL     1     -42.598   8.105  -4.197  1.00 20.00     0.010 C 
ENDBRANCH   6   8
TORSDOF 1
ENDMDL
MODEL 8
REMARK VINA RESULT:      -4.4     11.066     12.697
REMARK  1 active torsions:
REMARK  status: ('A' for Active; 'I' for Inactive)
REMARK    1  A    between atoms: C6_6  and  C9_9 
ROOT
HETATM    1  C1  UNL     1     -34.829  13.371  -4.394  1.00 20.00     0.001 A 
HETATM    2  C2  UNL     1     -34.834  13.871  -5.696  1.00 20.00     0.007 A 
HETATM    3  C3  UNL     1     -34.445  14.192  -3.333  1.00 20.00     0.007 A 
HETATM    4  C4  UNL     1     -34.072  16.013  -4.877  1.00 20.00     0.013 A 
HETATM    5  C5  UNL     1     -34.457  15.192  -5.937  1.00 20.00    -0.061 A 
HETATM    6  C6  UNL     1     -34.067  15.513  -3.574  1.00 20.00    -0.058 A 
HETATM    7  C7  UNL     1     -34.464  15.727  -7.330  1.00 20.00     0.048 C 
ENDROOT
BRANCH   6   8
HETATM    8  C9  UNL     1     -33.656  16.390  -2.440  1.00 20.00     0.034 C 
HETATM    9  C8  UNL     1     -34.685  16.401  -1.313  1.00 20.00     0.010 C 
ENDBRANCH   6   8
TORSDOF 1
ENDMDL
MODEL 9
REMARK VINA RESULT:      -4.4     11.365     12.515
REMARK  1 active torsions:
REMARK  status: ('A' for Active; 'I' for Inactive)
REMARK    1  A    between atoms: C6_6  and  C9_9 
ROOT
HETATM    1  C1  UNL     1     -33.523  16.830  -4.712  1.00 20.00     0.001 A 
HETATM    2  C2  UNL     1     -33.821  15.555  -5.194  1.00 20.00     0.007 A 
HETATM    3  C3  UNL     1     -33.769  17.145  -3.375  1.00 20.00     0.007 A 
HETATM    4  C4  UNL     1     -34.611  14.911  -3.003  1.00 20.00     0.013 A 
HETATM    5  C5  UNL     1     -34.364  14.596  -4.339  1.00 20.00    -0.061 A 
HETATM    6  C6  UNL     1     -34.312  16.186  -2.521  1.00 20.00    -0.058 A 
HETATM    7  C7  UNL     1     -34.682  13.233  -4.855  1.00 20.00     0.048 C 
ENDROOT
BRANCH   6   8
HETATM    8  C9  UNL     1     -34.577  16.524  -1.092  1.00 20.00     0.034 C 
HETATM    9  C8  UNL     1     -33.731  17.699  -0.608  1.00 20.00     0.010 C 
ENDBRANCH   6   8
TORSDOF 1
ENDMDL
