MODEL 1
REMARK VINA RESULT:      -5.3      0.000      0.000
REMARK  1 active torsions:
REMARK  status: ('A' for Active; 'I' for Inactive)
REMARK    1  A    between atoms: C6_6  and  N8_8 
ROOT
HETATM    1  C1  UNL     1     -35.137   4.734   6.053  1.00 20.00     0.000 A 
HETATM    2  C2  UNL     1     -35.264   4.401   4.705  1.00 20.00     0.002 A 
HETATM    3  C3  UNL     1     -34.333   5.810   6.432  1.00 20.00     0.002 A 
HETATM    4  C4  UNL     1     -34.590   5.144   3.736  1.00 20.00     0.029 A 
HETATM    5  C5  UNL     1     -33.659   6.552   5.463  1.00 20.00     0.029 A 
HETATM    6  C6  UNL     1     -33.787   6.219   4.115  1.00 20.00     0.027 A 
ENDROOT
BRANCH   6   7
HETATM    7  N8  UNL     1     -33.105   6.970   3.135  1.00 20.00    -0.394 N 
HETATM    8  C7  UNL     1     -31.740   7.373   3.276  1.00 20.00     0.146 C 
HETATM    9  H17 UNL     1     -33.622   7.221   2.314  1.00 20.00     0.159 HD
ENDBRANCH   6   7
TORSDOF 1
ENDMDL
MODEL 2
REMARK VINA RESULT:      -5.3      0.005      1.708
REMARK  1 active torsions:
REMARK  status: ('A' for Active; 'I' for Inactive)
REMARK    1  A    between atoms: C6_6  and  N8_8 
ROOT
HETATM    1  C1  UNL     1     -35.136   4.731   6.056  1.00 20.00     0.000 A 
HETATM    2  C2  UNL     1     -34.331   5.805   6.435  1.00 20.00     0.002 A 
HETATM    3  C3  UNL     1     -35.267   4.401   4.707  1.00 20.00     0.002 A 
HETATM    4  C4  UNL     1     -33.658   6.548   5.465  1.00 20.00     0.029 A 
HETATM    5  C5  UNL     1     -34.594   5.144   3.738  1.00 20.00     0.029 A 
HETATM    6  C6  UNL     1     -33.789   6.218   4.117  1.00 20.00     0.027 A 
ENDROOT
BRANCH   6   7
HETATM    7  N8  UNL     1     -33.108   6.970   3.137  1.00 20.00    -0.394 N 
HETATM    8  C7  UNL     1     -31.741   7.366   3.273  1.00 20.00     0.146 C 
HETATM    9  H17 UNL     1     -33.628   7.225   2.319  1.00 20.00     0.159 HD
ENDBRANCH   6   7
TORSDOF 1
ENDMDL
MODEL 3
REMARK VINA RESULT:      -3.9      9.272     10.372
REMARK  1 active torsions:
REMARK  status: ('A' for Active; 'I' for Inactive)
REMARK    1  A    between atoms: C6_6  and  N8_8 
ROOT
HETATM    1  C1  UNL     1     -41.438   7.280  -1.012  1.00 20.00     0.000 A 
HETATM    2  C2  UNL     1     -42.180   6.908  -2.132  1.00 20.00     0.002 A 
HETATM    3  C3  UNL     1     -40.725   6.317  -0.297  1.00 20.00     0.002 A 
HETATM    4  C4  UNL     1     -42.209   5.574  -2.539  1.00 20.00     0.029 A 
HETATM    5  C5  UNL     1     -40.755   4.983  -0.704  1.00 20.00     0.029 A 
HETATM    6  C6  UNL     1     -41.497   4.611  -1.824  1.00 20.00     0.027 A 
ENDROOT
BRANCH   6   7
HETATM    7  N8  UNL     1     -41.525   3.262  -2.235  1.00 20.00    -0.394 N 
HETATM    8  C7  UNL     1     -42.467   2.760  -3.186  1.00 20.00     0.146 C 
HETATM    9  H17 UNL     1     -40.846   2.649  -1.826  1.00 20.00     0.159 HD
ENDBRANCH   6   7
TORSDOF 1
ENDMDL
MODEL 4
REMARK VINA RESULT:      -3.9      9.294     10.486
REMARK  1 active torsions:
REMARK  status: ('A' for Active; 'I' for Inactive)
REMARK    1  A    between atoms: C6_6  and  N8_8 
ROOT
HETATM    1  C1  UNL     1     -41.578   7.302  -1.269  1.00 20.00     0.000 A 
HETATM    2  C2  UNL     1     -40.814   6.465  -0.457  1.00 20.00     0.002 A 
HETATM    3  C3  UNL     1     -42.312   6.765  -2.327  1.00 20.00     0.002 A 
HETATM    4  C4  UNL     1     -40.785   5.092  -0.701  1.00 20.00     0.029 A 
HETATM    5  C5  UNL     1     -42.282   5.393  -2.572  1.00 20.00     0.029 A 
HETATM    6  C6  UNL     1     -41.518   4.556  -1.759  1.00 20.00     0.027 A 
ENDROOT
BRANCH   6   7
HETATM    7  N8  UNL     1     -41.489   3.168  -2.007  1.00 20.00    -0.394 N 
HETATM    8  C7  UNL     1     -41.888   2.593  -3.254  1.00 20.00     0.146 C 
HETATM    9  H17 UNL     1     -41.172   2.580  -1.260  1.00 20.00     0.159 HD
ENDBRANCH   6   7
TORSDOF 1
ENDMDL
MODEL 5
REMARK VINA RESULT:      -3.8      9.428     10.426
REMARK  1 active torsions:
REMARK  status: ('A' for Active; 'I' for Inactive)
REMARK    1  A    between atoms: C6_6  and  N8_8 
ROOT
HETATM    1  C1  UNL     1     -41.109   4.671  -0.610  1.00 20.00     0.000 A 
HETATM    2  C2  UNL     1     -40.724   5.949  -0.205  1.00 20.00     0.002 A 
HETATM    3  C3  UNL     1     -41.828   4.502  -1.793  1.00 20.00     0.002 A 
HETATM    4  C4  UNL     1     -41.057   7.057  -0.983  1.00 20.00     0.029 A 
HETATM    5  C5  UNL     1     -42.162   5.611  -2.570  1.00 20.00     0.029 A 
HETATM    6  C6  UNL     1     -41.777   6.888  -2.165  1.00 20.00     0.027 A 
ENDROOT
BRANCH   6   7
HETATM    7  N8  UNL     1     -42.114   8.009  -2.953  1.00 20.00    -0.394 N 
HETATM    8  C7  UNL     1     -42.855   7.907  -4.171  1.00 20.00     0.146 C 
HETATM    9  H17 UNL     1     -41.808   8.905  -2.623  1.00 20.00     0.159 HD
ENDBRANCH   6   7
TORSDOF 1
ENDMDL
MODEL 6
REMARK VINA RESULT:      -3.8     12.076     12.340
REMARK  1 active torsions:
REMARK  status: ('A' for Active; 'I' for Inactive)
REMARK    1  A    between atoms: C6_6  and  N8_8 
ROOT
HETATM    1  C1  UNL     1     -34.253  13.534  -4.569  1.00 20.00     0.000 A 
HETATM    2  C2  UNL     1     -33.299  14.250  -3.846  1.00 20.00     0.002 A 
HETATM    3  C3  UNL     1     -35.610  13.802  -4.389  1.00 20.00     0.002 A 
HETATM    4  C4  UNL     1     -33.702  15.234  -2.943  1.00 20.00     0.029 A 
HETATM    5  C5  UNL     1     -36.012  14.786  -3.486  1.00 20.00     0.029 A 
HETATM    6  C6  UNL     1     -35.058  15.502  -2.763  1.00 20.00     0.027 A 
ENDROOT
BRANCH   6   7
HETATM    7  N8  UNL     1     -35.466  16.497  -1.851  1.00 20.00    -0.394 N 
HETATM    8  C7  UNL     1     -34.727  16.817  -0.669  1.00 20.00     0.146 C 
HETATM    9  H17 UNL     1     -36.315  16.987  -2.062  1.00 20.00     0.159 HD
ENDBRANCH   6   7
TORSDOF 1
ENDMDL
MODEL 7
REMARK VINA RESULT:      -3.8     12.047     12.551
REMARK  1 active torsions:
REMARK  status: ('A' for Active; 'I' for Inactive)
REMARK    1  A    between atoms: C6_6  and  N8_8 
ROOT
HETATM    1  C1  UNL     1     -33.205  14.505  -3.739  1.00 20.00     0.000 A 
HETATM    2  C2  UNL     1     -34.168  13.632  -4.242  1.00 20.00     0.002 A 
HETATM    3  C3  UNL     1     -33.597  15.645  -3.036  1.00 20.00     0.002 A 
HETATM    4  C4  UNL     1     -35.523  13.898  -4.043  1.00 20.00     0.029 A 
HETATM    5  C5  UNL     1     -34.951  15.911  -2.838  1.00 20.00     0.029 A 
HETATM    6  C6  UNL     1     -35.915  15.037  -3.341  1.00 20.00     0.027 A 
ENDROOT
BRANCH   6   7
HETATM    7  N8  UNL     1     -37.284  15.306  -3.140  1.00 20.00    -0.394 N 
HETATM    8  C7  UNL     1     -38.309  14.803  -4.001  1.00 20.00     0.146 C 
HETATM    9  H17 UNL     1     -37.524  15.878  -2.352  1.00 20.00     0.159 HD
ENDBRANCH   6   7
TORSDOF 1
ENDMDL
MODEL 8
REMARK VINA RESULT:      -3.8      1.559      2.677
REMARK  1 active torsions:
REMARK  status: ('A' for Active; 'I' for Inactive)
REMARK    1  A    between atoms: C6_6  and  N8_8 
ROOT
HETATM    1  C1  UNL     1     -35.252   4.387   4.313  1.00 20.00     0.000 A 
HETATM    2  C2  UNL     1     -35.152   4.276   5.699  1.00 20.00     0.002 A 
HETATM    3  C3  UNL     1     -34.628   5.445   3.651  1.00 20.00     0.002 A 
HETATM    4  C4  UNL     1     -34.427   5.222   6.424  1.00 20.00     0.029 A 
HETATM    5  C5  UNL     1     -33.904   6.390   4.376  1.00 20.00     0.029 A 
HETATM    6  C6  UNL     1     -33.803   6.279   5.763  1.00 20.00     0.027 A 
ENDROOT
BRANCH   6   7
HETATM    7  N8  UNL     1     -33.070   7.236   6.495  1.00 20.00    -0.394 N 
HETATM    8  C7  UNL     1     -33.620   7.955   7.602  1.00 20.00     0.146 C 
HETATM    9  H17 UNL     1     -32.124   7.402   6.207  1.00 20.00     0.159 HD
ENDBRANCH   6   7
TORSDOF 1
ENDMDL
MODEL 9
REMARK VINA RESULT:      -3.7     11.993     12.267
REMARK  1 active torsions:
REMARK  status: ('A' for Active; 'I' for Inactive)
REMARK    1  A    between atoms: C6_6  and  N8_8 
ROOT
HETATM    1  C1  UNL     1     -35.244  13.436  -4.593  1.00 20.00     0.000 A 
HETATM    2  C2  UNL     1     -36.175  14.308  -4.029  1.00 20.00     0.002 A 
HETATM    3  C3  UNL     1     -33.887  13.586  -4.309  1.00 20.00     0.002 A 
HETATM    4  C4  UNL     1     -35.748  15.330  -3.181  1.00 20.00     0.029 A 
HETATM    5  C5  UNL     1     -33.461  14.609  -3.462  1.00 20.00     0.029 A 
HETATM    6  C6  UNL     1     -34.391  15.481  -2.898  1.00 20.00     0.027 A 
ENDROOT
BRANCH   6   7
HETATM    7  N8  UNL     1     -33.959  16.514  -2.041  1.00 20.00    -0.394 N 
HETATM    8  C7  UNL     1     -34.538  16.749  -0.755  1.00 20.00     0.146 C 
HETATM    9  H17 UNL     1     -33.213  17.096  -2.371  1.00 20.00     0.159 HD
ENDBRANCH   6   7
TORSDOF 1
ENDMDL
