MODEL 1
REMARK VINA RESULT:      -5.2      0.000      0.000
REMARK  0 active torsions:
REMARK  status: ('A' for Active; 'I' for Inactive)
ROOT
HETATM    1  C1  UNL     1     -35.189   4.868   5.933  1.00 20.00     0.000 A 
HETATM    2  C2  UNL     1     -34.319   5.849   6.410  1.00 20.00     0.001 A 
HETATM    3  C3  UNL     1     -35.230   4.576   4.570  1.00 20.00     0.001 A 
HETATM    4  C4  UNL     1     -33.490   6.537   5.523  1.00 20.00     0.019 A 
HETATM    5  C5  UNL     1     -34.402   5.263   3.683  1.00 20.00     0.019 A 
HETATM    6  C6  UNL     1     -33.532   6.244   4.160  1.00 20.00     0.011 A 
HETATM    7  S7  UNL     1     -32.463   7.130   3.014  1.00 20.00    -0.053 SA
ENDROOT
TORSDOF 0
ENDMDL
MODEL 2
REMARK VINA RESULT:      -5.2      0.002      1.826
REMARK  0 active torsions:
REMARK  status: ('A' for Active; 'I' for Inactive)
ROOT
HETATM    1  C1  UNL     1     -35.188   4.869   5.935  1.00 20.00     0.000 A 
HETATM    2  C2  UNL     1     -35.230   4.574   4.572  1.00 20.00     0.001 A 
HETATM    3  C3  UNL     1     -34.318   5.850   6.409  1.00 20.00     0.001 A 
HETATM    4  C4  UNL     1     -34.402   5.261   3.684  1.00 20.00     0.019 A 
HETATM    5  C5  UNL     1     -33.490   6.537   5.522  1.00 20.00     0.019 A 
HETATM    6  C6  UNL     1     -33.532   6.242   4.159  1.00 20.00     0.011 A 
HETATM    7  S7  UNL     1     -32.463   7.130   3.014  1.00 20.00    -0.053 SA
ENDROOT
TORSDOF 0
ENDMDL
MODEL 3
REMARK VINA RESULT:      -4.2      1.626      2.219
REMARK  0 active torsions:
REMARK  status: ('A' for Active; 'I' for Inactive)
ROOT
HETATM    1  C1  UNL     1     -35.186   4.235   4.320  1.00 20.00     0.000 A 
HETATM    2  C2  UNL     1     -35.145   4.094   5.708  1.00 20.00     0.001 A 
HETATM    3  C3  UNL     1     -34.655   5.377   3.720  1.00 20.00     0.001 A 
HETATM    4  C4  UNL     1     -34.574   5.094   6.495  1.00 20.00     0.019 A 
HETATM    5  C5  UNL     1     -34.084   6.377   4.506  1.00 20.00     0.019 A 
HETATM    6  C6  UNL     1     -34.043   6.236   5.894  1.00 20.00     0.011 A 
HETATM    7  S7  UNL     1     -33.305   7.527   6.907  1.00 20.00    -0.053 SA
ENDROOT
TORSDOF 0
ENDMDL
MODEL 4
REMARK VINA RESULT:      -4.2      1.621      2.411
REMARK  0 active torsions:
REMARK  status: ('A' for Active; 'I' for Inactive)
ROOT
HETATM    1  C1  UNL     1     -35.192   4.230   4.326  1.00 20.00     0.000 A 
HETATM    2  C2  UNL     1     -34.649   5.362   3.719  1.00 20.00     0.001 A 
HETATM    3  C3  UNL     1     -35.161   4.102   5.715  1.00 20.00     0.001 A 
HETATM    4  C4  UNL     1     -34.074   6.366   4.499  1.00 20.00     0.019 A 
HETATM    5  C5  UNL     1     -34.587   5.105   6.496  1.00 20.00     0.019 A 
HETATM    6  C6  UNL     1     -34.044   6.237   5.888  1.00 20.00     0.011 A 
HETATM    7  S7  UNL     1     -33.304   7.531   6.897  1.00 20.00    -0.053 SA
ENDROOT
TORSDOF 0
ENDMDL
MODEL 5
REMARK VINA RESULT:      -3.7      9.349     10.147
REMARK  0 active torsions:
REMARK  status: ('A' for Active; 'I' for Inactive)
ROOT
HETATM    1  C1  UNL     1     -41.158   7.179  -0.873  1.00 20.00     0.000 A 
HETATM    2  C2  UNL     1     -40.667   6.005  -0.301  1.00 20.00     0.001 A 
HETATM    3  C3  UNL     1     -41.949   7.118  -2.020  1.00 20.00     0.001 A 
HETATM    4  C4  UNL     1     -40.967   4.770  -0.878  1.00 20.00     0.019 A 
HETATM    5  C5  UNL     1     -42.249   5.884  -2.597  1.00 20.00     0.019 A 
HETATM    6  C6  UNL     1     -41.758   4.710  -2.025  1.00 20.00     0.011 A 
HETATM    7  S7  UNL     1     -42.147   3.118  -2.769  1.00 20.00    -0.053 SA
ENDROOT
TORSDOF 0
ENDMDL
MODEL 6
REMARK VINA RESULT:      -3.6      9.449     10.166
REMARK  0 active torsions:
REMARK  status: ('A' for Active; 'I' for Inactive)
ROOT
HETATM    1  C1  UNL     1     -40.873   4.693  -0.744  1.00 20.00     0.000 A 
HETATM    2  C2  UNL     1     -40.673   6.052  -0.503  1.00 20.00     0.001 A 
HETATM    3  C3  UNL     1     -41.673   4.284  -1.811  1.00 20.00     0.001 A 
HETATM    4  C4  UNL     1     -41.272   7.003  -1.330  1.00 20.00     0.019 A 
HETATM    5  C5  UNL     1     -42.272   5.234  -2.638  1.00 20.00     0.019 A 
HETATM    6  C6  UNL     1     -42.072   6.593  -2.398  1.00 20.00     0.011 A 
HETATM    7  S7  UNL     1     -42.845   7.818  -3.466  1.00 20.00    -0.053 SA
ENDROOT
TORSDOF 0
ENDMDL
MODEL 7
REMARK VINA RESULT:      -3.6      9.457     10.328
REMARK  0 active torsions:
REMARK  status: ('A' for Active; 'I' for Inactive)
ROOT
HETATM    1  C1  UNL     1     -40.912   4.693  -0.715  1.00 20.00     0.000 A 
HETATM    2  C2  UNL     1     -41.705   4.278  -1.785  1.00 20.00     0.001 A 
HETATM    3  C3  UNL     1     -40.704   6.054  -0.487  1.00 20.00     0.001 A 
HETATM    4  C4  UNL     1     -42.290   5.224  -2.627  1.00 20.00     0.019 A 
HETATM    5  C5  UNL     1     -41.289   6.999  -1.330  1.00 20.00     0.019 A 
HETATM    6  C6  UNL     1     -42.082   6.584  -2.400  1.00 20.00     0.011 A 
HETATM    7  S7  UNL     1     -42.837   7.806  -3.485  1.00 20.00    -0.053 SA
ENDROOT
TORSDOF 0
ENDMDL
MODEL 8
REMARK VINA RESULT:      -3.6     12.613     13.598
REMARK  0 active torsions:
REMARK  status: ('A' for Active; 'I' for Inactive)
ROOT
HETATM    1  C1  UNL     1     -33.060  15.032  -3.616  1.00 20.00     0.000 A 
HETATM    2  C2  UNL     1     -33.156  16.086  -4.524  1.00 20.00     0.001 A 
HETATM    3  C3  UNL     1     -33.710  13.826  -3.878  1.00 20.00     0.001 A 
HETATM    4  C4  UNL     1     -33.902  15.935  -5.693  1.00 20.00     0.019 A 
HETATM    5  C5  UNL     1     -34.456  13.674  -5.046  1.00 20.00     0.019 A 
HETATM    6  C6  UNL     1     -34.552  14.728  -5.954  1.00 20.00     0.011 A 
HETATM    7  S7  UNL     1     -35.514  14.531  -7.463  1.00 20.00    -0.053 SA
ENDROOT
TORSDOF 0
ENDMDL
MODEL 9
REMARK VINA RESULT:      -3.6     12.618     13.649
REMARK  0 active torsions:
REMARK  status: ('A' for Active; 'I' for Inactive)
ROOT
HETATM    1  C1  UNL     1     -33.070  15.028  -3.618  1.00 20.00     0.000 A 
HETATM    2  C2  UNL     1     -33.724  13.824  -3.883  1.00 20.00     0.001 A 
HETATM    3  C3  UNL     1     -33.160  16.084  -4.525  1.00 20.00     0.001 A 
HETATM    4  C4  UNL     1     -34.467  13.677  -5.055  1.00 20.00     0.019 A 
HETATM    5  C5  UNL     1     -33.903  15.937  -5.697  1.00 20.00     0.019 A 
HETATM    6  C6  UNL     1     -34.556  14.733  -5.961  1.00 20.00     0.011 A 
HETATM    7  S7  UNL     1     -35.515  14.545  -7.473  1.00 20.00    -0.053 SA
ENDROOT
TORSDOF 0
ENDMDL
