MODEL 1
REMARK VINA RESULT:      -5.5      0.000      0.000
REMARK  1 active torsions:
REMARK  status: ('A' for Active; 'I' for Inactive)
REMARK    1  A    between atoms: C4_4  and  C7_7 
ROOT
HETATM    1  C1  UNL     1     -35.130   4.091   5.941  1.00 20.00     0.006 A 
HETATM    2  C2  UNL     1     -35.217   4.128   4.550  1.00 20.00     0.043 A 
HETATM    3  C3  UNL     1     -34.517   5.138   6.630  1.00 20.00     0.043 A 
HETATM    4  C4  UNL     1     -34.079   6.259   4.535  1.00 20.00     0.029 A 
HETATM    5  C5  UNL     1     -34.692   5.212   3.846  1.00 20.00     0.126 A 
HETATM    6  C6  UNL     1     -33.992   6.222   5.927  1.00 20.00     0.126 A 
HETATM    7  F8  UNL     1     -34.781   5.239   2.510  1.00 20.00    -0.205 F 
HETATM    8  F9  UNL     1     -33.404   7.222   6.597  1.00 20.00    -0.205 F 
ENDROOT
BRANCH   4   9
HETATM    9  C7  UNL     1     -33.517   7.418   3.783  1.00 20.00     0.130 C 
HETATM   10 BR10 UNL     1     -31.808   6.918   2.999  1.00 20.00    -0.091 Br
ENDBRANCH   4   9
TORSDOF 1
ENDMDL
MODEL 2
REMARK VINA RESULT:      -5.5      0.031      2.616
REMARK  1 active torsions:
REMARK  status: ('A' for Active; 'I' for Inactive)
REMARK    1  A    between atoms: C4_4  and  C7_7 
ROOT
HETATM    1  C1  UNL     1     -35.156   4.118   5.952  1.00 20.00     0.006 A 
HETATM    2  C2  UNL     1     -34.551   5.169   6.640  1.00 20.00     0.043 A 
HETATM    3  C3  UNL     1     -35.226   4.145   4.559  1.00 20.00     0.043 A 
HETATM    4  C4  UNL     1     -34.087   6.275   4.543  1.00 20.00     0.029 A 
HETATM    5  C5  UNL     1     -34.016   6.248   5.937  1.00 20.00     0.126 A 
HETATM    6  C6  UNL     1     -34.691   5.224   3.855  1.00 20.00     0.126 A 
HETATM    7  F8  UNL     1     -33.437   7.253   6.607  1.00 20.00    -0.205 F 
HETATM    8  F9  UNL     1     -34.764   5.241   2.517  1.00 20.00    -0.205 F 
ENDROOT
BRANCH   4   9
HETATM    9  C7  UNL     1     -33.515   7.429   3.791  1.00 20.00     0.130 C 
HETATM   10 BR10 UNL     1     -31.801   6.919   3.022  1.00 20.00    -0.091 Br
ENDBRANCH   4   9
TORSDOF 1
ENDMDL
MODEL 3
REMARK VINA RESULT:      -4.5     12.139     12.612
REMARK  1 active torsions:
REMARK  status: ('A' for Active; 'I' for Inactive)
REMARK    1  A    between atoms: C4_4  and  C7_7 
ROOT
HETATM    1  C1  UNL     1     -35.178  13.260  -4.419  1.00 20.00     0.006 A 
HETATM    2  C2  UNL     1     -36.121  14.218  -4.051  1.00 20.00     0.043 A 
HETATM    3  C3  UNL     1     -33.823  13.486  -4.179  1.00 20.00     0.043 A 
HETATM    4  C4  UNL     1     -34.354  15.630  -3.202  1.00 20.00     0.029 A 
HETATM    5  C5  UNL     1     -35.709  15.404  -3.442  1.00 20.00     0.126 A 
HETATM    6  C6  UNL     1     -33.411  14.671  -3.570  1.00 20.00     0.126 A 
HETATM    7  F8  UNL     1     -36.623  16.319  -3.091  1.00 20.00    -0.205 F 
HETATM    8  F9  UNL     1     -32.107  14.880  -3.344  1.00 20.00    -0.205 F 
ENDROOT
BRANCH   4   9
HETATM    9  C7  UNL     1     -33.914  16.898  -2.551  1.00 20.00     0.130 C 
HETATM   10 BR10 UNL     1     -34.508  16.918  -0.698  1.00 20.00    -0.091 Br
ENDBRANCH   4   9
TORSDOF 1
ENDMDL
MODEL 4
REMARK VINA RESULT:      -4.5     12.138     12.636
REMARK  1 active torsions:
REMARK  status: ('A' for Active; 'I' for Inactive)
REMARK    1  A    between atoms: C4_4  and  C7_7 
ROOT
HETATM    1  C1  UNL     1     -35.178  13.259  -4.418  1.00 20.00     0.006 A 
HETATM    2  C2  UNL     1     -33.822  13.484  -4.180  1.00 20.00     0.043 A 
HETATM    3  C3  UNL     1     -36.119  14.218  -4.045  1.00 20.00     0.043 A 
HETATM    4  C4  UNL     1     -34.350  15.627  -3.198  1.00 20.00     0.029 A 
HETATM    5  C5  UNL     1     -33.407  14.668  -3.571  1.00 20.00     0.126 A 
HETATM    6  C6  UNL     1     -35.705  15.402  -3.435  1.00 20.00     0.126 A 
HETATM    7  F8  UNL     1     -32.103  14.876  -3.347  1.00 20.00    -0.205 F 
HETATM    8  F9  UNL     1     -36.618  16.317  -3.080  1.00 20.00    -0.205 F 
ENDROOT
BRANCH   4   9
HETATM    9  C7  UNL     1     -33.906  16.893  -2.546  1.00 20.00     0.130 C 
HETATM   10 BR10 UNL     1     -34.508  16.919  -0.696  1.00 20.00    -0.091 Br
ENDBRANCH   4   9
TORSDOF 1
ENDMDL
MODEL 5
REMARK VINA RESULT:      -4.3     12.383     13.763
REMARK  1 active torsions:
REMARK  status: ('A' for Active; 'I' for Inactive)
REMARK    1  A    between atoms: C4_4  and  C7_7 
ROOT
HETATM    1  C1  UNL     1     -34.816  14.590  -6.789  1.00 20.00     0.006 A 
HETATM    2  C2  UNL     1     -34.202  15.836  -6.670  1.00 20.00     0.043 A 
HETATM    3  C3  UNL     1     -34.923  13.755  -5.677  1.00 20.00     0.043 A 
HETATM    4  C4  UNL     1     -33.801  15.413  -4.325  1.00 20.00     0.029 A 
HETATM    5  C5  UNL     1     -33.694  16.248  -5.437  1.00 20.00     0.126 A 
HETATM    6  C6  UNL     1     -34.415  14.167  -4.445  1.00 20.00     0.126 A 
HETATM    7  F8  UNL     1     -33.106  17.448  -5.332  1.00 20.00    -0.205 F 
HETATM    8  F9  UNL     1     -34.522  13.358  -3.382  1.00 20.00    -0.205 F 
ENDROOT
BRANCH   4   9
HETATM    9  C7  UNL     1     -33.258  15.854  -3.008  1.00 20.00     0.130 C 
HETATM   10 BR10 UNL     1     -34.727  16.339  -1.828  1.00 20.00    -0.091 Br
ENDBRANCH   4   9
TORSDOF 1
ENDMDL
MODEL 6
REMARK VINA RESULT:      -4.3     12.365     13.726
REMARK  1 active torsions:
REMARK  status: ('A' for Active; 'I' for Inactive)
REMARK    1  A    between atoms: C4_4  and  C7_7 
ROOT
HETATM    1  C1  UNL     1     -34.800  14.527  -6.802  1.00 20.00     0.006 A 
HETATM    2  C2  UNL     1     -34.899  13.700  -5.684  1.00 20.00     0.043 A 
HETATM    3  C3  UNL     1     -34.198  15.780  -6.690  1.00 20.00     0.043 A 
HETATM    4  C4  UNL     1     -33.794  15.378  -4.343  1.00 20.00     0.029 A 
HETATM    5  C5  UNL     1     -34.396  14.125  -4.454  1.00 20.00     0.126 A 
HETATM    6  C6  UNL     1     -33.695  16.206  -5.461  1.00 20.00     0.126 A 
HETATM    7  F8  UNL     1     -34.496  13.322  -3.386  1.00 20.00    -0.205 F 
HETATM    8  F9  UNL     1     -33.118  17.411  -5.364  1.00 20.00    -0.205 F 
ENDROOT
BRANCH   4   9
HETATM    9  C7  UNL     1     -33.256  15.832  -3.028  1.00 20.00     0.130 C 
HETATM   10 BR10 UNL     1     -34.729  16.342  -1.863  1.00 20.00    -0.091 Br
ENDBRANCH   4   9
TORSDOF 1
ENDMDL
MODEL 7
REMARK VINA RESULT:      -4.3      9.692     10.861
REMARK  1 active torsions:
REMARK  status: ('A' for Active; 'I' for Inactive)
REMARK    1  A    between atoms: C4_4  and  C7_7 
ROOT
HETATM    1  C1  UNL     1     -40.652   4.720  -0.906  1.00 20.00     0.006 A 
HETATM    2  C2  UNL     1     -40.743   6.059  -0.527  1.00 20.00     0.043 A 
HETATM    3  C3  UNL     1     -41.461   4.228  -1.929  1.00 20.00     0.043 A 
HETATM    4  C4  UNL     1     -42.453   6.414  -2.197  1.00 20.00     0.029 A 
HETATM    5  C5  UNL     1     -41.643   6.907  -1.173  1.00 20.00     0.126 A 
HETATM    6  C6  UNL     1     -42.362   5.075  -2.575  1.00 20.00     0.126 A 
HETATM    7  F8  UNL     1     -41.723   8.192  -0.803  1.00 20.00    -0.205 F 
HETATM    8  F9  UNL     1     -43.135   4.592  -3.557  1.00 20.00    -0.205 F 
ENDROOT
BRANCH   4   9
HETATM    9  C7  UNL     1     -43.416   7.320  -2.887  1.00 20.00     0.130 C 
HETATM   10 BR10 UNL     1     -42.487   8.323  -4.272  1.00 20.00    -0.091 Br
ENDBRANCH   4   9
TORSDOF 1
ENDMDL
MODEL 8
REMARK VINA RESULT:      -4.3     12.512     14.085
REMARK  1 active torsions:
REMARK  status: ('A' for Active; 'I' for Inactive)
REMARK    1  A    between atoms: C4_4  and  C7_7 
ROOT
HETATM    1  C1  UNL     1     -33.181  15.317  -3.549  1.00 20.00     0.006 A 
HETATM    2  C2  UNL     1     -33.261  16.313  -4.522  1.00 20.00     0.043 A 
HETATM    3  C3  UNL     1     -33.739  14.061  -3.789  1.00 20.00     0.043 A 
HETATM    4  C4  UNL     1     -34.457  14.797  -5.975  1.00 20.00     0.029 A 
HETATM    5  C5  UNL     1     -33.899  16.054  -5.735  1.00 20.00     0.126 A 
HETATM    6  C6  UNL     1     -34.377  13.801  -5.002  1.00 20.00     0.126 A 
HETATM    7  F8  UNL     1     -33.970  17.017  -6.664  1.00 20.00    -0.205 F 
HETATM    8  F9  UNL     1     -34.909  12.592  -5.224  1.00 20.00    -0.205 F 
ENDROOT
BRANCH   4   9
HETATM    9  C7  UNL     1     -35.138  14.521  -7.273  1.00 20.00     0.130 C 
HETATM   10 BR10 UNL     1     -36.944  15.244  -7.227  1.00 20.00    -0.091 Br
ENDBRANCH   4   9
TORSDOF 1
ENDMDL
MODEL 9
REMARK VINA RESULT:      -4.3      2.079      3.165
REMARK  1 active torsions:
REMARK  status: ('A' for Active; 'I' for Inactive)
REMARK    1  A    between atoms: C4_4  and  C7_7 
ROOT
HETATM    1  C1  UNL     1     -31.820   7.332   3.532  1.00 20.00     0.006 A 
HETATM    2  C2  UNL     1     -32.408   6.489   2.589  1.00 20.00     0.043 A 
HETATM    3  C3  UNL     1     -32.387   7.464   4.799  1.00 20.00     0.043 A 
HETATM    4  C4  UNL     1     -34.130   5.910   4.181  1.00 20.00     0.029 A 
HETATM    5  C5  UNL     1     -33.563   5.778   2.913  1.00 20.00     0.126 A 
HETATM    6  C6  UNL     1     -33.542   6.753   5.124  1.00 20.00     0.126 A 
HETATM    7  F8  UNL     1     -34.121   4.970   2.001  1.00 20.00    -0.205 F 
HETATM    8  F9  UNL     1     -34.079   6.887   6.344  1.00 20.00    -0.205 F 
ENDROOT
BRANCH   4   9
HETATM    9  C7  UNL     1     -35.365   5.150   4.528  1.00 20.00     0.130 C 
HETATM   10 BR10 UNL     1     -34.969   3.875   5.944  1.00 20.00    -0.091 Br
ENDBRANCH   4   9
TORSDOF 1
ENDMDL
