MODEL 1
REMARK VINA RESULT:      -5.4      0.000      0.000
REMARK  2 active torsions:
REMARK  status: ('A' for Active; 'I' for Inactive)
REMARK    1  A    between atoms: C6_6  and  C8_8 
REMARK    2  A    between atoms: C8_8  and  N10_10 
ROOT
HETATM    1  N9  UNL     1     -32.185   9.160   1.032  1.00 20.00     0.068 N 
HETATM    2  N10 UNL     1     -31.963   7.450   2.676  1.00 20.00    -0.111 NA
HETATM    3  N11 UNL     1     -32.083   8.338   1.817  1.00 20.00    -0.167 NA
ENDROOT
BRANCH   2   4
HETATM    4  C8  UNL     1     -32.922   6.341   2.583  1.00 20.00     0.227 C 
BRANCH   4   5
HETATM    5  C6  UNL     1     -33.571   6.043   3.892  1.00 20.00    -0.035 A 
HETATM    6  C3  UNL     1     -34.430   4.949   4.011  1.00 20.00     0.009 A 
HETATM    7  C1  UNL     1     -35.037   4.671   5.235  1.00 20.00     0.001 A 
HETATM    8  C2  UNL     1     -34.786   5.483   6.340  1.00 20.00     0.007 A 
HETATM    9  C5  UNL     1     -33.928   6.576   6.220  1.00 20.00    -0.061 A 
HETATM   10  C4  UNL     1     -33.320   6.856   4.996  1.00 20.00     0.015 A 
HETATM   11  C7  UNL     1     -33.659   7.445   7.403  1.00 20.00     0.048 C 
ENDBRANCH   4   5
ENDBRANCH   2   4
TORSDOF 2
ENDMDL
MODEL 2
REMARK VINA RESULT:      -5.1      0.647      2.044
REMARK  2 active torsions:
REMARK  status: ('A' for Active; 'I' for Inactive)
REMARK    1  A    between atoms: C6_6  and  C8_8 
REMARK    2  A    between atoms: C8_8  and  N10_10 
ROOT
HETATM    1  N9  UNL     1     -32.458   9.469   0.884  1.00 20.00     0.068 N 
HETATM    2  N10 UNL     1     -31.869   8.032   2.692  1.00 20.00    -0.111 NA
HETATM    3  N11 UNL     1     -32.179   8.778   1.748  1.00 20.00    -0.167 NA
ENDROOT
BRANCH   2   4
HETATM    4  C8  UNL     1     -32.538   6.726   2.717  1.00 20.00     0.227 C 
BRANCH   4   5
HETATM    5  C6  UNL     1     -33.169   6.439   4.038  1.00 20.00    -0.035 A 
HETATM    6  C3  UNL     1     -32.966   7.308   5.111  1.00 20.00     0.009 A 
HETATM    7  C1  UNL     1     -33.555   7.040   6.346  1.00 20.00     0.001 A 
HETATM    8  C2  UNL     1     -34.349   5.905   6.509  1.00 20.00     0.007 A 
HETATM    9  C5  UNL     1     -34.551   5.037   5.436  1.00 20.00    -0.061 A 
HETATM   10  C4  UNL     1     -33.962   5.304   4.201  1.00 20.00     0.015 A 
HETATM   11  C7  UNL     1     -35.400   3.822   5.611  1.00 20.00     0.048 C 
ENDBRANCH   4   5
ENDBRANCH   2   4
TORSDOF 2
ENDMDL
MODEL 3
REMARK VINA RESULT:      -4.6     10.162     11.183
REMARK  2 active torsions:
REMARK  status: ('A' for Active; 'I' for Inactive)
REMARK    1  A    between atoms: C6_6  and  C8_8 
REMARK    2  A    between atoms: C8_8  and  N10_10 
ROOT
HETATM    1  N9  UNL     1     -41.557   9.154  -5.550  1.00 20.00     0.068 N 
HETATM    2  N10 UNL     1     -42.992   7.875  -4.142  1.00 20.00    -0.111 NA
HETATM    3  N11 UNL     1     -42.242   8.543  -4.872  1.00 20.00    -0.167 NA
ENDROOT
BRANCH   2   4
HETATM    4  C8  UNL     1     -42.784   8.036  -2.697  1.00 20.00     0.227 C 
BRANCH   4   5
HETATM    5  C6  UNL     1     -42.103   6.857  -2.089  1.00 20.00    -0.035 A 
HETATM    6  C3  UNL     1     -41.277   7.026  -0.977  1.00 20.00     0.009 A 
HETATM    7  C1  UNL     1     -40.640   5.923  -0.409  1.00 20.00     0.001 A 
HETATM    8  C2  UNL     1     -40.828   4.652  -0.950  1.00 20.00     0.007 A 
HETATM    9  C5  UNL     1     -41.654   4.484  -2.062  1.00 20.00    -0.061 A 
HETATM   10  C4  UNL     1     -42.291   5.586  -2.631  1.00 20.00     0.015 A 
HETATM   11  C7  UNL     1     -41.856   3.124  -2.641  1.00 20.00     0.048 C 
ENDBRANCH   4   5
ENDBRANCH   2   4
TORSDOF 2
ENDMDL
MODEL 4
REMARK VINA RESULT:      -4.6     11.718     12.365
REMARK  2 active torsions:
REMARK  status: ('A' for Active; 'I' for Inactive)
REMARK    1  A    between atoms: C6_6  and  C8_8 
REMARK    2  A    between atoms: C8_8  and  N10_10 
ROOT
HETATM    1  N9  UNL     1     -39.995  14.361  -4.665  1.00 20.00     0.068 N 
HETATM    2  N10 UNL     1     -37.843  14.330  -3.641  1.00 20.00    -0.111 NA
HETATM    3  N11 UNL     1     -38.962  14.346  -4.179  1.00 20.00    -0.167 NA
ENDROOT
BRANCH   2   4
HETATM    4  C8  UNL     1     -36.696  14.409  -4.556  1.00 20.00     0.227 C 
BRANCH   4   5
HETATM    5  C6  UNL     1     -35.511  15.055  -3.922  1.00 20.00    -0.035 A 
HETATM    6  C3  UNL     1     -34.302  15.126  -4.616  1.00 20.00     0.009 A 
HETATM    7  C1  UNL     1     -33.193  15.729  -4.022  1.00 20.00     0.001 A 
HETATM    8  C2  UNL     1     -33.292  16.262  -2.737  1.00 20.00     0.007 A 
HETATM    9  C5  UNL     1     -34.500  16.190  -2.045  1.00 20.00    -0.061 A 
HETATM   10  C4  UNL     1     -35.610  15.587  -2.637  1.00 20.00     0.015 A 
HETATM   11  C7  UNL     1     -34.606  16.760  -0.670  1.00 20.00     0.048 C 
ENDBRANCH   4   5
ENDBRANCH   2   4
TORSDOF 2
ENDMDL
MODEL 5
REMARK VINA RESULT:      -4.5     10.625     11.459
REMARK  2 active torsions:
REMARK  status: ('A' for Active; 'I' for Inactive)
REMARK    1  A    between atoms: C6_6  and  C8_8 
REMARK    2  A    between atoms: C8_8  and  N10_10 
ROOT
HETATM    1  N9  UNL     1     -41.666   0.240  -3.901  1.00 20.00     0.068 N 
HETATM    2  N10 UNL     1     -41.415   2.559  -3.412  1.00 20.00    -0.111 NA
HETATM    3  N11 UNL     1     -41.549   1.349  -3.663  1.00 20.00    -0.167 NA
ENDROOT
BRANCH   2   4
HETATM    4  C8  UNL     1     -42.252   3.079  -2.323  1.00 20.00     0.227 C 
BRANCH   4   5
HETATM    5  C6  UNL     1     -41.879   4.471  -1.939  1.00 20.00    -0.035 A 
HETATM    6  C3  UNL     1     -41.043   4.691  -0.843  1.00 20.00     0.009 A 
HETATM    7  C1  UNL     1     -40.696   5.993  -0.483  1.00 20.00     0.001 A 
HETATM    8  C2  UNL     1     -41.182   7.074  -1.218  1.00 20.00     0.007 A 
HETATM    9  C5  UNL     1     -42.017   6.853  -2.313  1.00 20.00    -0.061 A 
HETATM   10  C4  UNL     1     -42.365   5.551  -2.673  1.00 20.00     0.015 A 
HETATM   11  C7  UNL     1     -42.536   8.009  -3.100  1.00 20.00     0.048 C 
ENDBRANCH   4   5
ENDBRANCH   2   4
TORSDOF 2
ENDMDL
MODEL 6
REMARK VINA RESULT:      -4.5     11.156     12.627
REMARK  2 active torsions:
REMARK  status: ('A' for Active; 'I' for Inactive)
REMARK    1  A    between atoms: C6_6  and  C8_8 
REMARK    2  A    between atoms: C8_8  and  N10_10 
ROOT
HETATM    1  N9  UNL     1     -34.314  17.733   0.450  1.00 20.00     0.068 N 
HETATM    2  N10 UNL     1     -34.698  16.232  -1.360  1.00 20.00    -0.111 NA
HETATM    3  N11 UNL     1     -34.494  17.017  -0.419  1.00 20.00    -0.167 NA
ENDROOT
BRANCH   2   4
HETATM    4  C8  UNL     1     -33.737  16.304  -2.468  1.00 20.00     0.227 C 
BRANCH   4   5
HETATM    5  C6  UNL     1     -34.137  15.446  -3.620  1.00 20.00    -0.035 A 
HETATM    6  C3  UNL     1     -34.479  14.109  -3.409  1.00 20.00     0.009 A 
HETATM    7  C1  UNL     1     -34.852  13.307  -4.486  1.00 20.00     0.001 A 
HETATM    8  C2  UNL     1     -34.885  13.839  -5.775  1.00 20.00     0.007 A 
HETATM    9  C5  UNL     1     -34.543  15.174  -5.986  1.00 20.00    -0.061 A 
HETATM   10  C4  UNL     1     -34.169  15.978  -4.909  1.00 20.00     0.015 A 
HETATM   11  C7  UNL     1     -34.578  15.744  -7.365  1.00 20.00     0.048 C 
ENDBRANCH   4   5
ENDBRANCH   2   4
TORSDOF 2
ENDMDL
MODEL 7
REMARK VINA RESULT:      -4.4     11.568     12.299
REMARK  2 active torsions:
REMARK  status: ('A' for Active; 'I' for Inactive)
REMARK    1  A    between atoms: C6_6  and  C8_8 
REMARK    2  A    between atoms: C8_8  and  N10_10 
ROOT
HETATM    1  N9  UNL     1     -40.675  13.739  -4.935  1.00 20.00     0.068 N 
HETATM    2  N10 UNL     1     -38.652  14.388  -3.855  1.00 20.00    -0.111 NA
HETATM    3  N11 UNL     1     -39.705  14.051  -4.422  1.00 20.00    -0.167 NA
ENDROOT
BRANCH   2   4
HETATM    4  C8  UNL     1     -37.617  14.963  -4.723  1.00 20.00     0.227 C 
BRANCH   4   5
HETATM    5  C6  UNL     1     -36.252  14.833  -4.138  1.00 20.00    -0.035 A 
HETATM    6  C3  UNL     1     -35.424  13.779  -4.527  1.00 20.00     0.009 A 
HETATM    7  C1  UNL     1     -34.147  13.658  -3.980  1.00 20.00     0.001 A 
HETATM    8  C2  UNL     1     -33.697  14.589  -3.044  1.00 20.00     0.007 A 
HETATM    9  C5  UNL     1     -34.525  15.642  -2.656  1.00 20.00    -0.061 A 
HETATM   10  C4  UNL     1     -35.802  15.764  -3.203  1.00 20.00     0.015 A 
HETATM   11  C7  UNL     1     -34.043  16.638  -1.655  1.00 20.00     0.048 C 
ENDBRANCH   4   5
ENDBRANCH   2   4
TORSDOF 2
ENDMDL
MODEL 8
REMARK VINA RESULT:      -4.4     11.382     11.971
REMARK  2 active torsions:
REMARK  status: ('A' for Active; 'I' for Inactive)
REMARK    1  A    between atoms: C6_6  and  C8_8 
REMARK    2  A    between atoms: C8_8  and  N10_10 
ROOT
HETATM    1  N9  UNL     1     -33.896  18.414   1.085  1.00 20.00     0.068 N 
HETATM    2  N10 UNL     1     -34.767  16.899  -0.535  1.00 20.00    -0.111 NA
HETATM    3  N11 UNL     1     -34.309  17.690   0.307  1.00 20.00    -0.167 NA
ENDROOT
BRANCH   2   4
HETATM    4  C8  UNL     1     -33.942  16.697  -1.733  1.00 20.00     0.227 C 
BRANCH   4   5
HETATM    5  C6  UNL     1     -34.514  15.667  -2.647  1.00 20.00    -0.035 A 
HETATM    6  C3  UNL     1     -33.683  14.702  -3.217  1.00 20.00     0.009 A 
HETATM    7  C1  UNL     1     -34.218  13.740  -4.072  1.00 20.00     0.001 A 
HETATM    8  C2  UNL     1     -35.583  13.739  -4.356  1.00 20.00     0.007 A 
HETATM    9  C5  UNL     1     -36.414  14.703  -3.786  1.00 20.00    -0.061 A 
HETATM   10  C4  UNL     1     -35.879  15.667  -2.931  1.00 20.00     0.015 A 
HETATM   11  C7  UNL     1     -37.875  14.703  -4.089  1.00 20.00     0.048 C 
ENDBRANCH   4   5
ENDBRANCH   2   4
TORSDOF 2
ENDMDL
MODEL 9
REMARK VINA RESULT:      -4.4     11.404     12.700
REMARK  2 active torsions:
REMARK  status: ('A' for Active; 'I' for Inactive)
REMARK    1  A    between atoms: C6_6  and  C8_8 
REMARK    2  A    between atoms: C8_8  and  N10_10 
ROOT
HETATM    1  N9  UNL     1     -35.047  17.789   1.300  1.00 20.00     0.068 N 
HETATM    2  N10 UNL     1     -34.729  16.555  -0.713  1.00 20.00    -0.111 NA
HETATM    3  N11 UNL     1     -34.891  17.202   0.335  1.00 20.00    -0.167 NA
ENDROOT
BRANCH   2   4
HETATM    4  C8  UNL     1     -33.741  17.102  -1.652  1.00 20.00     0.227 C 
BRANCH   4   5
HETATM    5  C6  UNL     1     -33.852  16.493  -3.009  1.00 20.00    -0.035 A 
HETATM    6  C3  UNL     1     -33.511  17.239  -4.138  1.00 20.00     0.009 A 
HETATM    7  C1  UNL     1     -33.616  16.670  -5.406  1.00 20.00     0.001 A 
HETATM    8  C2  UNL     1     -34.060  15.356  -5.548  1.00 20.00     0.007 A 
HETATM    9  C5  UNL     1     -34.400  14.610  -4.419  1.00 20.00    -0.061 A 
HETATM   10  C4  UNL     1     -34.297  15.179  -3.150  1.00 20.00     0.015 A 
HETATM   11  C7  UNL     1     -34.875  13.204  -4.570  1.00 20.00     0.048 C 
ENDBRANCH   4   5
ENDBRANCH   2   4
TORSDOF 2
ENDMDL
