MODEL 1
REMARK VINA RESULT:      -4.9      0.000      0.000
REMARK  1 active torsions:
REMARK  status: ('A' for Active; 'I' for Inactive)
REMARK    1  A    between atoms: C6_6  and  N9_9 
ROOT
HETATM    1  N8  UNL     1     -32.565   9.657   1.822  1.00 20.00     0.068 N 
HETATM    2  N9  UNL     1     -31.974   7.368   2.179  1.00 20.00    -0.073 NA
HETATM    3  N10 UNL     1     -32.285   8.564   1.995  1.00 20.00    -0.162 NA
ENDROOT
BRANCH   2   4
HETATM    4  C6  UNL     1     -32.776   6.739   3.137  1.00 20.00     0.093 A 
HETATM    5  C3  UNL     1     -32.665   7.097   4.480  1.00 20.00     0.035 A 
HETATM    6  C1  UNL     1     -33.466   6.471   5.437  1.00 20.00     0.009 A 
HETATM    7  C5  UNL     1     -34.377   5.489   5.049  1.00 20.00    -0.062 A 
HETATM    8  C2  UNL     1     -34.487   5.132   3.705  1.00 20.00     0.009 A 
HETATM    9  C7  UNL     1     -35.232   4.819   6.071  1.00 20.00     0.048 C 
HETATM   10  C4  UNL     1     -33.686   5.757   2.749  1.00 20.00     0.035 A 
ENDBRANCH   2   4
TORSDOF 1
ENDMDL
MODEL 2
REMARK VINA RESULT:      -4.9      0.011      1.528
REMARK  1 active torsions:
REMARK  status: ('A' for Active; 'I' for Inactive)
REMARK    1  A    between atoms: C6_6  and  N9_9 
ROOT
HETATM    1  N8  UNL     1     -32.561   9.665   1.820  1.00 20.00     0.068 N 
HETATM    2  N9  UNL     1     -31.965   7.378   2.187  1.00 20.00    -0.073 NA
HETATM    3  N10 UNL     1     -32.279   8.573   1.998  1.00 20.00    -0.162 NA
ENDROOT
BRANCH   2   4
HETATM    4  C6  UNL     1     -32.771   6.750   3.142  1.00 20.00     0.093 A 
HETATM    5  C3  UNL     1     -33.675   5.763   2.750  1.00 20.00     0.035 A 
HETATM    6  C1  UNL     1     -34.478   5.135   3.703  1.00 20.00     0.009 A 
HETATM    7  C5  UNL     1     -34.377   5.494   5.047  1.00 20.00    -0.062 A 
HETATM    8  C2  UNL     1     -33.472   6.481   5.438  1.00 20.00     0.009 A 
HETATM    9  C7  UNL     1     -35.236   4.824   6.065  1.00 20.00     0.048 C 
HETATM   10  C4  UNL     1     -32.669   7.109   4.486  1.00 20.00     0.035 A 
ENDBRANCH   2   4
TORSDOF 1
ENDMDL
MODEL 3
REMARK VINA RESULT:      -4.2     11.377     11.765
REMARK  1 active torsions:
REMARK  status: ('A' for Active; 'I' for Inactive)
REMARK    1  A    between atoms: C6_6  and  N9_9 
ROOT
HETATM    1  N8  UNL     1     -35.499  14.566  -7.577  1.00 20.00     0.068 N 
HETATM    2  N9  UNL     1     -34.874  13.435  -5.565  1.00 20.00    -0.073 NA
HETATM    3  N10 UNL     1     -35.200  14.029  -6.614  1.00 20.00    -0.162 NA
ENDROOT
BRANCH   2   4
HETATM    4  C6  UNL     1     -34.779  14.291  -4.463  1.00 20.00     0.093 A 
HETATM    5  C3  UNL     1     -33.529  14.726  -4.023  1.00 20.00     0.035 A 
HETATM    6  C1  UNL     1     -33.436  15.582  -2.925  1.00 20.00     0.009 A 
HETATM    7  C5  UNL     1     -34.591  16.002  -2.267  1.00 20.00    -0.062 A 
HETATM    8  C2  UNL     1     -35.841  15.568  -2.708  1.00 20.00     0.009 A 
HETATM    9  C7  UNL     1     -34.491  16.916  -1.093  1.00 20.00     0.048 C 
HETATM   10  C4  UNL     1     -35.935  14.712  -3.806  1.00 20.00     0.035 A 
ENDBRANCH   2   4
TORSDOF 1
ENDMDL
MODEL 4
REMARK VINA RESULT:      -4.1     11.245     11.928
REMARK  1 active torsions:
REMARK  status: ('A' for Active; 'I' for Inactive)
REMARK    1  A    between atoms: C6_6  and  N9_9 
ROOT
HETATM    1  N8  UNL     1     -38.825  15.601  -5.666  1.00 20.00     0.068 N 
HETATM    2  N9  UNL     1     -37.890  14.348  -3.856  1.00 20.00    -0.073 NA
HETATM    3  N10 UNL     1     -38.375  15.004  -4.803  1.00 20.00    -0.162 NA
ENDROOT
BRANCH   2   4
HETATM    4  C6  UNL     1     -36.498  14.454  -3.780  1.00 20.00     0.093 A 
HETATM    5  C3  UNL     1     -35.692  13.501  -4.403  1.00 20.00     0.035 A 
HETATM    6  C1  UNL     1     -34.302  13.607  -4.329  1.00 20.00     0.009 A 
HETATM    7  C5  UNL     1     -33.720  14.666  -3.632  1.00 20.00    -0.062 A 
HETATM    8  C2  UNL     1     -34.526  15.619  -3.010  1.00 20.00     0.009 A 
HETATM    9  C7  UNL     1     -32.235  14.779  -3.552  1.00 20.00     0.048 C 
HETATM   10  C4  UNL     1     -35.916  15.513  -3.084  1.00 20.00     0.035 A 
ENDBRANCH   2   4
TORSDOF 1
ENDMDL
MODEL 5
REMARK VINA RESULT:      -4.1     11.273     12.561
REMARK  1 active torsions:
REMARK  status: ('A' for Active; 'I' for Inactive)
REMARK    1  A    between atoms: C6_6  and  N9_9 
ROOT
HETATM    1  N8  UNL     1     -34.773  16.446  -1.289  1.00 20.00     0.068 N 
HETATM    2  N9  UNL     1     -33.156  15.839  -2.942  1.00 20.00    -0.073 NA
HETATM    3  N10 UNL     1     -34.004  16.155  -2.080  1.00 20.00    -0.162 NA
ENDROOT
BRANCH   2   4
HETATM    4  C6  UNL     1     -33.733  15.486  -4.166  1.00 20.00     0.093 A 
HETATM    5  C3  UNL     1     -33.631  16.347  -5.259  1.00 20.00     0.035 A 
HETATM    6  C1  UNL     1     -34.205  15.994  -6.480  1.00 20.00     0.009 A 
HETATM    7  C5  UNL     1     -34.881  14.781  -6.610  1.00 20.00    -0.062 A 
HETATM    8  C2  UNL     1     -34.982  13.919  -5.517  1.00 20.00     0.009 A 
HETATM    9  C7  UNL     1     -35.495  14.404  -7.915  1.00 20.00     0.048 C 
HETATM   10  C4  UNL     1     -34.408  14.272  -4.295  1.00 20.00     0.035 A 
ENDBRANCH   2   4
TORSDOF 1
ENDMDL
MODEL 6
REMARK VINA RESULT:      -4.0     11.283     12.598
REMARK  1 active torsions:
REMARK  status: ('A' for Active; 'I' for Inactive)
REMARK    1  A    between atoms: C6_6  and  N9_9 
ROOT
HETATM    1  N8  UNL     1     -34.793  16.272  -1.245  1.00 20.00     0.068 N 
HETATM    2  N9  UNL     1     -33.178  15.892  -2.967  1.00 20.00    -0.073 NA
HETATM    3  N10 UNL     1     -34.025  16.089  -2.070  1.00 20.00    -0.162 NA
ENDROOT
BRANCH   2   4
HETATM    4  C6  UNL     1     -33.755  15.523  -4.187  1.00 20.00     0.093 A 
HETATM    5  C3  UNL     1     -34.455  14.322  -4.291  1.00 20.00     0.035 A 
HETATM    6  C1  UNL     1     -35.033  13.955  -5.507  1.00 20.00     0.009 A 
HETATM    7  C5  UNL     1     -34.910  14.789  -6.618  1.00 20.00    -0.062 A 
HETATM    8  C2  UNL     1     -34.210  15.991  -6.513  1.00 20.00     0.009 A 
HETATM    9  C7  UNL     1     -35.526  14.396  -7.918  1.00 20.00     0.048 C 
HETATM   10  C4  UNL     1     -33.633  16.358  -5.297  1.00 20.00     0.035 A 
ENDBRANCH   2   4
TORSDOF 1
ENDMDL
MODEL 7
REMARK VINA RESULT:      -4.0     11.608     12.302
REMARK  1 active torsions:
REMARK  status: ('A' for Active; 'I' for Inactive)
REMARK    1  A    between atoms: C6_6  and  N9_9 
ROOT
HETATM    1  N8  UNL     1     -32.373  18.583   4.211  1.00 20.00     0.068 N 
HETATM    2  N9  UNL     1     -34.163  19.169   2.738  1.00 20.00    -0.073 NA
HETATM    3  N10 UNL     1     -33.226  18.861   3.505  1.00 20.00    -0.162 NA
ENDROOT
BRANCH   2   4
HETATM    4  C6  UNL     1     -34.068  18.547   1.488  1.00 20.00     0.093 A 
HETATM    5  C3  UNL     1     -35.025  17.608   1.103  1.00 20.00     0.035 A 
HETATM    6  C1  UNL     1     -34.931  16.988  -0.143  1.00 20.00     0.009 A 
HETATM    7  C5  UNL     1     -33.881  17.308  -1.004  1.00 20.00    -0.062 A 
HETATM    8  C2  UNL     1     -32.926  18.248  -0.619  1.00 20.00     0.009 A 
HETATM    9  C7  UNL     1     -33.780  16.645  -2.336  1.00 20.00     0.048 C 
HETATM   10  C4  UNL     1     -33.019  18.868   0.628  1.00 20.00     0.035 A 
ENDBRANCH   2   4
TORSDOF 1
ENDMDL
MODEL 8
REMARK VINA RESULT:      -4.0     11.370     12.570
REMARK  1 active torsions:
REMARK  status: ('A' for Active; 'I' for Inactive)
REMARK    1  A    between atoms: C6_6  and  N9_9 
ROOT
HETATM    1  N8  UNL     1     -32.660  13.671  -3.456  1.00 20.00     0.068 N 
HETATM    2  N9  UNL     1     -34.788  12.859  -4.184  1.00 20.00    -0.073 NA
HETATM    3  N10 UNL     1     -33.677  13.287  -3.805  1.00 20.00    -0.162 NA
ENDROOT
BRANCH   2   4
HETATM    4  C6  UNL     1     -35.547  13.830  -4.845  1.00 20.00     0.093 A 
HETATM    5  C3  UNL     1     -35.230  14.191  -6.154  1.00 20.00     0.035 A 
HETATM    6  C1  UNL     1     -35.988  15.159  -6.814  1.00 20.00     0.009 A 
HETATM    7  C5  UNL     1     -37.062  15.766  -6.164  1.00 20.00    -0.062 A 
HETATM    8  C2  UNL     1     -37.380  15.405  -4.855  1.00 20.00     0.009 A 
HETATM    9  C7  UNL     1     -37.872  16.802  -6.869  1.00 20.00     0.048 C 
HETATM   10  C4  UNL     1     -36.622  14.437  -4.195  1.00 20.00     0.035 A 
ENDBRANCH   2   4
TORSDOF 1
ENDMDL
MODEL 9
REMARK VINA RESULT:      -4.0     10.290     11.141
REMARK  1 active torsions:
REMARK  status: ('A' for Active; 'I' for Inactive)
REMARK    1  A    between atoms: C6_6  and  N9_9 
ROOT
HETATM    1  N8  UNL     1     -40.843   1.651  -4.174  1.00 20.00     0.068 N 
HETATM    2  N9  UNL     1     -42.491   2.607  -2.728  1.00 20.00    -0.073 NA
HETATM    3  N10 UNL     1     -41.627   2.111  -3.483  1.00 20.00    -0.162 NA
ENDROOT
BRANCH   2   4
HETATM    4  C6  UNL     1     -42.162   3.899  -2.304  1.00 20.00     0.093 A 
HETATM    5  C3  UNL     1     -42.821   5.000  -2.851  1.00 20.00     0.035 A 
HETATM    6  C1  UNL     1     -42.494   6.289  -2.427  1.00 20.00     0.009 A 
HETATM    7  C5  UNL     1     -41.510   6.476  -1.457  1.00 20.00    -0.062 A 
HETATM    8  C2  UNL     1     -40.852   5.374  -0.909  1.00 20.00     0.009 A 
HETATM    9  C7  UNL     1     -41.160   7.853  -1.004  1.00 20.00     0.048 C 
HETATM   10  C4  UNL     1     -41.179   4.085  -1.334  1.00 20.00     0.035 A 
ENDBRANCH   2   4
TORSDOF 1
ENDMDL
