MODEL 1
REMARK VINA RESULT:      -5.5      0.000      0.000
REMARK  0 active torsions:
REMARK  status: ('A' for Active; 'I' for Inactive)
ROOT
HETATM    1  C1  UNL     1     -34.798   5.436   6.742  1.00 20.00     0.001 A 
HETATM    2  C2  UNL     1     -35.355   4.490   5.887  1.00 20.00     0.001 A 
HETATM    3  C3  UNL     1     -32.205   7.247   3.044  1.00 20.00     0.001 A 
HETATM    4  C4  UNL     1     -32.762   6.299   2.189  1.00 20.00     0.001 A 
HETATM    5  C5  UNL     1     -33.875   6.361   6.252  1.00 20.00     0.012 A 
HETATM    6  C6  UNL     1     -34.991   4.463   4.541  1.00 20.00     0.012 A 
HETATM    7  C7  UNL     1     -32.570   7.272   4.390  1.00 20.00     0.012 A 
HETATM    8  C8  UNL     1     -33.686   5.374   2.679  1.00 20.00     0.012 A 
HETATM    9  C9  UNL     1     -33.497   6.349   4.900  1.00 20.00    -0.026 A 
HETATM   10  C10 UNL     1     -34.064   5.386   4.031  1.00 20.00    -0.026 A 
ENDROOT
TORSDOF 0
ENDMDL
MODEL 2
REMARK VINA RESULT:      -5.5      0.041      3.446
REMARK  0 active torsions:
REMARK  status: ('A' for Active; 'I' for Inactive)
ROOT
HETATM    1  C1  UNL     1     -32.171   7.271   3.044  1.00 20.00     0.001 A 
HETATM    2  C2  UNL     1     -32.729   6.324   2.190  1.00 20.00     0.001 A 
HETATM    3  C3  UNL     1     -34.773   5.470   6.741  1.00 20.00     0.001 A 
HETATM    4  C4  UNL     1     -35.331   4.523   5.886  1.00 20.00     0.001 A 
HETATM    5  C5  UNL     1     -32.536   7.298   4.390  1.00 20.00     0.012 A 
HETATM    6  C6  UNL     1     -33.655   5.402   2.679  1.00 20.00     0.012 A 
HETATM    7  C7  UNL     1     -33.846   6.391   6.251  1.00 20.00     0.012 A 
HETATM    8  C8  UNL     1     -34.965   4.495   4.540  1.00 20.00     0.012 A 
HETATM    9  C9  UNL     1     -33.467   6.378   4.899  1.00 20.00    -0.026 A 
HETATM   10  C10 UNL     1     -34.035   5.415   4.030  1.00 20.00    -0.026 A 
ENDROOT
TORSDOF 0
ENDMDL
MODEL 3
REMARK VINA RESULT:      -5.5      0.032      2.071
REMARK  0 active torsions:
REMARK  status: ('A' for Active; 'I' for Inactive)
ROOT
HETATM    1  C1  UNL     1     -35.333   4.519   5.911  1.00 20.00     0.001 A 
HETATM    2  C2  UNL     1     -34.777   5.477   6.754  1.00 20.00     0.001 A 
HETATM    3  C3  UNL     1     -32.755   6.298   2.188  1.00 20.00     0.001 A 
HETATM    4  C4  UNL     1     -32.199   7.256   3.031  1.00 20.00     0.001 A 
HETATM    5  C5  UNL     1     -34.972   4.480   4.565  1.00 20.00     0.012 A 
HETATM    6  C6  UNL     1     -33.858   6.400   6.253  1.00 20.00     0.012 A 
HETATM    7  C7  UNL     1     -33.673   5.376   2.690  1.00 20.00     0.012 A 
HETATM    8  C8  UNL     1     -32.560   7.295   4.378  1.00 20.00     0.012 A 
HETATM    9  C9  UNL     1     -34.048   5.400   4.043  1.00 20.00    -0.026 A 
HETATM   10  C10 UNL     1     -33.483   6.375   4.900  1.00 20.00    -0.026 A 
ENDROOT
TORSDOF 0
ENDMDL
MODEL 4
REMARK VINA RESULT:      -5.5      0.048      4.020
REMARK  0 active torsions:
REMARK  status: ('A' for Active; 'I' for Inactive)
ROOT
HETATM    1  C1  UNL     1     -32.721   6.326   2.193  1.00 20.00     0.001 A 
HETATM    2  C2  UNL     1     -32.162   7.271   3.048  1.00 20.00     0.001 A 
HETATM    3  C3  UNL     1     -35.330   4.528   5.886  1.00 20.00     0.001 A 
HETATM    4  C4  UNL     1     -34.771   5.474   6.741  1.00 20.00     0.001 A 
HETATM    5  C5  UNL     1     -33.649   5.406   2.681  1.00 20.00     0.012 A 
HETATM    6  C6  UNL     1     -32.529   7.300   4.394  1.00 20.00     0.012 A 
HETATM    7  C7  UNL     1     -34.962   4.501   4.540  1.00 20.00     0.012 A 
HETATM    8  C8  UNL     1     -33.843   6.395   6.254  1.00 20.00     0.012 A 
HETATM    9  C9  UNL     1     -34.030   5.419   4.032  1.00 20.00    -0.026 A 
HETATM   10  C10 UNL     1     -33.461   6.381   4.902  1.00 20.00    -0.026 A 
ENDROOT
TORSDOF 0
ENDMDL
MODEL 5
REMARK VINA RESULT:      -4.7     12.152     14.329
REMARK  0 active torsions:
REMARK  status: ('A' for Active; 'I' for Inactive)
ROOT
HETATM    1  C1  UNL     1     -35.567  15.381  -7.918  1.00 20.00     0.001 A 
HETATM    2  C2  UNL     1     -34.980  16.629  -7.731  1.00 20.00     0.001 A 
HETATM    3  C3  UNL     1     -33.555  13.814  -3.774  1.00 20.00     0.001 A 
HETATM    4  C4  UNL     1     -32.967  15.063  -3.587  1.00 20.00     0.001 A 
HETATM    5  C5  UNL     1     -35.363  14.367  -6.983  1.00 20.00     0.012 A 
HETATM    6  C6  UNL     1     -34.186  16.867  -6.609  1.00 20.00     0.012 A 
HETATM    7  C7  UNL     1     -34.349  13.578  -4.896  1.00 20.00     0.012 A 
HETATM    8  C8  UNL     1     -33.172  16.078  -4.522  1.00 20.00     0.012 A 
HETATM    9  C9  UNL     1     -34.566  14.588  -5.847  1.00 20.00    -0.026 A 
HETATM   10  C10 UNL     1     -33.969  15.857  -5.658  1.00 20.00    -0.026 A 
ENDROOT
TORSDOF 0
ENDMDL
MODEL 6
REMARK VINA RESULT:      -4.7     12.157     14.204
REMARK  0 active torsions:
REMARK  status: ('A' for Active; 'I' for Inactive)
ROOT
HETATM    1  C1  UNL     1     -34.967  16.691  -7.695  1.00 20.00     0.001 A 
HETATM    2  C2  UNL     1     -35.560  15.451  -7.913  1.00 20.00     0.001 A 
HETATM    3  C3  UNL     1     -32.969  15.013  -3.588  1.00 20.00     0.001 A 
HETATM    4  C4  UNL     1     -33.563  13.772  -3.806  1.00 20.00     0.001 A 
HETATM    5  C5  UNL     1     -34.173  16.896  -6.567  1.00 20.00     0.012 A 
HETATM    6  C6  UNL     1     -35.363  14.412  -7.003  1.00 20.00     0.012 A 
HETATM    7  C7  UNL     1     -33.167  16.050  -4.499  1.00 20.00     0.012 A 
HETATM    8  C8  UNL     1     -34.357  13.567  -4.935  1.00 20.00     0.012 A 
HETATM    9  C9  UNL     1     -33.963  15.862  -5.640  1.00 20.00    -0.026 A 
HETATM   10  C10 UNL     1     -34.567  14.601  -5.862  1.00 20.00    -0.026 A 
ENDROOT
TORSDOF 0
ENDMDL
MODEL 7
REMARK VINA RESULT:      -4.6     12.234     14.005
REMARK  0 active torsions:
REMARK  status: ('A' for Active; 'I' for Inactive)
ROOT
HETATM    1  C1  UNL     1     -33.686  13.827  -3.751  1.00 20.00     0.001 A 
HETATM    2  C2  UNL     1     -34.430  13.220  -4.758  1.00 20.00     0.001 A 
HETATM    3  C3  UNL     1     -33.804  18.030  -6.200  1.00 20.00     0.001 A 
HETATM    4  C4  UNL     1     -34.548  17.422  -7.208  1.00 20.00     0.001 A 
HETATM    5  C5  UNL     1     -33.343  15.175  -3.853  1.00 20.00     0.012 A 
HETATM    6  C6  UNL     1     -34.833  13.957  -5.872  1.00 20.00     0.012 A 
HETATM    7  C7  UNL     1     -33.402  17.291  -5.087  1.00 20.00     0.012 A 
HETATM    8  C8  UNL     1     -34.892  16.074  -7.105  1.00 20.00     0.012 A 
HETATM    9  C9  UNL     1     -33.739  15.934  -4.967  1.00 20.00    -0.026 A 
HETATM   10  C10 UNL     1     -34.496  15.315  -5.992  1.00 20.00    -0.026 A 
ENDROOT
TORSDOF 0
ENDMDL
MODEL 8
REMARK VINA RESULT:      -4.6     12.217     14.275
REMARK  0 active torsions:
REMARK  status: ('A' for Active; 'I' for Inactive)
ROOT
HETATM    1  C1  UNL     1     -33.751  18.089  -6.038  1.00 20.00     0.001 A 
HETATM    2  C2  UNL     1     -34.467  17.525  -7.090  1.00 20.00     0.001 A 
HETATM    3  C3  UNL     1     -33.766  13.804  -3.732  1.00 20.00     0.001 A 
HETATM    4  C4  UNL     1     -34.483  13.241  -4.784  1.00 20.00     0.001 A 
HETATM    5  C5  UNL     1     -33.395  17.308  -4.939  1.00 20.00     0.012 A 
HETATM    6  C6  UNL     1     -34.831  16.179  -7.046  1.00 20.00     0.012 A 
HETATM    7  C7  UNL     1     -33.403  15.150  -3.778  1.00 20.00     0.012 A 
HETATM    8  C8  UNL     1     -34.839  14.021  -5.884  1.00 20.00     0.012 A 
HETATM    9  C9  UNL     1     -33.752  15.951  -4.877  1.00 20.00    -0.026 A 
HETATM   10  C10 UNL     1     -34.481  15.378  -5.946  1.00 20.00    -0.026 A 
ENDROOT
TORSDOF 0
ENDMDL
MODEL 9
REMARK VINA RESULT:      -4.5     11.803     13.346
REMARK  0 active torsions:
REMARK  status: ('A' for Active; 'I' for Inactive)
ROOT
HETATM    1  C1  UNL     1     -34.480  14.529  -6.118  1.00 20.00     0.001 A 
HETATM    2  C2  UNL     1     -34.835  13.619  -5.126  1.00 20.00     0.001 A 
HETATM    3  C3  UNL     1     -33.799  17.955  -2.730  1.00 20.00     0.001 A 
HETATM    4  C4  UNL     1     -34.155  17.044  -1.738  1.00 20.00     0.001 A 
HETATM    5  C5  UNL     1     -34.132  15.835  -5.774  1.00 20.00     0.012 A 
HETATM    6  C6  UNL     1     -34.845  14.013  -3.788  1.00 20.00     0.012 A 
HETATM    7  C7  UNL     1     -33.790  17.560  -4.068  1.00 20.00     0.012 A 
HETATM    8  C8  UNL     1     -34.502  15.738  -2.082  1.00 20.00     0.012 A 
HETATM    9  C9  UNL     1     -34.136  16.249  -4.432  1.00 20.00    -0.026 A 
HETATM   10  C10 UNL     1     -34.498  15.324  -3.424  1.00 20.00    -0.026 A 
ENDROOT
TORSDOF 0
ENDMDL
