MODEL 1
REMARK VINA RESULT:      -3.9      0.000      0.000
REMARK  0 active torsions:
REMARK  status: ('A' for Active; 'I' for Inactive)
ROOT
HETATM    1  C1  UNL     1     -34.645   5.460   6.337  1.00 20.00     0.019 A 
HETATM    2  C2  UNL     1     -35.217   4.632   5.339  1.00 20.00     0.019 A 
HETATM    3  C3  UNL     1     -33.767   6.315   5.708  1.00 20.00     0.090 A 
HETATM    4  C4  UNL     1     -34.671   5.006   4.132  1.00 20.00     0.090 A 
HETATM    5  C5  UNL     1     -33.007   6.704   3.358  1.00 20.00     0.154 C 
HETATM    6  N6  UNL     1     -33.791   6.030   4.368  1.00 20.00    -0.371 N 
ENDROOT
TORSDOF 0
ENDMDL
MODEL 2
REMARK VINA RESULT:      -3.9      0.005      1.530
REMARK  0 active torsions:
REMARK  status: ('A' for Active; 'I' for Inactive)
ROOT
HETATM    1  C1  UNL     1     -35.219   4.639   5.339  1.00 20.00     0.019 A 
HETATM    2  C2  UNL     1     -34.646   5.466   6.337  1.00 20.00     0.019 A 
HETATM    3  C3  UNL     1     -34.670   5.011   4.131  1.00 20.00     0.090 A 
HETATM    4  C4  UNL     1     -33.764   6.317   5.709  1.00 20.00     0.090 A 
HETATM    5  C5  UNL     1     -33.002   6.705   3.359  1.00 20.00     0.154 C 
HETATM    6  N6  UNL     1     -33.787   6.032   4.369  1.00 20.00    -0.371 N 
ENDROOT
TORSDOF 0
ENDMDL
MODEL 3
REMARK VINA RESULT:      -3.8      1.020      2.061
REMARK  0 active torsions:
REMARK  status: ('A' for Active; 'I' for Inactive)
ROOT
HETATM    1  C1  UNL     1     -34.715   5.292   3.721  1.00 20.00     0.019 A 
HETATM    2  C2  UNL     1     -35.225   4.492   4.774  1.00 20.00     0.019 A 
HETATM    3  C3  UNL     1     -34.024   6.336   4.295  1.00 20.00     0.090 A 
HETATM    4  C4  UNL     1     -34.829   5.072   5.959  1.00 20.00     0.090 A 
HETATM    5  C5  UNL     1     -33.505   7.086   6.623  1.00 20.00     0.154 C 
HETATM    6  N6  UNL     1     -34.101   6.192   5.656  1.00 20.00    -0.371 N 
ENDROOT
TORSDOF 0
ENDMDL
MODEL 4
REMARK VINA RESULT:      -3.5      0.880      2.447
REMARK  0 active torsions:
REMARK  status: ('A' for Active; 'I' for Inactive)
ROOT
HETATM    1  C1  UNL     1     -33.226   6.133   3.068  1.00 20.00     0.019 A 
HETATM    2  C2  UNL     1     -34.402   5.371   2.856  1.00 20.00     0.019 A 
HETATM    3  C3  UNL     1     -33.129   6.372   4.422  1.00 20.00     0.090 A 
HETATM    4  C4  UNL     1     -34.988   5.169   4.086  1.00 20.00     0.090 A 
HETATM    5  C5  UNL     1     -34.475   5.803   6.450  1.00 20.00     0.154 C 
HETATM    6  N6  UNL     1     -34.205   5.781   5.030  1.00 20.00    -0.371 N 
ENDROOT
TORSDOF 0
ENDMDL
MODEL 5
REMARK VINA RESULT:      -3.4      0.871      2.803
REMARK  0 active torsions:
REMARK  status: ('A' for Active; 'I' for Inactive)
ROOT
HETATM    1  C1  UNL     1     -34.290   5.388   2.841  1.00 20.00     0.019 A 
HETATM    2  C2  UNL     1     -33.145   6.185   3.088  1.00 20.00     0.019 A 
HETATM    3  C3  UNL     1     -34.905   5.165   4.053  1.00 20.00     0.090 A 
HETATM    4  C4  UNL     1     -33.096   6.425   4.443  1.00 20.00     0.090 A 
HETATM    5  C5  UNL     1     -34.481   5.808   6.431  1.00 20.00     0.154 C 
HETATM    6  N6  UNL     1     -34.171   5.800   5.019  1.00 20.00    -0.371 N 
ENDROOT
TORSDOF 0
ENDMDL
MODEL 6
REMARK VINA RESULT:      -3.0      9.116      9.911
REMARK  0 active torsions:
REMARK  status: ('A' for Active; 'I' for Inactive)
ROOT
HETATM    1  C1  UNL     1     -40.710   6.179  -0.423  1.00 20.00     0.019 A 
HETATM    2  C2  UNL     1     -41.415   6.945  -1.386  1.00 20.00     0.019 A 
HETATM    3  C3  UNL     1     -40.842   4.854  -0.775  1.00 20.00     0.090 A 
HETATM    4  C4  UNL     1     -41.955   6.064  -2.295  1.00 20.00     0.090 A 
HETATM    5  C5  UNL     1     -41.972   3.583  -2.607  1.00 20.00     0.154 C 
HETATM    6  N6  UNL     1     -41.601   4.796  -1.914  1.00 20.00    -0.371 N 
ENDROOT
TORSDOF 0
ENDMDL
MODEL 7
REMARK VINA RESULT:      -2.9      1.133      2.574
REMARK  0 active torsions:
REMARK  status: ('A' for Active; 'I' for Inactive)
ROOT
HETATM    1  C1  UNL     1     -33.323   6.916   5.012  1.00 20.00     0.019 A 
HETATM    2  C2  UNL     1     -33.741   6.825   6.363  1.00 20.00     0.019 A 
HETATM    3  C3  UNL     1     -33.824   5.815   4.351  1.00 20.00     0.090 A 
HETATM    4  C4  UNL     1     -34.484   5.672   6.486  1.00 20.00     0.090 A 
HETATM    5  C5  UNL     1     -35.210   3.827   4.963  1.00 20.00     0.154 C 
HETATM    6  N6  UNL     1     -34.528   5.066   5.257  1.00 20.00    -0.371 N 
ENDROOT
TORSDOF 0
ENDMDL
MODEL 8
REMARK VINA RESULT:      -2.9      9.307      9.949
REMARK  0 active torsions:
REMARK  status: ('A' for Active; 'I' for Inactive)
ROOT
HETATM    1  C1  UNL     1     -40.655   5.829  -0.435  1.00 20.00     0.019 A 
HETATM    2  C2  UNL     1     -41.078   4.644  -1.087  1.00 20.00     0.019 A 
HETATM    3  C3  UNL     1     -41.160   6.894  -1.148  1.00 20.00     0.090 A 
HETATM    4  C4  UNL     1     -41.829   5.022  -2.178  1.00 20.00     0.090 A 
HETATM    5  C5  UNL     1     -42.561   7.184  -3.198  1.00 20.00     0.154 C 
HETATM    6  N6  UNL     1     -41.872   6.391  -2.205  1.00 20.00    -0.371 N 
ENDROOT
TORSDOF 0
ENDMDL
MODEL 9
REMARK VINA RESULT:      -2.9      9.305     10.056
REMARK  0 active torsions:
REMARK  status: ('A' for Active; 'I' for Inactive)
ROOT
HETATM    1  C1  UNL     1     -41.059   4.668  -1.063  1.00 20.00     0.019 A 
HETATM    2  C2  UNL     1     -40.659   5.867  -0.424  1.00 20.00     0.019 A 
HETATM    3  C3  UNL     1     -41.811   5.019  -2.163  1.00 20.00     0.090 A 
HETATM    4  C4  UNL     1     -41.178   6.914  -1.152  1.00 20.00     0.090 A 
HETATM    5  C5  UNL     1     -42.577   7.155  -3.211  1.00 20.00     0.154 C 
HETATM    6  N6  UNL     1     -41.877   6.387  -2.207  1.00 20.00    -0.371 N 
ENDROOT
TORSDOF 0
ENDMDL
