MODEL 1
REMARK VINA RESULT:      -4.7      0.000      0.000
REMARK  0 active torsions:
REMARK  status: ('A' for Active; 'I' for Inactive)
ROOT
HETATM    1  C1  UNL     1     -35.280   4.662   5.845  1.00 20.00     0.001 A 
HETATM    2  C2  UNL     1     -34.659   5.591   6.667  1.00 20.00     0.001 A 
HETATM    3  C3  UNL     1     -34.961   4.596   4.487  1.00 20.00     0.013 A 
HETATM    4  C4  UNL     1     -33.706   6.473   6.151  1.00 20.00     0.019 A 
HETATM    5  C5  UNL     1     -33.512   5.601   2.589  1.00 20.00     0.020 A 
HETATM    6  C6  UNL     1     -32.568   6.591   2.452  1.00 20.00     0.051 A 
HETATM    7  C7  UNL     1     -34.000   5.477   3.933  1.00 20.00    -0.019 A 
HETATM    8  C8  UNL     1     -33.388   6.405   4.781  1.00 20.00     0.015 A 
HETATM    9  S9  UNL     1     -32.253   7.383   3.927  1.00 20.00    -0.101 SA
ENDROOT
TORSDOF 0
ENDMDL
MODEL 2
REMARK VINA RESULT:      -4.5      1.073      2.022
REMARK  0 active torsions:
REMARK  status: ('A' for Active; 'I' for Inactive)
ROOT
HETATM    1  C1  UNL     1     -34.652   5.612   6.751  1.00 20.00     0.001 A 
HETATM    2  C2  UNL     1     -35.290   4.649   5.982  1.00 20.00     0.001 A 
HETATM    3  C3  UNL     1     -33.728   6.482   6.167  1.00 20.00     0.013 A 
HETATM    4  C4  UNL     1     -35.021   4.535   4.616  1.00 20.00     0.019 A 
HETATM    5  C5  UNL     1     -32.535   7.161   3.970  1.00 20.00     0.020 A 
HETATM    6  C6  UNL     1     -32.530   6.760   2.655  1.00 20.00     0.051 A 
HETATM    7  C7  UNL     1     -33.433   6.391   4.785  1.00 20.00    -0.019 A 
HETATM    8  C8  UNL     1     -34.088   5.413   4.031  1.00 20.00     0.015 A 
HETATM    9  S9  UNL     1     -33.598   5.461   2.379  1.00 20.00    -0.101 SA
ENDROOT
TORSDOF 0
ENDMDL
MODEL 3
REMARK VINA RESULT:      -4.2     12.130     13.987
REMARK  0 active torsions:
REMARK  status: ('A' for Active; 'I' for Inactive)
ROOT
HETATM    1  C1  UNL     1     -33.039  15.059  -3.630  1.00 20.00     0.001 A 
HETATM    2  C2  UNL     1     -33.634  13.820  -3.821  1.00 20.00     0.001 A 
HETATM    3  C3  UNL     1     -33.213  16.077  -4.570  1.00 20.00     0.013 A 
HETATM    4  C4  UNL     1     -34.414  13.572  -4.953  1.00 20.00     0.019 A 
HETATM    5  C5  UNL     1     -34.317  16.734  -6.819  1.00 20.00     0.020 A 
HETATM    6  C6  UNL     1     -35.118  16.139  -7.765  1.00 20.00     0.051 A 
HETATM    7  C7  UNL     1     -33.997  15.857  -5.728  1.00 20.00    -0.019 A 
HETATM    8  C8  UNL     1     -34.586  14.601  -5.899  1.00 20.00     0.015 A 
HETATM    9  S9  UNL     1     -35.498  14.528  -7.361  1.00 20.00    -0.101 SA
ENDROOT
TORSDOF 0
ENDMDL
MODEL 4
REMARK VINA RESULT:      -4.2     12.183     13.788
REMARK  0 active torsions:
REMARK  status: ('A' for Active; 'I' for Inactive)
ROOT
HETATM    1  C1  UNL     1     -33.602  13.815  -3.778  1.00 20.00     0.001 A 
HETATM    2  C2  UNL     1     -33.060  15.086  -3.651  1.00 20.00     0.001 A 
HETATM    3  C3  UNL     1     -34.394  13.493  -4.882  1.00 20.00     0.013 A 
HETATM    4  C4  UNL     1     -33.297  16.062  -4.622  1.00 20.00     0.019 A 
HETATM    5  C5  UNL     1     -35.426  14.369  -7.091  1.00 20.00     0.020 A 
HETATM    6  C6  UNL     1     -35.436  15.543  -7.808  1.00 20.00     0.051 A 
HETATM    7  C7  UNL     1     -34.654  14.460  -5.884  1.00 20.00    -0.019 A 
HETATM    8  C8  UNL     1     -34.098  15.734  -5.734  1.00 20.00     0.015 A 
HETATM    9  S9  UNL     1     -34.524  16.765  -7.048  1.00 20.00    -0.101 SA
ENDROOT
TORSDOF 0
ENDMDL
MODEL 5
REMARK VINA RESULT:      -4.2      1.561      3.844
REMARK  0 active torsions:
REMARK  status: ('A' for Active; 'I' for Inactive)
ROOT
HETATM    1  C1  UNL     1     -32.142   7.222   3.180  1.00 20.00     0.001 A 
HETATM    2  C2  UNL     1     -32.714   6.283   2.333  1.00 20.00     0.001 A 
HETATM    3  C3  UNL     1     -32.523   7.286   4.522  1.00 20.00     0.013 A 
HETATM    4  C4  UNL     1     -33.678   5.391   2.807  1.00 20.00     0.019 A 
HETATM    5  C5  UNL     1     -34.046   6.270   6.355  1.00 20.00     0.020 A 
HETATM    6  C6  UNL     1     -34.985   5.269   6.450  1.00 20.00     0.051 A 
HETATM    7  C7  UNL     1     -33.498   6.396   5.033  1.00 20.00    -0.019 A 
HETATM    8  C8  UNL     1     -34.061   5.459   4.161  1.00 20.00     0.015 A 
HETATM    9  S9  UNL     1     -35.222   4.469   4.965  1.00 20.00    -0.101 SA
ENDROOT
TORSDOF 0
ENDMDL
MODEL 6
REMARK VINA RESULT:      -4.2      1.309      3.273
REMARK  0 active torsions:
REMARK  status: ('A' for Active; 'I' for Inactive)
ROOT
HETATM    1  C1  UNL     1     -32.909   6.145   2.170  1.00 20.00     0.001 A 
HETATM    2  C2  UNL     1     -32.287   7.074   2.991  1.00 20.00     0.001 A 
HETATM    3  C3  UNL     1     -33.872   5.276   2.690  1.00 20.00     0.013 A 
HETATM    4  C4  UNL     1     -32.611   7.156   4.347  1.00 20.00     0.019 A 
HETATM    5  C5  UNL     1     -35.166   4.559   4.816  1.00 20.00     0.020 A 
HETATM    6  C6  UNL     1     -35.218   4.924   6.141  1.00 20.00     0.051 A 
HETATM    7  C7  UNL     1     -34.222   5.334   4.061  1.00 20.00    -0.019 A 
HETATM    8  C8  UNL     1     -33.581   6.278   4.869  1.00 20.00     0.015 A 
HETATM    9  S9  UNL     1     -34.140   6.195   6.498  1.00 20.00    -0.101 SA
ENDROOT
TORSDOF 0
ENDMDL
MODEL 7
REMARK VINA RESULT:      -4.1     11.925     13.280
REMARK  0 active torsions:
REMARK  status: ('A' for Active; 'I' for Inactive)
ROOT
HETATM    1  C1  UNL     1     -34.683  13.334  -4.724  1.00 20.00     0.001 A 
HETATM    2  C2  UNL     1     -34.629  14.078  -5.894  1.00 20.00     0.001 A 
HETATM    3  C3  UNL     1     -34.496  13.952  -3.485  1.00 20.00     0.013 A 
HETATM    4  C4  UNL     1     -34.387  15.453  -5.852  1.00 20.00     0.019 A 
HETATM    5  C5  UNL     1     -34.026  16.191  -2.271  1.00 20.00     0.020 A 
HETATM    6  C6  UNL     1     -33.819  17.506  -2.617  1.00 20.00     0.051 A 
HETATM    7  C7  UNL     1     -34.248  15.343  -3.409  1.00 20.00    -0.019 A 
HETATM    8  C8  UNL     1     -34.197  16.073  -4.601  1.00 20.00     0.015 A 
HETATM    9  S9  UNL     1     -33.887  17.743  -4.303  1.00 20.00    -0.101 SA
ENDROOT
TORSDOF 0
ENDMDL
MODEL 8
REMARK VINA RESULT:      -4.0     12.091     13.828
REMARK  0 active torsions:
REMARK  status: ('A' for Active; 'I' for Inactive)
ROOT
HETATM    1  C1  UNL     1     -34.420  13.229  -4.733  1.00 20.00     0.001 A 
HETATM    2  C2  UNL     1     -33.695  13.854  -3.729  1.00 20.00     0.001 A 
HETATM    3  C3  UNL     1     -34.846  13.951  -5.850  1.00 20.00     0.013 A 
HETATM    4  C4  UNL     1     -33.380  15.212  -3.818  1.00 20.00     0.019 A 
HETATM    5  C5  UNL     1     -34.866  16.269  -7.007  1.00 20.00     0.020 A 
HETATM    6  C6  UNL     1     -34.386  17.532  -6.751  1.00 20.00     0.051 A 
HETATM    7  C7  UNL     1     -34.543  15.329  -5.970  1.00 20.00    -0.019 A 
HETATM    8  C8  UNL     1     -33.812  15.938  -4.946  1.00 20.00     0.015 A 
HETATM    9  S9  UNL     1     -33.544  17.609  -5.272  1.00 20.00    -0.101 SA
ENDROOT
TORSDOF 0
ENDMDL
MODEL 9
REMARK VINA RESULT:      -4.0     12.260     13.275
REMARK  0 active torsions:
REMARK  status: ('A' for Active; 'I' for Inactive)
ROOT
HETATM    1  C1  UNL     1     -34.379  17.787  -0.273  1.00 20.00     0.001 A 
HETATM    2  C2  UNL     1     -33.873  18.823  -1.044  1.00 20.00     0.001 A 
HETATM    3  C3  UNL     1     -34.616  16.534  -0.843  1.00 20.00     0.013 A 
HETATM    4  C4  UNL     1     -33.593  18.632  -2.399  1.00 20.00     0.019 A 
HETATM    5  C5  UNL     1     -34.501  15.126  -3.015  1.00 20.00     0.020 A 
HETATM    6  C6  UNL     1     -34.119  15.312  -4.323  1.00 20.00     0.051 A 
HETATM    7  C7  UNL     1     -34.343  16.308  -2.214  1.00 20.00    -0.019 A 
HETATM    8  C8  UNL     1     -33.834  17.367  -2.971  1.00 20.00     0.015 A 
HETATM    9  S9  UNL     1     -33.567  16.899  -4.609  1.00 20.00    -0.101 SA
ENDROOT
TORSDOF 0
ENDMDL
