MODEL 1
REMARK VINA RESULT:      -3.6      0.000      0.000
REMARK  1 active torsions:
REMARK  status: ('A' for Active; 'I' for Inactive)
REMARK    1  A    between atoms: C4_4  and  S6_6 
ROOT
HETATM    1  C1  UNL     1     -35.342   4.618   4.845  1.00 20.00     0.009 A 
HETATM    2  C2  UNL     1     -34.562   5.134   3.770  1.00 20.00     0.026 A 
HETATM    3  C3  UNL     1     -35.000   5.188   6.052  1.00 20.00     0.051 A 
HETATM    4  C4  UNL     1     -33.654   6.077   4.195  1.00 20.00     0.038 A 
HETATM    5  S5  UNL     1     -33.744   6.340   5.885  1.00 20.00    -0.095 SA
ENDROOT
BRANCH   4   6
HETATM    6  S6  UNL     1     -32.517   6.945   3.180  1.00 20.00    -0.136 SA
HETATM    7  H10 UNL     1     -33.323   7.951   2.793  1.00 20.00     0.107 HD
ENDBRANCH   4   6
TORSDOF 1
ENDMDL
MODEL 2
REMARK VINA RESULT:      -3.5      1.298      1.721
REMARK  1 active torsions:
REMARK  status: ('A' for Active; 'I' for Inactive)
REMARK    1  A    between atoms: C4_4  and  S6_6 
ROOT
HETATM    1  C1  UNL     1     -34.491   5.711   6.372  1.00 20.00     0.009 A 
HETATM    2  C2  UNL     1     -33.521   6.484   5.670  1.00 20.00     0.026 A 
HETATM    3  C3  UNL     1     -35.221   4.905   5.527  1.00 20.00     0.051 A 
HETATM    4  C4  UNL     1     -33.547   6.239   4.315  1.00 20.00     0.038 A 
HETATM    5  S5  UNL     1     -34.737   5.080   3.894  1.00 20.00    -0.095 SA
ENDROOT
BRANCH   4   6
HETATM    6  S6  UNL     1     -32.513   6.986   3.112  1.00 20.00    -0.136 SA
HETATM    7  H10 UNL     1     -33.148   8.168   3.008  1.00 20.00     0.107 HD
ENDBRANCH   4   6
TORSDOF 1
ENDMDL
MODEL 3
REMARK VINA RESULT:      -3.1      1.150      2.297
REMARK  1 active torsions:
REMARK  status: ('A' for Active; 'I' for Inactive)
REMARK    1  A    between atoms: C4_4  and  S6_6 
ROOT
HETATM    1  C1  UNL     1     -35.214   4.388   4.914  1.00 20.00     0.009 A 
HETATM    2  C2  UNL     1     -34.818   5.111   6.076  1.00 20.00     0.026 A 
HETATM    3  C3  UNL     1     -34.762   4.981   3.755  1.00 20.00     0.051 A 
HETATM    4  C4  UNL     1     -34.079   6.230   5.761  1.00 20.00     0.038 A 
HETATM    5  S5  UNL     1     -33.864   6.404   4.071  1.00 20.00    -0.095 SA
ENDROOT
BRANCH   4   6
HETATM    6  S6  UNL     1     -33.406   7.377   6.906  1.00 20.00    -0.136 SA
HETATM    7  H10 UNL     1     -34.558   7.864   7.400  1.00 20.00     0.107 HD
ENDBRANCH   4   6
TORSDOF 1
ENDMDL
MODEL 4
REMARK VINA RESULT:      -2.9      9.600     10.050
REMARK  1 active torsions:
REMARK  status: ('A' for Active; 'I' for Inactive)
REMARK    1  A    between atoms: C4_4  and  S6_6 
ROOT
HETATM    1  C1  UNL     1     -40.666   5.921  -0.356  1.00 20.00     0.009 A 
HETATM    2  C2  UNL     1     -41.118   7.011  -1.155  1.00 20.00     0.026 A 
HETATM    3  C3  UNL     1     -41.114   4.709  -0.833  1.00 20.00     0.051 A 
HETATM    4  C4  UNL     1     -41.894   6.591  -2.212  1.00 20.00     0.038 A 
HETATM    5  S5  UNL     1     -42.075   4.887  -2.239  1.00 20.00    -0.095 SA
ENDROOT
BRANCH   4   6
HETATM    6  S6  UNL     1     -42.636   7.622  -3.422  1.00 20.00    -0.136 SA
HETATM    7  H10 UNL     1     -42.648   8.772  -2.723  1.00 20.00     0.107 HD
ENDBRANCH   4   6
TORSDOF 1
ENDMDL
MODEL 5
REMARK VINA RESULT:      -2.9      1.752      2.148
REMARK  1 active torsions:
REMARK  status: ('A' for Active; 'I' for Inactive)
REMARK    1  A    between atoms: C4_4  and  S6_6 
ROOT
HETATM    1  C1  UNL     1     -34.715   5.332   3.537  1.00 20.00     0.009 A 
HETATM    2  C2  UNL     1     -34.056   6.396   4.218  1.00 20.00     0.026 A 
HETATM    3  C3  UNL     1     -35.218   4.392   4.410  1.00 20.00     0.051 A 
HETATM    4  C4  UNL     1     -34.080   6.229   5.584  1.00 20.00     0.038 A 
HETATM    5  S5  UNL     1     -34.895   4.794   6.043  1.00 20.00    -0.095 SA
ENDROOT
BRANCH   4   6
HETATM    6  S6  UNL     1     -33.381   7.319   6.768  1.00 20.00    -0.136 SA
HETATM    7  H10 UNL     1     -34.467   7.492   7.544  1.00 20.00     0.107 HD
ENDBRANCH   4   6
TORSDOF 1
ENDMDL
MODEL 6
REMARK VINA RESULT:      -2.9      9.533     10.037
REMARK  1 active torsions:
REMARK  status: ('A' for Active; 'I' for Inactive)
REMARK    1  A    between atoms: C4_4  and  S6_6 
ROOT
HETATM    1  C1  UNL     1     -40.766   6.289  -0.396  1.00 20.00     0.009 A 
HETATM    2  C2  UNL     1     -40.855   4.930  -0.815  1.00 20.00     0.026 A 
HETATM    3  C3  UNL     1     -41.523   7.125  -1.188  1.00 20.00     0.051 A 
HETATM    4  C4  UNL     1     -41.675   4.780  -1.911  1.00 20.00     0.038 A 
HETATM    5  S5  UNL     1     -42.335   6.272  -2.430  1.00 20.00    -0.095 SA
ENDROOT
BRANCH   4   6
HETATM    6  S6  UNL     1     -42.044   3.269  -2.724  1.00 20.00    -0.136 SA
HETATM    7  H10 UNL     1     -40.798   2.761  -2.775  1.00 20.00     0.107 HD
ENDBRANCH   4   6
TORSDOF 1
ENDMDL
MODEL 7
REMARK VINA RESULT:      -2.8     12.467     13.315
REMARK  1 active torsions:
REMARK  status: ('A' for Active; 'I' for Inactive)
REMARK    1  A    between atoms: C4_4  and  S6_6 
ROOT
HETATM    1  C1  UNL     1     -33.632  13.655  -3.762  1.00 20.00     0.009 A 
HETATM    2  C2  UNL     1     -33.270  15.032  -3.802  1.00 20.00     0.026 A 
HETATM    3  C3  UNL     1     -34.447  13.304  -4.817  1.00 20.00     0.051 A 
HETATM    4  C4  UNL     1     -33.821  15.681  -4.884  1.00 20.00     0.038 A 
HETATM    5  S5  UNL     1     -34.770  14.631  -5.848  1.00 20.00    -0.095 SA
ENDROOT
BRANCH   4   6
HETATM    6  S6  UNL     1     -33.612  17.376  -5.286  1.00 20.00    -0.136 SA
HETATM    7  H10 UNL     1     -34.893  17.672  -5.574  1.00 20.00     0.107 HD
ENDBRANCH   4   6
TORSDOF 1
ENDMDL
MODEL 8
REMARK VINA RESULT:      -2.8     12.600     13.300
REMARK  1 active torsions:
REMARK  status: ('A' for Active; 'I' for Inactive)
REMARK    1  A    between atoms: C4_4  and  S6_6 
ROOT
HETATM    1  C1  UNL     1     -33.586  13.807  -3.721  1.00 20.00     0.009 A 
HETATM    2  C2  UNL     1     -34.379  13.478  -4.858  1.00 20.00     0.026 A 
HETATM    3  C3  UNL     1     -33.173  15.121  -3.740  1.00 20.00     0.051 A 
HETATM    4  C4  UNL     1     -34.543  14.552  -5.702  1.00 20.00     0.038 A 
HETATM    5  S5  UNL     1     -33.743  15.952  -5.125  1.00 20.00    -0.095 SA
ENDROOT
BRANCH   4   6
HETATM    6  S6  UNL     1     -35.452  14.556  -7.203  1.00 20.00    -0.136 SA
HETATM    7  H10 UNL     1     -36.336  15.523  -6.898  1.00 20.00     0.107 HD
ENDBRANCH   4   6
TORSDOF 1
ENDMDL
MODEL 9
REMARK VINA RESULT:      -2.8     12.199     12.607
REMARK  1 active torsions:
REMARK  status: ('A' for Active; 'I' for Inactive)
REMARK    1  A    between atoms: C4_4  and  S6_6 
ROOT
HETATM    1  C1  UNL     1     -33.339  13.797  -3.780  1.00 20.00     0.009 A 
HETATM    2  C2  UNL     1     -34.735  13.539  -3.903  1.00 20.00     0.026 A 
HETATM    3  C3  UNL     1     -33.071  15.142  -3.647  1.00 20.00     0.051 A 
HETATM    4  C4  UNL     1     -35.480  14.696  -3.861  1.00 20.00     0.038 A 
HETATM    5  S5  UNL     1     -34.499  16.087  -3.671  1.00 20.00    -0.095 SA
ENDROOT
BRANCH   4   6
HETATM    6  S6  UNL     1     -37.228  14.802  -3.978  1.00 20.00    -0.136 SA
HETATM    7  H10 UNL     1     -37.532  13.566  -3.541  1.00 20.00     0.107 HD
ENDBRANCH   4   6
TORSDOF 1
ENDMDL
