MODEL 1
REMARK VINA RESULT:      -3.6      0.000      0.000
REMARK  1 active torsions:
REMARK  status: ('A' for Active; 'I' for Inactive)
REMARK    1  A    between atoms: C6_6  and  S8_8 
ROOT
HETATM    1  C1  UNL     1     -35.154   4.093   4.455  1.00 20.00     0.001 A 
HETATM    2  C2  UNL     1     -35.316   4.254   5.831  1.00 20.00     0.001 A 
HETATM    3  C3  UNL     1     -34.372   4.997   3.735  1.00 20.00     0.021 A 
HETATM    4  C4  UNL     1     -34.696   5.317   6.487  1.00 20.00     0.019 A 
HETATM    5  C5  UNL     1     -33.752   6.060   4.391  1.00 20.00     0.028 A 
HETATM    6  C6  UNL     1     -33.914   6.220   5.767  1.00 20.00     0.015 A 
HETATM    7  S7  UNL     1     -32.755   7.179   3.365  1.00 20.00    -0.051 SA
ENDROOT
BRANCH   6   8
HETATM    8  S8  UNL     1     -33.171   7.545   6.729  1.00 20.00    -0.142 SA
HETATM    9  H13 UNL     1     -32.651   6.767   7.688  1.00 20.00     0.107 HD
ENDBRANCH   6   8
TORSDOF 1
ENDMDL
MODEL 2
REMARK VINA RESULT:      -3.6      0.031      2.413
REMARK  1 active torsions:
REMARK  status: ('A' for Active; 'I' for Inactive)
REMARK    1  A    between atoms: C6_6  and  S8_8 
ROOT
HETATM    1  C1  UNL     1     -35.313   4.251   5.802  1.00 20.00     0.001 A 
HETATM    2  C2  UNL     1     -35.129   4.107   4.427  1.00 20.00     0.001 A 
HETATM    3  C3  UNL     1     -34.706   5.308   6.480  1.00 20.00     0.021 A 
HETATM    4  C4  UNL     1     -34.339   5.020   3.729  1.00 20.00     0.019 A 
HETATM    5  C5  UNL     1     -33.916   6.222   5.782  1.00 20.00     0.028 A 
HETATM    6  C6  UNL     1     -33.732   6.078   4.407  1.00 20.00     0.015 A 
HETATM    7  S7  UNL     1     -33.170   7.563   6.755  1.00 20.00    -0.051 SA
ENDROOT
BRANCH   6   8
HETATM    8  S8  UNL     1     -32.740   7.184   3.394  1.00 20.00    -0.142 SA
HETATM    9  H13 UNL     1     -32.285   7.946   4.398  1.00 20.00     0.107 HD
ENDBRANCH   6   8
TORSDOF 1
ENDMDL
MODEL 3
REMARK VINA RESULT:      -3.5     13.125     14.228
REMARK  1 active torsions:
REMARK  status: ('A' for Active; 'I' for Inactive)
REMARK    1  A    between atoms: C6_6  and  S8_8 
ROOT
HETATM    1  C1  UNL     1     -33.598  13.774  -3.891  1.00 20.00     0.001 A 
HETATM    2  C2  UNL     1     -33.021  14.997  -3.549  1.00 20.00     0.001 A 
HETATM    3  C3  UNL     1     -34.379  13.670  -5.043  1.00 20.00     0.021 A 
HETATM    4  C4  UNL     1     -33.223  16.115  -4.358  1.00 20.00     0.019 A 
HETATM    5  C5  UNL     1     -34.581  14.788  -5.852  1.00 20.00     0.028 A 
HETATM    6  C6  UNL     1     -34.003  16.011  -5.510  1.00 20.00     0.015 A 
HETATM    7  S7  UNL     1     -35.611  14.549  -7.328  1.00 20.00    -0.051 SA
ENDROOT
BRANCH   6   8
HETATM    8  S8  UNL     1     -34.187  17.523  -6.464  1.00 20.00    -0.142 SA
HETATM    9  H13 UNL     1     -35.406  17.845  -6.011  1.00 20.00     0.107 HD
ENDBRANCH   6   8
TORSDOF 1
ENDMDL
MODEL 4
REMARK VINA RESULT:      -3.5     12.607     13.103
REMARK  1 active torsions:
REMARK  status: ('A' for Active; 'I' for Inactive)
REMARK    1  A    between atoms: C6_6  and  S8_8 
ROOT
HETATM    1  C1  UNL     1     -33.014  14.707  -3.515  1.00 20.00     0.001 A 
HETATM    2  C2  UNL     1     -33.732  13.646  -4.067  1.00 20.00     0.001 A 
HETATM    3  C3  UNL     1     -33.688  15.838  -3.051  1.00 20.00     0.021 A 
HETATM    4  C4  UNL     1     -35.122  13.714  -4.154  1.00 20.00     0.019 A 
HETATM    5  C5  UNL     1     -35.078  15.906  -3.138  1.00 20.00     0.028 A 
HETATM    6  C6  UNL     1     -35.796  14.845  -3.689  1.00 20.00     0.015 A 
HETATM    7  S7  UNL     1     -35.860  17.419  -2.505  1.00 20.00    -0.051 SA
ENDROOT
BRANCH   6   8
HETATM    8  S8  UNL     1     -37.585  14.809  -3.859  1.00 20.00    -0.142 SA
HETATM    9  H13 UNL     1     -37.734  16.097  -4.200  1.00 20.00     0.107 HD
ENDBRANCH   6   8
TORSDOF 1
ENDMDL
MODEL 5
REMARK VINA RESULT:      -3.5     12.624     12.903
REMARK  1 active torsions:
REMARK  status: ('A' for Active; 'I' for Inactive)
REMARK    1  A    between atoms: C6_6  and  S8_8 
ROOT
HETATM    1  C1  UNL     1     -34.189  13.339  -4.397  1.00 20.00     0.001 A 
HETATM    2  C2  UNL     1     -33.308  14.222  -3.773  1.00 20.00     0.001 A 
HETATM    3  C3  UNL     1     -35.559  13.603  -4.393  1.00 20.00     0.021 A 
HETATM    4  C4  UNL     1     -33.795  15.368  -3.145  1.00 20.00     0.019 A 
HETATM    5  C5  UNL     1     -36.047  14.749  -3.766  1.00 20.00     0.028 A 
HETATM    6  C6  UNL     1     -35.166  15.632  -3.142  1.00 20.00     0.015 A 
HETATM    7  S7  UNL     1     -37.845  15.002  -3.818  1.00 20.00    -0.051 SA
ENDROOT
BRANCH   6   8
HETATM    8  S8  UNL     1     -35.666  17.139  -2.300  1.00 20.00    -0.142 SA
HETATM    9  H13 UNL     1     -36.971  16.847  -2.222  1.00 20.00     0.107 HD
ENDBRANCH   6   8
TORSDOF 1
ENDMDL
MODEL 6
REMARK VINA RESULT:      -3.5     13.140     14.297
REMARK  1 active torsions:
REMARK  status: ('A' for Active; 'I' for Inactive)
REMARK    1  A    between atoms: C6_6  and  S8_8 
ROOT
HETATM    1  C1  UNL     1     -33.083  14.952  -3.551  1.00 20.00     0.001 A 
HETATM    2  C2  UNL     1     -33.655  13.740  -3.936  1.00 20.00     0.001 A 
HETATM    3  C3  UNL     1     -33.272  16.092  -4.334  1.00 20.00     0.021 A 
HETATM    4  C4  UNL     1     -34.416  13.666  -5.103  1.00 20.00     0.019 A 
HETATM    5  C5  UNL     1     -34.033  16.018  -5.500  1.00 20.00     0.028 A 
HETATM    6  C6  UNL     1     -34.605  14.806  -5.886  1.00 20.00     0.015 A 
HETATM    7  S7  UNL     1     -34.220  17.557  -6.448  1.00 20.00    -0.051 SA
ENDROOT
BRANCH   6   8
HETATM    8  S8  UNL     1     -35.603  14.579  -7.363  1.00 20.00    -0.142 SA
HETATM    9  H13 UNL     1     -35.852  13.275  -7.182  1.00 20.00     0.107 HD
ENDBRANCH   6   8
TORSDOF 1
ENDMDL
MODEL 7
REMARK VINA RESULT:      -3.5      9.943     10.873
REMARK  1 active torsions:
REMARK  status: ('A' for Active; 'I' for Inactive)
REMARK    1  A    between atoms: C6_6  and  S8_8 
ROOT
HETATM    1  C1  UNL     1     -40.680   6.606  -0.550  1.00 20.00     0.001 A 
HETATM    2  C2  UNL     1     -40.617   5.215  -0.458  1.00 20.00     0.001 A 
HETATM    3  C3  UNL     1     -41.502   7.205  -1.505  1.00 20.00     0.021 A 
HETATM    4  C4  UNL     1     -41.375   4.424  -1.322  1.00 20.00     0.019 A 
HETATM    5  C5  UNL     1     -42.259   6.414  -2.368  1.00 20.00     0.028 A 
HETATM    6  C6  UNL     1     -42.197   5.023  -2.277  1.00 20.00     0.015 A 
HETATM    7  S7  UNL     1     -43.297   7.290  -3.575  1.00 20.00    -0.051 SA
ENDROOT
BRANCH   6   8
HETATM    8  S8  UNL     1     -43.120   3.895  -3.328  1.00 20.00    -0.142 SA
HETATM    9  H13 UNL     1     -42.110   3.591  -4.154  1.00 20.00     0.107 HD
ENDBRANCH   6   8
TORSDOF 1
ENDMDL
MODEL 8
REMARK VINA RESULT:      -3.4      1.348      2.629
REMARK  1 active torsions:
REMARK  status: ('A' for Active; 'I' for Inactive)
REMARK    1  A    between atoms: C6_6  and  S8_8 
ROOT
HETATM    1  C1  UNL     1     -34.342   5.899   6.533  1.00 20.00     0.001 A 
HETATM    2  C2  UNL     1     -35.186   4.945   5.964  1.00 20.00     0.001 A 
HETATM    3  C3  UNL     1     -33.449   6.608   5.728  1.00 20.00     0.021 A 
HETATM    4  C4  UNL     1     -35.138   4.699   4.592  1.00 20.00     0.019 A 
HETATM    5  C5  UNL     1     -33.401   6.362   4.356  1.00 20.00     0.028 A 
HETATM    6  C6  UNL     1     -34.245   5.408   3.788  1.00 20.00     0.015 A 
HETATM    7  S7  UNL     1     -32.206   7.337   3.397  1.00 20.00    -0.051 SA
ENDROOT
BRANCH   6   8
HETATM    8  S8  UNL     1     -34.280   4.998   2.038  1.00 20.00    -0.142 SA
HETATM    9  H13 UNL     1     -33.932   6.211   1.588  1.00 20.00     0.107 HD
ENDBRANCH   6   8
TORSDOF 1
ENDMDL
MODEL 9
REMARK VINA RESULT:      -3.4     12.621     13.807
REMARK  1 active torsions:
REMARK  status: ('A' for Active; 'I' for Inactive)
REMARK    1  A    between atoms: C6_6  and  S8_8 
ROOT
HETATM    1  C1  UNL     1     -34.925  13.372  -4.532  1.00 20.00     0.001 A 
HETATM    2  C2  UNL     1     -34.817  13.852  -5.837  1.00 20.00     0.001 A 
HETATM    3  C3  UNL     1     -34.653  14.215  -3.454  1.00 20.00     0.021 A 
HETATM    4  C4  UNL     1     -34.438  15.175  -6.065  1.00 20.00     0.019 A 
HETATM    5  C5  UNL     1     -34.274  15.538  -3.682  1.00 20.00     0.028 A 
HETATM    6  C6  UNL     1     -34.166  16.018  -4.987  1.00 20.00     0.015 A 
HETATM    7  S7  UNL     1     -33.943  16.554  -2.213  1.00 20.00    -0.051 SA
ENDROOT
BRANCH   6   8
HETATM    8  S8  UNL     1     -33.688  17.697  -5.415  1.00 20.00    -0.142 SA
HETATM    9  H13 UNL     1     -32.818  17.369  -6.379  1.00 20.00     0.107 HD
ENDBRANCH   6   8
TORSDOF 1
ENDMDL
