@<TRIPOS>MOLECULE
propylbenzene_1.pdb
   21    21     0     0     0
SMALL
NO_CHARGES

@<TRIPOS>ATOM
      1 C1        -38.8110   19.2810   15.7920 C.3       1 MOL         0.0000
      2 C2        -39.8230   19.0370   14.6800 C.3       1 MOL         0.0000
      3 C3        -40.2380   20.3540   14.0150 C.3       1 MOL         0.0000
      4 C4        -41.2100   20.0750   12.8830 C.ar      1 MOL         0.0000
      5 C5        -40.6930   19.7270   11.6490 C.ar      1 MOL         0.0000
      6 C6        -41.5120   19.4530   10.5630 C.ar      1 MOL         0.0000
      7 C7        -42.8900   19.5150   10.7330 C.ar      1 MOL         0.0000
      8 C8        -43.4140   19.8630   11.9720 C.ar      1 MOL         0.0000
      9 C9        -42.5940   20.1500   13.0600 C.ar      1 MOL         0.0000
     10 H1        -38.5338   18.3300   16.2468 H         1 MOL         0.0000
     11 H2        -37.9230   19.7574   15.3766 H         1 MOL         0.0000
     12 H3        -39.2517   19.9306   16.5482 H         1 MOL         0.0000
     13 H4        -40.7063   18.5570   15.1013 H         1 MOL         0.0000
     14 H5        -39.3810   18.3804   13.9305 H         1 MOL         0.0000
     15 H6        -40.7176   20.9966   14.7534 H         1 MOL         0.0000
     16 H7        -39.3543   20.8541   13.6188 H         1 MOL         0.0000
     17 H8        -39.6216   19.6667   11.5268 H         1 MOL         0.0000
     18 H9        -41.0868   19.1965    9.6039 H         1 MOL         0.0000
     19 H10       -43.5497   19.2940    9.9069 H         1 MOL         0.0000
     20 H11       -44.4859   19.9122   12.0943 H         1 MOL         0.0000
     21 H12       -43.0165   20.4234   14.0156 H         1 MOL         0.0000
@<TRIPOS>BOND
     1    1    2 1
     2    2    3 1
     3    3    4 1
     4    4    5 ar
     5    4    9 ar
     6    5    6 ar
     7    6    7 ar
     8    7    8 ar
     9    8    9 ar
    10    1   10 1
    11    1   11 1
    12    1   12 1
    13    2   13 1
    14    2   14 1
    15    3   15 1
    16    3   16 1
    17    5   17 1
    18    6   18 1
    19    7   19 1
    20    8   20 1
    21    9   21 1
