MODEL 1
REMARK VINA RESULT:       1.0      0.000      0.000
REMARK  1 active torsions:
REMARK  status: ('A' for Active; 'I' for Inactive)
REMARK    1  A    between atoms: C3_3  and  C8_8 
ROOT
HETATM    1  C1  UNL     1     -31.632   6.891   1.718  1.00 20.00    -0.026 C 
HETATM    2  C2  UNL     1     -32.481   7.919   1.862  1.00 20.00    -0.024 C 
HETATM    3  C4  UNL     1     -33.728   6.119   1.143  1.00 20.00     0.018 C 
HETATM    4  C5  UNL     1     -32.910   5.457   3.285  1.00 20.00     0.029 C 
HETATM    5  C6  UNL     1     -32.446   5.622   1.816  1.00 20.00     0.010 C 
HETATM    6  C7  UNL     1     -33.860   7.335   2.077  1.00 20.00     0.027 C 
HETATM    7  C8  UNL     1     -33.902   6.642   3.459  1.00 20.00     0.052 C 
HETATM    8  C9  UNL     1     -33.599   7.532   4.657  1.00 20.00     0.027 C 
ENDROOT
BRANCH   7   9
HETATM    9  C3  UNL     1     -35.307   6.120   3.745  1.00 20.00     0.182 C 
HETATM   10  O10 UNL     1     -36.246   6.810   3.262  1.00 20.00    -0.647 OA
HETATM   11  O11 UNL     1     -35.349   5.061   4.433  1.00 20.00    -0.647 OA
ENDBRANCH   7   9
TORSDOF 1
ENDMDL
MODEL 2
REMARK VINA RESULT:       2.2      2.225      3.567
REMARK  1 active torsions:
REMARK  status: ('A' for Active; 'I' for Inactive)
REMARK    1  A    between atoms: C3_3  and  C8_8 
ROOT
HETATM    1  C1  UNL     1     -35.532   5.887   4.070  1.00 20.00    -0.026 C 
HETATM    2  C2  UNL     1     -35.714   6.889   3.197  1.00 20.00    -0.024 C 
HETATM    3  C4  UNL     1     -33.764   7.344   4.337  1.00 20.00     0.018 C 
HETATM    4  C5  UNL     1     -33.299   5.327   3.148  1.00 20.00     0.029 C 
HETATM    5  C6  UNL     1     -34.058   5.842   4.398  1.00 20.00     0.010 C 
HETATM    6  C7  UNL     1     -34.358   7.500   2.927  1.00 20.00     0.027 C 
HETATM    7  C8  UNL     1     -33.500   6.487   2.132  1.00 20.00     0.052 C 
HETATM    8  C9  UNL     1     -34.069   6.044   0.791  1.00 20.00     0.027 C 
ENDROOT
BRANCH   7   9
HETATM    9  C3  UNL     1     -32.156   7.108   1.764  1.00 20.00     0.182 C 
HETATM   10  O10 UNL     1     -32.131   8.369   1.747  1.00 20.00    -0.647 OA
HETATM   11  O11 UNL     1     -31.236   6.275   1.521  1.00 20.00    -0.647 OA
ENDBRANCH   7   9
TORSDOF 1
ENDMDL
MODEL 3
REMARK VINA RESULT:       2.4      2.112      3.440
REMARK  1 active torsions:
REMARK  status: ('A' for Active; 'I' for Inactive)
REMARK    1  A    between atoms: C3_3  and  C8_8 
ROOT
HETATM    1  C1  UNL     1     -34.605   7.680   4.373  1.00 20.00    -0.026 C 
HETATM    2  C2  UNL     1     -33.282   7.509   4.504  1.00 20.00    -0.024 C 
HETATM    3  C4  UNL     1     -34.158   5.474   3.869  1.00 20.00     0.018 C 
HETATM    4  C5  UNL     1     -34.597   6.914   2.016  1.00 20.00     0.029 C 
HETATM    5  C6  UNL     1     -35.107   6.599   3.445  1.00 20.00     0.010 C 
HETATM    6  C7  UNL     1     -32.896   6.326   3.645  1.00 20.00     0.027 C 
HETATM    7  C8  UNL     1     -33.061   6.711   2.155  1.00 20.00     0.052 C 
HETATM    8  C9  UNL     1     -32.234   7.899   1.683  1.00 20.00     0.027 C 
ENDROOT
BRANCH   7   9
HETATM    9  C3  UNL     1     -32.593   5.568   1.260  1.00 20.00     0.182 C 
HETATM   10  O10 UNL     1     -31.426   5.148   1.488  1.00 20.00    -0.647 OA
HETATM   11  O11 UNL     1     -33.438   5.189   0.400  1.00 20.00    -0.647 OA
ENDBRANCH   7   9
TORSDOF 1
ENDMDL
MODEL 4
REMARK VINA RESULT:       2.6      1.144      1.968
REMARK  1 active torsions:
REMARK  status: ('A' for Active; 'I' for Inactive)
REMARK    1  A    between atoms: C3_3  and  C8_8 
ROOT
HETATM    1  C1  UNL     1     -32.536   8.159   1.488  1.00 20.00    -0.026 C 
HETATM    2  C2  UNL     1     -33.449   7.367   0.907  1.00 20.00    -0.024 C 
HETATM    3  C4  UNL     1     -31.992   5.986   2.038  1.00 20.00     0.018 C 
HETATM    4  C5  UNL     1     -33.035   7.279   3.752  1.00 20.00     0.029 C 
HETATM    5  C6  UNL     1     -31.951   7.389   2.650  1.00 20.00     0.010 C 
HETATM    6  C7  UNL     1     -33.489   6.076   1.693  1.00 20.00     0.027 C 
HETATM    7  C8  UNL     1     -34.097   6.357   3.089  1.00 20.00     0.052 C 
HETATM    8  C9  UNL     1     -35.507   6.931   3.094  1.00 20.00     0.027 C 
ENDROOT
BRANCH   7   9
HETATM    9  C3  UNL     1     -34.235   5.057   3.875  1.00 20.00     0.182 C 
HETATM   10  O10 UNL     1     -33.276   4.247   3.750  1.00 20.00    -0.647 OA
HETATM   11  O11 UNL     1     -35.298   4.958   4.552  1.00 20.00    -0.647 OA
ENDBRANCH   7   9
TORSDOF 1
ENDMDL
MODEL 5
REMARK VINA RESULT:       2.7      1.319      2.788
REMARK  1 active torsions:
REMARK  status: ('A' for Active; 'I' for Inactive)
REMARK    1  A    between atoms: C3_3  and  C8_8 
ROOT
HETATM    1  C1  UNL     1     -33.571   8.645   2.735  1.00 20.00    -0.026 C 
HETATM    2  C2  UNL     1     -32.514   7.828   2.851  1.00 20.00    -0.024 C 
HETATM    3  C4  UNL     1     -33.760   7.585   4.774  1.00 20.00     0.018 C 
HETATM    4  C5  UNL     1     -35.192   6.794   3.036  1.00 20.00     0.029 C 
HETATM    5  C6  UNL     1     -34.651   8.112   3.646  1.00 20.00     0.010 C 
HETATM    6  C7  UNL     1     -32.897   6.736   3.825  1.00 20.00     0.027 C 
HETATM    7  C8  UNL     1     -33.974   5.836   3.173  1.00 20.00     0.052 C 
HETATM    8  C9  UNL     1     -33.571   5.158   1.871  1.00 20.00     0.027 C 
ENDROOT
BRANCH   7   9
HETATM    9  C3  UNL     1     -34.317   4.671   4.095  1.00 20.00     0.182 C 
HETATM   10  O10 UNL     1     -33.435   3.772   4.179  1.00 20.00    -0.647 OA
HETATM   11  O11 UNL     1     -35.445   4.755   4.658  1.00 20.00    -0.647 OA
ENDBRANCH   7   9
TORSDOF 1
ENDMDL
MODEL 6
REMARK VINA RESULT:       2.7      2.589      3.642
REMARK  1 active torsions:
REMARK  status: ('A' for Active; 'I' for Inactive)
REMARK    1  A    between atoms: C3_3  and  C8_8 
ROOT
HETATM    1  C1  UNL     1     -32.909   5.381   2.772  1.00 20.00    -0.026 C 
HETATM    2  C2  UNL     1     -31.876   5.513   1.927  1.00 20.00    -0.024 C 
HETATM    3  C4  UNL     1     -33.709   6.449   0.890  1.00 20.00     0.018 C 
HETATM    4  C5  UNL     1     -33.348   7.821   2.810  1.00 20.00     0.029 C 
HETATM    5  C6  UNL     1     -33.923   6.440   2.407  1.00 20.00     0.010 C 
HETATM    6  C7  UNL     1     -32.191   6.674   1.011  1.00 20.00     0.027 C 
HETATM    7  C8  UNL     1     -32.151   7.986   1.830  1.00 20.00     0.052 C 
HETATM    8  C9  UNL     1     -30.828   8.299   2.515  1.00 20.00     0.027 C 
ENDROOT
BRANCH   7   9
HETATM    9  C3  UNL     1     -32.376   9.186   0.916  1.00 20.00     0.182 C 
HETATM   10  O10 UNL     1     -33.190  10.047   1.348  1.00 20.00    -0.647 OA
HETATM   11  O11 UNL     1     -31.716   9.162  -0.162  1.00 20.00    -0.647 OA
ENDBRANCH   7   9
TORSDOF 1
ENDMDL
MODEL 7
REMARK VINA RESULT:       2.9      2.444      3.689
REMARK  1 active torsions:
REMARK  status: ('A' for Active; 'I' for Inactive)
REMARK    1  A    between atoms: C3_3  and  C8_8 
ROOT
HETATM    1  C1  UNL     1     -35.049   6.344   4.400  1.00 20.00    -0.026 C 
HETATM    2  C2  UNL     1     -35.348   6.453   3.097  1.00 20.00    -0.024 C 
HETATM    3  C4  UNL     1     -34.497   8.490   3.759  1.00 20.00     0.018 C 
HETATM    4  C5  UNL     1     -32.678   6.969   4.035  1.00 20.00     0.029 C 
HETATM    5  C6  UNL     1     -34.007   7.393   4.709  1.00 20.00     0.010 C 
HETATM    6  C7  UNL     1     -34.490   7.562   2.532  1.00 20.00     0.027 C 
HETATM    7  C8  UNL     1     -33.013   7.099   2.521  1.00 20.00     0.052 C 
HETATM    8  C9  UNL     1     -32.718   5.844   1.712  1.00 20.00     0.027 C 
ENDROOT
BRANCH   7   9
HETATM    9  C3  UNL     1     -32.131   8.161   1.872  1.00 20.00     0.182 C 
HETATM   10  O10 UNL     1     -32.608   8.696   0.834  1.00 20.00    -0.647 OA
HETATM   11  O11 UNL     1     -31.032   8.369   2.460  1.00 20.00    -0.647 OA
ENDBRANCH   7   9
TORSDOF 1
ENDMDL
MODEL 8
REMARK VINA RESULT:       3.0      1.262      2.129
REMARK  1 active torsions:
REMARK  status: ('A' for Active; 'I' for Inactive)
REMARK    1  A    between atoms: C3_3  and  C8_8 
ROOT
HETATM    1  C1  UNL     1     -32.011   5.182   0.638  1.00 20.00    -0.026 C 
HETATM    2  C2  UNL     1     -31.485   5.242   1.870  1.00 20.00    -0.024 C 
HETATM    3  C4  UNL     1     -32.508   7.270   1.482  1.00 20.00     0.018 C 
HETATM    4  C5  UNL     1     -34.296   5.689   1.456  1.00 20.00     0.029 C 
HETATM    5  C6  UNL     1     -33.126   6.200   0.578  1.00 20.00     0.010 C 
HETATM    6  C7  UNL     1     -32.262   6.287   2.639  1.00 20.00     0.027 C 
HETATM    7  C8  UNL     1     -33.696   5.762   2.890  1.00 20.00     0.052 C 
HETATM    8  C9  UNL     1     -33.799   4.459   3.670  1.00 20.00     0.027 C 
ENDROOT
BRANCH   7   9
HETATM    9  C3  UNL     1     -34.480   6.755   3.743  1.00 20.00     0.182 C 
HETATM   10  O10 UNL     1     -33.802   7.700   4.229  1.00 20.00    -0.647 OA
HETATM   11  O11 UNL     1     -35.713   6.500   3.853  1.00 20.00    -0.647 OA
ENDBRANCH   7   9
TORSDOF 1
ENDMDL
MODEL 9
REMARK VINA RESULT:       3.1      2.025      3.313
REMARK  1 active torsions:
REMARK  status: ('A' for Active; 'I' for Inactive)
REMARK    1  A    between atoms: C3_3  and  C8_8 
ROOT
HETATM    1  C1  UNL     1     -32.721   9.518   1.469  1.00 20.00    -0.026 C 
HETATM    2  C2  UNL     1     -32.159   8.834   0.462  1.00 20.00    -0.024 C 
HETATM    3  C4  UNL     1     -31.215   8.047   2.411  1.00 20.00     0.018 C 
HETATM    4  C5  UNL     1     -33.521   7.456   2.588  1.00 20.00     0.029 C 
HETATM    5  C6  UNL     1     -32.577   8.678   2.716  1.00 20.00     0.010 C 
HETATM    6  C7  UNL     1     -31.659   7.526   1.033  1.00 20.00     0.027 C 
HETATM    7  C8  UNL     1     -32.873   6.652   1.425  1.00 20.00     0.052 C 
HETATM    8  C9  UNL     1     -33.837   6.310   0.297  1.00 20.00     0.027 C 
ENDROOT
BRANCH   7   9
HETATM    9  C3  UNL     1     -32.403   5.288   1.922  1.00 20.00     0.182 C 
HETATM   10  O10 UNL     1     -31.430   4.791   1.292  1.00 20.00    -0.647 OA
HETATM   11  O11 UNL     1     -33.053   4.829   2.904  1.00 20.00    -0.647 OA
ENDBRANCH   7   9
TORSDOF 1
ENDMDL
