MODEL 1
REMARK VINA RESULT:      -0.9      0.000      0.000
REMARK  1 active torsions:
REMARK  status: ('A' for Active; 'I' for Inactive)
REMARK    1  A    between atoms: C4_4  and  C5_5 
ROOT
HETATM    1  C1  UNL     1     -35.351   6.456   3.779  1.00 20.00     0.029 C 
HETATM    2  C2  UNL     1     -34.343   5.357   3.558  1.00 20.00     0.035 C 
HETATM    3  C3  UNL     1     -34.494   7.549   4.378  1.00 20.00     0.168 C 
HETATM    4  C4  UNL     1     -33.085   6.125   3.176  1.00 20.00     0.131 C 
HETATM    5  O6  UNL     1     -33.196   7.425   3.782  1.00 20.00    -0.385 OA
ENDROOT
BRANCH   4   6
HETATM    6  C5  UNL     1     -32.939   6.310   1.672  1.00 20.00     0.117 C 
HETATM    7 BR7  UNL     1     -32.003   7.973   1.304  1.00 20.00    -0.094 Br
ENDBRANCH   4   6
TORSDOF 1
ENDMDL
MODEL 2
REMARK VINA RESULT:      -0.8      1.802      2.508
REMARK  1 active torsions:
REMARK  status: ('A' for Active; 'I' for Inactive)
REMARK    1  A    between atoms: C4_4  and  C5_5 
ROOT
HETATM    1  C1  UNL     1     -33.359   6.157   1.980  1.00 20.00     0.029 C 
HETATM    2  C2  UNL     1     -31.910   6.288   1.587  1.00 20.00     0.035 C 
HETATM    3  C3  UNL     1     -33.497   7.243   3.023  1.00 20.00     0.168 C 
HETATM    4  C4  UNL     1     -31.671   7.788   1.673  1.00 20.00     0.131 C 
HETATM    5  O6  UNL     1     -32.611   8.301   2.635  1.00 20.00    -0.385 OA
ENDROOT
BRANCH   4   6
HETATM    6  C5  UNL     1     -31.905   8.503   0.349  1.00 20.00     0.117 C 
HETATM    7 BR7  UNL     1     -32.643  10.269   0.679  1.00 20.00    -0.094 Br
ENDBRANCH   4   6
TORSDOF 1
ENDMDL
MODEL 3
REMARK VINA RESULT:      -0.7      1.441      1.959
REMARK  1 active torsions:
REMARK  status: ('A' for Active; 'I' for Inactive)
REMARK    1  A    between atoms: C4_4  and  C5_5 
ROOT
HETATM    1  C1  UNL     1     -35.113   5.300   4.726  1.00 20.00     0.029 C 
HETATM    2  C2  UNL     1     -35.403   6.315   3.650  1.00 20.00     0.035 C 
HETATM    3  C3  UNL     1     -34.214   4.325   4.000  1.00 20.00     0.168 C 
HETATM    4  C4  UNL     1     -34.094   6.370   2.876  1.00 20.00     0.131 C 
HETATM    5  O6  UNL     1     -33.456   5.091   3.054  1.00 20.00    -0.385 OA
ENDROOT
BRANCH   4   6
HETATM    6  C5  UNL     1     -33.149   7.449   3.384  1.00 20.00     0.117 C 
HETATM    7 BR7  UNL     1     -31.981   8.030   1.944  1.00 20.00    -0.094 Br
ENDBRANCH   4   6
TORSDOF 1
ENDMDL
MODEL 4
REMARK VINA RESULT:      -0.7      2.296      3.279
REMARK  1 active torsions:
REMARK  status: ('A' for Active; 'I' for Inactive)
REMARK    1  A    between atoms: C4_4  and  C5_5 
ROOT
HETATM    1  C1  UNL     1     -31.892   5.986   1.656  1.00 20.00     0.029 C 
HETATM    2  C2  UNL     1     -33.382   6.215   1.633  1.00 20.00     0.035 C 
HETATM    3  C3  UNL     1     -31.359   7.397   1.554  1.00 20.00     0.168 C 
HETATM    4  C4  UNL     1     -33.534   7.522   2.397  1.00 20.00     0.131 C 
HETATM    5  O6  UNL     1     -32.298   8.241   2.234  1.00 20.00    -0.385 OA
ENDROOT
BRANCH   4   6
HETATM    6  C5  UNL     1     -33.774   7.315   3.886  1.00 20.00     0.117 C 
HETATM    7 BR7  UNL     1     -35.209   6.033   4.147  1.00 20.00    -0.094 Br
ENDBRANCH   4   6
TORSDOF 1
ENDMDL
MODEL 5
REMARK VINA RESULT:      -0.4      2.365      3.474
REMARK  1 active torsions:
REMARK  status: ('A' for Active; 'I' for Inactive)
REMARK    1  A    between atoms: C4_4  and  C5_5 
ROOT
HETATM    1  C1  UNL     1     -32.248   8.220   1.350  1.00 20.00     0.029 C 
HETATM    2  C2  UNL     1     -32.023   8.334   2.836  1.00 20.00     0.035 C 
HETATM    3  C3  UNL     1     -32.344   6.722   1.164  1.00 20.00     0.168 C 
HETATM    4  C4  UNL     1     -32.862   7.193   3.393  1.00 20.00     0.131 C 
HETATM    5  O6  UNL     1     -32.945   6.198   2.355  1.00 20.00    -0.385 OA
ENDROOT
BRANCH   4   6
HETATM    6  C5  UNL     1     -34.276   7.620   3.759  1.00 20.00     0.117 C 
HETATM    7 BR7  UNL     1     -35.374   6.050   4.078  1.00 20.00    -0.094 Br
ENDBRANCH   4   6
TORSDOF 1
ENDMDL
MODEL 6
REMARK VINA RESULT:      -0.3      1.224      1.224
REMARK  1 active torsions:
REMARK  status: ('A' for Active; 'I' for Inactive)
REMARK    1  A    between atoms: C4_4  and  C5_5 
ROOT
HETATM    1  C1  UNL     1     -35.314   6.432   3.908  1.00 20.00     0.029 C 
HETATM    2  C2  UNL     1     -34.290   5.341   3.724  1.00 20.00     0.035 C 
HETATM    3  C3  UNL     1     -34.440   7.639   4.168  1.00 20.00     0.168 C 
HETATM    4  C4  UNL     1     -33.149   6.065   3.022  1.00 20.00     0.131 C 
HETATM    5  O6  UNL     1     -33.240   7.449   3.407  1.00 20.00    -0.385 OA
ENDROOT
BRANCH   4   6
HETATM    6  C5  UNL     1     -33.240   5.983   1.505  1.00 20.00     0.117 C 
HETATM    7 BR7  UNL     1     -31.813   4.855   0.822  1.00 20.00    -0.094 Br
ENDBRANCH   4   6
TORSDOF 1
ENDMDL
MODEL 7
REMARK VINA RESULT:      -0.1      1.492      1.944
REMARK  1 active torsions:
REMARK  status: ('A' for Active; 'I' for Inactive)
REMARK    1  A    between atoms: C4_4  and  C5_5 
ROOT
HETATM    1  C1  UNL     1     -34.179   6.382   4.048  1.00 20.00     0.029 C 
HETATM    2  C2  UNL     1     -34.431   7.302   2.882  1.00 20.00     0.035 C 
HETATM    3  C3  UNL     1     -33.717   5.120   3.355  1.00 20.00     0.168 C 
HETATM    4  C4  UNL     1     -33.339   6.906   1.898  1.00 20.00     0.131 C 
HETATM    5  O6  UNL     1     -33.010   5.533   2.178  1.00 20.00    -0.385 OA
ENDROOT
BRANCH   4   6
HETATM    6  C5  UNL     1     -32.075   7.741   2.048  1.00 20.00     0.117 C 
HETATM    7 BR7  UNL     1     -32.079   9.178   0.741  1.00 20.00    -0.094 Br
ENDBRANCH   4   6
TORSDOF 1
ENDMDL
MODEL 8
REMARK VINA RESULT:       0.1      2.400      2.759
REMARK  1 active torsions:
REMARK  status: ('A' for Active; 'I' for Inactive)
REMARK    1  A    between atoms: C4_4  and  C5_5 
ROOT
HETATM    1  C1  UNL     1     -32.845   7.913   3.611  1.00 20.00     0.029 C 
HETATM    2  C2  UNL     1     -32.910   7.255   2.256  1.00 20.00     0.035 C 
HETATM    3  C3  UNL     1     -34.212   7.597   4.175  1.00 20.00     0.168 C 
HETATM    4  C4  UNL     1     -33.745   6.012   2.524  1.00 20.00     0.131 C 
HETATM    5  O6  UNL     1     -34.586   6.316   3.653  1.00 20.00    -0.385 OA
ENDROOT
BRANCH   4   6
HETATM    6  C5  UNL     1     -32.901   4.794   2.872  1.00 20.00     0.117 C 
HETATM    7 BR7  UNL     1     -33.762   3.782   4.290  1.00 20.00    -0.094 Br
ENDBRANCH   4   6
TORSDOF 1
ENDMDL
MODEL 9
REMARK VINA RESULT:       0.1      2.573      3.103
REMARK  1 active torsions:
REMARK  status: ('A' for Active; 'I' for Inactive)
REMARK    1  A    between atoms: C4_4  and  C5_5 
ROOT
HETATM    1  C1  UNL     1     -33.286   7.111   3.475  1.00 20.00     0.029 C 
HETATM    2  C2  UNL     1     -33.517   5.762   2.844  1.00 20.00     0.035 C 
HETATM    3  C3  UNL     1     -34.698   7.562   3.774  1.00 20.00     0.168 C 
HETATM    4  C4  UNL     1     -34.718   5.231   3.615  1.00 20.00     0.131 C 
HETATM    5  O6  UNL     1     -35.449   6.380   4.080  1.00 20.00    -0.385 OA
ENDROOT
BRANCH   4   6
HETATM    6  C5  UNL     1     -34.323   4.395   4.824  1.00 20.00     0.117 C 
HETATM    7 BR7  UNL     1     -33.162   2.941   4.265  1.00 20.00    -0.094 Br
ENDBRANCH   4   6
TORSDOF 1
ENDMDL
