MODEL 1
REMARK VINA RESULT:      -1.9      0.000      0.000
REMARK  0 active torsions:
REMARK  status: ('A' for Active; 'I' for Inactive)
ROOT
HETATM    1  C1  UNL     1     -32.121   6.593   1.203  1.00 20.00    -0.030 C 
HETATM    2  C2  UNL     1     -31.807   7.771   1.792  1.00 20.00    -0.029 C 
HETATM    3  C3  UNL     1     -34.698   5.959   4.015  1.00 20.00     0.224 C 
HETATM    4  C4  UNL     1     -33.193   5.641   1.731  1.00 20.00     0.043 C 
HETATM    5  C5  UNL     1     -32.534   8.321   3.018  1.00 20.00     0.053 C 
HETATM    6  C6  UNL     1     -33.436   6.055   3.162  1.00 20.00     0.104 C 
HETATM    7  C7  UNL     1     -33.827   7.550   3.089  1.00 20.00     0.101 C 
HETATM    8  N8  UNL     1     -34.553   7.298   4.322  1.00 20.00    -0.355 N 
HETATM    9  O9  UNL     1     -35.477   5.108   4.368  1.00 20.00    -0.273 OA
HETATM   10  H18 UNL     1     -35.200   7.870   4.849  1.00 20.00     0.162 HD
ENDROOT
TORSDOF 0
ENDMDL
MODEL 2
REMARK VINA RESULT:      -1.9      2.406      3.772
REMARK  0 active torsions:
REMARK  status: ('A' for Active; 'I' for Inactive)
ROOT
HETATM    1  C1  UNL     1     -35.233   6.260   4.301  1.00 20.00    -0.030 C 
HETATM    2  C2  UNL     1     -34.751   4.998   4.214  1.00 20.00    -0.029 C 
HETATM    3  C3  UNL     1     -32.417   7.419   1.918  1.00 20.00     0.224 C 
HETATM    4  C4  UNL     1     -34.636   7.448   3.548  1.00 20.00     0.043 C 
HETATM    5  C5  UNL     1     -33.593   4.598   3.301  1.00 20.00     0.053 C 
HETATM    6  C6  UNL     1     -33.254   7.011   3.127  1.00 20.00     0.104 C 
HETATM    7  C7  UNL     1     -33.473   5.721   2.302  1.00 20.00     0.101 C 
HETATM    8  N8  UNL     1     -32.234   6.080   1.633  1.00 20.00    -0.355 N 
HETATM    9  O9  UNL     1     -32.000   8.436   1.420  1.00 20.00    -0.273 OA
HETATM   10  H18 UNL     1     -31.774   5.693   0.820  1.00 20.00     0.162 HD
ENDROOT
TORSDOF 0
ENDMDL
MODEL 3
REMARK VINA RESULT:      -1.3      1.248      2.086
REMARK  0 active torsions:
REMARK  status: ('A' for Active; 'I' for Inactive)
ROOT
HETATM    1  C1  UNL     1     -32.737   8.141   2.763  1.00 20.00    -0.030 C 
HETATM    2  C2  UNL     1     -32.250   7.340   1.786  1.00 20.00    -0.029 C 
HETATM    3  C3  UNL     1     -34.810   5.152   4.074  1.00 20.00     0.224 C 
HETATM    4  C4  UNL     1     -33.709   7.665   3.842  1.00 20.00     0.043 C 
HETATM    5  C5  UNL     1     -32.560   5.848   1.686  1.00 20.00     0.053 C 
HETATM    6  C6  UNL     1     -34.296   6.376   3.321  1.00 20.00     0.104 C 
HETATM    7  C7  UNL     1     -33.079   5.460   3.047  1.00 20.00     0.101 C 
HETATM    8  N8  UNL     1     -34.003   4.363   3.278  1.00 20.00    -0.355 N 
HETATM    9  O9  UNL     1     -35.617   4.906   4.938  1.00 20.00    -0.273 OA
HETATM   10  H18 UNL     1     -33.852   3.367   3.370  1.00 20.00     0.162 HD
ENDROOT
TORSDOF 0
ENDMDL
MODEL 4
REMARK VINA RESULT:      -1.2      2.298      3.349
REMARK  0 active torsions:
REMARK  status: ('A' for Active; 'I' for Inactive)
ROOT
HETATM    1  C1  UNL     1     -34.975   5.112   4.350  1.00 20.00    -0.030 C 
HETATM    2  C2  UNL     1     -35.300   6.426   4.343  1.00 20.00    -0.029 C 
HETATM    3  C3  UNL     1     -32.327   5.829   1.625  1.00 20.00     0.224 C 
HETATM    4  C4  UNL     1     -33.873   4.508   3.481  1.00 20.00     0.043 C 
HETATM    5  C5  UNL     1     -34.558   7.474   3.515  1.00 20.00     0.053 C 
HETATM    6  C6  UNL     1     -33.609   5.522   2.395  1.00 20.00     0.104 C 
HETATM    7  C7  UNL     1     -33.249   6.828   3.142  1.00 20.00     0.101 C 
HETATM    8  N8  UNL     1     -32.492   7.163   1.948  1.00 20.00    -0.355 N 
HETATM    9  O9  UNL     1     -31.523   5.234   0.951  1.00 20.00    -0.273 OA
HETATM   10  H18 UNL     1     -31.845   7.915   1.753  1.00 20.00     0.162 HD
ENDROOT
TORSDOF 0
ENDMDL
MODEL 5
REMARK VINA RESULT:      -1.1      2.312      3.315
REMARK  0 active torsions:
REMARK  status: ('A' for Active; 'I' for Inactive)
ROOT
HETATM    1  C1  UNL     1     -34.331   4.872   3.655  1.00 20.00    -0.030 C 
HETATM    2  C2  UNL     1     -35.068   5.866   4.205  1.00 20.00    -0.029 C 
HETATM    3  C3  UNL     1     -32.170   7.550   1.892  1.00 20.00     0.224 C 
HETATM    4  C4  UNL     1     -33.127   5.114   2.747  1.00 20.00     0.043 C 
HETATM    5  C5  UNL     1     -34.742   7.349   4.036  1.00 20.00     0.053 C 
HETATM    6  C6  UNL     1     -33.250   6.543   2.278  1.00 20.00     0.104 C 
HETATM    7  C7  UNL     1     -33.309   7.388   3.573  1.00 20.00     0.101 C 
HETATM    8  N8  UNL     1     -32.749   8.455   2.761  1.00 20.00    -0.355 N 
HETATM    9  O9  UNL     1     -31.243   7.617   1.124  1.00 20.00    -0.273 OA
HETATM   10  H18 UNL     1     -32.392   9.369   3.007  1.00 20.00     0.162 HD
ENDROOT
TORSDOF 0
ENDMDL
MODEL 6
REMARK VINA RESULT:      -1.0      1.236      1.361
REMARK  0 active torsions:
REMARK  status: ('A' for Active; 'I' for Inactive)
ROOT
HETATM    1  C1  UNL     1     -32.288   7.026   1.546  1.00 20.00    -0.030 C 
HETATM    2  C2  UNL     1     -32.770   8.030   2.317  1.00 20.00    -0.029 C 
HETATM    3  C3  UNL     1     -34.034   4.492   3.887  1.00 20.00     0.224 C 
HETATM    4  C4  UNL     1     -32.579   5.548   1.802  1.00 20.00     0.043 C 
HETATM    5  C5  UNL     1     -33.717   7.808   3.495  1.00 20.00     0.053 C 
HETATM    6  C6  UNL     1     -33.064   5.469   3.228  1.00 20.00     0.104 C 
HETATM    7  C7  UNL     1     -34.280   6.424   3.294  1.00 20.00     0.101 C 
HETATM    8  N8  UNL     1     -34.740   5.573   4.378  1.00 20.00    -0.355 N 
HETATM    9  O9  UNL     1     -34.148   3.298   4.021  1.00 20.00    -0.273 OA
HETATM   10  H18 UNL     1     -35.617   5.543   4.882  1.00 20.00     0.162 HD
ENDROOT
TORSDOF 0
ENDMDL
MODEL 7
REMARK VINA RESULT:      -0.2      1.374      2.194
REMARK  0 active torsions:
REMARK  status: ('A' for Active; 'I' for Inactive)
ROOT
HETATM    1  C1  UNL     1     -31.561   7.247   1.232  1.00 20.00    -0.030 C 
HETATM    2  C2  UNL     1     -32.163   6.114   0.799  1.00 20.00    -0.029 C 
HETATM    3  C3  UNL     1     -34.121   7.411   4.125  1.00 20.00     0.224 C 
HETATM    4  C4  UNL     1     -31.996   8.012   2.481  1.00 20.00     0.043 C 
HETATM    5  C5  UNL     1     -33.306   5.428   1.544  1.00 20.00     0.053 C 
HETATM    6  C6  UNL     1     -33.391   7.528   2.790  1.00 20.00     0.104 C 
HETATM    7  C7  UNL     1     -33.262   5.994   2.941  1.00 20.00     0.101 C 
HETATM    8  N8  UNL     1     -34.423   6.101   3.808  1.00 20.00    -0.355 N 
HETATM    9  O9  UNL     1     -34.407   8.125   5.054  1.00 20.00    -0.273 OA
HETATM   10  H18 UNL     1     -34.878   5.424   4.407  1.00 20.00     0.162 HD
ENDROOT
TORSDOF 0
ENDMDL
MODEL 8
REMARK VINA RESULT:       0.0      0.756      1.006
REMARK  0 active torsions:
REMARK  status: ('A' for Active; 'I' for Inactive)
ROOT
HETATM    1  C1  UNL     1     -32.473   5.183   1.097  1.00 20.00    -0.030 C 
HETATM    2  C2  UNL     1     -31.796   6.352   1.198  1.00 20.00    -0.029 C 
HETATM    3  C3  UNL     1     -34.766   6.350   3.983  1.00 20.00     0.224 C 
HETATM    4  C4  UNL     1     -33.682   4.828   1.961  1.00 20.00     0.043 C 
HETATM    5  C5  UNL     1     -32.203   7.483   2.140  1.00 20.00     0.053 C 
HETATM    6  C6  UNL     1     -33.635   5.773   3.136  1.00 20.00     0.104 C 
HETATM    7  C7  UNL     1     -33.633   7.190   2.515  1.00 20.00     0.101 C 
HETATM    8  N8  UNL     1     -34.245   7.610   3.764  1.00 20.00    -0.355 N 
HETATM    9  O9  UNL     1     -35.690   5.939   4.642  1.00 20.00    -0.273 OA
HETATM   10  H18 UNL     1     -34.654   8.490   4.048  1.00 20.00     0.162 HD
ENDROOT
TORSDOF 0
ENDMDL
MODEL 9
REMARK VINA RESULT:       0.2      2.704      3.490
REMARK  0 active torsions:
REMARK  status: ('A' for Active; 'I' for Inactive)
ROOT
HETATM    1  C1  UNL     1     -33.105   5.014   2.204  1.00 20.00    -0.030 C 
HETATM    2  C2  UNL     1     -33.815   5.562   3.218  1.00 20.00    -0.029 C 
HETATM    3  C3  UNL     1     -32.000   8.569   1.158  1.00 20.00     0.224 C 
HETATM    4  C4  UNL     1     -32.258   5.829   1.227  1.00 20.00     0.043 C 
HETATM    5  C5  UNL     1     -33.802   7.053   3.548  1.00 20.00     0.053 C 
HETATM    6  C6  UNL     1     -32.745   7.251   1.354  1.00 20.00     0.104 C 
HETATM    7  C7  UNL     1     -32.582   7.601   2.853  1.00 20.00     0.101 C 
HETATM    8  N8  UNL     1     -32.458   8.975   2.397  1.00 20.00    -0.355 N 
HETATM    9  O9  UNL     1     -31.348   9.109   0.299  1.00 20.00    -0.273 OA
HETATM   10  H18 UNL     1     -32.205   9.823   2.886  1.00 20.00     0.162 HD
ENDROOT
TORSDOF 0
ENDMDL
