MODEL 1
REMARK VINA RESULT:      -0.5      0.000      0.000
REMARK  0 active torsions:
REMARK  status: ('A' for Active; 'I' for Inactive)
ROOT
HETATM    1  C1  UNL     1     -32.843   5.970   1.944  1.00 20.00     0.056 A 
HETATM    2  C2  UNL     1     -32.816   7.317   2.241  1.00 20.00     0.077 A 
HETATM    3  C3  UNL     1     -34.337   5.985   3.550  1.00 20.00     0.072 A 
HETATM    4  C4  UNL     1     -32.039   5.279   0.915  1.00 20.00     0.072 C 
HETATM    5  C5  UNL     1     -35.349   5.520   4.523  1.00 20.00     0.079 C 
HETATM    6  N6  UNL     1     -33.714   5.205   2.695  1.00 20.00    -0.249 NA
HETATM    7  S7  UNL     1     -33.924   7.650   3.507  1.00 20.00    -0.066 SA
HETATM    8 BR8  UNL     1     -31.739   8.632   1.404  1.00 20.00    -0.041 Br
ENDROOT
TORSDOF 0
ENDMDL
MODEL 2
REMARK VINA RESULT:      -0.3      2.820      4.005
REMARK  0 active torsions:
REMARK  status: ('A' for Active; 'I' for Inactive)
ROOT
HETATM    1  C1  UNL     1     -33.465   7.283   3.521  1.00 20.00     0.056 A 
HETATM    2  C2  UNL     1     -33.425   5.990   3.042  1.00 20.00     0.077 A 
HETATM    3  C3  UNL     1     -32.318   7.646   1.688  1.00 20.00     0.072 A 
HETATM    4  C4  UNL     1     -34.113   7.740   4.769  1.00 20.00     0.072 C 
HETATM    5  C5  UNL     1     -31.562   8.345   0.626  1.00 20.00     0.079 C 
HETATM    6  N6  UNL     1     -32.830   8.234   2.746  1.00 20.00    -0.249 NA
HETATM    7  S7  UNL     1     -32.562   5.952   1.561  1.00 20.00    -0.066 SA
HETATM    8 BR8  UNL     1     -34.192   4.463   3.860  1.00 20.00    -0.041 Br
ENDROOT
TORSDOF 0
ENDMDL
MODEL 3
REMARK VINA RESULT:       0.7      2.284      2.518
REMARK  0 active torsions:
REMARK  status: ('A' for Active; 'I' for Inactive)
ROOT
HETATM    1  C1  UNL     1     -32.337   7.400   1.822  1.00 20.00     0.056 A 
HETATM    2  C2  UNL     1     -32.721   6.075   1.806  1.00 20.00     0.077 A 
HETATM    3  C3  UNL     1     -33.568   7.391   3.637  1.00 20.00     0.072 A 
HETATM    4  C4  UNL     1     -31.469   8.077   0.835  1.00 20.00     0.072 C 
HETATM    5  C5  UNL     1     -34.259   7.852   4.860  1.00 20.00     0.079 C 
HETATM    6  N6  UNL     1     -32.823   8.156   2.870  1.00 20.00    -0.249 NA
HETATM    7  S7  UNL     1     -33.728   5.751   3.156  1.00 20.00    -0.066 SA
HETATM    8 BR8  UNL     1     -32.233   4.778   0.514  1.00 20.00    -0.041 Br
ENDROOT
TORSDOF 0
ENDMDL
MODEL 4
REMARK VINA RESULT:       0.9      2.411      3.229
REMARK  0 active torsions:
REMARK  status: ('A' for Active; 'I' for Inactive)
ROOT
HETATM    1  C1  UNL     1     -32.576   5.826   1.738  1.00 20.00     0.056 A 
HETATM    2  C2  UNL     1     -33.358   5.958   2.867  1.00 20.00     0.077 A 
HETATM    3  C3  UNL     1     -32.544   8.012   1.907  1.00 20.00     0.072 A 
HETATM    4  C4  UNL     1     -32.196   4.562   1.072  1.00 20.00     0.072 C 
HETATM    5  C5  UNL     1     -32.248   9.433   1.623  1.00 20.00     0.079 C 
HETATM    6  N6  UNL     1     -32.109   7.003   1.186  1.00 20.00    -0.249 NA
HETATM    7  S7  UNL     1     -33.520   7.618   3.264  1.00 20.00    -0.066 SA
HETATM    8 BR8  UNL     1     -34.149   4.550   3.858  1.00 20.00    -0.041 Br
ENDROOT
TORSDOF 0
ENDMDL
MODEL 5
REMARK VINA RESULT:       1.0      1.692      3.172
REMARK  0 active torsions:
REMARK  status: ('A' for Active; 'I' for Inactive)
ROOT
HETATM    1  C1  UNL     1     -34.135   6.077   3.431  1.00 20.00     0.056 A 
HETATM    2  C2  UNL     1     -33.451   7.268   3.560  1.00 20.00     0.077 A 
HETATM    3  C3  UNL     1     -32.767   5.857   1.731  1.00 20.00     0.072 A 
HETATM    4  C4  UNL     1     -35.232   5.593   4.296  1.00 20.00     0.072 C 
HETATM    5  C5  UNL     1     -32.091   5.291   0.544  1.00 20.00     0.079 C 
HETATM    6  N6  UNL     1     -33.745   5.268   2.381  1.00 20.00    -0.249 NA
HETATM    7  S7  UNL     1     -32.267   7.388   2.326  1.00 20.00    -0.066 SA
HETATM    8 BR8  UNL     1     -33.741   8.593   4.883  1.00 20.00    -0.041 Br
ENDROOT
TORSDOF 0
ENDMDL
MODEL 6
REMARK VINA RESULT:       1.0      1.864      2.482
REMARK  0 active torsions:
REMARK  status: ('A' for Active; 'I' for Inactive)
ROOT
HETATM    1  C1  UNL     1     -33.735   7.188   3.444  1.00 20.00     0.056 A 
HETATM    2  C2  UNL     1     -32.912   7.047   2.346  1.00 20.00     0.077 A 
HETATM    3  C3  UNL     1     -33.600   5.000   3.411  1.00 20.00     0.072 A 
HETATM    4  C4  UNL     1     -34.228   8.458   4.019  1.00 20.00     0.072 C 
HETATM    5  C5  UNL     1     -33.800   3.580   3.776  1.00 20.00     0.079 C 
HETATM    6  N6  UNL     1     -34.132   6.014   4.055  1.00 20.00    -0.249 NA
HETATM    7  S7  UNL     1     -32.613   5.383   2.060  1.00 20.00    -0.066 SA
HETATM    8 BR8  UNL     1     -32.198   8.448   1.289  1.00 20.00    -0.041 Br
ENDROOT
TORSDOF 0
ENDMDL
MODEL 7
REMARK VINA RESULT:       1.5      2.324      3.307
REMARK  0 active torsions:
REMARK  status: ('A' for Active; 'I' for Inactive)
ROOT
HETATM    1  C1  UNL     1     -32.422   7.657   2.047  1.00 20.00     0.056 A 
HETATM    2  C2  UNL     1     -33.253   7.065   2.976  1.00 20.00     0.077 A 
HETATM    3  C3  UNL     1     -32.343   5.598   1.296  1.00 20.00     0.072 A 
HETATM    4  C4  UNL     1     -32.043   9.085   1.987  1.00 20.00     0.072 C 
HETATM    5  C5  UNL     1     -31.997   4.424   0.466  1.00 20.00     0.079 C 
HETATM    6  N6  UNL     1     -31.898   6.816   1.084  1.00 20.00    -0.249 NA
HETATM    7  S7  UNL     1     -33.394   5.390   2.637  1.00 20.00    -0.066 SA
HETATM    8 BR8  UNL     1     -34.125   7.932   4.417  1.00 20.00    -0.041 Br
ENDROOT
TORSDOF 0
ENDMDL
MODEL 8
REMARK VINA RESULT:       2.1      2.174      2.558
REMARK  0 active torsions:
REMARK  status: ('A' for Active; 'I' for Inactive)
ROOT
HETATM    1  C1  UNL     1     -33.595   5.186   3.232  1.00 20.00     0.056 A 
HETATM    2  C2  UNL     1     -32.905   5.693   2.151  1.00 20.00     0.077 A 
HETATM    3  C3  UNL     1     -33.830   7.323   3.664  1.00 20.00     0.072 A 
HETATM    4  C4  UNL     1     -33.816   3.758   3.545  1.00 20.00     0.072 C 
HETATM    5  C5  UNL     1     -34.230   8.579   4.335  1.00 20.00     0.079 C 
HETATM    6  N6  UNL     1     -34.125   6.119   4.101  1.00 20.00    -0.249 NA
HETATM    7  S7  UNL     1     -32.917   7.406   2.213  1.00 20.00    -0.066 SA
HETATM    8 BR8  UNL     1     -32.061   4.689   0.784  1.00 20.00    -0.041 Br
ENDROOT
TORSDOF 0
ENDMDL
MODEL 9
REMARK VINA RESULT:       2.1      2.921      4.131
REMARK  0 active torsions:
REMARK  status: ('A' for Active; 'I' for Inactive)
ROOT
HETATM    1  C1  UNL     1     -33.002   7.763   2.377  1.00 20.00     0.056 A 
HETATM    2  C2  UNL     1     -32.238   7.028   1.494  1.00 20.00     0.077 A 
HETATM    3  C3  UNL     1     -32.483   9.367   0.975  1.00 20.00     0.072 A 
HETATM    4  C4  UNL     1     -33.674   7.258   3.593  1.00 20.00     0.072 C 
HETATM    5  C5  UNL     1     -32.403  10.703   0.345  1.00 20.00     0.079 C 
HETATM    6  N6  UNL     1     -33.142   9.105   2.081  1.00 20.00    -0.249 NA
HETATM    7  S7  UNL     1     -31.670   8.047   0.238  1.00 20.00    -0.066 SA
HETATM    8 BR8  UNL     1     -31.852   5.177   1.613  1.00 20.00    -0.041 Br
ENDROOT
TORSDOF 0
ENDMDL
