MODEL 1
REMARK VINA RESULT:      -0.7      0.000      0.000
REMARK  0 active torsions:
REMARK  status: ('A' for Active; 'I' for Inactive)
ROOT
HETATM    1  C1  UNL     1     -31.622   6.826   1.187  1.00 20.00     0.136 A 
HETATM    2  C2  UNL     1     -31.931   8.055   1.719  1.00 20.00     0.136 A 
HETATM    3  C3  UNL     1     -33.176   5.833   2.561  1.00 20.00     0.059 A 
HETATM    4  C4  UNL     1     -33.496   7.077   3.091  1.00 20.00     0.059 A 
HETATM    5  C5  UNL     1     -33.898   4.583   2.980  1.00 20.00     0.061 C 
HETATM    6  C6  UNL     1     -34.504   7.233   4.194  1.00 20.00     0.061 C 
HETATM    7  C7  UNL     1     -34.634   4.733   4.310  1.00 20.00     0.006 C 
HETATM    8  C8  UNL     1     -35.435   6.030   4.332  1.00 20.00     0.006 C 
HETATM    9  N9  UNL     1     -32.238   5.700   1.594  1.00 20.00    -0.262 NA
HETATM   10  N10 UNL     1     -32.864   8.201   2.677  1.00 20.00    -0.262 NA
ENDROOT
TORSDOF 0
ENDMDL
MODEL 2
REMARK VINA RESULT:      -0.7      0.046      2.137
REMARK  0 active torsions:
REMARK  status: ('A' for Active; 'I' for Inactive)
ROOT
HETATM    1  C1  UNL     1     -31.897   8.043   1.677  1.00 20.00     0.136 A 
HETATM    2  C2  UNL     1     -31.590   6.803   1.170  1.00 20.00     0.136 A 
HETATM    3  C3  UNL     1     -33.472   7.096   3.059  1.00 20.00     0.059 A 
HETATM    4  C4  UNL     1     -33.153   5.840   2.554  1.00 20.00     0.059 A 
HETATM    5  C5  UNL     1     -34.486   7.276   4.154  1.00 20.00     0.061 C 
HETATM    6  C6  UNL     1     -33.881   4.602   2.993  1.00 20.00     0.061 C 
HETATM    7  C7  UNL     1     -35.421   6.079   4.309  1.00 20.00     0.006 C 
HETATM    8  C8  UNL     1     -34.624   4.778   4.316  1.00 20.00     0.006 C 
HETATM    9  N9  UNL     1     -32.836   8.210   2.627  1.00 20.00    -0.262 NA
HETATM   10  N10 UNL     1     -32.211   5.687   1.594  1.00 20.00    -0.262 NA
ENDROOT
TORSDOF 0
ENDMDL
MODEL 3
REMARK VINA RESULT:       0.2      1.308      3.422
REMARK  0 active torsions:
REMARK  status: ('A' for Active; 'I' for Inactive)
ROOT
HETATM    1  C1  UNL     1     -34.916   4.877   4.215  1.00 20.00     0.136 A 
HETATM    2  C2  UNL     1     -35.260   6.152   4.598  1.00 20.00     0.136 A 
HETATM    3  C3  UNL     1     -33.348   5.729   2.764  1.00 20.00     0.059 A 
HETATM    4  C4  UNL     1     -33.689   7.017   3.159  1.00 20.00     0.059 A 
HETATM    5  C5  UNL     1     -32.245   5.468   1.777  1.00 20.00     0.061 C 
HETATM    6  C6  UNL     1     -33.052   8.230   2.543  1.00 20.00     0.061 C 
HETATM    7  C7  UNL     1     -31.886   6.695   0.941  1.00 20.00     0.006 C 
HETATM    8  C8  UNL     1     -31.735   7.923   1.834  1.00 20.00     0.006 C 
HETATM    9  N9  UNL     1     -33.957   4.645   3.299  1.00 20.00    -0.262 NA
HETATM   10  N10 UNL     1     -34.659   7.237   4.078  1.00 20.00    -0.262 NA
ENDROOT
TORSDOF 0
ENDMDL
MODEL 4
REMARK VINA RESULT:       0.2      1.305      4.005
REMARK  0 active torsions:
REMARK  status: ('A' for Active; 'I' for Inactive)
ROOT
HETATM    1  C1  UNL     1     -35.228   6.248   4.627  1.00 20.00     0.136 A 
HETATM    2  C2  UNL     1     -34.943   4.958   4.247  1.00 20.00     0.136 A 
HETATM    3  C3  UNL     1     -33.652   7.039   3.150  1.00 20.00     0.059 A 
HETATM    4  C4  UNL     1     -33.371   5.735   2.759  1.00 20.00     0.059 A 
HETATM    5  C5  UNL     1     -32.977   8.221   2.512  1.00 20.00     0.061 C 
HETATM    6  C6  UNL     1     -32.299   5.422   1.754  1.00 20.00     0.061 C 
HETATM    7  C7  UNL     1     -31.688   7.853   1.781  1.00 20.00     0.006 C 
HETATM    8  C8  UNL     1     -31.905   6.626   0.901  1.00 20.00     0.006 C 
HETATM    9  N9  UNL     1     -34.593   7.305   4.086  1.00 20.00    -0.262 NA
HETATM   10  N10 UNL     1     -34.013   4.681   3.315  1.00 20.00    -0.262 NA
ENDROOT
TORSDOF 0
ENDMDL
