MODEL 1
REMARK VINA RESULT:      -1.2      0.000      0.000
REMARK  2 active torsions:
REMARK  status: ('A' for Active; 'I' for Inactive)
REMARK    1  A    between atoms: C3_3  and  C5_5 
REMARK    2  A    between atoms: C5_5  and  C6_6 
ROOT
HETATM    1  C1  UNL     1     -33.613   7.362   3.771  1.00 20.00     0.179 C 
HETATM    2  C2  UNL     1     -34.106   6.205   2.920  1.00 20.00     0.103 C 
HETATM    3  C3  UNL     1     -32.022   7.532   2.097  1.00 20.00     0.182 C 
HETATM    4  O7  UNL     1     -32.933   8.283   2.911  1.00 20.00    -0.375 OA
HETATM    5  S8  UNL     1     -32.696   5.866   1.853  1.00 20.00    -0.135 SA
ENDROOT
BRANCH   3   6
HETATM    6  C5  UNL     1     -31.840   8.253   0.774  1.00 20.00     0.042 C 
BRANCH   6   7
HETATM    7  C6  UNL     1     -32.397   9.675   0.829  1.00 20.00    -0.001 C 
HETATM    8  C4  UNL     1     -32.778  10.180  -0.554  1.00 20.00     0.005 C 
ENDBRANCH   6   7
ENDBRANCH   3   6
TORSDOF 2
ENDMDL
MODEL 2
REMARK VINA RESULT:      -1.1      1.778      4.555
REMARK  2 active torsions:
REMARK  status: ('A' for Active; 'I' for Inactive)
REMARK    1  A    between atoms: C3_3  and  C5_5 
REMARK    2  A    between atoms: C5_5  and  C6_6 
ROOT
HETATM    1  C1  UNL     1     -32.730   8.148   2.540  1.00 20.00     0.179 C 
HETATM    2  C2  UNL     1     -31.917   7.064   1.854  1.00 20.00     0.103 C 
HETATM    3  C3  UNL     1     -34.118   6.368   3.059  1.00 20.00     0.182 C 
HETATM    4  O7  UNL     1     -33.479   7.535   3.596  1.00 20.00    -0.375 OA
HETATM    5  S8  UNL     1     -33.096   5.711   1.713  1.00 20.00    -0.135 SA
ENDROOT
BRANCH   3   6
HETATM    6  C5  UNL     1     -34.290   5.349   4.170  1.00 20.00     0.042 C 
BRANCH   6   7
HETATM    7  C6  UNL     1     -33.868   3.951   3.719  1.00 20.00    -0.001 C 
HETATM    8  C4  UNL     1     -33.265   3.153   4.865  1.00 20.00     0.005 C 
ENDBRANCH   6   7
ENDBRANCH   3   6
TORSDOF 2
ENDMDL
MODEL 3
REMARK VINA RESULT:      -1.1      1.934      4.457
REMARK  2 active torsions:
REMARK  status: ('A' for Active; 'I' for Inactive)
REMARK    1  A    between atoms: C3_3  and  C5_5 
REMARK    2  A    between atoms: C5_5  and  C6_6 
ROOT
HETATM    1  C1  UNL     1     -32.087   6.671   1.379  1.00 20.00     0.179 C 
HETATM    2  C2  UNL     1     -32.130   8.150   1.722  1.00 20.00     0.103 C 
HETATM    3  C3  UNL     1     -33.405   6.496   3.275  1.00 20.00     0.182 C 
HETATM    4  O7  UNL     1     -33.267   6.062   1.915  1.00 20.00    -0.375 OA
HETATM    5  S8  UNL     1     -32.674   8.147   3.438  1.00 20.00    -0.135 SA
ENDROOT
BRANCH   3   6
HETATM    6  C5  UNL     1     -34.878   6.506   3.638  1.00 20.00     0.042 C 
BRANCH   6   7
HETATM    7  C6  UNL     1     -35.274   5.251   4.417  1.00 20.00    -0.001 C 
HETATM    8  C4  UNL     1     -34.189   4.188   4.353  1.00 20.00     0.005 C 
ENDBRANCH   6   7
ENDBRANCH   3   6
TORSDOF 2
ENDMDL
MODEL 4
REMARK VINA RESULT:      -0.7      1.478      4.027
REMARK  2 active torsions:
REMARK  status: ('A' for Active; 'I' for Inactive)
REMARK    1  A    between atoms: C3_3  and  C5_5 
REMARK    2  A    between atoms: C5_5  and  C6_6 
ROOT
HETATM    1  C1  UNL     1     -31.731   8.075   1.554  1.00 20.00     0.179 C 
HETATM    2  C2  UNL     1     -31.536   6.574   1.430  1.00 20.00     0.103 C 
HETATM    3  C3  UNL     1     -33.683   7.436   2.623  1.00 20.00     0.182 C 
HETATM    4  O7  UNL     1     -32.555   8.319   2.699  1.00 20.00    -0.375 OA
HETATM    5  S8  UNL     1     -33.187   5.930   1.745  1.00 20.00    -0.135 SA
ENDROOT
BRANCH   3   6
HETATM    6  C5  UNL     1     -34.156   7.125   4.031  1.00 20.00     0.042 C 
BRANCH   6   7
HETATM    7  C6  UNL     1     -35.363   6.187   4.023  1.00 20.00    -0.001 C 
HETATM    8  C4  UNL     1     -35.004   4.808   4.554  1.00 20.00     0.005 C 
ENDBRANCH   6   7
ENDBRANCH   3   6
TORSDOF 2
ENDMDL
MODEL 5
REMARK VINA RESULT:      -0.6      1.598      1.839
REMARK  2 active torsions:
REMARK  status: ('A' for Active; 'I' for Inactive)
REMARK    1  A    between atoms: C3_3  and  C5_5 
REMARK    2  A    between atoms: C5_5  and  C6_6 
ROOT
HETATM    1  C1  UNL     1     -33.560   5.032   2.290  1.00 20.00     0.179 C 
HETATM    2  C2  UNL     1     -33.791   5.531   3.705  1.00 20.00     0.103 C 
HETATM    3  C3  UNL     1     -33.135   7.272   1.885  1.00 20.00     0.182 C 
HETATM    4  O7  UNL     1     -32.659   5.940   1.645  1.00 20.00    -0.375 OA
HETATM    5  S8  UNL     1     -34.008   7.303   3.474  1.00 20.00    -0.135 SA
ENDROOT
BRANCH   3   6
HETATM    6  C5  UNL     1     -31.951   8.221   1.887  1.00 20.00     0.042 C 
BRANCH   6   7
HETATM    7  C6  UNL     1     -31.734   8.851   0.511  1.00 20.00    -0.001 C 
HETATM    8  C4  UNL     1     -32.542  10.129   0.347  1.00 20.00     0.005 C 
ENDBRANCH   6   7
ENDBRANCH   3   6
TORSDOF 2
ENDMDL
MODEL 6
REMARK VINA RESULT:      -0.4      1.979      2.605
REMARK  2 active torsions:
REMARK  status: ('A' for Active; 'I' for Inactive)
REMARK    1  A    between atoms: C3_3  and  C5_5 
REMARK    2  A    between atoms: C5_5  and  C6_6 
ROOT
HETATM    1  C1  UNL     1     -33.928   4.233   3.407  1.00 20.00     0.179 C 
HETATM    2  C2  UNL     1     -34.719   4.828   4.559  1.00 20.00     0.103 C 
HETATM    3  C3  UNL     1     -33.813   6.445   2.730  1.00 20.00     0.182 C 
HETATM    4  O7  UNL     1     -33.046   5.246   2.909  1.00 20.00    -0.375 OA
HETATM    5  S8  UNL     1     -35.167   6.456   3.936  1.00 20.00    -0.135 SA
ENDROOT
BRANCH   3   6
HETATM    6  C5  UNL     1     -32.900   7.642   2.915  1.00 20.00     0.042 C 
BRANCH   6   7
HETATM    7  C6  UNL     1     -31.922   7.788   1.749  1.00 20.00    -0.001 C 
HETATM    8  C4  UNL     1     -32.244   9.005   0.898  1.00 20.00     0.005 C 
ENDBRANCH   6   7
ENDBRANCH   3   6
TORSDOF 2
ENDMDL
MODEL 7
REMARK VINA RESULT:      -0.1      1.966      2.604
REMARK  2 active torsions:
REMARK  status: ('A' for Active; 'I' for Inactive)
REMARK    1  A    between atoms: C3_3  and  C5_5 
REMARK    2  A    between atoms: C5_5  and  C6_6 
ROOT
HETATM    1  C1  UNL     1     -35.168   6.588   4.383  1.00 20.00     0.179 C 
HETATM    2  C2  UNL     1     -35.427   5.092   4.398  1.00 20.00     0.103 C 
HETATM    3  C3  UNL     1     -33.344   5.961   3.101  1.00 20.00     0.182 C 
HETATM    4  O7  UNL     1     -34.429   6.895   3.195  1.00 20.00    -0.375 OA
HETATM    5  S8  UNL     1     -33.841   4.407   3.891  1.00 20.00    -0.135 SA
ENDROOT
BRANCH   3   6
HETATM    6  C5  UNL     1     -33.003   5.753   1.637  1.00 20.00     0.042 C 
BRANCH   6   7
HETATM    7  C6  UNL     1     -31.851   6.655   1.195  1.00 20.00    -0.001 C 
HETATM    8  C4  UNL     1     -31.969   8.048   1.792  1.00 20.00     0.005 C 
ENDBRANCH   6   7
ENDBRANCH   3   6
TORSDOF 2
ENDMDL
MODEL 8
REMARK VINA RESULT:       0.0      1.703      3.971
REMARK  2 active torsions:
REMARK  status: ('A' for Active; 'I' for Inactive)
REMARK    1  A    between atoms: C3_3  and  C5_5 
REMARK    2  A    between atoms: C5_5  and  C6_6 
ROOT
HETATM    1  C1  UNL     1     -32.441   8.258   2.322  1.00 20.00     0.179 C 
HETATM    2  C2  UNL     1     -31.462   7.426   1.513  1.00 20.00     0.103 C 
HETATM    3  C3  UNL     1     -33.538   6.229   2.530  1.00 20.00     0.182 C 
HETATM    4  O7  UNL     1     -33.095   7.387   3.252  1.00 20.00    -0.375 OA
HETATM    5  S8  UNL     1     -32.413   5.944   1.137  1.00 20.00    -0.135 SA
ENDROOT
BRANCH   3   6
HETATM    6  C5  UNL     1     -33.559   5.042   3.475  1.00 20.00     0.042 C 
BRANCH   6   7
HETATM    7  C6  UNL     1     -34.832   5.021   4.321  1.00 20.00    -0.001 C 
HETATM    8  C4  UNL     1     -35.695   6.245   4.064  1.00 20.00     0.005 C 
ENDBRANCH   6   7
ENDBRANCH   3   6
TORSDOF 2
ENDMDL
MODEL 9
REMARK VINA RESULT:       0.2      1.790      4.031
REMARK  2 active torsions:
REMARK  status: ('A' for Active; 'I' for Inactive)
REMARK    1  A    between atoms: C3_3  and  C5_5 
REMARK    2  A    between atoms: C5_5  and  C6_6 
ROOT
HETATM    1  C1  UNL     1     -31.160   8.760   0.354  1.00 20.00     0.179 C 
HETATM    2  C2  UNL     1     -32.355   9.686   0.210  1.00 20.00     0.103 C 
HETATM    3  C3  UNL     1     -32.342   8.003   2.196  1.00 20.00     0.182 C 
HETATM    4  O7  UNL     1     -31.596   7.584   1.045  1.00 20.00    -0.375 OA
HETATM    5  S8  UNL     1     -33.127   9.597   1.834  1.00 20.00    -0.135 SA
ENDROOT
BRANCH   3   6
HETATM    6  C5  UNL     1     -33.374   6.940   2.524  1.00 20.00     0.042 C 
BRANCH   6   7
HETATM    7  C6  UNL     1     -34.147   7.282   3.797  1.00 20.00    -0.001 C 
HETATM    8  C4  UNL     1     -35.235   6.260   4.082  1.00 20.00     0.005 C 
ENDBRANCH   6   7
ENDBRANCH   3   6
TORSDOF 2
ENDMDL
