MODEL 1
REMARK VINA RESULT:      -1.4      0.000      0.000
REMARK  2 active torsions:
REMARK  status: ('A' for Active; 'I' for Inactive)
REMARK    1  A    between atoms: C3_3  and  C5_5 
REMARK    2  A    between atoms: C5_5  and  C6_6 
ROOT
HETATM    1  C1  UNL     1     -34.538   6.416   3.853  1.00 20.00     0.179 C 
HETATM    2  C2  UNL     1     -33.763   5.191   3.403  1.00 20.00     0.103 C 
HETATM    3  C3  UNL     1     -33.277   7.453   2.210  1.00 20.00     0.182 C 
HETATM    4  O7  UNL     1     -33.741   7.571   3.562  1.00 20.00    -0.375 OA
HETATM    5  S8  UNL     1     -33.113   5.695   1.801  1.00 20.00    -0.135 SA
ENDROOT
BRANCH   3   6
HETATM    6  C5  UNL     1     -31.948   8.176   2.085  1.00 20.00     0.042 C 
BRANCH   6   7
HETATM    7  C6  UNL     1     -31.729   8.707   0.668  1.00 20.00    -0.001 C 
HETATM    8  C4  UNL     1     -32.545   9.963   0.409  1.00 20.00     0.005 C 
ENDBRANCH   6   7
ENDBRANCH   3   6
TORSDOF 2
ENDMDL
MODEL 2
REMARK VINA RESULT:      -1.4      2.100      4.575
REMARK  2 active torsions:
REMARK  status: ('A' for Active; 'I' for Inactive)
REMARK    1  A    between atoms: C3_3  and  C5_5 
REMARK    2  A    between atoms: C5_5  and  C6_6 
ROOT
HETATM    1  C1  UNL     1     -32.790   6.968   1.889  1.00 20.00     0.179 C 
HETATM    2  C2  UNL     1     -32.578   7.869   3.092  1.00 20.00     0.103 C 
HETATM    3  C3  UNL     1     -34.394   6.011   3.258  1.00 20.00     0.182 C 
HETATM    4  O7  UNL     1     -33.314   5.720   2.360  1.00 20.00    -0.375 OA
HETATM    5  S8  UNL     1     -34.076   7.607   4.056  1.00 20.00    -0.135 SA
ENDROOT
BRANCH   3   6
HETATM    6  C5  UNL     1     -34.495   4.893   4.278  1.00 20.00     0.042 C 
BRANCH   6   7
HETATM    7  C6  UNL     1     -33.686   3.668   3.852  1.00 20.00    -0.001 C 
HETATM    8  C4  UNL     1     -33.080   2.954   5.050  1.00 20.00     0.005 C 
ENDBRANCH   6   7
ENDBRANCH   3   6
TORSDOF 2
ENDMDL
MODEL 3
REMARK VINA RESULT:      -1.2      1.633      1.908
REMARK  2 active torsions:
REMARK  status: ('A' for Active; 'I' for Inactive)
REMARK    1  A    between atoms: C3_3  and  C5_5 
REMARK    2  A    between atoms: C5_5  and  C6_6 
ROOT
HETATM    1  C1  UNL     1     -34.509   4.835   4.076  1.00 20.00     0.179 C 
HETATM    2  C2  UNL     1     -35.397   6.063   4.166  1.00 20.00     0.103 C 
HETATM    3  C3  UNL     1     -33.067   6.318   3.034  1.00 20.00     0.182 C 
HETATM    4  O7  UNL     1     -33.637   5.005   2.952  1.00 20.00    -0.375 OA
HETATM    5  S8  UNL     1     -34.244   7.413   3.872  1.00 20.00    -0.135 SA
ENDROOT
BRANCH   3   6
HETATM    6  C5  UNL     1     -32.759   6.807   1.631  1.00 20.00     0.042 C 
BRANCH   6   7
HETATM    7  C6  UNL     1     -31.801   7.999   1.648  1.00 20.00    -0.001 C 
HETATM    8  C4  UNL     1     -32.329   9.152   0.809  1.00 20.00     0.005 C 
ENDBRANCH   6   7
ENDBRANCH   3   6
TORSDOF 2
ENDMDL
MODEL 4
REMARK VINA RESULT:      -1.1      1.560      1.760
REMARK  2 active torsions:
REMARK  status: ('A' for Active; 'I' for Inactive)
REMARK    1  A    between atoms: C3_3  and  C5_5 
REMARK    2  A    between atoms: C5_5  and  C6_6 
ROOT
HETATM    1  C1  UNL     1     -33.783   5.821   3.047  1.00 20.00     0.179 C 
HETATM    2  C2  UNL     1     -34.237   7.141   3.644  1.00 20.00     0.103 C 
HETATM    3  C3  UNL     1     -32.135   7.149   2.107  1.00 20.00     0.182 C 
HETATM    4  O7  UNL     1     -33.080   6.106   1.832  1.00 20.00    -0.375 OA
HETATM    5  S8  UNL     1     -32.788   8.190   3.440  1.00 20.00    -0.135 SA
ENDROOT
BRANCH   3   6
HETATM    6  C5  UNL     1     -31.909   7.951   0.839  1.00 20.00     0.042 C 
BRANCH   6   7
HETATM    7  C6  UNL     1     -32.326   9.411   1.016  1.00 20.00    -0.001 C 
HETATM    8  C4  UNL     1     -32.652  10.065  -0.317  1.00 20.00     0.005 C 
ENDBRANCH   6   7
ENDBRANCH   3   6
TORSDOF 2
ENDMDL
MODEL 5
REMARK VINA RESULT:      -1.0      1.284      4.066
REMARK  2 active torsions:
REMARK  status: ('A' for Active; 'I' for Inactive)
REMARK    1  A    between atoms: C3_3  and  C5_5 
REMARK    2  A    between atoms: C5_5  and  C6_6 
ROOT
HETATM    1  C1  UNL     1     -31.947   8.285   2.867  1.00 20.00     0.179 C 
HETATM    2  C2  UNL     1     -32.192   7.795   1.451  1.00 20.00     0.103 C 
HETATM    3  C3  UNL     1     -33.436   6.592   3.396  1.00 20.00     0.182 C 
HETATM    4  O7  UNL     1     -33.104   7.964   3.650  1.00 20.00    -0.375 OA
HETATM    5  S8  UNL     1     -32.918   6.168   1.712  1.00 20.00    -0.135 SA
ENDROOT
BRANCH   3   6
HETATM    6  C5  UNL     1     -34.932   6.411   3.577  1.00 20.00     0.042 C 
BRANCH   6   7
HETATM    7  C6  UNL     1     -35.251   5.172   4.414  1.00 20.00    -0.001 C 
HETATM    8  C4  UNL     1     -34.120   4.158   4.366  1.00 20.00     0.005 C 
ENDBRANCH   6   7
ENDBRANCH   3   6
TORSDOF 2
ENDMDL
MODEL 6
REMARK VINA RESULT:      -0.4      2.034      4.040
REMARK  2 active torsions:
REMARK  status: ('A' for Active; 'I' for Inactive)
REMARK    1  A    between atoms: C3_3  and  C5_5 
REMARK    2  A    between atoms: C5_5  and  C6_6 
ROOT
HETATM    1  C1  UNL     1     -32.147   5.982   1.142  1.00 20.00     0.179 C 
HETATM    2  C2  UNL     1     -31.265   7.151   1.542  1.00 20.00     0.103 C 
HETATM    3  C3  UNL     1     -33.705   7.089   2.450  1.00 20.00     0.182 C 
HETATM    4  O7  UNL     1     -33.134   5.804   2.165  1.00 20.00    -0.375 OA
HETATM    5  S8  UNL     1     -32.456   8.365   2.134  1.00 20.00    -0.135 SA
ENDROOT
BRANCH   3   6
HETATM    6  C5  UNL     1     -34.163   7.110   3.896  1.00 20.00     0.042 C 
BRANCH   6   7
HETATM    7  C6  UNL     1     -35.390   6.222   4.110  1.00 20.00    -0.001 C 
HETATM    8  C4  UNL     1     -34.995   4.817   4.537  1.00 20.00     0.005 C 
ENDBRANCH   6   7
ENDBRANCH   3   6
TORSDOF 2
ENDMDL
MODEL 7
REMARK VINA RESULT:      -0.4      1.478      3.843
REMARK  2 active torsions:
REMARK  status: ('A' for Active; 'I' for Inactive)
REMARK    1  A    between atoms: C3_3  and  C5_5 
REMARK    2  A    between atoms: C5_5  and  C6_6 
ROOT
HETATM    1  C1  UNL     1     -31.696   7.996   1.761  1.00 20.00     0.179 C 
HETATM    2  C2  UNL     1     -32.390   6.915   0.952  1.00 20.00     0.103 C 
HETATM    3  C3  UNL     1     -33.026   7.163   3.465  1.00 20.00     0.182 C 
HETATM    4  O7  UNL     1     -32.568   8.368   2.836  1.00 20.00    -0.375 OA
HETATM    5  S8  UNL     1     -33.074   5.841   2.225  1.00 20.00    -0.135 SA
ENDROOT
BRANCH   3   6
HETATM    6  C5  UNL     1     -34.399   7.414   4.059  1.00 20.00     0.042 C 
BRANCH   6   7
HETATM    7  C6  UNL     1     -35.383   6.304   3.689  1.00 20.00    -0.001 C 
HETATM    8  C4  UNL     1     -35.327   5.153   4.681  1.00 20.00     0.005 C 
ENDBRANCH   6   7
ENDBRANCH   3   6
TORSDOF 2
ENDMDL
MODEL 8
REMARK VINA RESULT:       0.1      1.735      4.042
REMARK  2 active torsions:
REMARK  status: ('A' for Active; 'I' for Inactive)
REMARK    1  A    between atoms: C3_3  and  C5_5 
REMARK    2  A    between atoms: C5_5  and  C6_6 
ROOT
HETATM    1  C1  UNL     1     -32.727  10.374   0.784  1.00 20.00     0.179 C 
HETATM    2  C2  UNL     1     -32.359   9.511  -0.409  1.00 20.00     0.103 C 
HETATM    3  C3  UNL     1     -32.290   8.425   1.957  1.00 20.00     0.182 C 
HETATM    4  O7  UNL     1     -33.218   9.511   1.817  1.00 20.00    -0.375 OA
HETATM    5  S8  UNL     1     -31.502   8.122   0.353  1.00 20.00    -0.135 SA
ENDROOT
BRANCH   3   6
HETATM    6  C5  UNL     1     -33.042   7.200   2.443  1.00 20.00     0.042 C 
BRANCH   6   7
HETATM    7  C6  UNL     1     -33.853   7.502   3.704  1.00 20.00    -0.001 C 
HETATM    8  C4  UNL     1     -34.979   6.500   3.898  1.00 20.00     0.005 C 
ENDBRANCH   6   7
ENDBRANCH   3   6
TORSDOF 2
ENDMDL
MODEL 9
REMARK VINA RESULT:       0.3      2.296      2.928
REMARK  2 active torsions:
REMARK  status: ('A' for Active; 'I' for Inactive)
REMARK    1  A    between atoms: C3_3  and  C5_5 
REMARK    2  A    between atoms: C5_5  and  C6_6 
ROOT
HETATM    1  C1  UNL     1     -34.639   4.851   4.263  1.00 20.00     0.179 C 
HETATM    2  C2  UNL     1     -35.522   6.086   4.229  1.00 20.00     0.103 C 
HETATM    3  C3  UNL     1     -33.128   6.264   3.222  1.00 20.00     0.182 C 
HETATM    4  O7  UNL     1     -33.702   4.950   3.183  1.00 20.00    -0.375 OA
HETATM    5  S8  UNL     1     -34.343   7.412   3.923  1.00 20.00    -0.135 SA
ENDROOT
BRANCH   3   6
HETATM    6  C5  UNL     1     -32.735   6.667   1.813  1.00 20.00     0.042 C 
BRANCH   6   7
HETATM    7  C6  UNL     1     -32.784   5.477   0.853  1.00 20.00    -0.001 C 
HETATM    8  C4  UNL     1     -31.443   4.765   0.778  1.00 20.00     0.005 C 
ENDBRANCH   6   7
ENDBRANCH   3   6
TORSDOF 2
ENDMDL
