MODEL 1
REMARK VINA RESULT:       0.5      0.000      0.000
REMARK  2 active torsions:
REMARK  status: ('A' for Active; 'I' for Inactive)
REMARK    1  A    between atoms: C3_3  and  O11_11 
REMARK    2  A    between atoms: C8_8  and  O11_11 
ROOT
HETATM    1  C1  UNL     1     -31.858   8.216   3.234  1.00 20.00    -0.025 C 
HETATM    2  C2  UNL     1     -32.689   7.841   4.216  1.00 20.00    -0.023 C 
HETATM    3  C4  UNL     1     -34.001   8.278   2.367  1.00 20.00     0.019 C 
HETATM    4  C5  UNL     1     -32.637   6.420   1.736  1.00 20.00     0.042 C 
HETATM    5  C6  UNL     1     -32.568   7.953   1.927  1.00 20.00     0.011 C 
HETATM    6  C7  UNL     1     -33.952   7.323   3.565  1.00 20.00     0.038 C 
HETATM    7  C8  UNL     1     -33.650   5.993   2.835  1.00 20.00     0.140 C 
ENDROOT
BRANCH   7   8
HETATM    8  O11 UNL     1     -33.108   5.012   3.698  1.00 20.00    -0.316 OA
BRANCH   8   9
HETATM    9  C3  UNL     1     -34.010   4.164   4.287  1.00 20.00     0.255 C 
HETATM   10  C9  UNL     1     -33.363   2.842   4.574  1.00 20.00     0.126 C 
HETATM   11  O10 UNL     1     -35.175   4.428   4.548  1.00 20.00    -0.266 OA
ENDBRANCH   8   9
ENDBRANCH   7   8
TORSDOF 2
ENDMDL
MODEL 2
REMARK VINA RESULT:       0.7      2.086      4.105
REMARK  2 active torsions:
REMARK  status: ('A' for Active; 'I' for Inactive)
REMARK    1  A    between atoms: C3_3  and  O11_11 
REMARK    2  A    between atoms: C8_8  and  O11_11 
ROOT
HETATM    1  C1  UNL     1     -34.114   5.117   4.161  1.00 20.00    -0.025 C 
HETATM    2  C2  UNL     1     -33.746   5.333   2.890  1.00 20.00    -0.023 C 
HETATM    3  C4  UNL     1     -35.705   6.510   3.222  1.00 20.00     0.019 C 
HETATM    4  C5  UNL     1     -34.113   7.526   4.687  1.00 20.00     0.042 C 
HETATM    5  C6  UNL     1     -35.004   6.268   4.566  1.00 20.00     0.011 C 
HETATM    6  C7  UNL     1     -34.387   6.629   2.449  1.00 20.00     0.038 C 
HETATM    7  C8  UNL     1     -33.738   7.812   3.207  1.00 20.00     0.140 C 
ENDROOT
BRANCH   7   8
HETATM    8  O11 UNL     1     -32.337   7.871   3.021  1.00 20.00    -0.316 OA
BRANCH   8   9
HETATM    9  C3  UNL     1     -31.902   7.880   1.721  1.00 20.00     0.255 C 
HETATM   10  C9  UNL     1     -32.317   9.153   1.047  1.00 20.00     0.126 C 
HETATM   11  O10 UNL     1     -31.267   6.990   1.173  1.00 20.00    -0.266 OA
ENDBRANCH   8   9
ENDBRANCH   7   8
TORSDOF 2
ENDMDL
MODEL 3
REMARK VINA RESULT:       0.7      2.519      4.530
REMARK  2 active torsions:
REMARK  status: ('A' for Active; 'I' for Inactive)
REMARK    1  A    between atoms: C3_3  and  O11_11 
REMARK    2  A    between atoms: C8_8  and  O11_11 
ROOT
HETATM    1  C1  UNL     1     -35.150   6.748   3.352  1.00 20.00    -0.025 C 
HETATM    2  C2  UNL     1     -34.474   7.726   3.971  1.00 20.00    -0.023 C 
HETATM    3  C4  UNL     1     -33.111   5.862   3.991  1.00 20.00     0.019 C 
HETATM    4  C5  UNL     1     -33.367   6.420   1.681  1.00 20.00     0.042 C 
HETATM    5  C6  UNL     1     -34.130   5.754   2.850  1.00 20.00     0.011 C 
HETATM    6  C7  UNL     1     -33.003   7.387   3.877  1.00 20.00     0.038 C 
HETATM    7  C8  UNL     1     -32.535   7.514   2.408  1.00 20.00     0.140 C 
ENDROOT
BRANCH   7   8
HETATM    8  O11 UNL     1     -32.775   8.800   1.872  1.00 20.00    -0.316 OA
BRANCH   8   9
HETATM    9  C3  UNL     1     -32.067   9.124   0.743  1.00 20.00     0.255 C 
HETATM   10  C9  UNL     1     -32.670  10.327   0.083  1.00 20.00     0.126 C 
HETATM   11  O10 UNL     1     -31.085   8.530   0.320  1.00 20.00    -0.266 OA
ENDBRANCH   8   9
ENDBRANCH   7   8
TORSDOF 2
ENDMDL
MODEL 4
REMARK VINA RESULT:       0.9      1.177      1.601
REMARK  2 active torsions:
REMARK  status: ('A' for Active; 'I' for Inactive)
REMARK    1  A    between atoms: C3_3  and  O11_11 
REMARK    2  A    between atoms: C8_8  and  O11_11 
ROOT
HETATM    1  C1  UNL     1     -31.023   8.197   2.500  1.00 20.00    -0.025 C 
HETATM    2  C2  UNL     1     -32.054   8.387   3.336  1.00 20.00    -0.023 C 
HETATM    3  C4  UNL     1     -32.906   8.505   1.192  1.00 20.00     0.019 C 
HETATM    4  C5  UNL     1     -32.109   6.263   1.423  1.00 20.00     0.042 C 
HETATM    5  C6  UNL     1     -31.597   7.705   1.193  1.00 20.00     0.011 C 
HETATM    6  C7  UNL     1     -33.315   8.018   2.587  1.00 20.00     0.038 C 
HETATM    7  C8  UNL     1     -33.342   6.491   2.341  1.00 20.00     0.140 C 
ENDROOT
BRANCH   7   8
HETATM    8  O11 UNL     1     -33.250   5.746   3.540  1.00 20.00    -0.316 OA
BRANCH   8   9
HETATM    9  C3  UNL     1     -34.408   5.155   3.972  1.00 20.00     0.255 C 
HETATM   10  C9  UNL     1     -35.518   6.162   4.011  1.00 20.00     0.126 C 
HETATM   11  O10 UNL     1     -34.539   3.980   4.285  1.00 20.00    -0.266 OA
ENDBRANCH   8   9
ENDBRANCH   7   8
TORSDOF 2
ENDMDL
MODEL 5
REMARK VINA RESULT:       1.4      1.192      1.545
REMARK  2 active torsions:
REMARK  status: ('A' for Active; 'I' for Inactive)
REMARK    1  A    between atoms: C3_3  and  O11_11 
REMARK    2  A    between atoms: C8_8  and  O11_11 
ROOT
HETATM    1  C1  UNL     1     -30.779   7.742   2.070  1.00 20.00    -0.025 C 
HETATM    2  C2  UNL     1     -31.474   8.375   3.026  1.00 20.00    -0.023 C 
HETATM    3  C4  UNL     1     -32.625   8.690   1.049  1.00 20.00     0.019 C 
HETATM    4  C5  UNL     1     -32.705   6.335   1.445  1.00 20.00     0.042 C 
HETATM    5  C6  UNL     1     -31.743   7.439   0.948  1.00 20.00     0.011 C 
HETATM    6  C7  UNL     1     -32.903   8.490   2.543  1.00 20.00     0.038 C 
HETATM    7  C8  UNL     1     -33.553   7.087   2.509  1.00 20.00     0.140 C 
ENDROOT
BRANCH   7   8
HETATM    8  O11 UNL     1     -33.512   6.440   3.767  1.00 20.00    -0.316 OA
BRANCH   8   9
HETATM    9  C3  UNL     1     -34.552   5.590   4.040  1.00 20.00     0.255 C 
HETATM   10  C9  UNL     1     -34.057   4.176   4.111  1.00 20.00     0.126 C 
HETATM   11  O10 UNL     1     -35.719   5.916   4.205  1.00 20.00    -0.266 OA
ENDBRANCH   8   9
ENDBRANCH   7   8
TORSDOF 2
ENDMDL
MODEL 6
REMARK VINA RESULT:       1.4      1.041      2.098
REMARK  2 active torsions:
REMARK  status: ('A' for Active; 'I' for Inactive)
REMARK    1  A    between atoms: C3_3  and  O11_11 
REMARK    2  A    between atoms: C8_8  and  O11_11 
ROOT
HETATM    1  C1  UNL     1     -33.063   8.185   0.960  1.00 20.00    -0.025 C 
HETATM    2  C2  UNL     1     -33.270   6.887   0.698  1.00 20.00    -0.023 C 
HETATM    3  C4  UNL     1     -31.258   7.024   1.824  1.00 20.00     0.019 C 
HETATM    4  C5  UNL     1     -32.900   7.782   3.387  1.00 20.00     0.042 C 
HETATM    5  C6  UNL     1     -32.120   8.254   2.138  1.00 20.00     0.011 C 
HETATM    6  C7  UNL     1     -32.468   6.090   1.702  1.00 20.00     0.038 C 
HETATM    7  C8  UNL     1     -33.084   6.264   3.111  1.00 20.00     0.140 C 
ENDROOT
BRANCH   7   8
HETATM    8  O11 UNL     1     -34.445   5.882   3.158  1.00 20.00    -0.316 OA
BRANCH   8   9
HETATM    9  C3  UNL     1     -34.773   4.942   4.101  1.00 20.00     0.255 C 
HETATM   10  C9  UNL     1     -33.755   3.842   4.110  1.00 20.00     0.126 C 
HETATM   11  O10 UNL     1     -35.750   4.979   4.837  1.00 20.00    -0.266 OA
ENDBRANCH   8   9
ENDBRANCH   7   8
TORSDOF 2
ENDMDL
MODEL 7
REMARK VINA RESULT:       1.5      1.361      1.707
REMARK  2 active torsions:
REMARK  status: ('A' for Active; 'I' for Inactive)
REMARK    1  A    between atoms: C3_3  and  O11_11 
REMARK    2  A    between atoms: C8_8  and  O11_11 
ROOT
HETATM    1  C1  UNL     1     -33.196   7.576   3.873  1.00 20.00    -0.025 C 
HETATM    2  C2  UNL     1     -34.253   7.303   4.652  1.00 20.00    -0.023 C 
HETATM    3  C4  UNL     1     -34.941   7.001   2.468  1.00 20.00     0.019 C 
HETATM    4  C5  UNL     1     -33.253   5.346   2.823  1.00 20.00     0.042 C 
HETATM    5  C6  UNL     1     -33.415   6.862   2.561  1.00 20.00     0.011 C 
HETATM    6  C7  UNL     1     -35.175   6.404   3.860  1.00 20.00     0.038 C 
HETATM    7  C8  UNL     1     -34.512   5.019   3.673  1.00 20.00     0.140 C 
ENDROOT
BRANCH   7   8
HETATM    8  O11 UNL     1     -34.173   4.409   4.903  1.00 20.00    -0.316 OA
BRANCH   8   9
HETATM    9  C3  UNL     1     -33.460   3.241   4.820  1.00 20.00     0.255 C 
HETATM   10  C9  UNL     1     -32.422   3.192   5.901  1.00 20.00     0.126 C 
HETATM   11  O10 UNL     1     -33.630   2.356   3.993  1.00 20.00    -0.266 OA
ENDBRANCH   8   9
ENDBRANCH   7   8
TORSDOF 2
ENDMDL
MODEL 8
REMARK VINA RESULT:       1.7      3.000      5.009
REMARK  2 active torsions:
REMARK  status: ('A' for Active; 'I' for Inactive)
REMARK    1  A    between atoms: C3_3  and  O11_11 
REMARK    2  A    between atoms: C8_8  and  O11_11 
ROOT
HETATM    1  C1  UNL     1     -33.810   6.358   2.914  1.00 20.00    -0.025 C 
HETATM    2  C2  UNL     1     -32.950   7.294   3.338  1.00 20.00    -0.023 C 
HETATM    3  C4  UNL     1     -31.752   5.853   1.988  1.00 20.00     0.019 C 
HETATM    4  C5  UNL     1     -33.367   6.862   0.543  1.00 20.00     0.042 C 
HETATM    5  C6  UNL     1     -33.245   5.779   1.640  1.00 20.00     0.011 C 
HETATM    6  C7  UNL     1     -31.812   7.343   2.343  1.00 20.00     0.038 C 
HETATM    7  C8  UNL     1     -32.322   7.918   1.001  1.00 20.00     0.140 C 
ENDROOT
BRANCH   7   8
HETATM    8  O11 UNL     1     -32.900   9.201   1.146  1.00 20.00    -0.316 OA
BRANCH   8   9
HETATM    9  C3  UNL     1     -32.695  10.074   0.109  1.00 20.00     0.255 C 
HETATM   10  C9  UNL     1     -32.148  11.371   0.627  1.00 20.00     0.126 C 
HETATM   11  O10 UNL     1     -32.919   9.848  -1.072  1.00 20.00    -0.266 OA
ENDBRANCH   8   9
ENDBRANCH   7   8
TORSDOF 2
ENDMDL
MODEL 9
REMARK VINA RESULT:       1.7      1.715      2.528
REMARK  2 active torsions:
REMARK  status: ('A' for Active; 'I' for Inactive)
REMARK    1  A    between atoms: C3_3  and  O11_11 
REMARK    2  A    between atoms: C8_8  and  O11_11 
ROOT
HETATM    1  C1  UNL     1     -32.442   8.848   1.073  1.00 20.00    -0.025 C 
HETATM    2  C2  UNL     1     -33.335   7.856   0.948  1.00 20.00    -0.023 C 
HETATM    3  C4  UNL     1     -31.351   6.883   1.619  1.00 20.00     0.019 C 
HETATM    4  C5  UNL     1     -31.995   8.299   3.434  1.00 20.00     0.042 C 
HETATM    5  C6  UNL     1     -31.371   8.364   2.020  1.00 20.00     0.011 C 
HETATM    6  C7  UNL     1     -32.862   6.712   1.815  1.00 20.00     0.038 C 
HETATM    7  C8  UNL     1     -32.985   7.107   3.306  1.00 20.00     0.140 C 
ENDROOT
BRANCH   7   8
HETATM    8  O11 UNL     1     -34.303   7.477   3.661  1.00 20.00    -0.316 OA
BRANCH   8   9
HETATM    9  C3  UNL     1     -35.223   6.462   3.704  1.00 20.00     0.255 C 
HETATM   10  C9  UNL     1     -34.605   5.231   4.297  1.00 20.00     0.126 C 
HETATM   11  O10 UNL     1     -36.382   6.530   3.320  1.00 20.00    -0.266 OA
ENDBRANCH   8   9
ENDBRANCH   7   8
TORSDOF 2
ENDMDL
