MODEL 1
REMARK VINA RESULT:       1.1      0.000      0.000
REMARK  0 active torsions:
REMARK  status: ('A' for Active; 'I' for Inactive)
ROOT
HETATM    1  C1  UNL     1     -34.786   5.388   4.168  1.00 20.00     0.075 C 
HETATM    2  C2  UNL     1     -32.107   7.951   1.515  1.00 20.00     0.084 C 
HETATM    3  C3  UNL     1     -32.160   8.330   2.986  1.00 20.00     0.085 C 
HETATM    4  C4  UNL     1     -33.556   5.653   2.059  1.00 20.00     0.104 C 
HETATM    5  C5  UNL     1     -33.615   6.025   3.542  1.00 20.00     0.163 C 
HETATM    6  N6  UNL     1     -35.709   4.886   4.661  1.00 20.00    -0.196 NA
HETATM    7  S7  UNL     1     -32.002   6.155   1.257  1.00 20.00    -0.166 SA
HETATM    8  S8  UNL     1     -33.718   7.836   3.783  1.00 20.00    -0.148 SA
ENDROOT
TORSDOF 0
ENDMDL
MODEL 2
REMARK VINA RESULT:       1.2      2.748      4.277
REMARK  0 active torsions:
REMARK  status: ('A' for Active; 'I' for Inactive)
ROOT
HETATM    1  C1  UNL     1     -31.994   8.450   1.201  1.00 20.00     0.075 C 
HETATM    2  C2  UNL     1     -34.608   5.744   3.775  1.00 20.00     0.084 C 
HETATM    3  C3  UNL     1     -33.402   5.091   3.120  1.00 20.00     0.085 C 
HETATM    4  C4  UNL     1     -33.709   8.229   2.944  1.00 20.00     0.104 C 
HETATM    5  C5  UNL     1     -32.491   7.582   2.282  1.00 20.00     0.163 C 
HETATM    6  N6  UNL     1     -31.603   9.133   0.349  1.00 20.00    -0.196 NA
HETATM    7  S7  UNL     1     -34.229   7.381   4.468  1.00 20.00    -0.166 SA
HETATM    8  S8  UNL     1     -32.889   5.934   1.594  1.00 20.00    -0.148 SA
ENDROOT
TORSDOF 0
ENDMDL
MODEL 3
REMARK VINA RESULT:       1.6      2.572      3.367
REMARK  0 active torsions:
REMARK  status: ('A' for Active; 'I' for Inactive)
ROOT
HETATM    1  C1  UNL     1     -32.221   5.143   0.947  1.00 20.00     0.075 C 
HETATM    2  C2  UNL     1     -33.916   7.756   4.276  1.00 20.00     0.084 C 
HETATM    3  C3  UNL     1     -33.411   8.482   3.040  1.00 20.00     0.085 C 
HETATM    4  C4  UNL     1     -33.584   5.329   2.981  1.00 20.00     0.104 C 
HETATM    5  C5  UNL     1     -33.076   6.050   1.731  1.00 20.00     0.163 C 
HETATM    6  N6  UNL     1     -31.548   4.428   0.329  1.00 20.00    -0.196 NA
HETATM    7  S7  UNL     1     -34.868   6.261   3.872  1.00 20.00    -0.166 SA
HETATM    8  S8  UNL     1     -32.123   7.554   2.157  1.00 20.00    -0.148 SA
ENDROOT
TORSDOF 0
ENDMDL
MODEL 4
REMARK VINA RESULT:       1.7      1.201      2.049
REMARK  0 active torsions:
REMARK  status: ('A' for Active; 'I' for Inactive)
ROOT
HETATM    1  C1  UNL     1     -34.993   5.626   4.046  1.00 20.00     0.075 C 
HETATM    2  C2  UNL     1     -31.545   7.639   1.845  1.00 20.00     0.084 C 
HETATM    3  C3  UNL     1     -32.294   6.559   1.081  1.00 20.00     0.085 C 
HETATM    4  C4  UNL     1     -33.441   7.519   3.862  1.00 20.00     0.104 C 
HETATM    5  C5  UNL     1     -34.202   6.433   3.101  1.00 20.00     0.163 C 
HETATM    6  N6  UNL     1     -35.616   4.990   4.790  1.00 20.00    -0.196 NA
HETATM    7  S7  UNL     1     -32.656   8.743   2.767  1.00 20.00    -0.166 SA
HETATM    8  S8  UNL     1     -33.068   5.333   2.176  1.00 20.00    -0.148 SA
ENDROOT
TORSDOF 0
ENDMDL
MODEL 5
REMARK VINA RESULT:       1.8      2.676      3.770
REMARK  0 active torsions:
REMARK  status: ('A' for Active; 'I' for Inactive)
ROOT
HETATM    1  C1  UNL     1     -32.397   7.626   1.800  1.00 20.00     0.075 C 
HETATM    2  C2  UNL     1     -34.648   4.781   4.561  1.00 20.00     0.084 C 
HETATM    3  C3  UNL     1     -35.370   6.063   4.182  1.00 20.00     0.085 C 
HETATM    4  C4  UNL     1     -32.651   5.369   2.734  1.00 20.00     0.104 C 
HETATM    5  C5  UNL     1     -33.370   6.662   2.344  1.00 20.00     0.163 C 
HETATM    6  N6  UNL     1     -31.632   8.385   1.373  1.00 20.00    -0.196 NA
HETATM    7  S7  UNL     1     -33.792   4.015   3.153  1.00 20.00    -0.166 SA
HETATM    8  S8  UNL     1     -34.229   7.417   3.773  1.00 20.00    -0.148 SA
ENDROOT
TORSDOF 0
ENDMDL
MODEL 6
REMARK VINA RESULT:       2.2      1.197      2.246
REMARK  0 active torsions:
REMARK  status: ('A' for Active; 'I' for Inactive)
ROOT
HETATM    1  C1  UNL     1     -33.888   4.405   3.757  1.00 20.00     0.075 C 
HETATM    2  C2  UNL     1     -32.164   8.244   2.003  1.00 20.00     0.084 C 
HETATM    3  C3  UNL     1     -32.254   7.054   1.062  1.00 20.00     0.085 C 
HETATM    4  C4  UNL     1     -33.601   6.839   3.910  1.00 20.00     0.104 C 
HETATM    5  C5  UNL     1     -33.699   5.636   2.970  1.00 20.00     0.163 C 
HETATM    6  N6  UNL     1     -34.037   3.436   4.375  1.00 20.00    -0.196 NA
HETATM    7  S7  UNL     1     -33.647   8.435   3.037  1.00 20.00    -0.166 SA
HETATM    8  S8  UNL     1     -32.199   5.462   1.935  1.00 20.00    -0.148 SA
ENDROOT
TORSDOF 0
ENDMDL
MODEL 7
REMARK VINA RESULT:       2.6      1.672      1.672
REMARK  0 active torsions:
REMARK  status: ('A' for Active; 'I' for Inactive)
ROOT
HETATM    1  C1  UNL     1     -33.612   3.915   3.955  1.00 20.00     0.075 C 
HETATM    2  C2  UNL     1     -33.474   8.113   2.182  1.00 20.00     0.084 C 
HETATM    3  C3  UNL     1     -33.877   8.011   3.644  1.00 20.00     0.085 C 
HETATM    4  C4  UNL     1     -32.831   5.418   2.177  1.00 20.00     0.104 C 
HETATM    5  C5  UNL     1     -33.234   5.305   3.649  1.00 20.00     0.163 C 
HETATM    6  N6  UNL     1     -33.911   2.820   4.197  1.00 20.00    -0.196 NA
HETATM    7  S7  UNL     1     -32.081   7.023   1.762  1.00 20.00    -0.166 SA
HETATM    8  S8  UNL     1     -34.635   6.411   4.055  1.00 20.00    -0.148 SA
ENDROOT
TORSDOF 0
ENDMDL
MODEL 8
REMARK VINA RESULT:       3.0      2.104      2.712
REMARK  0 active torsions:
REMARK  status: ('A' for Active; 'I' for Inactive)
ROOT
HETATM    1  C1  UNL     1     -33.798   8.003   4.560  1.00 20.00     0.075 C 
HETATM    2  C2  UNL     1     -31.914   5.879   0.993  1.00 20.00     0.084 C 
HETATM    3  C3  UNL     1     -33.284   5.382   1.426  1.00 20.00     0.085 C 
HETATM    4  C4  UNL     1     -32.129   8.003   2.758  1.00 20.00     0.104 C 
HETATM    5  C5  UNL     1     -33.509   7.513   3.201  1.00 20.00     0.163 C 
HETATM    6  N6  UNL     1     -34.025   8.389   5.630  1.00 20.00    -0.196 NA
HETATM    7  S7  UNL     1     -31.791   7.692   0.997  1.00 20.00    -0.166 SA
HETATM    8  S8  UNL     1     -33.616   5.686   3.187  1.00 20.00    -0.148 SA
ENDROOT
TORSDOF 0
ENDMDL
MODEL 9
REMARK VINA RESULT:       3.4      2.694      3.477
REMARK  0 active torsions:
REMARK  status: ('A' for Active; 'I' for Inactive)
ROOT
HETATM    1  C1  UNL     1     -31.961   4.971   0.955  1.00 20.00     0.075 C 
HETATM    2  C2  UNL     1     -34.025   8.047   3.612  1.00 20.00     0.084 C 
HETATM    3  C3  UNL     1     -34.139   6.596   4.048  1.00 20.00     0.085 C 
HETATM    4  C4  UNL     1     -32.210   7.312   1.652  1.00 20.00     0.104 C 
HETATM    5  C5  UNL     1     -32.316   5.848   2.083  1.00 20.00     0.163 C 
HETATM    6  N6  UNL     1     -31.682   4.280   0.066  1.00 20.00    -0.196 NA
HETATM    7  S7  UNL     1     -32.354   8.479   3.041  1.00 20.00    -0.166 SA
HETATM    8  S8  UNL     1     -34.004   5.432   2.658  1.00 20.00    -0.148 SA
ENDROOT
TORSDOF 0
ENDMDL
