MODEL 1
REMARK VINA RESULT:      -0.4      0.000      0.000
REMARK  0 active torsions:
REMARK  status: ('A' for Active; 'I' for Inactive)
ROOT
HETATM    1  C1  UNL     1     -34.615   6.132   3.694  1.00 20.00     0.029 C 
HETATM    2  C2  UNL     1     -33.561   5.272   2.997  1.00 20.00     0.048 C 
HETATM    3  C3  UNL     1     -34.050   7.504   4.036  1.00 20.00     0.170 C 
HETATM    4  C4  UNL     1     -32.433   7.410   2.303  1.00 20.00     0.255 C 
HETATM    5  C5  UNL     1     -32.894   6.017   1.829  1.00 20.00     0.152 C 
HETATM    6  O6  UNL     1     -33.520   8.141   2.875  1.00 20.00    -0.367 OA
HETATM    7 CL7  UNL     1     -31.725   8.408   0.999  1.00 20.00    -0.092 Cl
HETATM    8 CL8  UNL     1     -31.496   5.047   1.251  1.00 20.00    -0.098 Cl
HETATM    9 CL9  UNL     1     -34.071   6.150   0.469  1.00 20.00    -0.098 Cl
ENDROOT
TORSDOF 0
ENDMDL
MODEL 2
REMARK VINA RESULT:       0.4      2.578      3.719
REMARK  0 active torsions:
REMARK  status: ('A' for Active; 'I' for Inactive)
ROOT
HETATM    1  C1  UNL     1     -32.027   7.539   1.517  1.00 20.00     0.029 C 
HETATM    2  C2  UNL     1     -32.038   8.063   2.952  1.00 20.00     0.048 C 
HETATM    3  C3  UNL     1     -32.484   6.087   1.470  1.00 20.00     0.170 C 
HETATM    4  C4  UNL     1     -33.742   6.288   3.472  1.00 20.00     0.255 C 
HETATM    5  C5  UNL     1     -33.373   7.773   3.659  1.00 20.00     0.152 C 
HETATM    6  O6  UNL     1     -33.762   5.936   2.086  1.00 20.00    -0.367 OA
HETATM    7 CL7  UNL     1     -35.329   5.855   4.173  1.00 20.00    -0.092 Cl
HETATM    8 CL8  UNL     1     -33.200   8.172   5.402  1.00 20.00    -0.098 Cl
HETATM    9 CL9  UNL     1     -34.646   8.850   2.971  1.00 20.00    -0.098 Cl
ENDROOT
TORSDOF 0
ENDMDL
MODEL 3
REMARK VINA RESULT:       0.5      1.337      2.763
REMARK  0 active torsions:
REMARK  status: ('A' for Active; 'I' for Inactive)
ROOT
HETATM    1  C1  UNL     1     -34.219   7.567   4.138  1.00 20.00     0.029 C 
HETATM    2  C2  UNL     1     -33.810   8.463   2.971  1.00 20.00     0.048 C 
HETATM    3  C3  UNL     1     -34.468   6.141   3.661  1.00 20.00     0.170 C 
HETATM    4  C4  UNL     1     -33.032   6.385   1.788  1.00 20.00     0.255 C 
HETATM    5  C5  UNL     1     -32.675   7.843   2.140  1.00 20.00     0.152 C 
HETATM    6  O6  UNL     1     -33.331   5.632   2.965  1.00 20.00    -0.367 OA
HETATM    7 CL7  UNL     1     -31.737   5.529   0.900  1.00 20.00    -0.092 Cl
HETATM    8 CL8  UNL     1     -32.449   8.822   0.651  1.00 20.00    -0.098 Cl
HETATM    9 CL9  UNL     1     -31.143   7.924   3.088  1.00 20.00    -0.098 Cl
ENDROOT
TORSDOF 0
ENDMDL
MODEL 4
REMARK VINA RESULT:       0.6      2.394      3.224
REMARK  0 active torsions:
REMARK  status: ('A' for Active; 'I' for Inactive)
ROOT
HETATM    1  C1  UNL     1     -32.423   6.281   1.221  1.00 20.00     0.029 C 
HETATM    2  C2  UNL     1     -33.861   6.042   1.680  1.00 20.00     0.048 C 
HETATM    3  C3  UNL     1     -31.931   7.648   1.681  1.00 20.00     0.170 C 
HETATM    4  C4  UNL     1     -33.440   7.714   3.510  1.00 20.00     0.255 C 
HETATM    5  C5  UNL     1     -34.041   6.334   3.179  1.00 20.00     0.152 C 
HETATM    6  O6  UNL     1     -32.075   7.792   3.093  1.00 20.00    -0.367 OA
HETATM    7 CL7  UNL     1     -33.507   8.121   5.251  1.00 20.00    -0.092 Cl
HETATM    8 CL8  UNL     1     -35.795   6.293   3.566  1.00 20.00    -0.098 Cl
HETATM    9 CL9  UNL     1     -33.237   5.030   4.131  1.00 20.00    -0.098 Cl
ENDROOT
TORSDOF 0
ENDMDL
MODEL 5
REMARK VINA RESULT:       1.2      2.280      3.138
REMARK  0 active torsions:
REMARK  status: ('A' for Active; 'I' for Inactive)
ROOT
HETATM    1  C1  UNL     1     -34.681   4.995   4.401  1.00 20.00     0.029 C 
HETATM    2  C2  UNL     1     -35.220   6.407   4.174  1.00 20.00     0.048 C 
HETATM    3  C3  UNL     1     -33.916   4.509   3.177  1.00 20.00     0.170 C 
HETATM    4  C4  UNL     1     -33.398   6.713   2.469  1.00 20.00     0.255 C 
HETATM    5  C5  UNL     1     -34.131   7.362   3.660  1.00 20.00     0.152 C 
HETATM    6  O6  UNL     1     -32.883   5.428   2.824  1.00 20.00    -0.367 OA
HETATM    7 CL7  UNL     1     -32.040   7.697   1.846  1.00 20.00    -0.092 Cl
HETATM    8 CL8  UNL     1     -34.905   8.907   3.167  1.00 20.00    -0.098 Cl
HETATM    9 CL9  UNL     1     -32.986   7.726   5.006  1.00 20.00    -0.098 Cl
ENDROOT
TORSDOF 0
ENDMDL
MODEL 6
REMARK VINA RESULT:       1.3      1.875      2.679
REMARK  0 active torsions:
REMARK  status: ('A' for Active; 'I' for Inactive)
ROOT
HETATM    1  C1  UNL     1     -33.139   8.449   3.927  1.00 20.00     0.029 C 
HETATM    2  C2  UNL     1     -33.546   7.083   4.478  1.00 20.00     0.048 C 
HETATM    3  C3  UNL     1     -32.187   8.291   2.748  1.00 20.00     0.170 C 
HETATM    4  C4  UNL     1     -33.005   6.129   2.216  1.00 20.00     0.255 C 
HETATM    5  C5  UNL     1     -34.031   6.137   3.368  1.00 20.00     0.152 C 
HETATM    6  O6  UNL     1     -32.757   7.455   1.743  1.00 20.00    -0.367 OA
HETATM    7 CL7  UNL     1     -33.511   5.132   0.820  1.00 20.00    -0.092 Cl
HETATM    8 CL8  UNL     1     -34.225   4.490   4.059  1.00 20.00    -0.098 Cl
HETATM    9 CL9  UNL     1     -35.649   6.687   2.792  1.00 20.00    -0.098 Cl
ENDROOT
TORSDOF 0
ENDMDL
MODEL 7
REMARK VINA RESULT:       1.3      1.594      2.919
REMARK  0 active torsions:
REMARK  status: ('A' for Active; 'I' for Inactive)
ROOT
HETATM    1  C1  UNL     1     -31.974   8.211   2.063  1.00 20.00     0.029 C 
HETATM    2  C2  UNL     1     -32.509   7.272   0.983  1.00 20.00     0.048 C 
HETATM    3  C3  UNL     1     -32.899   8.222   3.274  1.00 20.00     0.170 C 
HETATM    4  C4  UNL     1     -33.742   6.055   2.806  1.00 20.00     0.255 C 
HETATM    5  C5  UNL     1     -32.863   5.887   1.551  1.00 20.00     0.152 C 
HETATM    6  O6  UNL     1     -33.106   6.900   3.767  1.00 20.00    -0.367 OA
HETATM    7 CL7  UNL     1     -34.138   4.507   3.610  1.00 20.00    -0.092 Cl
HETATM    8 CL8  UNL     1     -33.729   4.951   0.286  1.00 20.00    -0.098 Cl
HETATM    9 CL9  UNL     1     -31.338   5.006   1.940  1.00 20.00    -0.098 Cl
ENDROOT
TORSDOF 0
ENDMDL
MODEL 8
REMARK VINA RESULT:       1.9      2.108      3.032
REMARK  0 active torsions:
REMARK  status: ('A' for Active; 'I' for Inactive)
ROOT
HETATM    1  C1  UNL     1     -32.679   5.755   1.079  1.00 20.00     0.029 C 
HETATM    2  C2  UNL     1     -31.630   6.742   1.589  1.00 20.00     0.048 C 
HETATM    3  C3  UNL     1     -33.549   5.254   2.226  1.00 20.00     0.170 C 
HETATM    4  C4  UNL     1     -33.158   7.193   3.535  1.00 20.00     0.255 C 
HETATM    5  C5  UNL     1     -32.254   7.841   2.466  1.00 20.00     0.152 C 
HETATM    6  O6  UNL     1     -34.137   6.345   2.932  1.00 20.00    -0.367 OA
HETATM    7 CL7  UNL     1     -34.015   8.384   4.558  1.00 20.00    -0.092 Cl
HETATM    8 CL8  UNL     1     -30.932   8.783   3.235  1.00 20.00    -0.098 Cl
HETATM    9 CL9  UNL     1     -33.194   8.966   1.417  1.00 20.00    -0.098 Cl
ENDROOT
TORSDOF 0
ENDMDL
