MODEL 1
REMARK VINA RESULT:       0.8      0.000      0.000
REMARK  1 active torsions:
REMARK  status: ('A' for Active; 'I' for Inactive)
REMARK    1  A    between atoms: C8_8  and  N9_9 
ROOT
HETATM    1  C1  UNL     1     -32.193   8.671   1.096  1.00 20.00     0.158 C 
HETATM    2  N9  UNL     1     -32.055   7.733   1.790  1.00 20.00    -0.270 NA
HETATM    3  S10 UNL     1     -32.352   9.947   0.156  1.00 20.00    -0.055 SA
ENDROOT
BRANCH   2   4
HETATM    4  C8  UNL     1     -33.296   7.041   2.144  1.00 20.00     0.118 C 
HETATM    5  C5  UNL     1     -34.345   8.065   2.662  1.00 20.00     0.036 C 
HETATM    6  C6  UNL     1     -34.601   7.585   4.109  1.00 20.00     0.010 C 
HETATM    7  C2  UNL     1     -35.259   6.227   4.042  1.00 20.00    -0.026 C 
HETATM    8  C4  UNL     1     -33.196   7.147   4.529  1.00 20.00     0.019 C 
HETATM    9  C3  UNL     1     -34.334   5.357   3.608  1.00 20.00    -0.024 C 
HETATM   10  C7  UNL     1     -33.061   6.140   3.378  1.00 20.00     0.033 C 
ENDBRANCH   2   4
TORSDOF 1
ENDMDL
MODEL 2
REMARK VINA RESULT:       1.2      2.567      4.180
REMARK  1 active torsions:
REMARK  status: ('A' for Active; 'I' for Inactive)
REMARK    1  A    between atoms: C8_8  and  N9_9 
ROOT
HETATM    1  C1  UNL     1     -34.470   6.596   4.007  1.00 20.00     0.158 C 
HETATM    2  N9  UNL     1     -33.848   7.572   3.802  1.00 20.00    -0.270 NA
HETATM    3  S10 UNL     1     -35.310   5.278   4.314  1.00 20.00    -0.055 SA
ENDROOT
BRANCH   2   4
HETATM    4  C8  UNL     1     -33.559   7.833   2.391  1.00 20.00     0.118 C 
HETATM    5  C5  UNL     1     -32.720   6.666   1.797  1.00 20.00     0.036 C 
HETATM    6  C6  UNL     1     -31.411   7.372   1.373  1.00 20.00     0.010 C 
HETATM    7  C2  UNL     1     -31.741   8.334   0.255  1.00 20.00    -0.026 C 
HETATM    8  C4  UNL     1     -31.236   8.381   2.510  1.00 20.00     0.019 C 
HETATM    9  C3  UNL     1     -32.450   9.339   0.791  1.00 20.00    -0.024 C 
HETATM   10  C7  UNL     1     -32.601   9.040   2.265  1.00 20.00     0.033 C 
ENDBRANCH   2   4
TORSDOF 1
ENDMDL
MODEL 3
REMARK VINA RESULT:       1.2      1.232      2.253
REMARK  1 active torsions:
REMARK  status: ('A' for Active; 'I' for Inactive)
REMARK    1  A    between atoms: C8_8  and  N9_9 
ROOT
HETATM    1  C1  UNL     1     -32.022   9.254   0.605  1.00 20.00     0.158 C 
HETATM    2  N9  UNL     1     -31.486   8.225   0.792  1.00 20.00    -0.270 NA
HETATM    3  S10 UNL     1     -32.733  10.652   0.328  1.00 20.00    -0.055 SA
ENDROOT
BRANCH   2   4
HETATM    4  C8  UNL     1     -31.925   7.510   1.991  1.00 20.00     0.118 C 
HETATM    5  C5  UNL     1     -31.723   5.980   1.800  1.00 20.00     0.036 C 
HETATM    6  C6  UNL     1     -33.164   5.431   1.913  1.00 20.00     0.010 C 
HETATM    7  C2  UNL     1     -33.646   5.671   3.325  1.00 20.00    -0.026 C 
HETATM    8  C4  UNL     1     -33.957   6.530   1.203  1.00 20.00     0.019 C 
HETATM    9  C3  UNL     1     -33.829   6.993   3.464  1.00 20.00    -0.024 C 
HETATM   10  C7  UNL     1     -33.458   7.634   2.146  1.00 20.00     0.033 C 
ENDBRANCH   2   4
TORSDOF 1
ENDMDL
MODEL 4
REMARK VINA RESULT:       1.3      3.247      4.283
REMARK  1 active torsions:
REMARK  status: ('A' for Active; 'I' for Inactive)
REMARK    1  A    between atoms: C8_8  and  N9_9 
ROOT
HETATM    1  C1  UNL     1     -33.760   3.879   4.115  1.00 20.00     0.158 C 
HETATM    2  N9  UNL     1     -34.155   4.874   3.631  1.00 20.00    -0.270 NA
HETATM    3  S10 UNL     1     -33.251   2.520   4.771  1.00 20.00    -0.055 SA
ENDROOT
BRANCH   2   4
HETATM    4  C8  UNL     1     -33.125   5.879   3.361  1.00 20.00     0.118 C 
HETATM    5  C5  UNL     1     -33.726   7.306   3.508  1.00 20.00     0.036 C 
HETATM    6  C6  UNL     1     -33.546   7.898   2.091  1.00 20.00     0.010 C 
HETATM    7  C2  UNL     1     -32.065   8.033   1.826  1.00 20.00    -0.026 C 
HETATM    8  C4  UNL     1     -33.832   6.672   1.221  1.00 20.00     0.019 C 
HETATM    9  C3  UNL     1     -31.570   6.794   1.687  1.00 20.00    -0.024 C 
HETATM   10  C7  UNL     1     -32.723   5.832   1.870  1.00 20.00     0.033 C 
ENDBRANCH   2   4
TORSDOF 1
ENDMDL
MODEL 5
REMARK VINA RESULT:       1.5      2.786      4.129
REMARK  1 active torsions:
REMARK  status: ('A' for Active; 'I' for Inactive)
REMARK    1  A    between atoms: C8_8  and  N9_9 
ROOT
HETATM    1  C1  UNL     1     -33.966   5.382   3.656  1.00 20.00     0.158 C 
HETATM    2  N9  UNL     1     -34.184   6.525   3.489  1.00 20.00    -0.270 NA
HETATM    3  S10 UNL     1     -33.682   3.836   3.910  1.00 20.00    -0.055 SA
ENDROOT
BRANCH   2   4
HETATM    4  C8  UNL     1     -33.730   7.056   2.202  1.00 20.00     0.118 C 
HETATM    5  C5  UNL     1     -32.529   6.219   1.676  1.00 20.00     0.036 C 
HETATM    6  C6  UNL     1     -31.392   7.264   1.606  1.00 20.00     0.010 C 
HETATM    7  C2  UNL     1     -31.757   8.281   0.550  1.00 20.00    -0.026 C 
HETATM    8  C4  UNL     1     -31.682   8.102   2.853  1.00 20.00     0.019 C 
HETATM    9  C3  UNL     1     -32.783   9.002   1.030  1.00 20.00    -0.024 C 
HETATM   10  C7  UNL     1     -33.106   8.456   2.402  1.00 20.00     0.033 C 
ENDBRANCH   2   4
TORSDOF 1
ENDMDL
MODEL 6
REMARK VINA RESULT:       1.7      0.790      1.393
REMARK  1 active torsions:
REMARK  status: ('A' for Active; 'I' for Inactive)
REMARK    1  A    between atoms: C8_8  and  N9_9 
ROOT
HETATM    1  C1  UNL     1     -32.271   8.860   1.137  1.00 20.00     0.158 C 
HETATM    2  N9  UNL     1     -32.221   8.072   2.007  1.00 20.00    -0.270 NA
HETATM    3  S10 UNL     1     -32.311   9.923  -0.048  1.00 20.00    -0.055 SA
ENDROOT
BRANCH   2   4
HETATM    4  C8  UNL     1     -33.468   7.900   2.755  1.00 20.00     0.118 C 
HETATM    5  C5  UNL     1     -33.153   7.564   4.241  1.00 20.00     0.036 C 
HETATM    6  C6  UNL     1     -33.788   6.166   4.414  1.00 20.00     0.010 C 
HETATM    7  C2  UNL     1     -35.285   6.311   4.269  1.00 20.00    -0.026 C 
HETATM    8  C4  UNL     1     -33.479   5.530   3.057  1.00 20.00     0.019 C 
HETATM    9  C3  UNL     1     -35.536   6.584   2.980  1.00 20.00    -0.024 C 
HETATM   10  C7  UNL     1     -34.202   6.631   2.268  1.00 20.00     0.033 C 
ENDBRANCH   2   4
TORSDOF 1
ENDMDL
MODEL 7
REMARK VINA RESULT:       1.9      0.782      1.774
REMARK  1 active torsions:
REMARK  status: ('A' for Active; 'I' for Inactive)
REMARK    1  A    between atoms: C8_8  and  N9_9 
ROOT
HETATM    1  C1  UNL     1     -32.339   8.673   0.932  1.00 20.00     0.158 C 
HETATM    2  N9  UNL     1     -32.237   7.547   1.254  1.00 20.00    -0.270 NA
HETATM    3  S10 UNL     1     -32.468  10.191   0.468  1.00 20.00    -0.055 SA
ENDROOT
BRANCH   2   4
HETATM    4  C8  UNL     1     -32.535   7.280   2.662  1.00 20.00     0.118 C 
HETATM    5  C5  UNL     1     -33.059   5.825   2.827  1.00 20.00     0.036 C 
HETATM    6  C6  UNL     1     -34.482   6.038   3.392  1.00 20.00     0.010 C 
HETATM    7  C2  UNL     1     -34.352   6.652   4.767  1.00 20.00    -0.026 C 
HETATM    8  C4  UNL     1     -34.924   7.283   2.618  1.00 20.00     0.019 C 
HETATM    9  C3  UNL     1     -33.914   7.910   4.601  1.00 20.00    -0.024 C 
HETATM   10  C7  UNL     1     -33.744   8.130   3.115  1.00 20.00     0.033 C 
ENDBRANCH   2   4
TORSDOF 1
ENDMDL
MODEL 8
REMARK VINA RESULT:       2.6      2.759      3.978
REMARK  1 active torsions:
REMARK  status: ('A' for Active; 'I' for Inactive)
REMARK    1  A    between atoms: C8_8  and  N9_9 
ROOT
HETATM    1  C1  UNL     1     -34.792   6.442   4.181  1.00 20.00     0.158 C 
HETATM    2  N9  UNL     1     -34.238   7.439   3.899  1.00 20.00    -0.270 NA
HETATM    3  S10 UNL     1     -35.565   5.107   4.574  1.00 20.00    -0.055 SA
ENDROOT
BRANCH   2   4
HETATM    4  C8  UNL     1     -32.911   7.261   3.307  1.00 20.00     0.118 C 
HETATM    5  C5  UNL     1     -32.367   8.628   2.803  1.00 20.00     0.036 C 
HETATM    6  C6  UNL     1     -32.200   8.387   1.285  1.00 20.00     0.010 C 
HETATM    7  C2  UNL     1     -31.120   7.348   1.093  1.00 20.00    -0.026 C 
HETATM    8  C4  UNL     1     -33.422   7.515   0.987  1.00 20.00     0.019 C 
HETATM    9  C3  UNL     1     -31.614   6.176   1.519  1.00 20.00    -0.024 C 
HETATM   10  C7  UNL     1     -33.022   6.437   2.005  1.00 20.00     0.033 C 
ENDBRANCH   2   4
TORSDOF 1
ENDMDL
MODEL 9
REMARK VINA RESULT:       2.8      3.352      4.173
REMARK  1 active torsions:
REMARK  status: ('A' for Active; 'I' for Inactive)
REMARK    1  A    between atoms: C8_8  and  N9_9 
ROOT
HETATM    1  C1  UNL     1     -33.803   3.585   4.422  1.00 20.00     0.158 C 
HETATM    2  N9  UNL     1     -34.644   4.271   3.973  1.00 20.00    -0.270 NA
HETATM    3  S10 UNL     1     -32.673   2.632   5.016  1.00 20.00    -0.055 SA
ENDROOT
BRANCH   2   4
HETATM    4  C8  UNL     1     -34.610   5.663   4.424  1.00 20.00     0.118 C 
HETATM    5  C5  UNL     1     -35.667   6.499   3.646  1.00 20.00     0.036 C 
HETATM    6  C6  UNL     1     -34.798   7.549   2.917  1.00 20.00     0.010 C 
HETATM    7  C2  UNL     1     -34.166   8.440   3.961  1.00 20.00    -0.026 C 
HETATM    8  C4  UNL     1     -33.571   6.713   2.546  1.00 20.00     0.019 C 
HETATM    9  C3  UNL     1     -33.249   7.705   4.609  1.00 20.00    -0.024 C 
HETATM   10  C7  UNL     1     -33.277   6.321   4.001  1.00 20.00     0.033 C 
ENDBRANCH   2   4
TORSDOF 1
ENDMDL
