MODEL 1
REMARK VINA RESULT:      -2.4      0.000      0.000
REMARK  3 active torsions:
REMARK  status: ('A' for Active; 'I' for Inactive)
REMARK    1  A    between atoms: C2_2  and  C5_5 
REMARK    2  A    between atoms: C2_2  and  O10_10 
REMARK    3  A    between atoms: C7_7  and  O10_10 
ROOT
HETATM    1  C1  UNL     1     -32.360   9.554   0.353  1.00 20.00     0.065 C 
HETATM    2  C3  UNL     1     -31.390   8.296   2.320  1.00 20.00     0.036 A 
HETATM    3  C4  UNL     1     -31.839   8.329   0.885  1.00 20.00     0.107 A 
HETATM    4  C5  UNL     1     -32.652   7.584   1.918  1.00 20.00     0.104 A 
HETATM    5  N8  UNL     1     -32.782  10.545  -0.079  1.00 20.00    -0.197 NA
ENDROOT
BRANCH   4   6
HETATM    6  C2  UNL     1     -32.670   6.116   1.890  1.00 20.00     0.264 C 
HETATM    7  O9  UNL     1     -31.964   5.436   1.157  1.00 20.00    -0.265 OA
BRANCH   6   8
HETATM    8  O10 UNL     1     -33.581   5.655   2.792  1.00 20.00    -0.322 OA
BRANCH   8   9
HETATM    9  C7  UNL     1     -34.238   6.658   3.573  1.00 20.00     0.174 C 
HETATM   10  C6  UNL     1     -35.490   6.067   4.184  1.00 20.00     0.034 C 
ENDBRANCH   8   9
ENDBRANCH   6   8
ENDBRANCH   4   6
TORSDOF 3
ENDMDL
MODEL 2
REMARK VINA RESULT:      -2.4      2.830      4.489
REMARK  3 active torsions:
REMARK  status: ('A' for Active; 'I' for Inactive)
REMARK    1  A    between atoms: C2_2  and  C5_5 
REMARK    2  A    between atoms: C2_2  and  O10_10 
REMARK    3  A    between atoms: C7_7  and  O10_10 
ROOT
HETATM    1  C1  UNL     1     -35.131   5.735   4.120  1.00 20.00     0.065 C 
HETATM    2  C3  UNL     1     -33.853   7.912   3.983  1.00 20.00     0.036 A 
HETATM    3  C4  UNL     1     -34.539   6.757   3.308  1.00 20.00     0.107 A 
HETATM    4  C5  UNL     1     -33.033   6.871   3.270  1.00 20.00     0.104 A 
HETATM    5  N8  UNL     1     -35.611   4.908   4.777  1.00 20.00    -0.197 NA
ENDROOT
BRANCH   4   6
HETATM    6  C2  UNL     1     -32.374   7.218   2.006  1.00 20.00     0.264 C 
HETATM    7  O9  UNL     1     -31.943   6.395   1.209  1.00 20.00    -0.265 OA
BRANCH   6   8
HETATM    8  O10 UNL     1     -32.325   8.573   1.874  1.00 20.00    -0.322 OA
BRANCH   8   9
HETATM    9  C7  UNL     1     -31.914   9.053   0.589  1.00 20.00     0.174 C 
HETATM   10  C6  UNL     1     -32.676  10.322   0.270  1.00 20.00     0.034 C 
ENDBRANCH   8   9
ENDBRANCH   6   8
ENDBRANCH   4   6
TORSDOF 3
ENDMDL
MODEL 3
REMARK VINA RESULT:      -2.1      2.360      3.389
REMARK  3 active torsions:
REMARK  status: ('A' for Active; 'I' for Inactive)
REMARK    1  A    between atoms: C2_2  and  C5_5 
REMARK    2  A    between atoms: C2_2  and  O10_10 
REMARK    3  A    between atoms: C7_7  and  O10_10 
ROOT
HETATM    1  C1  UNL     1     -32.545   7.819   2.372  1.00 20.00     0.065 C 
HETATM    2  C3  UNL     1     -34.400   7.646   4.081  1.00 20.00     0.036 A 
HETATM    3  C4  UNL     1     -33.116   7.131   3.493  1.00 20.00     0.107 A 
HETATM    4  C5  UNL     1     -34.402   6.364   3.294  1.00 20.00     0.104 A 
HETATM    5  N8  UNL     1     -32.082   8.375   1.466  1.00 20.00    -0.197 NA
ENDROOT
BRANCH   4   6
HETATM    6  C2  UNL     1     -34.591   5.090   3.997  1.00 20.00     0.264 C 
HETATM    7  O9  UNL     1     -35.541   4.845   4.729  1.00 20.00    -0.265 OA
BRANCH   6   8
HETATM    8  O10 UNL     1     -33.558   4.250   3.706  1.00 20.00    -0.322 OA
BRANCH   8   9
HETATM    9  C7  UNL     1     -33.548   3.013   4.425  1.00 20.00     0.174 C 
HETATM   10  C6  UNL     1     -32.615   3.138   5.610  1.00 20.00     0.034 C 
ENDBRANCH   8   9
ENDBRANCH   6   8
ENDBRANCH   4   6
TORSDOF 3
ENDMDL
MODEL 4
REMARK VINA RESULT:      -1.9      1.465      2.047
REMARK  3 active torsions:
REMARK  status: ('A' for Active; 'I' for Inactive)
REMARK    1  A    between atoms: C2_2  and  C5_5 
REMARK    2  A    between atoms: C2_2  and  O10_10 
REMARK    3  A    between atoms: C7_7  and  O10_10 
ROOT
HETATM    1  C1  UNL     1     -32.510   9.343   0.605  1.00 20.00     0.065 C 
HETATM    2  C3  UNL     1     -31.826   7.194   1.749  1.00 20.00     0.036 A 
HETATM    3  C4  UNL     1     -32.898   8.120   1.245  1.00 20.00     0.107 A 
HETATM    4  C5  UNL     1     -32.661   7.971   2.730  1.00 20.00     0.104 A 
HETATM    5  N8  UNL     1     -32.197  10.332   0.087  1.00 20.00    -0.197 NA
ENDROOT
BRANCH   4   6
HETATM    6  C2  UNL     1     -33.654   7.264   3.546  1.00 20.00     0.264 C 
HETATM    7  O9  UNL     1     -34.272   7.777   4.470  1.00 20.00    -0.265 OA
BRANCH   6   8
HETATM    8  O10 UNL     1     -33.768   5.978   3.113  1.00 20.00    -0.322 OA
BRANCH   8   9
HETATM    9  C7  UNL     1     -34.557   5.117   3.941  1.00 20.00     0.174 C 
HETATM   10  C6  UNL     1     -33.785   3.841   4.203  1.00 20.00     0.034 C 
ENDBRANCH   8   9
ENDBRANCH   6   8
ENDBRANCH   4   6
TORSDOF 3
ENDMDL
MODEL 5
REMARK VINA RESULT:      -1.7      2.688      4.389
REMARK  3 active torsions:
REMARK  status: ('A' for Active; 'I' for Inactive)
REMARK    1  A    between atoms: C2_2  and  C5_5 
REMARK    2  A    between atoms: C2_2  and  O10_10 
REMARK    3  A    between atoms: C7_7  and  O10_10 
ROOT
HETATM    1  C1  UNL     1     -34.491   6.278   3.587  1.00 20.00     0.065 C 
HETATM    2  C3  UNL     1     -32.898   5.899   1.661  1.00 20.00     0.036 A 
HETATM    3  C4  UNL     1     -33.181   6.449   3.031  1.00 20.00     0.107 A 
HETATM    4  C5  UNL     1     -33.008   7.386   1.858  1.00 20.00     0.104 A 
HETATM    5  N8  UNL     1     -35.551   6.140   4.037  1.00 20.00    -0.197 NA
ENDROOT
BRANCH   4   6
HETATM    6  C2  UNL     1     -31.798   8.213   1.775  1.00 20.00     0.264 C 
HETATM    7  O9  UNL     1     -31.117   8.529   2.742  1.00 20.00    -0.265 OA
BRANCH   6   8
HETATM    8  O10 UNL     1     -31.570   8.558   0.478  1.00 20.00    -0.322 OA
BRANCH   8   9
HETATM    9  C7  UNL     1     -32.602   9.330  -0.145  1.00 20.00     0.174 C 
HETATM   10  C6  UNL     1     -32.551  10.745   0.390  1.00 20.00     0.034 C 
ENDBRANCH   8   9
ENDBRANCH   6   8
ENDBRANCH   4   6
TORSDOF 3
ENDMDL
MODEL 6
REMARK VINA RESULT:      -1.6      3.334      4.965
REMARK  3 active torsions:
REMARK  status: ('A' for Active; 'I' for Inactive)
REMARK    1  A    between atoms: C2_2  and  C5_5 
REMARK    2  A    between atoms: C2_2  and  O10_10 
REMARK    3  A    between atoms: C7_7  and  O10_10 
ROOT
HETATM    1  C1  UNL     1     -33.607   3.623   4.378  1.00 20.00     0.065 C 
HETATM    2  C3  UNL     1     -34.700   5.850   3.892  1.00 20.00     0.036 A 
HETATM    3  C4  UNL     1     -34.035   4.590   3.411  1.00 20.00     0.107 A 
HETATM    4  C5  UNL     1     -33.304   5.910   3.333  1.00 20.00     0.104 A 
HETATM    5  N8  UNL     1     -33.260   2.840   5.161  1.00 20.00    -0.197 NA
ENDROOT
BRANCH   4   6
HETATM    6  C2  UNL     1     -33.083   6.528   2.021  1.00 20.00     0.264 C 
HETATM    7  O9  UNL     1     -33.108   5.915   0.962  1.00 20.00    -0.265 OA
BRANCH   6   8
HETATM    8  O10 UNL     1     -32.850   7.861   2.178  1.00 20.00    -0.322 OA
BRANCH   8   9
HETATM    9  C7  UNL     1     -31.804   8.404   1.365  1.00 20.00     0.174 C 
HETATM   10  C6  UNL     1     -32.374   9.506   0.498  1.00 20.00     0.034 C 
ENDBRANCH   8   9
ENDBRANCH   6   8
ENDBRANCH   4   6
TORSDOF 3
ENDMDL
MODEL 7
REMARK VINA RESULT:      -1.4      2.948      4.307
REMARK  3 active torsions:
REMARK  status: ('A' for Active; 'I' for Inactive)
REMARK    1  A    between atoms: C2_2  and  C5_5 
REMARK    2  A    between atoms: C2_2  and  O10_10 
REMARK    3  A    between atoms: C7_7  and  O10_10 
ROOT
HETATM    1  C1  UNL     1     -35.062   5.858   4.123  1.00 20.00     0.065 C 
HETATM    2  C3  UNL     1     -33.840   8.060   4.344  1.00 20.00     0.036 A 
HETATM    3  C4  UNL     1     -34.540   7.037   3.494  1.00 20.00     0.107 A 
HETATM    4  C5  UNL     1     -33.041   7.204   3.399  1.00 20.00     0.104 A 
HETATM    5  N8  UNL     1     -35.484   4.904   4.630  1.00 20.00    -0.197 NA
ENDROOT
BRANCH   4   6
HETATM    6  C2  UNL     1     -32.465   7.810   2.194  1.00 20.00     0.264 C 
HETATM    7  O9  UNL     1     -32.537   9.002   1.925  1.00 20.00    -0.265 OA
BRANCH   6   8
HETATM    8  O10 UNL     1     -31.854   6.848   1.447  1.00 20.00    -0.322 OA
BRANCH   8   9
HETATM    9  C7  UNL     1     -32.636   5.675   1.195  1.00 20.00     0.174 C 
HETATM   10  C6  UNL     1     -31.724   4.572   0.703  1.00 20.00     0.034 C 
ENDBRANCH   8   9
ENDBRANCH   6   8
ENDBRANCH   4   6
TORSDOF 3
ENDMDL
MODEL 8
REMARK VINA RESULT:      -1.3      3.324      5.145
REMARK  3 active torsions:
REMARK  status: ('A' for Active; 'I' for Inactive)
REMARK    1  A    between atoms: C2_2  and  C5_5 
REMARK    2  A    between atoms: C2_2  and  O10_10 
REMARK    3  A    between atoms: C7_7  and  O10_10 
ROOT
HETATM    1  C1  UNL     1     -33.682   3.665   4.264  1.00 20.00     0.065 C 
HETATM    2  C3  UNL     1     -35.397   5.521   4.350  1.00 20.00     0.036 A 
HETATM    3  C4  UNL     1     -34.287   4.803   3.635  1.00 20.00     0.107 A 
HETATM    4  C5  UNL     1     -34.045   6.171   4.227  1.00 20.00     0.104 A 
HETATM    5  N8  UNL     1     -33.193   2.744   4.772  1.00 20.00    -0.197 NA
ENDROOT
BRANCH   4   6
HETATM    6  C2  UNL     1     -33.881   7.320   3.329  1.00 20.00     0.264 C 
HETATM    7  O9  UNL     1     -34.435   8.400   3.488  1.00 20.00    -0.265 OA
BRANCH   6   8
HETATM    8  O10 UNL     1     -33.031   6.990   2.316  1.00 20.00    -0.322 OA
BRANCH   8   9
HETATM    9  C7  UNL     1     -31.922   7.875   2.129  1.00 20.00     0.174 C 
HETATM   10  C6  UNL     1     -32.193   8.758   0.930  1.00 20.00     0.034 C 
ENDBRANCH   8   9
ENDBRANCH   6   8
ENDBRANCH   4   6
TORSDOF 3
ENDMDL
MODEL 9
REMARK VINA RESULT:      -0.9      2.664      3.105
REMARK  3 active torsions:
REMARK  status: ('A' for Active; 'I' for Inactive)
REMARK    1  A    between atoms: C2_2  and  C5_5 
REMARK    2  A    between atoms: C2_2  and  O10_10 
REMARK    3  A    between atoms: C7_7  and  O10_10 
ROOT
HETATM    1  C1  UNL     1     -32.458   5.514   1.134  1.00 20.00     0.065 C 
HETATM    2  C3  UNL     1     -32.166   7.936   1.799  1.00 20.00     0.036 A 
HETATM    3  C4  UNL     1     -32.202   6.478   2.164  1.00 20.00     0.107 A 
HETATM    4  C5  UNL     1     -33.324   7.395   2.592  1.00 20.00     0.104 A 
HETATM    5  N8  UNL     1     -32.664   4.733   0.301  1.00 20.00    -0.197 NA
ENDROOT
BRANCH   4   6
HETATM    6  C2  UNL     1     -33.453   7.754   4.009  1.00 20.00     0.264 C 
HETATM    7  O9  UNL     1     -32.581   8.320   4.655  1.00 20.00    -0.265 OA
BRANCH   6   8
HETATM    8  O10 UNL     1     -34.673   7.360   4.470  1.00 20.00    -0.322 OA
BRANCH   8   9
HETATM    9  C7  UNL     1     -35.285   6.284   3.752  1.00 20.00     0.174 C 
HETATM   10  C6  UNL     1     -34.969   4.980   4.453  1.00 20.00     0.034 C 
ENDBRANCH   8   9
ENDBRANCH   6   8
ENDBRANCH   4   6
TORSDOF 3
ENDMDL
