MODEL 1
REMARK VINA RESULT:      -2.0      0.000      0.000
REMARK  0 active torsions:
REMARK  status: ('A' for Active; 'I' for Inactive)
ROOT
HETATM    1  C1  UNL     1     -32.886   8.006   3.920  1.00 20.00    -0.028 C 
HETATM    2  C2  UNL     1     -34.027   7.649   4.516  1.00 20.00    -0.023 C 
HETATM    3  C3  UNL     1     -34.101   4.525   3.946  1.00 20.00     0.259 C 
HETATM    4  C4  UNL     1     -32.750   7.394   2.564  1.00 20.00     0.060 C 
HETATM    5  C5  UNL     1     -35.242   5.436   4.286  1.00 20.00     0.122 C 
HETATM    6  C6  UNL     1     -34.853   6.748   3.645  1.00 20.00     0.047 C 
HETATM    7  C7  UNL     1     -33.867   6.349   2.557  1.00 20.00     0.143 C 
HETATM    8  O8  UNL     1     -33.896   3.433   4.453  1.00 20.00    -0.265 OA
HETATM    9  O9  UNL     1     -33.339   5.073   2.956  1.00 20.00    -0.315 OA
ENDROOT
TORSDOF 0
ENDMDL
MODEL 2
REMARK VINA RESULT:      -0.8      1.861      3.474
REMARK  0 active torsions:
REMARK  status: ('A' for Active; 'I' for Inactive)
ROOT
HETATM    1  C1  UNL     1     -35.118   6.671   3.750  1.00 20.00    -0.028 C 
HETATM    2  C2  UNL     1     -34.361   7.696   4.154  1.00 20.00    -0.023 C 
HETATM    3  C3  UNL     1     -32.373   8.034   1.700  1.00 20.00     0.259 C 
HETATM    4  C4  UNL     1     -34.295   5.565   3.173  1.00 20.00     0.060 C 
HETATM    5  C5  UNL     1     -32.190   8.492   3.116  1.00 20.00     0.122 C 
HETATM    6  C6  UNL     1     -32.900   7.434   3.926  1.00 20.00     0.047 C 
HETATM    7  C7  UNL     1     -32.922   6.220   3.010  1.00 20.00     0.143 C 
HETATM    8  O8  UNL     1     -32.150   8.709   0.706  1.00 20.00    -0.265 OA
HETATM    9  O9  UNL     1     -32.788   6.735   1.675  1.00 20.00    -0.315 OA
ENDROOT
TORSDOF 0
ENDMDL
MODEL 3
REMARK VINA RESULT:      -0.5      1.838      3.427
REMARK  0 active torsions:
REMARK  status: ('A' for Active; 'I' for Inactive)
ROOT
HETATM    1  C1  UNL     1     -34.250   4.534   4.435  1.00 20.00    -0.028 C 
HETATM    2  C2  UNL     1     -33.513   4.501   3.320  1.00 20.00    -0.023 C 
HETATM    3  C3  UNL     1     -32.724   7.558   2.976  1.00 20.00     0.259 C 
HETATM    4  C4  UNL     1     -35.231   5.661   4.420  1.00 20.00     0.060 C 
HETATM    5  C5  UNL     1     -32.750   6.481   1.934  1.00 20.00     0.122 C 
HETATM    6  C6  UNL     1     -33.894   5.595   2.366  1.00 20.00     0.047 C 
HETATM    7  C7  UNL     1     -34.756   6.501   3.232  1.00 20.00     0.143 C 
HETATM    8  O8  UNL     1     -31.817   8.359   3.140  1.00 20.00    -0.265 OA
HETATM    9  O9  UNL     1     -33.883   7.544   3.697  1.00 20.00    -0.315 OA
ENDROOT
TORSDOF 0
ENDMDL
MODEL 4
REMARK VINA RESULT:      -0.1      1.822      2.599
REMARK  0 active torsions:
REMARK  status: ('A' for Active; 'I' for Inactive)
ROOT
HETATM    1  C1  UNL     1     -32.428   7.186   1.033  1.00 20.00    -0.028 C 
HETATM    2  C2  UNL     1     -32.724   5.935   1.400  1.00 20.00    -0.023 C 
HETATM    3  C3  UNL     1     -34.904   6.423   3.657  1.00 20.00     0.259 C 
HETATM    4  C4  UNL     1     -32.232   8.080   2.214  1.00 20.00     0.060 C 
HETATM    5  C5  UNL     1     -34.046   5.213   3.438  1.00 20.00     0.122 C 
HETATM    6  C6  UNL     1     -32.759   5.784   2.892  1.00 20.00     0.047 C 
HETATM    7  C7  UNL     1     -32.765   7.229   3.369  1.00 20.00     0.143 C 
HETATM    8  O8  UNL     1     -36.106   6.405   3.877  1.00 20.00    -0.265 OA
HETATM    9  O9  UNL     1     -34.143   7.555   3.614  1.00 20.00    -0.315 OA
ENDROOT
TORSDOF 0
ENDMDL
MODEL 5
REMARK VINA RESULT:      -0.1      2.755      4.346
REMARK  0 active torsions:
REMARK  status: ('A' for Active; 'I' for Inactive)
ROOT
HETATM    1  C1  UNL     1     -33.863   6.501   2.828  1.00 20.00    -0.028 C 
HETATM    2  C2  UNL     1     -33.413   7.653   3.335  1.00 20.00    -0.023 C 
HETATM    3  C3  UNL     1     -32.413   9.160   0.724  1.00 20.00     0.259 C 
HETATM    4  C4  UNL     1     -32.912   5.921   1.833  1.00 20.00     0.060 C 
HETATM    5  C5  UNL     1     -32.010   9.399   2.148  1.00 20.00     0.122 C 
HETATM    6  C6  UNL     1     -32.073   8.025   2.771  1.00 20.00     0.047 C 
HETATM    7  C7  UNL     1     -31.939   7.077   1.589  1.00 20.00     0.143 C 
HETATM    8  O8  UNL     1     -32.712  10.029  -0.080  1.00 20.00    -0.265 OA
HETATM    9  O9  UNL     1     -32.359   7.827   0.437  1.00 20.00    -0.315 OA
ENDROOT
TORSDOF 0
ENDMDL
MODEL 6
REMARK VINA RESULT:       0.1      1.245      2.868
REMARK  0 active torsions:
REMARK  status: ('A' for Active; 'I' for Inactive)
ROOT
HETATM    1  C1  UNL     1     -35.682   6.257   3.964  1.00 20.00    -0.028 C 
HETATM    2  C2  UNL     1     -34.920   7.253   3.503  1.00 20.00    -0.023 C 
HETATM    3  C3  UNL     1     -32.915   5.701   1.591  1.00 20.00     0.259 C 
HETATM    4  C4  UNL     1     -34.865   5.077   4.380  1.00 20.00     0.060 C 
HETATM    5  C5  UNL     1     -32.737   7.044   2.232  1.00 20.00     0.122 C 
HETATM    6  C6  UNL     1     -33.461   6.907   3.551  1.00 20.00     0.047 C 
HETATM    7  C7  UNL     1     -33.486   5.408   3.804  1.00 20.00     0.143 C 
HETATM    8  O8  UNL     1     -32.682   5.441   0.420  1.00 20.00    -0.265 OA
HETATM    9  O9  UNL     1     -33.340   4.790   2.514  1.00 20.00    -0.315 OA
ENDROOT
TORSDOF 0
ENDMDL
MODEL 7
REMARK VINA RESULT:       0.5      1.996      3.210
REMARK  0 active torsions:
REMARK  status: ('A' for Active; 'I' for Inactive)
ROOT
HETATM    1  C1  UNL     1     -32.661   9.214   0.526  1.00 20.00    -0.028 C 
HETATM    2  C2  UNL     1     -32.724   7.900   0.291  1.00 20.00    -0.023 C 
HETATM    3  C3  UNL     1     -33.773   6.797   3.078  1.00 20.00     0.259 C 
HETATM    4  C4  UNL     1     -32.024   9.514   1.844  1.00 20.00     0.060 C 
HETATM    5  C5  UNL     1     -33.038   6.056   2.002  1.00 20.00     0.122 C 
HETATM    6  C6  UNL     1     -32.123   7.103   1.412  1.00 20.00     0.047 C 
HETATM    7  C7  UNL     1     -31.987   8.140   2.516  1.00 20.00     0.143 C 
HETATM    8  O8  UNL     1     -34.769   6.392   3.659  1.00 20.00    -0.265 OA
HETATM    9  O9  UNL     1     -33.147   7.978   3.350  1.00 20.00    -0.315 OA
ENDROOT
TORSDOF 0
ENDMDL
MODEL 8
REMARK VINA RESULT:       0.7      2.111      2.668
REMARK  0 active torsions:
REMARK  status: ('A' for Active; 'I' for Inactive)
ROOT
HETATM    1  C1  UNL     1     -33.198   7.705   4.222  1.00 20.00    -0.028 C 
HETATM    2  C2  UNL     1     -33.964   6.835   3.555  1.00 20.00    -0.023 C 
HETATM    3  C3  UNL     1     -31.911   5.666   1.432  1.00 20.00     0.259 C 
HETATM    4  C4  UNL     1     -32.373   8.541   3.299  1.00 20.00     0.060 C 
HETATM    5  C5  UNL     1     -33.409   5.675   1.371  1.00 20.00     0.122 C 
HETATM    6  C6  UNL     1     -33.785   6.960   2.070  1.00 20.00     0.047 C 
HETATM    7  C7  UNL     1     -32.536   7.820   1.960  1.00 20.00     0.143 C 
HETATM    8  O8  UNL     1     -31.200   4.704   1.184  1.00 20.00    -0.265 OA
HETATM    9  O9  UNL     1     -31.445   6.904   1.767  1.00 20.00    -0.315 OA
ENDROOT
TORSDOF 0
ENDMDL
MODEL 9
REMARK VINA RESULT:       0.8      2.063      3.344
REMARK  0 active torsions:
REMARK  status: ('A' for Active; 'I' for Inactive)
ROOT
HETATM    1  C1  UNL     1     -31.725   5.506   1.453  1.00 20.00    -0.028 C 
HETATM    2  C2  UNL     1     -31.352   6.780   1.611  1.00 20.00    -0.023 C 
HETATM    3  C3  UNL     1     -33.302   7.739   3.928  1.00 20.00     0.259 C 
HETATM    4  C4  UNL     1     -33.211   5.361   1.416  1.00 20.00     0.060 C 
HETATM    5  C5  UNL     1     -32.570   8.576   2.922  1.00 20.00     0.122 C 
HETATM    6  C6  UNL     1     -32.534   7.701   1.691  1.00 20.00     0.047 C 
HETATM    7  C7  UNL     1     -33.691   6.735   1.890  1.00 20.00     0.143 C 
HETATM    8  O8  UNL     1     -33.361   7.967   5.126  1.00 20.00    -0.265 OA
HETATM    9  O9  UNL     1     -33.933   6.700   3.307  1.00 20.00    -0.315 OA
ENDROOT
TORSDOF 0
ENDMDL
