MODEL 1
REMARK VINA RESULT:       4.2      0.000      0.000
REMARK  1 active torsions:
REMARK  status: ('A' for Active; 'I' for Inactive)
REMARK    1  A    between atoms: C9_9  and  C10_10 
ROOT
HETATM    1  C1  UNL     1     -32.443   5.817   1.822  1.00 20.00     0.015 C 
HETATM    2  C2  UNL     1     -33.422   7.504   3.461  1.00 20.00     0.015 C 
HETATM    3  C5  UNL     1     -33.561   4.804   2.039  1.00 20.00     0.074 C 
HETATM    4  C6  UNL     1     -34.617   6.626   3.808  1.00 20.00     0.074 C 
HETATM    5  C9  UNL     1     -32.892   7.270   2.038  1.00 20.00    -0.009 C 
HETATM    6  S11 UNL     1     -34.206   4.862   3.734  1.00 20.00    -0.169 SA
ENDROOT
BRANCH   5   7
HETATM    7  C10 UNL     1     -31.734   8.228   1.744  1.00 20.00    -0.009 C 
HETATM    8  C3  UNL     1     -31.331   8.199   0.261  1.00 20.00     0.015 C 
HETATM    9  C7  UNL     1     -32.357   8.803  -0.689  1.00 20.00     0.074 C 
HETATM   10  S12 UNL     1     -32.690  10.547  -0.312  1.00 20.00    -0.169 SA
HETATM   11  C8  UNL     1     -33.120  10.380   1.443  1.00 20.00     0.074 C 
HETATM   12  C4  UNL     1     -32.034   9.653   2.230  1.00 20.00     0.015 C 
ENDBRANCH   5   7
TORSDOF 1
ENDMDL
MODEL 2
REMARK VINA RESULT:       5.5      0.772      4.918
REMARK  1 active torsions:
REMARK  status: ('A' for Active; 'I' for Inactive)
REMARK    1  A    between atoms: C9_9  and  C10_10 
ROOT
HETATM    1  C1  UNL     1     -32.578   9.935   1.843  1.00 20.00     0.015 C 
HETATM    2  C2  UNL     1     -31.655   8.302   0.119  1.00 20.00     0.015 C 
HETATM    3  C5  UNL     1     -33.120  10.896   0.793  1.00 20.00     0.074 C 
HETATM    4  C6  UNL     1     -32.124   9.133  -1.069  1.00 20.00     0.074 C 
HETATM    5  C9  UNL     1     -32.537   8.476   1.365  1.00 20.00    -0.009 C 
HETATM    6  S11 UNL     1     -32.096  10.909  -0.705  1.00 20.00    -0.169 SA
ENDROOT
BRANCH   5   7
HETATM    7  C10 UNL     1     -32.039   7.566   2.492  1.00 20.00    -0.009 C 
HETATM    8  C3  UNL     1     -32.765   7.849   3.817  1.00 20.00     0.015 C 
HETATM    9  C7  UNL     1     -34.232   7.437   3.839  1.00 20.00     0.074 C 
HETATM   10  S12 UNL     1     -34.443   5.659   3.541  1.00 20.00    -0.169 SA
HETATM   11  C8  UNL     1     -33.524   5.522   1.983  1.00 20.00     0.074 C 
HETATM   12  C4  UNL     1     -32.110   6.083   2.103  1.00 20.00     0.015 C 
ENDBRANCH   5   7
TORSDOF 1
ENDMDL
