MODEL 1
REMARK VINA RESULT:      -0.4      0.000      0.000
REMARK  0 active torsions:
REMARK  status: ('A' for Active; 'I' for Inactive)
ROOT
HETATM    1  C1  UNL     1     -33.501   6.345   2.867  1.00 20.00     0.197 C 
HETATM    2  C2  UNL     1     -32.848   5.833   1.612  1.00 20.00     0.197 C 
HETATM    3  C3  UNL     1     -32.170   7.962   1.997  1.00 20.00     0.156 C 
HETATM    4  C4  UNL     1     -31.081   8.480   2.928  1.00 20.00     0.078 C 
HETATM    5  C5  UNL     1     -32.453   8.950   0.872  1.00 20.00     0.078 C 
HETATM    6  O6  UNL     1     -33.380   7.762   2.747  1.00 20.00    -0.354 OA
HETATM    7  O7  UNL     1     -31.738   6.713   1.435  1.00 20.00    -0.354 OA
ENDROOT
TORSDOF 0
ENDMDL
MODEL 2
REMARK VINA RESULT:      -0.3      0.030      2.008
REMARK  0 active torsions:
REMARK  status: ('A' for Active; 'I' for Inactive)
ROOT
HETATM    1  C1  UNL     1     -32.840   5.842   1.620  1.00 20.00     0.197 C 
HETATM    2  C2  UNL     1     -33.524   6.364   2.854  1.00 20.00     0.197 C 
HETATM    3  C3  UNL     1     -32.174   7.975   2.005  1.00 20.00     0.156 C 
HETATM    4  C4  UNL     1     -32.430   8.952   0.865  1.00 20.00     0.078 C 
HETATM    5  C5  UNL     1     -31.108   8.502   2.957  1.00 20.00     0.078 C 
HETATM    6  O6  UNL     1     -31.726   6.721   1.464  1.00 20.00    -0.354 OA
HETATM    7  O7  UNL     1     -33.401   7.780   2.726  1.00 20.00    -0.354 OA
ENDROOT
TORSDOF 0
ENDMDL
MODEL 3
REMARK VINA RESULT:      -0.1      1.556      3.186
REMARK  0 active torsions:
REMARK  status: ('A' for Active; 'I' for Inactive)
ROOT
HETATM    1  C1  UNL     1     -32.623   7.912   2.882  1.00 20.00     0.197 C 
HETATM    2  C2  UNL     1     -32.502   6.846   1.827  1.00 20.00     0.197 C 
HETATM    3  C3  UNL     1     -34.056   6.218   3.353  1.00 20.00     0.156 C 
HETATM    4  C4  UNL     1     -35.522   6.619   3.465  1.00 20.00     0.078 C 
HETATM    5  C5  UNL     1     -33.791   4.887   4.044  1.00 20.00     0.078 C 
HETATM    6  O6  UNL     1     -33.240   7.227   3.972  1.00 20.00    -0.354 OA
HETATM    7  O7  UNL     1     -33.715   6.108   1.962  1.00 20.00    -0.354 OA
ENDROOT
TORSDOF 0
ENDMDL
MODEL 4
REMARK VINA RESULT:      -0.1      1.551      3.206
REMARK  0 active torsions:
REMARK  status: ('A' for Active; 'I' for Inactive)
ROOT
HETATM    1  C1  UNL     1     -32.495   6.919   1.823  1.00 20.00     0.197 C 
HETATM    2  C2  UNL     1     -32.613   7.947   2.916  1.00 20.00     0.197 C 
HETATM    3  C3  UNL     1     -34.024   6.226   3.348  1.00 20.00     0.156 C 
HETATM    4  C4  UNL     1     -33.736   4.874   3.989  1.00 20.00     0.078 C 
HETATM    5  C5  UNL     1     -35.492   6.606   3.491  1.00 20.00     0.078 C 
HETATM    6  O6  UNL     1     -33.700   6.165   1.948  1.00 20.00    -0.354 OA
HETATM    7  O7  UNL     1     -33.210   7.221   3.989  1.00 20.00    -0.354 OA
ENDROOT
TORSDOF 0
ENDMDL
MODEL 5
REMARK VINA RESULT:       0.2      1.351      2.712
REMARK  0 active torsions:
REMARK  status: ('A' for Active; 'I' for Inactive)
ROOT
HETATM    1  C1  UNL     1     -33.722   7.245   3.336  1.00 20.00     0.197 C 
HETATM    2  C2  UNL     1     -32.486   7.960   2.863  1.00 20.00     0.197 C 
HETATM    3  C3  UNL     1     -32.811   6.108   1.597  1.00 20.00     0.156 C 
HETATM    4  C4  UNL     1     -33.732   5.901   0.401  1.00 20.00     0.078 C 
HETATM    5  C5  UNL     1     -31.656   5.114   1.586  1.00 20.00     0.078 C 
HETATM    6  O6  UNL     1     -33.560   5.927   2.810  1.00 20.00    -0.354 OA
HETATM    7  O7  UNL     1     -32.288   7.445   1.548  1.00 20.00    -0.354 OA
ENDROOT
TORSDOF 0
ENDMDL
MODEL 6
REMARK VINA RESULT:       0.3      1.327      2.587
REMARK  0 active torsions:
REMARK  status: ('A' for Active; 'I' for Inactive)
ROOT
HETATM    1  C1  UNL     1     -32.408   8.002   2.795  1.00 20.00     0.197 C 
HETATM    2  C2  UNL     1     -33.639   7.316   3.322  1.00 20.00     0.197 C 
HETATM    3  C3  UNL     1     -32.803   6.129   1.580  1.00 20.00     0.156 C 
HETATM    4  C4  UNL     1     -31.664   5.118   1.553  1.00 20.00     0.078 C 
HETATM    5  C5  UNL     1     -33.765   5.911   0.418  1.00 20.00     0.078 C 
HETATM    6  O6  UNL     1     -32.262   7.457   1.484  1.00 20.00    -0.354 OA
HETATM    7  O7  UNL     1     -33.515   5.986   2.819  1.00 20.00    -0.354 OA
ENDROOT
TORSDOF 0
ENDMDL
MODEL 7
REMARK VINA RESULT:       0.4      2.242      3.247
REMARK  0 active torsions:
REMARK  status: ('A' for Active; 'I' for Inactive)
ROOT
HETATM    1  C1  UNL     1     -34.361   4.466   4.136  1.00 20.00     0.197 C 
HETATM    2  C2  UNL     1     -35.494   5.424   4.381  1.00 20.00     0.197 C 
HETATM    3  C3  UNL     1     -33.811   6.508   3.317  1.00 20.00     0.156 C 
HETATM    4  C4  UNL     1     -33.466   6.543   1.833  1.00 20.00     0.078 C 
HETATM    5  C5  UNL     1     -33.259   7.728   4.043  1.00 20.00     0.078 C 
HETATM    6  O6  UNL     1     -33.245   5.327   3.908  1.00 20.00    -0.354 OA
HETATM    7  O7  UNL     1     -35.241   6.480   3.455  1.00 20.00    -0.354 OA
ENDROOT
TORSDOF 0
ENDMDL
MODEL 8
REMARK VINA RESULT:       0.4      2.304      2.854
REMARK  0 active torsions:
REMARK  status: ('A' for Active; 'I' for Inactive)
ROOT
HETATM    1  C1  UNL     1     -35.506   5.318   4.432  1.00 20.00     0.197 C 
HETATM    2  C2  UNL     1     -34.336   4.413   4.157  1.00 20.00     0.197 C 
HETATM    3  C3  UNL     1     -33.875   6.492   3.380  1.00 20.00     0.156 C 
HETATM    4  C4  UNL     1     -33.367   7.716   4.131  1.00 20.00     0.078 C 
HETATM    5  C5  UNL     1     -33.543   6.575   1.896  1.00 20.00     0.078 C 
HETATM    6  O6  UNL     1     -35.302   6.403   3.527  1.00 20.00    -0.354 OA
HETATM    7  O7  UNL     1     -33.258   5.322   3.941  1.00 20.00    -0.354 OA
ENDROOT
TORSDOF 0
ENDMDL
MODEL 9
REMARK VINA RESULT:       0.7      2.230      3.157
REMARK  0 active torsions:
REMARK  status: ('A' for Active; 'I' for Inactive)
ROOT
HETATM    1  C1  UNL     1     -33.074   5.740   1.865  1.00 20.00     0.197 C 
HETATM    2  C2  UNL     1     -32.976   4.892   3.104  1.00 20.00     0.197 C 
HETATM    3  C3  UNL     1     -34.276   6.700   3.532  1.00 20.00     0.156 C 
HETATM    4  C4  UNL     1     -35.750   6.929   3.224  1.00 20.00     0.078 C 
HETATM    5  C5  UNL     1     -33.807   7.583   4.682  1.00 20.00     0.078 C 
HETATM    6  O6  UNL     1     -33.493   7.009   2.367  1.00 20.00    -0.354 OA
HETATM    7  O7  UNL     1     -34.090   5.320   3.886  1.00 20.00    -0.354 OA
ENDROOT
TORSDOF 0
ENDMDL
