MODEL 1
REMARK VINA RESULT:       0.3      0.000      0.000
REMARK  0 active torsions:
REMARK  status: ('A' for Active; 'I' for Inactive)
ROOT
HETATM    1  C1  UNL     1     -35.270   6.561   4.307  1.00 20.00     0.000 C 
HETATM    2  C2  UNL     1     -34.936   5.190   3.973  1.00 20.00     0.017 C 
HETATM    3  C3  UNL     1     -34.415   7.563   4.033  1.00 20.00     0.010 C 
HETATM    4  C4  UNL     1     -33.871   4.951   3.192  1.00 20.00     0.092 C 
HETATM    5  C5  UNL     1     -31.930   7.206   1.143  1.00 20.00     0.072 C 
HETATM    6  C6  UNL     1     -32.277   5.977   1.571  1.00 20.00     0.015 C 
HETATM    7  C7  UNL     1     -33.068   7.281   3.426  1.00 20.00     0.178 C 
HETATM    8  C8  UNL     1     -31.924   4.720   0.845  1.00 20.00     0.069 C 
HETATM    9  N9  UNL     1     -33.042   5.965   2.743  1.00 20.00    -0.343 N 
HETATM   10  S10 UNL     1     -32.559   8.489   2.145  1.00 20.00    -0.110 SA
ENDROOT
TORSDOF 0
ENDMDL
MODEL 2
REMARK VINA RESULT:       1.3      1.132      3.376
REMARK  0 active torsions:
REMARK  status: ('A' for Active; 'I' for Inactive)
ROOT
HETATM    1  C1  UNL     1     -31.429   6.452   1.138  1.00 20.00     0.000 C 
HETATM    2  C2  UNL     1     -32.478   5.455   1.051  1.00 20.00     0.017 C 
HETATM    3  C3  UNL     1     -31.612   7.580   1.849  1.00 20.00     0.010 C 
HETATM    4  C4  UNL     1     -33.544   5.558   1.859  1.00 20.00     0.092 C 
HETATM    5  C5  UNL     1     -34.052   7.595   4.799  1.00 20.00     0.072 C 
HETATM    6  C6  UNL     1     -34.409   6.617   3.945  1.00 20.00     0.015 C 
HETATM    7  C7  UNL     1     -32.926   7.861   2.524  1.00 20.00     0.178 C 
HETATM    8  C8  UNL     1     -35.434   5.578   4.263  1.00 20.00     0.069 C 
HETATM    9  N9  UNL     1     -33.708   6.619   2.734  1.00 20.00    -0.343 N 
HETATM   10  S10 UNL     1     -32.766   8.607   4.190  1.00 20.00    -0.110 SA
ENDROOT
TORSDOF 0
ENDMDL
MODEL 3
REMARK VINA RESULT:       1.4      2.058      4.230
REMARK  0 active torsions:
REMARK  status: ('A' for Active; 'I' for Inactive)
ROOT
HETATM    1  C1  UNL     1     -32.114   9.600  -0.077  1.00 20.00     0.000 C 
HETATM    2  C2  UNL     1     -32.743  10.257   1.052  1.00 20.00     0.017 C 
HETATM    3  C3  UNL     1     -31.645   8.344   0.034  1.00 20.00     0.010 C 
HETATM    4  C4  UNL     1     -33.053   9.532   2.138  1.00 20.00     0.092 C 
HETATM    5  C5  UNL     1     -33.200   5.951   2.585  1.00 20.00     0.072 C 
HETATM    6  C6  UNL     1     -33.412   7.216   2.992  1.00 20.00     0.015 C 
HETATM    7  C7  UNL     1     -31.710   7.610   1.344  1.00 20.00     0.178 C 
HETATM    8  C8  UNL     1     -34.324   7.579   4.118  1.00 20.00     0.069 C 
HETATM    9  N9  UNL     1     -32.738   8.188   2.243  1.00 20.00    -0.343 N 
HETATM   10  S10 UNL     1     -32.158   5.840   1.188  1.00 20.00    -0.110 SA
ENDROOT
TORSDOF 0
ENDMDL
MODEL 4
REMARK VINA RESULT:       1.4      1.489      2.503
REMARK  0 active torsions:
REMARK  status: ('A' for Active; 'I' for Inactive)
ROOT
HETATM    1  C1  UNL     1     -34.615   5.145   4.285  1.00 20.00     0.000 C 
HETATM    2  C2  UNL     1     -34.931   6.559   4.340  1.00 20.00     0.017 C 
HETATM    3  C3  UNL     1     -33.917   4.637   3.252  1.00 20.00     0.010 C 
HETATM    4  C4  UNL     1     -34.337   7.394   3.473  1.00 20.00     0.092 C 
HETATM    5  C5  UNL     1     -31.486   6.872   1.317  1.00 20.00     0.072 C 
HETATM    6  C6  UNL     1     -32.421   7.648   1.896  1.00 20.00     0.015 C 
HETATM    7  C7  UNL     1     -33.496   5.511   2.103  1.00 20.00     0.178 C 
HETATM    8  C8  UNL     1     -32.335   9.138   1.956  1.00 20.00     0.069 C 
HETATM    9  N9  UNL     1     -33.476   6.943   2.486  1.00 20.00    -0.343 N 
HETATM   10  S10 UNL     1     -31.807   5.164   1.482  1.00 20.00    -0.110 SA
ENDROOT
TORSDOF 0
ENDMDL
MODEL 5
REMARK VINA RESULT:       1.4      1.205      3.294
REMARK  0 active torsions:
REMARK  status: ('A' for Active; 'I' for Inactive)
ROOT
HETATM    1  C1  UNL     1     -31.462   7.461   1.284  1.00 20.00     0.000 C 
HETATM    2  C2  UNL     1     -31.651   6.039   1.075  1.00 20.00     0.017 C 
HETATM    3  C3  UNL     1     -32.362   8.178   1.982  1.00 20.00     0.010 C 
HETATM    4  C4  UNL     1     -32.610   5.401   1.764  1.00 20.00     0.092 C 
HETATM    5  C5  UNL     1     -34.504   6.463   4.651  1.00 20.00     0.072 C 
HETATM    6  C6  UNL     1     -34.107   5.540   3.754  1.00 20.00     0.015 C 
HETATM    7  C7  UNL     1     -33.613   7.536   2.514  1.00 20.00     0.178 C 
HETATM    8  C8  UNL     1     -34.283   4.069   3.950  1.00 20.00     0.069 C 
HETATM    9  N9  UNL     1     -33.466   6.065   2.626  1.00 20.00    -0.343 N 
HETATM   10  S10 UNL     1     -34.083   8.094   4.195  1.00 20.00    -0.110 SA
ENDROOT
TORSDOF 0
ENDMDL
MODEL 6
REMARK VINA RESULT:       2.3      1.770      2.828
REMARK  0 active torsions:
REMARK  status: ('A' for Active; 'I' for Inactive)
ROOT
HETATM    1  C1  UNL     1     -32.734   8.633   4.502  1.00 20.00     0.000 C 
HETATM    2  C2  UNL     1     -32.040   8.699   3.231  1.00 20.00     0.017 C 
HETATM    3  C3  UNL     1     -33.733   7.753   4.693  1.00 20.00     0.010 C 
HETATM    4  C4  UNL     1     -32.248   7.733   2.323  1.00 20.00     0.092 C 
HETATM    5  C5  UNL     1     -33.810   4.495   2.684  1.00 20.00     0.072 C 
HETATM    6  C6  UNL     1     -33.104   5.413   1.996  1.00 20.00     0.015 C 
HETATM    7  C7  UNL     1     -34.193   6.854   3.578  1.00 20.00     0.178 C 
HETATM    8  C8  UNL     1     -32.294   5.092   0.783  1.00 20.00     0.069 C 
HETATM    9  N9  UNL     1     -33.151   6.704   2.534  1.00 20.00    -0.343 N 
HETATM   10  S10 UNL     1     -34.582   5.144   4.109  1.00 20.00    -0.110 SA
ENDROOT
TORSDOF 0
ENDMDL
MODEL 7
REMARK VINA RESULT:       2.5      1.639      4.062
REMARK  0 active torsions:
REMARK  status: ('A' for Active; 'I' for Inactive)
ROOT
HETATM    1  C1  UNL     1     -32.065   6.499   0.712  1.00 20.00     0.000 C 
HETATM    2  C2  UNL     1     -31.797   7.780   1.334  1.00 20.00     0.017 C 
HETATM    3  C3  UNL     1     -32.637   5.502   1.413  1.00 20.00     0.010 C 
HETATM    4  C4  UNL     1     -32.320   8.041   2.542  1.00 20.00     0.092 C 
HETATM    5  C5  UNL     1     -34.914   6.324   4.378  1.00 20.00     0.072 C 
HETATM    6  C6  UNL     1     -34.066   7.352   4.184  1.00 20.00     0.015 C 
HETATM    7  C7  UNL     1     -32.960   5.673   2.871  1.00 20.00     0.178 C 
HETATM    8  C8  UNL     1     -34.199   8.672   4.870  1.00 20.00     0.069 C 
HETATM    9  N9  UNL     1     -33.059   7.104   3.244  1.00 20.00    -0.343 N 
HETATM   10  S10 UNL     1     -34.564   4.941   3.371  1.00 20.00    -0.110 SA
ENDROOT
TORSDOF 0
ENDMDL
MODEL 8
REMARK VINA RESULT:       2.9      1.148      2.972
REMARK  0 active torsions:
REMARK  status: ('A' for Active; 'I' for Inactive)
ROOT
HETATM    1  C1  UNL     1     -33.222   4.099   2.412  1.00 20.00     0.000 C 
HETATM    2  C2  UNL     1     -34.050   4.360   3.573  1.00 20.00     0.017 C 
HETATM    3  C3  UNL     1     -32.803   5.107   1.626  1.00 20.00     0.010 C 
HETATM    4  C4  UNL     1     -34.212   5.627   3.985  1.00 20.00     0.092 C 
HETATM    5  C5  UNL     1     -32.395   8.619   3.094  1.00 20.00     0.072 C 
HETATM    6  C6  UNL     1     -33.287   7.939   3.837  1.00 20.00     0.015 C 
HETATM    7  C7  UNL     1     -33.227   6.524   1.898  1.00 20.00     0.178 C 
HETATM    8  C8  UNL     1     -33.810   8.426   5.150  1.00 20.00     0.069 C 
HETATM    9  N9  UNL     1     -33.665   6.701   3.304  1.00 20.00    -0.343 N 
HETATM   10  S10 UNL     1     -31.898   7.761   1.656  1.00 20.00    -0.110 SA
ENDROOT
TORSDOF 0
ENDMDL
