MODEL 1
REMARK VINA RESULT:       0.1      0.000      0.000
REMARK  0 active torsions:
REMARK  status: ('A' for Active; 'I' for Inactive)
ROOT
HETATM    1  C1  UNL     1     -35.492   5.905   4.269  1.00 20.00     0.006 C 
HETATM    2  C2  UNL     1     -34.419   4.823   4.402  1.00 20.00     0.006 C 
HETATM    3  C3  UNL     1     -35.120   6.723   3.036  1.00 20.00     0.068 C 
HETATM    4  C4  UNL     1     -33.444   5.048   3.249  1.00 20.00     0.068 C 
HETATM    5  C5  UNL     1     -32.231   8.301   3.026  1.00 20.00     0.197 C 
HETATM    6  C6  UNL     1     -31.985   7.562   1.738  1.00 20.00     0.197 C 
HETATM    7  C7  UNL     1     -33.617   6.520   2.894  1.00 20.00     0.164 C 
HETATM    8  O8  UNL     1     -32.906   7.338   3.834  1.00 20.00    -0.353 OA
HETATM    9  O9  UNL     1     -33.179   6.799   1.566  1.00 20.00    -0.353 OA
ENDROOT
TORSDOF 0
ENDMDL
MODEL 2
REMARK VINA RESULT:       0.1      1.329      3.423
REMARK  0 active torsions:
REMARK  status: ('A' for Active; 'I' for Inactive)
ROOT
HETATM    1  C1  UNL     1     -32.303   7.191   1.605  1.00 20.00     0.006 C 
HETATM    2  C2  UNL     1     -32.100   7.971   2.905  1.00 20.00     0.006 C 
HETATM    3  C3  UNL     1     -33.687   6.557   1.702  1.00 20.00     0.068 C 
HETATM    4  C4  UNL     1     -33.367   7.759   3.730  1.00 20.00     0.068 C 
HETATM    5  C5  UNL     1     -34.256   4.421   4.142  1.00 20.00     0.197 C 
HETATM    6  C6  UNL     1     -35.419   5.317   4.473  1.00 20.00     0.197 C 
HETATM    7  C7  UNL     1     -33.945   6.453   3.200  1.00 20.00     0.164 C 
HETATM    8  O8  UNL     1     -33.233   5.340   3.759  1.00 20.00    -0.353 OA
HETATM    9  O9  UNL     1     -35.339   6.339   3.480  1.00 20.00    -0.353 OA
ENDROOT
TORSDOF 0
ENDMDL
MODEL 3
REMARK VINA RESULT:       0.5      1.644      2.377
REMARK  0 active torsions:
REMARK  status: ('A' for Active; 'I' for Inactive)
ROOT
HETATM    1  C1  UNL     1     -34.432   6.782   3.445  1.00 20.00     0.006 C 
HETATM    2  C2  UNL     1     -33.801   7.788   4.410  1.00 20.00     0.006 C 
HETATM    3  C3  UNL     1     -33.413   6.568   2.329  1.00 20.00     0.068 C 
HETATM    4  C4  UNL     1     -32.437   8.142   3.823  1.00 20.00     0.068 C 
HETATM    5  C5  UNL     1     -32.540   9.161   0.498  1.00 20.00     0.197 C 
HETATM    6  C6  UNL     1     -31.135   8.792   0.888  1.00 20.00     0.197 C 
HETATM    7  C7  UNL     1     -32.581   7.844   2.335  1.00 20.00     0.164 C 
HETATM    8  O8  UNL     1     -33.288   8.912   1.688  1.00 20.00    -0.353 OA
HETATM    9  O9  UNL     1     -31.314   7.640   1.711  1.00 20.00    -0.353 OA
ENDROOT
TORSDOF 0
ENDMDL
MODEL 4
REMARK VINA RESULT:       0.5      0.720      1.946
REMARK  0 active torsions:
REMARK  status: ('A' for Active; 'I' for Inactive)
ROOT
HETATM    1  C1  UNL     1     -34.671   4.896   4.196  1.00 20.00     0.006 C 
HETATM    2  C2  UNL     1     -35.638   6.045   3.903  1.00 20.00     0.006 C 
HETATM    3  C3  UNL     1     -33.267   5.484   4.084  1.00 20.00     0.068 C 
HETATM    4  C4  UNL     1     -34.770   7.268   3.614  1.00 20.00     0.068 C 
HETATM    5  C5  UNL     1     -32.332   6.743   1.189  1.00 20.00     0.197 C 
HETATM    6  C6  UNL     1     -32.022   7.984   1.982  1.00 20.00     0.197 C 
HETATM    7  C7  UNL     1     -33.439   6.683   3.160  1.00 20.00     0.164 C 
HETATM    8  O8  UNL     1     -33.531   6.258   1.793  1.00 20.00    -0.353 OA
HETATM    9  O9  UNL     1     -32.370   7.616   3.316  1.00 20.00    -0.353 OA
ENDROOT
TORSDOF 0
ENDMDL
MODEL 5
REMARK VINA RESULT:       0.8      1.253      3.366
REMARK  0 active torsions:
REMARK  status: ('A' for Active; 'I' for Inactive)
ROOT
HETATM    1  C1  UNL     1     -32.287   8.281   2.334  1.00 20.00     0.006 C 
HETATM    2  C2  UNL     1     -32.471   7.286   1.187  1.00 20.00     0.006 C 
HETATM    3  C3  UNL     1     -32.601   7.514   3.615  1.00 20.00     0.068 C 
HETATM    4  C4  UNL     1     -32.898   5.969   1.831  1.00 20.00     0.068 C 
HETATM    5  C5  UNL     1     -35.620   6.253   3.979  1.00 20.00     0.197 C 
HETATM    6  C6  UNL     1     -34.901   4.953   4.215  1.00 20.00     0.197 C 
HETATM    7  C7  UNL     1     -33.517   6.386   3.159  1.00 20.00     0.164 C 
HETATM    8  O8  UNL     1     -34.850   6.872   2.948  1.00 20.00    -0.353 OA
HETATM    9  O9  UNL     1     -33.525   5.312   4.099  1.00 20.00    -0.353 OA
ENDROOT
TORSDOF 0
ENDMDL
MODEL 6
REMARK VINA RESULT:       1.3      1.566      2.377
REMARK  0 active torsions:
REMARK  status: ('A' for Active; 'I' for Inactive)
ROOT
HETATM    1  C1  UNL     1     -35.213   6.189   4.122  1.00 20.00     0.006 C 
HETATM    2  C2  UNL     1     -34.532   7.554   3.990  1.00 20.00     0.006 C 
HETATM    3  C3  UNL     1     -34.216   5.165   3.588  1.00 20.00     0.068 C 
HETATM    4  C4  UNL     1     -33.162   7.286   3.370  1.00 20.00     0.068 C 
HETATM    5  C5  UNL     1     -33.265   5.405   0.446  1.00 20.00     0.197 C 
HETATM    6  C6  UNL     1     -31.871   5.418   1.010  1.00 20.00     0.197 C 
HETATM    7  C7  UNL     1     -33.336   5.963   2.636  1.00 20.00     0.164 C 
HETATM    8  O8  UNL     1     -34.008   6.180   1.387  1.00 20.00    -0.353 OA
HETATM    9  O9  UNL     1     -32.085   5.311   2.416  1.00 20.00    -0.353 OA
ENDROOT
TORSDOF 0
ENDMDL
MODEL 7
REMARK VINA RESULT:       1.3      2.152      3.455
REMARK  0 active torsions:
REMARK  status: ('A' for Active; 'I' for Inactive)
ROOT
HETATM    1  C1  UNL     1     -31.971   5.916   1.548  1.00 20.00     0.006 C 
HETATM    2  C2  UNL     1     -33.321   6.212   2.205  1.00 20.00     0.006 C 
HETATM    3  C3  UNL     1     -31.255   7.258   1.428  1.00 20.00     0.068 C 
HETATM    4  C4  UNL     1     -33.358   7.720   2.438  1.00 20.00     0.068 C 
HETATM    5  C5  UNL     1     -32.656   9.616  -0.392  1.00 20.00     0.197 C 
HETATM    6  C6  UNL     1     -32.529  10.460   0.847  1.00 20.00     0.197 C 
HETATM    7  C7  UNL     1     -32.382   8.282   1.412  1.00 20.00     0.164 C 
HETATM    8  O8  UNL     1     -33.003   8.330   0.120  1.00 20.00    -0.353 OA
HETATM    9  O9  UNL     1     -31.912   9.577   1.783  1.00 20.00    -0.353 OA
ENDROOT
TORSDOF 0
ENDMDL
MODEL 8
REMARK VINA RESULT:       1.6      1.946      2.950
REMARK  0 active torsions:
REMARK  status: ('A' for Active; 'I' for Inactive)
ROOT
HETATM    1  C1  UNL     1     -33.144   4.988   0.270  1.00 20.00     0.006 C 
HETATM    2  C2  UNL     1     -31.838   4.837   1.054  1.00 20.00     0.006 C 
HETATM    3  C3  UNL     1     -33.798   6.269   0.780  1.00 20.00     0.068 C 
HETATM    4  C4  UNL     1     -31.774   6.027   2.007  1.00 20.00     0.068 C 
HETATM    5  C5  UNL     1     -34.623   6.440   3.962  1.00 20.00     0.197 C 
HETATM    6  C6  UNL     1     -33.797   7.698   3.969  1.00 20.00     0.197 C 
HETATM    7  C7  UNL     1     -33.229   6.446   2.181  1.00 20.00     0.164 C 
HETATM    8  O8  UNL     1     -33.884   5.567   3.107  1.00 20.00    -0.353 OA
HETATM    9  O9  UNL     1     -33.342   7.798   2.621  1.00 20.00    -0.353 OA
ENDROOT
TORSDOF 0
ENDMDL
MODEL 9
REMARK VINA RESULT:       1.8      1.694      2.945
REMARK  0 active torsions:
REMARK  status: ('A' for Active; 'I' for Inactive)
ROOT
HETATM    1  C1  UNL     1     -32.264   8.371   3.175  1.00 20.00     0.006 C 
HETATM    2  C2  UNL     1     -33.311   7.559   3.940  1.00 20.00     0.006 C 
HETATM    3  C3  UNL     1     -32.366   7.928   1.718  1.00 20.00     0.068 C 
HETATM    4  C4  UNL     1     -33.984   6.656   2.910  1.00 20.00     0.068 C 
HETATM    5  C5  UNL     1     -31.767   4.771   1.004  1.00 20.00     0.197 C 
HETATM    6  C6  UNL     1     -33.122   4.803   0.350  1.00 20.00     0.197 C 
HETATM    7  C7  UNL     1     -32.953   6.525   1.796  1.00 20.00     0.164 C 
HETATM    8  O8  UNL     1     -31.946   5.575   2.169  1.00 20.00    -0.353 OA
HETATM    9  O9  UNL     1     -33.556   6.146   0.559  1.00 20.00    -0.353 OA
ENDROOT
TORSDOF 0
ENDMDL
