MODEL 1
REMARK VINA RESULT:      -1.2      0.000      0.000
REMARK  0 active torsions:
REMARK  status: ('A' for Active; 'I' for Inactive)
ROOT
HETATM    1  C1  UNL     1     -34.711   6.948   3.432  1.00 20.00     0.038 A 
HETATM    2  C2  UNL     1     -33.048   5.220   3.253  1.00 20.00     0.058 A 
HETATM    3  C3  UNL     1     -35.462   6.071   4.199  1.00 20.00     0.119 A 
HETATM    4  C4  UNL     1     -33.482   6.507   2.955  1.00 20.00     0.015 A 
HETATM    5  C5  UNL     1     -33.874   4.420   4.027  1.00 20.00     0.104 A 
HETATM    6  N6  UNL     1     -35.073   4.814   4.509  1.00 20.00    -0.254 NA
HETATM    7 BR7  UNL     1     -32.407   7.652   1.906  1.00 20.00    -0.051 Br
HETATM    8 BR8  UNL     1     -33.301   2.659   4.448  1.00 20.00    -0.029 Br
ENDROOT
TORSDOF 0
ENDMDL
MODEL 2
REMARK VINA RESULT:      -0.7      1.023      3.308
REMARK  0 active torsions:
REMARK  status: ('A' for Active; 'I' for Inactive)
ROOT
HETATM    1  C1  UNL     1     -35.051   5.019   4.446  1.00 20.00     0.038 A 
HETATM    2  C2  UNL     1     -33.011   5.294   3.203  1.00 20.00     0.058 A 
HETATM    3  C3  UNL     1     -35.386   6.313   4.080  1.00 20.00     0.119 A 
HETATM    4  C4  UNL     1     -33.841   4.507   3.994  1.00 20.00     0.015 A 
HETATM    5  C5  UNL     1     -33.437   6.576   2.892  1.00 20.00     0.104 A 
HETATM    6  N6  UNL     1     -34.607   7.107   3.312  1.00 20.00    -0.254 NA
HETATM    7 BR7  UNL     1     -33.324   2.750   4.455  1.00 20.00    -0.051 Br
HETATM    8 BR8  UNL     1     -32.321   7.668   1.811  1.00 20.00    -0.029 Br
ENDROOT
TORSDOF 0
ENDMDL
MODEL 3
REMARK VINA RESULT:      -0.2      2.706      3.269
REMARK  0 active torsions:
REMARK  status: ('A' for Active; 'I' for Inactive)
ROOT
HETATM    1  C1  UNL     1     -31.715   7.106   1.468  1.00 20.00     0.038 A 
HETATM    2  C2  UNL     1     -33.351   5.555   2.304  1.00 20.00     0.058 A 
HETATM    3  C3  UNL     1     -32.279   8.064   2.295  1.00 20.00     0.119 A 
HETATM    4  C4  UNL     1     -32.266   5.831   1.479  1.00 20.00     0.015 A 
HETATM    5  C5  UNL     1     -33.842   6.582   3.094  1.00 20.00     0.104 A 
HETATM    6  N6  UNL     1     -33.332   7.834   3.111  1.00 20.00    -0.254 NA
HETATM    7 BR7  UNL     1     -31.544   4.477   0.377  1.00 20.00    -0.051 Br
HETATM    8 BR8  UNL     1     -35.322   6.228   4.230  1.00 20.00    -0.029 Br
ENDROOT
TORSDOF 0
ENDMDL
MODEL 4
REMARK VINA RESULT:      -0.2      2.878      3.498
REMARK  0 active torsions:
REMARK  status: ('A' for Active; 'I' for Inactive)
ROOT
HETATM    1  C1  UNL     1     -33.317   7.825   3.118  1.00 20.00     0.038 A 
HETATM    2  C2  UNL     1     -33.357   5.553   2.330  1.00 20.00     0.058 A 
HETATM    3  C3  UNL     1     -32.234   8.040   2.280  1.00 20.00     0.119 A 
HETATM    4  C4  UNL     1     -33.884   6.556   3.137  1.00 20.00     0.015 A 
HETATM    5  C5  UNL     1     -32.273   5.870   1.527  1.00 20.00     0.104 A 
HETATM    6  N6  UNL     1     -31.696   7.091   1.482  1.00 20.00    -0.254 NA
HETATM    7 BR7  UNL     1     -35.363   6.196   4.254  1.00 20.00    -0.051 Br
HETATM    8 BR8  UNL     1     -31.538   4.516   0.416  1.00 20.00    -0.029 Br
ENDROOT
TORSDOF 0
ENDMDL
MODEL 5
REMARK VINA RESULT:       0.0      2.309      3.053
REMARK  0 active torsions:
REMARK  status: ('A' for Active; 'I' for Inactive)
ROOT
HETATM    1  C1  UNL     1     -31.861   6.614   1.119  1.00 20.00     0.038 A 
HETATM    2  C2  UNL     1     -33.498   7.642   2.548  1.00 20.00     0.058 A 
HETATM    3  C3  UNL     1     -32.263   5.390   1.629  1.00 20.00     0.119 A 
HETATM    4  C4  UNL     1     -32.496   7.756   1.591  1.00 20.00     0.015 A 
HETATM    5  C5  UNL     1     -33.827   6.372   2.995  1.00 20.00     0.104 A 
HETATM    6  N6  UNL     1     -33.233   5.240   2.558  1.00 20.00    -0.254 NA
HETATM    7 BR7  UNL     1     -31.999   9.457   0.937  1.00 20.00    -0.051 Br
HETATM    8 BR8  UNL     1     -35.194   6.192   4.300  1.00 20.00    -0.029 Br
ENDROOT
TORSDOF 0
ENDMDL
MODEL 6
REMARK VINA RESULT:       0.2      2.666      4.379
REMARK  0 active torsions:
REMARK  status: ('A' for Active; 'I' for Inactive)
ROOT
HETATM    1  C1  UNL     1     -33.111   5.289   2.488  1.00 20.00     0.038 A 
HETATM    2  C2  UNL     1     -33.476   7.665   2.512  1.00 20.00     0.058 A 
HETATM    3  C3  UNL     1     -32.110   5.506   1.554  1.00 20.00     0.119 A 
HETATM    4  C4  UNL     1     -33.801   6.394   2.972  1.00 20.00     0.015 A 
HETATM    5  C5  UNL     1     -32.459   7.777   1.577  1.00 20.00     0.104 A 
HETATM    6  N6  UNL     1     -31.766   6.727   1.085  1.00 20.00    -0.254 NA
HETATM    7 BR7  UNL     1     -35.175   6.168   4.248  1.00 20.00    -0.051 Br
HETATM    8 BR8  UNL     1     -31.998   9.504   0.937  1.00 20.00    -0.029 Br
ENDROOT
TORSDOF 0
ENDMDL
MODEL 7
REMARK VINA RESULT:       1.0      2.712      3.302
REMARK  0 active torsions:
REMARK  status: ('A' for Active; 'I' for Inactive)
ROOT
HETATM    1  C1  UNL     1     -32.424   6.405   1.048  1.00 20.00     0.038 A 
HETATM    2  C2  UNL     1     -32.639   8.224   2.607  1.00 20.00     0.058 A 
HETATM    3  C3  UNL     1     -33.109   5.615   1.957  1.00 20.00     0.119 A 
HETATM    4  C4  UNL     1     -32.189   7.733   1.386  1.00 20.00     0.015 A 
HETATM    5  C5  UNL     1     -33.315   7.352   3.446  1.00 20.00     0.104 A 
HETATM    6  N6  UNL     1     -33.561   6.057   3.152  1.00 20.00    -0.254 NA
HETATM    7 BR7  UNL     1     -31.263   8.865   0.191  1.00 20.00    -0.051 Br
HETATM    8 BR8  UNL     1     -33.939   8.001   5.118  1.00 20.00    -0.029 Br
ENDROOT
TORSDOF 0
ENDMDL
MODEL 8
REMARK VINA RESULT:       1.2      2.942      4.189
REMARK  0 active torsions:
REMARK  status: ('A' for Active; 'I' for Inactive)
ROOT
HETATM    1  C1  UNL     1     -33.552   6.085   3.122  1.00 20.00     0.038 A 
HETATM    2  C2  UNL     1     -32.627   8.250   2.631  1.00 20.00     0.058 A 
HETATM    3  C3  UNL     1     -33.093   5.667   1.883  1.00 20.00     0.119 A 
HETATM    4  C4  UNL     1     -33.310   7.402   3.496  1.00 20.00     0.015 A 
HETATM    5  C5  UNL     1     -32.209   7.735   1.414  1.00 20.00     0.104 A 
HETATM    6  N6  UNL     1     -32.426   6.462   1.017  1.00 20.00    -0.254 NA
HETATM    7 BR7  UNL     1     -33.906   8.036   5.172  1.00 20.00    -0.051 Br
HETATM    8 BR8  UNL     1     -31.274   8.875   0.217  1.00 20.00    -0.029 Br
ENDROOT
TORSDOF 0
ENDMDL
MODEL 9
REMARK VINA RESULT:       1.3      2.802      4.138
REMARK  0 active torsions:
REMARK  status: ('A' for Active; 'I' for Inactive)
ROOT
HETATM    1  C1  UNL     1     -33.475   7.775   4.808  1.00 20.00     0.038 A 
HETATM    2  C2  UNL     1     -33.441   7.165   2.482  1.00 20.00     0.058 A 
HETATM    3  C3  UNL     1     -32.403   8.615   4.548  1.00 20.00     0.119 A 
HETATM    4  C4  UNL     1     -33.999   7.041   3.750  1.00 20.00     0.015 A 
HETATM    5  C5  UNL     1     -32.371   8.032   2.327  1.00 20.00     0.104 A 
HETATM    6  N6  UNL     1     -31.836   8.762   3.330  1.00 20.00    -0.254 NA
HETATM    7 BR7  UNL     1     -35.461   5.880   4.034  1.00 20.00    -0.051 Br
HETATM    8 BR8  UNL     1     -31.594   8.218   0.604  1.00 20.00    -0.029 Br
ENDROOT
TORSDOF 0
ENDMDL
