MODEL 1
REMARK VINA RESULT:      -0.3      0.000      0.000
REMARK  0 active torsions:
REMARK  status: ('A' for Active; 'I' for Inactive)
ROOT
HETATM    1  C1  UNL     1     -32.826   8.311   2.715  1.00 20.00     0.089 A 
HETATM    2  C2  UNL     1     -32.277   6.201   1.538  1.00 20.00     0.089 A 
HETATM    3  C3  UNL     1     -33.550   7.241   3.177  1.00 20.00     0.109 A 
HETATM    4  C4  UNL     1     -33.216   6.031   2.525  1.00 20.00     0.109 A 
HETATM    5  C5  UNL     1     -35.290   6.163   4.215  1.00 20.00     0.202 C 
HETATM    6  C6  UNL     1     -34.454   4.887   4.080  1.00 20.00     0.202 C 
HETATM    7  O7  UNL     1     -34.469   7.343   4.166  1.00 20.00    -0.346 OA
HETATM    8  O8  UNL     1     -33.770   4.831   2.818  1.00 20.00    -0.346 OA
HETATM    9  S9  UNL     1     -31.769   7.841   1.444  1.00 20.00    -0.108 SA
ENDROOT
TORSDOF 0
ENDMDL
MODEL 2
REMARK VINA RESULT:      -0.3      0.123      2.064
REMARK  0 active torsions:
REMARK  status: ('A' for Active; 'I' for Inactive)
ROOT
HETATM    1  C1  UNL     1     -32.281   6.058   1.610  1.00 20.00     0.089 A 
HETATM    2  C2  UNL     1     -32.858   8.203   2.710  1.00 20.00     0.089 A 
HETATM    3  C3  UNL     1     -33.236   5.915   2.585  1.00 20.00     0.109 A 
HETATM    4  C4  UNL     1     -33.587   7.144   3.193  1.00 20.00     0.109 A 
HETATM    5  C5  UNL     1     -34.498   4.816   4.155  1.00 20.00     0.202 C 
HETATM    6  C6  UNL     1     -35.340   6.094   4.233  1.00 20.00     0.202 C 
HETATM    7  O7  UNL     1     -33.790   4.723   2.906  1.00 20.00    -0.346 OA
HETATM    8  O8  UNL     1     -34.523   7.273   4.162  1.00 20.00    -0.346 OA
HETATM    9  S9  UNL     1     -31.776   7.696   1.473  1.00 20.00    -0.108 SA
ENDROOT
TORSDOF 0
ENDMDL
MODEL 3
REMARK VINA RESULT:       0.3      2.092      3.127
REMARK  0 active torsions:
REMARK  status: ('A' for Active; 'I' for Inactive)
ROOT
HETATM    1  C1  UNL     1     -34.501   7.360   4.058  1.00 20.00     0.089 A 
HETATM    2  C2  UNL     1     -34.168   5.022   3.308  1.00 20.00     0.089 A 
HETATM    3  C3  UNL     1     -33.521   7.243   3.105  1.00 20.00     0.109 A 
HETATM    4  C4  UNL     1     -33.351   5.911   2.655  1.00 20.00     0.109 A 
HETATM    5  C5  UNL     1     -31.659   7.849   1.910  1.00 20.00     0.202 C 
HETATM    6  C6  UNL     1     -31.997   6.685   0.974  1.00 20.00     0.202 C 
HETATM    7  O7  UNL     1     -32.815   8.299   2.638  1.00 20.00    -0.346 OA
HETATM    8  O8  UNL     1     -32.467   5.539   1.701  1.00 20.00    -0.346 OA
HETATM    9  S9  UNL     1     -35.181   5.828   4.440  1.00 20.00    -0.108 SA
ENDROOT
TORSDOF 0
ENDMDL
MODEL 4
REMARK VINA RESULT:       0.3      2.093      3.704
REMARK  0 active torsions:
REMARK  status: ('A' for Active; 'I' for Inactive)
ROOT
HETATM    1  C1  UNL     1     -34.179   5.036   3.293  1.00 20.00     0.089 A 
HETATM    2  C2  UNL     1     -34.485   7.370   4.066  1.00 20.00     0.089 A 
HETATM    3  C3  UNL     1     -33.355   5.923   2.646  1.00 20.00     0.109 A 
HETATM    4  C4  UNL     1     -33.509   7.252   3.108  1.00 20.00     0.109 A 
HETATM    5  C5  UNL     1     -31.997   6.700   0.967  1.00 20.00     0.202 C 
HETATM    6  C6  UNL     1     -31.645   7.851   1.914  1.00 20.00     0.202 C 
HETATM    7  O7  UNL     1     -32.478   5.549   1.685  1.00 20.00    -0.346 OA
HETATM    8  O8  UNL     1     -32.793   8.304   2.649  1.00 20.00    -0.346 OA
HETATM    9  S9  UNL     1     -35.179   5.841   4.435  1.00 20.00    -0.108 SA
ENDROOT
TORSDOF 0
ENDMDL
MODEL 5
REMARK VINA RESULT:       2.1      2.103      3.642
REMARK  0 active torsions:
REMARK  status: ('A' for Active; 'I' for Inactive)
ROOT
HETATM    1  C1  UNL     1     -33.216   4.680   2.358  1.00 20.00     0.089 A 
HETATM    2  C2  UNL     1     -34.353   6.036   4.092  1.00 20.00     0.089 A 
HETATM    3  C3  UNL     1     -32.891   6.012   2.288  1.00 20.00     0.109 A 
HETATM    4  C4  UNL     1     -33.519   6.781   3.297  1.00 20.00     0.109 A 
HETATM    5  C5  UNL     1     -32.146   7.953   1.317  1.00 20.00     0.202 C 
HETATM    6  C6  UNL     1     -32.190   8.560   2.723  1.00 20.00     0.202 C 
HETATM    7  O7  UNL     1     -32.044   6.518   1.362  1.00 20.00    -0.346 OA
HETATM    8  O8  UNL     1     -33.340   8.113   3.459  1.00 20.00    -0.346 OA
HETATM    9  S9  UNL     1     -34.330   4.380   3.631  1.00 20.00    -0.108 SA
ENDROOT
TORSDOF 0
ENDMDL
