MODEL 1
REMARK VINA RESULT:      -0.3      0.000      0.000
REMARK  0 active torsions:
REMARK  status: ('A' for Active; 'I' for Inactive)
ROOT
HETATM    1  C1  UNL     1     -32.480   6.378   1.823  1.00 20.00     0.226 C 
HETATM    2  C2  UNL     1     -33.765   8.043   2.948  1.00 20.00     0.043 C 
HETATM    3  C3  UNL     1     -33.946   6.700   3.648  1.00 20.00     0.081 C 
HETATM    4  C4  UNL     1     -32.465   7.870   2.136  1.00 20.00     0.035 C 
HETATM    5  C5  UNL     1     -35.399   6.370   3.938  1.00 20.00     0.032 C 
HETATM    6  C6  UNL     1     -31.227   8.193   2.979  1.00 20.00     0.025 C 
HETATM    7  C7  UNL     1     -32.478   8.707   0.860  1.00 20.00     0.025 C 
HETATM    8  N8  UNL     1     -33.342   5.770   2.730  1.00 20.00    -0.356 N 
HETATM    9  O9  UNL     1     -31.817   5.823   0.959  1.00 20.00    -0.273 OA
HETATM   10  H22 UNL     1     -33.526   4.772   2.743  1.00 20.00     0.162 HD
ENDROOT
TORSDOF 0
ENDMDL
MODEL 2
REMARK VINA RESULT:       0.0      2.091      3.604
REMARK  0 active torsions:
REMARK  status: ('A' for Active; 'I' for Inactive)
ROOT
HETATM    1  C1  UNL     1     -33.386   7.619   4.063  1.00 20.00     0.226 C 
HETATM    2  C2  UNL     1     -33.616   6.748   1.855  1.00 20.00     0.043 C 
HETATM    3  C3  UNL     1     -32.250   7.411   2.001  1.00 20.00     0.081 C 
HETATM    4  C4  UNL     1     -34.060   6.479   3.307  1.00 20.00     0.035 C 
HETATM    5  C5  UNL     1     -31.914   8.347   0.854  1.00 20.00     0.032 C 
HETATM    6  C6  UNL     1     -33.517   5.144   3.825  1.00 20.00     0.025 C 
HETATM    7  C7  UNL     1     -35.578   6.535   3.454  1.00 20.00     0.025 C 
HETATM    8  N8  UNL     1     -32.356   8.101   3.261  1.00 20.00    -0.356 N 
HETATM    9  O9  UNL     1     -33.677   8.001   5.187  1.00 20.00    -0.273 OA
HETATM   10  H22 UNL     1     -31.743   8.861   3.537  1.00 20.00     0.162 HD
ENDROOT
TORSDOF 0
ENDMDL
MODEL 3
REMARK VINA RESULT:       0.1      1.535      2.511
REMARK  0 active torsions:
REMARK  status: ('A' for Active; 'I' for Inactive)
ROOT
HETATM    1  C1  UNL     1     -32.176   7.432   1.721  1.00 20.00     0.226 C 
HETATM    2  C2  UNL     1     -33.521   5.871   2.925  1.00 20.00     0.043 C 
HETATM    3  C3  UNL     1     -33.965   7.292   3.260  1.00 20.00     0.081 C 
HETATM    4  C4  UNL     1     -32.749   6.024   1.599  1.00 20.00     0.035 C 
HETATM    5  C5  UNL     1     -34.128   7.529   4.751  1.00 20.00     0.032 C 
HETATM    6  C6  UNL     1     -33.687   5.968   0.389  1.00 20.00     0.025 C 
HETATM    7  C7  UNL     1     -31.640   4.983   1.466  1.00 20.00     0.025 C 
HETATM    8  N8  UNL     1     -32.924   8.103   2.684  1.00 20.00    -0.356 N 
HETATM    9  O9  UNL     1     -31.258   7.891   1.058  1.00 20.00    -0.273 OA
HETATM   10  H22 UNL     1     -32.753   9.067   2.953  1.00 20.00     0.162 HD
ENDROOT
TORSDOF 0
ENDMDL
MODEL 4
REMARK VINA RESULT:       0.6      2.078      3.018
REMARK  0 active torsions:
REMARK  status: ('A' for Active; 'I' for Inactive)
ROOT
HETATM    1  C1  UNL     1     -33.586   5.926   2.615  1.00 20.00     0.226 C 
HETATM    2  C2  UNL     1     -34.807   5.026   4.457  1.00 20.00     0.043 C 
HETATM    3  C3  UNL     1     -33.449   4.337   4.360  1.00 20.00     0.081 C 
HETATM    4  C4  UNL     1     -34.622   6.332   3.658  1.00 20.00     0.035 C 
HETATM    5  C5  UNL     1     -33.540   2.824   4.453  1.00 20.00     0.032 C 
HETATM    6  C6  UNL     1     -34.043   7.450   4.531  1.00 20.00     0.025 C 
HETATM    7  C7  UNL     1     -35.924   6.784   3.002  1.00 20.00     0.025 C 
HETATM    8  N8  UNL     1     -32.948   4.781   3.085  1.00 20.00    -0.356 N 
HETATM    9  O9  UNL     1     -33.339   6.528   1.581  1.00 20.00    -0.273 OA
HETATM   10  H22 UNL     1     -32.206   4.309   2.579  1.00 20.00     0.162 HD
ENDROOT
TORSDOF 0
ENDMDL
MODEL 5
REMARK VINA RESULT:       0.6      2.167      3.519
REMARK  0 active torsions:
REMARK  status: ('A' for Active; 'I' for Inactive)
ROOT
HETATM    1  C1  UNL     1     -34.222   5.190   3.760  1.00 20.00     0.226 C 
HETATM    2  C2  UNL     1     -33.284   7.025   2.558  1.00 20.00     0.043 C 
HETATM    3  C3  UNL     1     -33.172   5.755   1.719  1.00 20.00     0.081 C 
HETATM    4  C4  UNL     1     -34.383   6.697   3.589  1.00 20.00     0.035 C 
HETATM    5  C5  UNL     1     -31.790   5.554   1.123  1.00 20.00     0.032 C 
HETATM    6  C6  UNL     1     -35.781   6.993   3.037  1.00 20.00     0.025 C 
HETATM    7  C7  UNL     1     -34.160   7.433   4.907  1.00 20.00     0.025 C 
HETATM    8  N8  UNL     1     -33.527   4.716   2.652  1.00 20.00    -0.356 N 
HETATM    9  O9  UNL     1     -34.666   4.524   4.684  1.00 20.00    -0.273 OA
HETATM   10  H22 UNL     1     -33.293   3.738   2.515  1.00 20.00     0.162 HD
ENDROOT
TORSDOF 0
ENDMDL
MODEL 6
REMARK VINA RESULT:       0.7      1.743      2.865
REMARK  0 active torsions:
REMARK  status: ('A' for Active; 'I' for Inactive)
ROOT
HETATM    1  C1  UNL     1     -33.366   7.340   2.972  1.00 20.00     0.226 C 
HETATM    2  C2  UNL     1     -31.495   7.023   1.526  1.00 20.00     0.043 C 
HETATM    3  C3  UNL     1     -32.579   6.006   1.186  1.00 20.00     0.081 C 
HETATM    4  C4  UNL     1     -32.245   8.126   2.300  1.00 20.00     0.035 C 
HETATM    5  C5  UNL     1     -32.048   4.590   1.048  1.00 20.00     0.032 C 
HETATM    6  C6  UNL     1     -32.858   9.163   1.353  1.00 20.00     0.025 C 
HETATM    7  C7  UNL     1     -31.348   8.805   3.331  1.00 20.00     0.025 C 
HETATM    8  N8  UNL     1     -33.508   6.141   2.279  1.00 20.00    -0.356 N 
HETATM    9  O9  UNL     1     -34.040   7.722   3.917  1.00 20.00    -0.273 OA
HETATM   10  H22 UNL     1     -34.195   5.435   2.520  1.00 20.00     0.162 HD
ENDROOT
TORSDOF 0
ENDMDL
MODEL 7
REMARK VINA RESULT:       0.7      2.331      3.026
REMARK  0 active torsions:
REMARK  status: ('A' for Active; 'I' for Inactive)
ROOT
HETATM    1  C1  UNL     1     -34.131   6.601   3.451  1.00 20.00     0.226 C 
HETATM    2  C2  UNL     1     -32.732   4.813   2.719  1.00 20.00     0.043 C 
HETATM    3  C3  UNL     1     -33.881   4.253   3.553  1.00 20.00     0.081 C 
HETATM    4  C4  UNL     1     -33.227   6.207   2.287  1.00 20.00     0.035 C 
HETATM    5  C5  UNL     1     -33.425   3.260   4.607  1.00 20.00     0.032 C 
HETATM    6  C6  UNL     1     -34.063   6.137   1.005  1.00 20.00     0.025 C 
HETATM    7  C7  UNL     1     -32.073   7.192   2.121  1.00 20.00     0.025 C 
HETATM    8  N8  UNL     1     -34.472   5.434   4.127  1.00 20.00    -0.356 N 
HETATM    9  O9  UNL     1     -34.515   7.733   3.706  1.00 20.00    -0.273 OA
HETATM   10  H22 UNL     1     -35.076   5.417   4.943  1.00 20.00     0.162 HD
ENDROOT
TORSDOF 0
ENDMDL
MODEL 8
REMARK VINA RESULT:       0.9      1.866      2.267
REMARK  0 active torsions:
REMARK  status: ('A' for Active; 'I' for Inactive)
ROOT
HETATM    1  C1  UNL     1     -32.353   8.249   3.472  1.00 20.00     0.226 C 
HETATM    2  C2  UNL     1     -33.523   6.622   2.179  1.00 20.00     0.043 C 
HETATM    3  C3  UNL     1     -34.427   7.129   3.298  1.00 20.00     0.081 C 
HETATM    4  C4  UNL     1     -32.441   7.713   2.048  1.00 20.00     0.035 C 
HETATM    5  C5  UNL     1     -35.119   6.012   4.059  1.00 20.00     0.032 C 
HETATM    6  C6  UNL     1     -32.888   8.842   1.114  1.00 20.00     0.025 C 
HETATM    7  C7  UNL     1     -31.106   7.134   1.588  1.00 20.00     0.025 C 
HETATM    8  N8  UNL     1     -33.525   7.885   4.129  1.00 20.00    -0.356 N 
HETATM    9  O9  UNL     1     -31.435   8.915   3.930  1.00 20.00    -0.273 OA
HETATM   10  H22 UNL     1     -33.723   8.127   5.094  1.00 20.00     0.162 HD
ENDROOT
TORSDOF 0
ENDMDL
MODEL 9
REMARK VINA RESULT:       1.0      1.826      3.240
REMARK  0 active torsions:
REMARK  status: ('A' for Active; 'I' for Inactive)
ROOT
HETATM    1  C1  UNL     1     -33.352   6.528   2.598  1.00 20.00     0.226 C 
HETATM    2  C2  UNL     1     -32.259   7.170   0.578  1.00 20.00     0.043 C 
HETATM    3  C3  UNL     1     -31.989   8.214   1.658  1.00 20.00     0.081 C 
HETATM    4  C4  UNL     1     -32.691   5.918   1.367  1.00 20.00     0.035 C 
HETATM    5  C5  UNL     1     -32.207   9.638   1.180  1.00 20.00     0.032 C 
HETATM    6  C6  UNL     1     -31.483   5.084   1.807  1.00 20.00     0.025 C 
HETATM    7  C7  UNL     1     -33.674   5.061   0.575  1.00 20.00     0.025 C 
HETATM    8  N8  UNL     1     -32.900   7.839   2.708  1.00 20.00    -0.356 N 
HETATM    9  O9  UNL     1     -34.105   5.947   3.367  1.00 20.00    -0.273 OA
HETATM   10  H22 UNL     1     -33.185   8.467   3.452  1.00 20.00     0.162 HD
ENDROOT
TORSDOF 0
ENDMDL
