MODEL 1
REMARK VINA RESULT:      -2.4      0.000      0.000
REMARK  4 active torsions:
REMARK  status: ('A' for Active; 'I' for Inactive)
REMARK    1  A    between atoms: C1_1  and  C5_5 
REMARK    2  A    between atoms: C1_1  and  O9_9 
REMARK    3  A    between atoms: C5_5  and  C6_6 
REMARK    4  A    between atoms: C7_7  and  O9_9 
ROOT
HETATM    1  C1  UNL     1     -32.702   6.683   1.768  1.00 20.00     0.259 C 
HETATM    2  O8  UNL     1     -32.557   5.497   1.503  1.00 20.00    -0.265 OA
ENDROOT
BRANCH   1   3
HETATM    3  C5  UNL     1     -31.721   7.780   1.418  1.00 20.00     0.111 C 
BRANCH   3   4
HETATM    4  C6  UNL     1     -32.392   9.149   1.358  1.00 20.00     0.005 C 
HETATM    5  C2  UNL     1     -32.391   9.711  -0.054  1.00 20.00     0.005 C 
ENDBRANCH   3   4
ENDBRANCH   1   3
BRANCH   1   6
HETATM    6  O9  UNL     1     -33.765   7.233   2.424  1.00 20.00    -0.317 OA
BRANCH   6   7
HETATM    7  C7  UNL     1     -33.942   6.805   3.778  1.00 20.00     0.123 C 
HETATM    8  C3  UNL     1     -33.716   7.985   4.711  1.00 20.00     0.040 C 
HETATM    9  C4  UNL     1     -35.335   6.214   3.938  1.00 20.00     0.040 C 
ENDBRANCH   6   7
ENDBRANCH   1   6
TORSDOF 4
ENDMDL
MODEL 2
REMARK VINA RESULT:      -2.3      1.082      1.310
REMARK  4 active torsions:
REMARK  status: ('A' for Active; 'I' for Inactive)
REMARK    1  A    between atoms: C1_1  and  C5_5 
REMARK    2  A    between atoms: C1_1  and  O9_9 
REMARK    3  A    between atoms: C5_5  and  C6_6 
REMARK    4  A    between atoms: C7_7  and  O9_9 
ROOT
HETATM    1  C1  UNL     1     -32.503   6.371   1.766  1.00 20.00     0.259 C 
HETATM    2  O8  UNL     1     -31.677   5.581   1.331  1.00 20.00    -0.265 OA
ENDROOT
BRANCH   1   3
HETATM    3  C5  UNL     1     -32.274   7.852   1.965  1.00 20.00     0.111 C 
BRANCH   3   4
HETATM    4  C6  UNL     1     -31.748   8.524   0.700  1.00 20.00     0.005 C 
HETATM    5  C2  UNL     1     -32.490   9.817   0.405  1.00 20.00     0.005 C 
ENDBRANCH   3   4
ENDBRANCH   1   3
BRANCH   1   6
HETATM    6  O9  UNL     1     -33.777   6.065   2.152  1.00 20.00    -0.317 OA
BRANCH   6   7
HETATM    7  C7  UNL     1     -33.965   5.868   3.557  1.00 20.00     0.123 C 
HETATM    8  C3  UNL     1     -35.246   6.561   3.993  1.00 20.00     0.040 C 
HETATM    9  C4  UNL     1     -33.999   4.376   3.853  1.00 20.00     0.040 C 
ENDBRANCH   6   7
ENDBRANCH   1   6
TORSDOF 4
ENDMDL
MODEL 3
REMARK VINA RESULT:      -2.2      0.714      1.386
REMARK  4 active torsions:
REMARK  status: ('A' for Active; 'I' for Inactive)
REMARK    1  A    between atoms: C1_1  and  C5_5 
REMARK    2  A    between atoms: C1_1  and  O9_9 
REMARK    3  A    between atoms: C5_5  and  C6_6 
REMARK    4  A    between atoms: C7_7  and  O9_9 
ROOT
HETATM    1  C1  UNL     1     -32.740   6.686   1.881  1.00 20.00     0.259 C 
HETATM    2  O8  UNL     1     -32.926   5.961   0.914  1.00 20.00    -0.265 OA
ENDROOT
BRANCH   1   3
HETATM    3  C5  UNL     1     -32.045   8.029   1.843  1.00 20.00     0.111 C 
BRANCH   3   4
HETATM    4  C6  UNL     1     -32.009   8.614   0.434  1.00 20.00     0.005 C 
HETATM    5  C2  UNL     1     -32.512  10.049   0.412  1.00 20.00     0.005 C 
ENDBRANCH   3   4
ENDBRANCH   1   3
BRANCH   1   6
HETATM    6  O9  UNL     1     -33.120   6.422   3.165  1.00 20.00    -0.317 OA
BRANCH   6   7
HETATM    7  C7  UNL     1     -34.228   7.187   3.650  1.00 20.00     0.123 C 
HETATM    8  C3  UNL     1     -35.375   6.247   3.990  1.00 20.00     0.040 C 
HETATM    9  C4  UNL     1     -33.784   8.000   4.858  1.00 20.00     0.040 C 
ENDBRANCH   6   7
ENDBRANCH   1   6
TORSDOF 4
ENDMDL
MODEL 4
REMARK VINA RESULT:      -2.1      2.071      4.592
REMARK  4 active torsions:
REMARK  status: ('A' for Active; 'I' for Inactive)
REMARK    1  A    between atoms: C1_1  and  C5_5 
REMARK    2  A    between atoms: C1_1  and  O9_9 
REMARK    3  A    between atoms: C5_5  and  C6_6 
REMARK    4  A    between atoms: C7_7  and  O9_9 
ROOT
HETATM    1  C1  UNL     1     -34.719   6.055   3.746  1.00 20.00     0.259 C 
HETATM    2  O8  UNL     1     -35.726   6.670   3.423  1.00 20.00    -0.265 OA
ENDROOT
BRANCH   1   3
HETATM    3  C5  UNL     1     -34.701   4.765   4.533  1.00 20.00     0.111 C 
BRANCH   3   4
HETATM    4  C6  UNL     1     -33.759   3.733   3.920  1.00 20.00     0.005 C 
HETATM    5  C2  UNL     1     -33.076   2.895   4.988  1.00 20.00     0.005 C 
ENDBRANCH   3   4
ENDBRANCH   1   3
BRANCH   1   6
HETATM    6  O9  UNL     1     -33.434   6.416   3.458  1.00 20.00    -0.317 OA
BRANCH   6   7
HETATM    7  C7  UNL     1     -33.196   6.824   2.108  1.00 20.00     0.123 C 
HETATM    8  C3  UNL     1     -32.184   7.960   2.098  1.00 20.00     0.040 C 
HETATM    9  C4  UNL     1     -32.711   5.627   1.302  1.00 20.00     0.040 C 
ENDBRANCH   6   7
ENDBRANCH   1   6
TORSDOF 4
ENDMDL
MODEL 5
REMARK VINA RESULT:      -2.1      1.804      4.612
REMARK  4 active torsions:
REMARK  status: ('A' for Active; 'I' for Inactive)
REMARK    1  A    between atoms: C1_1  and  C5_5 
REMARK    2  A    between atoms: C1_1  and  O9_9 
REMARK    3  A    between atoms: C5_5  and  C6_6 
REMARK    4  A    between atoms: C7_7  and  O9_9 
ROOT
HETATM    1  C1  UNL     1     -34.261   6.551   3.687  1.00 20.00     0.259 C 
HETATM    2  O8  UNL     1     -34.220   7.604   4.308  1.00 20.00    -0.265 OA
ENDROOT
BRANCH   1   3
HETATM    3  C5  UNL     1     -34.760   5.234   4.238  1.00 20.00     0.111 C 
BRANCH   3   4
HETATM    4  C6  UNL     1     -33.954   4.051   3.709  1.00 20.00     0.005 C 
HETATM    5  C2  UNL     1     -33.378   3.217   4.842  1.00 20.00     0.005 C 
ENDBRANCH   3   4
ENDBRANCH   1   3
BRANCH   1   6
HETATM    6  O9  UNL     1     -33.866   6.369   2.393  1.00 20.00    -0.317 OA
BRANCH   6   7
HETATM    7  C7  UNL     1     -32.467   6.542   2.145  1.00 20.00     0.123 C 
HETATM    8  C3  UNL     1     -32.017   5.541   1.093  1.00 20.00     0.040 C 
HETATM    9  C4  UNL     1     -32.212   7.978   1.709  1.00 20.00     0.040 C 
ENDBRANCH   6   7
ENDBRANCH   1   6
TORSDOF 4
ENDMDL
MODEL 6
REMARK VINA RESULT:      -2.1      1.140      1.444
REMARK  4 active torsions:
REMARK  status: ('A' for Active; 'I' for Inactive)
REMARK    1  A    between atoms: C1_1  and  C5_5 
REMARK    2  A    between atoms: C1_1  and  O9_9 
REMARK    3  A    between atoms: C5_5  and  C6_6 
REMARK    4  A    between atoms: C7_7  and  O9_9 
ROOT
HETATM    1  C1  UNL     1     -32.668   6.736   2.037  1.00 20.00     0.259 C 
HETATM    2  O8  UNL     1     -32.633   5.883   1.160  1.00 20.00    -0.265 OA
ENDROOT
BRANCH   1   3
HETATM    3  C5  UNL     1     -32.067   8.119   1.932  1.00 20.00     0.111 C 
BRANCH   3   4
HETATM    4  C6  UNL     1     -31.996   8.604   0.488  1.00 20.00     0.005 C 
HETATM    5  C2  UNL     1     -32.476  10.041   0.357  1.00 20.00     0.005 C 
ENDBRANCH   3   4
ENDBRANCH   1   3
BRANCH   1   6
HETATM    6  O9  UNL     1     -33.251   6.598   3.264  1.00 20.00    -0.317 OA
BRANCH   6   7
HETATM    7  C7  UNL     1     -34.356   5.690   3.323  1.00 20.00     0.123 C 
HETATM    8  C3  UNL     1     -33.912   4.405   4.005  1.00 20.00     0.040 C 
HETATM    9  C4  UNL     1     -35.510   6.354   4.061  1.00 20.00     0.040 C 
ENDBRANCH   6   7
ENDBRANCH   1   6
TORSDOF 4
ENDMDL
MODEL 7
REMARK VINA RESULT:      -1.9      1.433      4.297
REMARK  4 active torsions:
REMARK  status: ('A' for Active; 'I' for Inactive)
REMARK    1  A    between atoms: C1_1  and  C5_5 
REMARK    2  A    between atoms: C1_1  and  O9_9 
REMARK    3  A    between atoms: C5_5  and  C6_6 
REMARK    4  A    between atoms: C7_7  and  O9_9 
ROOT
HETATM    1  C1  UNL     1     -33.943   7.371   4.036  1.00 20.00     0.259 C 
HETATM    2  O8  UNL     1     -34.084   8.221   4.905  1.00 20.00    -0.265 OA
ENDROOT
BRANCH   1   3
HETATM    3  C5  UNL     1     -35.019   6.417   3.568  1.00 20.00     0.111 C 
BRANCH   3   4
HETATM    4  C6  UNL     1     -35.164   5.217   4.499  1.00 20.00     0.005 C 
HETATM    5  C2  UNL     1     -34.134   4.142   4.188  1.00 20.00     0.005 C 
ENDBRANCH   3   4
ENDBRANCH   1   3
BRANCH   1   6
HETATM    6  O9  UNL     1     -32.799   7.126   3.334  1.00 20.00    -0.317 OA
BRANCH   6   7
HETATM    7  C7  UNL     1     -32.927   7.179   1.909  1.00 20.00     0.123 C 
HETATM    8  C3  UNL     1     -32.068   8.313   1.371  1.00 20.00     0.040 C 
HETATM    9  C4  UNL     1     -32.525   5.835   1.321  1.00 20.00     0.040 C 
ENDBRANCH   6   7
ENDBRANCH   1   6
TORSDOF 4
ENDMDL
MODEL 8
REMARK VINA RESULT:      -1.7      1.195      1.706
REMARK  4 active torsions:
REMARK  status: ('A' for Active; 'I' for Inactive)
REMARK    1  A    between atoms: C1_1  and  C5_5 
REMARK    2  A    between atoms: C1_1  and  O9_9 
REMARK    3  A    between atoms: C5_5  and  C6_6 
REMARK    4  A    between atoms: C7_7  and  O9_9 
ROOT
HETATM    1  C1  UNL     1     -32.653   7.494   2.565  1.00 20.00     0.259 C 
HETATM    2  O8  UNL     1     -32.428   8.137   3.581  1.00 20.00    -0.265 OA
ENDROOT
BRANCH   1   3
HETATM    3  C5  UNL     1     -32.110   7.818   1.191  1.00 20.00     0.111 C 
BRANCH   3   4
HETATM    4  C6  UNL     1     -31.969   9.321   0.971  1.00 20.00     0.005 C 
HETATM    5  C2  UNL     1     -32.662   9.766  -0.306  1.00 20.00     0.005 C 
ENDBRANCH   3   4
ENDBRANCH   1   3
BRANCH   1   6
HETATM    6  O9  UNL     1     -33.430   6.375   2.481  1.00 20.00    -0.317 OA
BRANCH   6   7
HETATM    7  C7  UNL     1     -34.003   5.929   3.715  1.00 20.00     0.123 C 
HETATM    8  C3  UNL     1     -35.427   6.452   3.824  1.00 20.00     0.040 C 
HETATM    9  C4  UNL     1     -33.952   4.409   3.769  1.00 20.00     0.040 C 
ENDBRANCH   6   7
ENDBRANCH   1   6
TORSDOF 4
ENDMDL
MODEL 9
REMARK VINA RESULT:      -1.7      1.143      4.115
REMARK  4 active torsions:
REMARK  status: ('A' for Active; 'I' for Inactive)
REMARK    1  A    between atoms: C1_1  and  C5_5 
REMARK    2  A    between atoms: C1_1  and  O9_9 
REMARK    3  A    between atoms: C5_5  and  C6_6 
REMARK    4  A    between atoms: C7_7  and  O9_9 
ROOT
HETATM    1  C1  UNL     1     -32.839   7.252   2.359  1.00 20.00     0.259 C 
HETATM    2  O8  UNL     1     -32.876   6.245   1.666  1.00 20.00    -0.265 OA
ENDROOT
BRANCH   1   3
HETATM    3  C5  UNL     1     -33.529   7.418   3.694  1.00 20.00     0.111 C 
BRANCH   3   4
HETATM    4  C6  UNL     1     -34.952   6.867   3.674  1.00 20.00     0.005 C 
HETATM    5  C2  UNL     1     -35.014   5.459   4.246  1.00 20.00     0.005 C 
ENDBRANCH   3   4
ENDBRANCH   1   3
BRANCH   1   6
HETATM    6  O9  UNL     1     -32.173   8.406   2.060  1.00 20.00    -0.317 OA
BRANCH   6   7
HETATM    7  C7  UNL     1     -32.399   8.924   0.745  1.00 20.00     0.123 C 
HETATM    8  C3  UNL     1     -32.793  10.390   0.844  1.00 20.00     0.040 C 
HETATM    9  C4  UNL     1     -31.142   8.731  -0.091  1.00 20.00     0.040 C 
ENDBRANCH   6   7
ENDBRANCH   1   6
TORSDOF 4
ENDMDL
