MODEL 1
REMARK VINA RESULT:      -1.0      0.000      0.000
REMARK  0 active torsions:
REMARK  status: ('A' for Active; 'I' for Inactive)
ROOT
HETATM    1  C1  UNL     1     -33.044   8.012   3.528  1.00 20.00    -0.007 C 
HETATM    2  C2  UNL     1     -32.589   7.495   2.379  1.00 20.00     0.008 C 
HETATM    3  C3  UNL     1     -34.150   7.390   4.322  1.00 20.00     0.035 C 
HETATM    4  C4  UNL     1     -33.128   6.248   1.751  1.00 20.00     0.058 C 
HETATM    5  C5  UNL     1     -35.485   5.256   4.509  1.00 20.00     0.172 C 
HETATM    6  C6  UNL     1     -33.458   4.504   3.622  1.00 20.00     0.172 C 
HETATM    7  C7  UNL     1     -34.957   6.321   3.559  1.00 20.00     0.019 C 
HETATM    8  C8  UNL     1     -34.100   5.469   2.635  1.00 20.00     0.021 C 
HETATM    9  O9  UNL     1     -34.428   4.290   4.663  1.00 20.00    -0.390 OA
HETATM   10 CL10 UNL     1     -31.300   8.268   1.523  1.00 20.00    -0.089 Cl
ENDROOT
TORSDOF 0
ENDMDL
MODEL 2
REMARK VINA RESULT:      -0.5      1.085      2.188
REMARK  0 active torsions:
REMARK  status: ('A' for Active; 'I' for Inactive)
ROOT
HETATM    1  C1  UNL     1     -32.724   6.576   1.181  1.00 20.00    -0.007 C 
HETATM    2  C2  UNL     1     -32.508   7.781   1.725  1.00 20.00     0.008 C 
HETATM    3  C3  UNL     1     -33.291   5.423   1.949  1.00 20.00     0.035 C 
HETATM    4  C4  UNL     1     -32.797   8.119   3.154  1.00 20.00     0.058 C 
HETATM    5  C5  UNL     1     -34.449   4.882   4.126  1.00 20.00     0.172 C 
HETATM    6  C6  UNL     1     -35.089   7.099   3.755  1.00 20.00     0.172 C 
HETATM    7  C7  UNL     1     -33.281   5.613   3.480  1.00 20.00     0.019 C 
HETATM    8  C8  UNL     1     -33.575   7.042   3.908  1.00 20.00     0.021 C 
HETATM    9  O9  UNL     1     -35.573   5.780   4.064  1.00 20.00    -0.390 OA
HETATM   10 CL10 UNL     1     -31.858   9.067   0.768  1.00 20.00    -0.089 Cl
ENDROOT
TORSDOF 0
ENDMDL
MODEL 3
REMARK VINA RESULT:       0.1      2.783      4.109
REMARK  0 active torsions:
REMARK  status: ('A' for Active; 'I' for Inactive)
ROOT
HETATM    1  C1  UNL     1     -33.557   5.122   2.782  1.00 20.00    -0.007 C 
HETATM    2  C2  UNL     1     -34.360   5.724   3.669  1.00 20.00     0.008 C 
HETATM    3  C3  UNL     1     -32.687   5.876   1.825  1.00 20.00     0.035 C 
HETATM    4  C4  UNL     1     -34.492   7.209   3.807  1.00 20.00     0.058 C 
HETATM    5  C5  UNL     1     -31.796   8.195   1.376  1.00 20.00     0.172 C 
HETATM    6  C6  UNL     1     -32.122   8.223   3.689  1.00 20.00     0.172 C 
HETATM    7  C7  UNL     1     -33.037   7.372   1.691  1.00 20.00     0.019 C 
HETATM    8  C8  UNL     1     -33.466   8.007   3.005  1.00 20.00     0.021 C 
HETATM    9  O9  UNL     1     -31.177   8.495   2.640  1.00 20.00    -0.390 OA
HETATM   10 CL10 UNL     1     -35.329   4.783   4.749  1.00 20.00    -0.089 Cl
ENDROOT
TORSDOF 0
ENDMDL
MODEL 4
REMARK VINA RESULT:       0.8      2.881      3.963
REMARK  0 active torsions:
REMARK  status: ('A' for Active; 'I' for Inactive)
ROOT
HETATM    1  C1  UNL     1     -34.006   7.551   4.101  1.00 20.00    -0.007 C 
HETATM    2  C2  UNL     1     -34.241   6.314   3.642  1.00 20.00     0.008 C 
HETATM    3  C3  UNL     1     -32.960   8.452   3.522  1.00 20.00     0.035 C 
HETATM    4  C4  UNL     1     -33.489   5.684   2.511  1.00 20.00     0.058 C 
HETATM    5  C5  UNL     1     -31.443   8.680   1.518  1.00 20.00     0.172 C 
HETATM    6  C6  UNL     1     -33.235   7.455   0.653  1.00 20.00     0.172 C 
HETATM    7  C7  UNL     1     -31.945   7.740   2.604  1.00 20.00     0.019 C 
HETATM    8  C8  UNL     1     -32.570   6.643   1.757  1.00 20.00     0.021 C 
HETATM    9  O9  UNL     1     -32.400   8.608   0.445  1.00 20.00    -0.390 OA
HETATM   10 CL10 UNL     1     -35.474   5.336   4.358  1.00 20.00    -0.089 Cl
ENDROOT
TORSDOF 0
ENDMDL
