MODEL 1
REMARK VINA RESULT:      -1.6      0.000      0.000
REMARK  2 active torsions:
REMARK  status: ('A' for Active; 'I' for Inactive)
REMARK    1  A    between atoms: C5_5  and  C6_6 
REMARK    2  A    between atoms: C6_6  and  N8_8 
ROOT
HETATM    1  C1  UNL     1     -34.597   6.626   3.949  1.00 20.00     0.135 A 
HETATM    2  C2  UNL     1     -33.850   7.768   3.775  1.00 20.00     0.111 A 
HETATM    3  C3  UNL     1     -33.213   6.168   2.400  1.00 20.00     0.209 A 
HETATM    4  N7  UNL     1     -34.195   5.634   3.090  1.00 20.00    -0.255 NA
HETATM    5  N8  UNL     1     -32.968   7.459   2.780  1.00 20.00    -0.350 N 
ENDROOT
BRANCH   5   6
HETATM    6  C6  UNL     1     -31.950   8.344   2.222  1.00 20.00     0.129 C 
BRANCH   6   7
HETATM    7  C5  UNL     1     -32.123   8.541   0.717  1.00 20.00     0.016 C 
HETATM    8  C4  UNL     1     -32.479   9.980   0.384  1.00 20.00     0.006 C 
ENDBRANCH   6   7
ENDBRANCH   5   6
TORSDOF 2
ENDMDL
MODEL 2
REMARK VINA RESULT:      -1.6      0.772      1.371
REMARK  2 active torsions:
REMARK  status: ('A' for Active; 'I' for Inactive)
REMARK    1  A    between atoms: C5_5  and  C6_6 
REMARK    2  A    between atoms: C6_6  and  N8_8 
ROOT
HETATM    1  C1  UNL     1     -33.872   5.634   2.756  1.00 20.00     0.135 A 
HETATM    2  C2  UNL     1     -32.901   6.153   1.932  1.00 20.00     0.111 A 
HETATM    3  C3  UNL     1     -33.556   7.625   3.436  1.00 20.00     0.209 A 
HETATM    4  N7  UNL     1     -34.276   6.555   3.689  1.00 20.00    -0.255 NA
HETATM    5  N8  UNL     1     -32.709   7.429   2.380  1.00 20.00    -0.350 N 
ENDROOT
BRANCH   5   6
HETATM    6  C6  UNL     1     -31.771   8.405   1.834  1.00 20.00     0.129 C 
BRANCH   6   7
HETATM    7  C5  UNL     1     -32.131   8.810   0.406  1.00 20.00     0.016 C 
HETATM    8  C4  UNL     1     -32.558  10.266   0.335  1.00 20.00     0.006 C 
ENDBRANCH   6   7
ENDBRANCH   5   6
TORSDOF 2
ENDMDL
MODEL 3
REMARK VINA RESULT:      -1.6      1.436      3.900
REMARK  2 active torsions:
REMARK  status: ('A' for Active; 'I' for Inactive)
REMARK    1  A    between atoms: C5_5  and  C6_6 
REMARK    2  A    between atoms: C6_6  and  N8_8 
ROOT
HETATM    1  C1  UNL     1     -32.066   6.458   1.252  1.00 20.00     0.135 A 
HETATM    2  C2  UNL     1     -33.086   6.105   2.105  1.00 20.00     0.111 A 
HETATM    3  C3  UNL     1     -32.340   8.133   2.536  1.00 20.00     0.209 A 
HETATM    4  N7  UNL     1     -31.606   7.722   1.527  1.00 20.00    -0.255 NA
HETATM    5  N8  UNL     1     -33.249   7.187   2.921  1.00 20.00    -0.350 N 
ENDROOT
BRANCH   5   6
HETATM    6  C6  UNL     1     -34.219   7.313   4.005  1.00 20.00     0.129 C 
BRANCH   6   7
HETATM    7  C5  UNL     1     -35.382   6.335   3.852  1.00 20.00     0.016 C 
HETATM    8  C4  UNL     1     -35.094   5.019   4.553  1.00 20.00     0.006 C 
ENDBRANCH   6   7
ENDBRANCH   5   6
TORSDOF 2
ENDMDL
MODEL 4
REMARK VINA RESULT:      -1.6      1.317      3.729
REMARK  2 active torsions:
REMARK  status: ('A' for Active; 'I' for Inactive)
REMARK    1  A    between atoms: C5_5  and  C6_6 
REMARK    2  A    between atoms: C6_6  and  N8_8 
ROOT
HETATM    1  C1  UNL     1     -31.653   7.701   1.513  1.00 20.00     0.135 A 
HETATM    2  C2  UNL     1     -32.350   8.236   2.570  1.00 20.00     0.111 A 
HETATM    3  C3  UNL     1     -33.019   6.186   2.117  1.00 20.00     0.209 A 
HETATM    4  N7  UNL     1     -32.075   6.425   1.234  1.00 20.00    -0.255 NA
HETATM    5  N8  UNL     1     -33.221   7.253   2.946  1.00 20.00    -0.350 N 
ENDROOT
BRANCH   5   6
HETATM    6  C6  UNL     1     -34.190   7.328   4.036  1.00 20.00     0.129 C 
BRANCH   6   7
HETATM    7  C5  UNL     1     -35.360   6.367   3.831  1.00 20.00     0.016 C 
HETATM    8  C4  UNL     1     -35.113   5.039   4.525  1.00 20.00     0.006 C 
ENDBRANCH   6   7
ENDBRANCH   5   6
TORSDOF 2
ENDMDL
MODEL 5
REMARK VINA RESULT:      -1.5      1.040      1.571
REMARK  2 active torsions:
REMARK  status: ('A' for Active; 'I' for Inactive)
REMARK    1  A    between atoms: C5_5  and  C6_6 
REMARK    2  A    between atoms: C6_6  and  N8_8 
ROOT
HETATM    1  C1  UNL     1     -35.302   5.978   4.340  1.00 20.00     0.135 A 
HETATM    2  C2  UNL     1     -34.624   6.828   3.499  1.00 20.00     0.111 A 
HETATM    3  C3  UNL     1     -33.812   4.782   3.404  1.00 20.00     0.209 A 
HETATM    4  N7  UNL     1     -34.792   4.705   4.277  1.00 20.00    -0.255 NA
HETATM    5  N8  UNL     1     -33.672   6.048   2.907  1.00 20.00    -0.350 N 
ENDROOT
BRANCH   5   6
HETATM    6  C6  UNL     1     -32.687   6.484   1.922  1.00 20.00     0.129 C 
BRANCH   6   7
HETATM    7  C5  UNL     1     -32.183   7.898   2.201  1.00 20.00     0.016 C 
HETATM    8  C4  UNL     1     -32.132   8.729   0.931  1.00 20.00     0.006 C 
ENDBRANCH   6   7
ENDBRANCH   5   6
TORSDOF 2
ENDMDL
MODEL 6
REMARK VINA RESULT:      -1.4      1.119      1.549
REMARK  2 active torsions:
REMARK  status: ('A' for Active; 'I' for Inactive)
REMARK    1  A    between atoms: C5_5  and  C6_6 
REMARK    2  A    between atoms: C6_6  and  N8_8 
ROOT
HETATM    1  C1  UNL     1     -34.849   6.019   4.043  1.00 20.00     0.135 A 
HETATM    2  C2  UNL     1     -34.071   5.689   2.958  1.00 20.00     0.111 A 
HETATM    3  C3  UNL     1     -33.677   7.748   3.639  1.00 20.00     0.209 A 
HETATM    4  N7  UNL     1     -34.599   7.302   4.461  1.00 20.00    -0.255 NA
HETATM    5  N8  UNL     1     -33.326   6.807   2.711  1.00 20.00    -0.350 N 
ENDROOT
BRANCH   5   6
HETATM    6  C6  UNL     1     -32.335   6.967   1.652  1.00 20.00     0.129 C 
BRANCH   6   7
HETATM    7  C5  UNL     1     -31.709   8.361   1.656  1.00 20.00     0.016 C 
HETATM    8  C4  UNL     1     -32.267   9.221   0.536  1.00 20.00     0.006 C 
ENDBRANCH   6   7
ENDBRANCH   5   6
TORSDOF 2
ENDMDL
MODEL 7
REMARK VINA RESULT:      -1.3      2.022      4.263
REMARK  2 active torsions:
REMARK  status: ('A' for Active; 'I' for Inactive)
REMARK    1  A    between atoms: C5_5  and  C6_6 
REMARK    2  A    between atoms: C6_6  and  N8_8 
ROOT
HETATM    1  C1  UNL     1     -33.065   7.899   2.746  1.00 20.00     0.135 A 
HETATM    2  C2  UNL     1     -33.803   7.275   3.724  1.00 20.00     0.111 A 
HETATM    3  C3  UNL     1     -33.084   5.838   2.216  1.00 20.00     0.209 A 
HETATM    4  N7  UNL     1     -32.621   6.999   1.810  1.00 20.00    -0.255 NA
HETATM    5  N8  UNL     1     -33.807   5.956   3.371  1.00 20.00    -0.350 N 
ENDROOT
BRANCH   5   6
HETATM    6  C6  UNL     1     -34.460   4.869   4.094  1.00 20.00     0.129 C 
BRANCH   6   7
HETATM    7  C5  UNL     1     -33.752   3.531   3.883  1.00 20.00     0.016 C 
HETATM    8  C4  UNL     1     -33.038   3.079   5.145  1.00 20.00     0.006 C 
ENDBRANCH   6   7
ENDBRANCH   5   6
TORSDOF 2
ENDMDL
MODEL 8
REMARK VINA RESULT:      -1.2      1.962      4.431
REMARK  2 active torsions:
REMARK  status: ('A' for Active; 'I' for Inactive)
REMARK    1  A    between atoms: C5_5  and  C6_6 
REMARK    2  A    between atoms: C6_6  and  N8_8 
ROOT
HETATM    1  C1  UNL     1     -32.630   7.130   1.856  1.00 20.00     0.135 A 
HETATM    2  C2  UNL     1     -33.076   5.864   2.153  1.00 20.00     0.111 A 
HETATM    3  C3  UNL     1     -33.700   7.320   3.685  1.00 20.00     0.209 A 
HETATM    4  N7  UNL     1     -33.021   8.032   2.814  1.00 20.00    -0.255 NA
HETATM    5  N8  UNL     1     -33.760   6.001   3.327  1.00 20.00    -0.350 N 
ENDROOT
BRANCH   5   6
HETATM    6  C6  UNL     1     -34.432   4.937   4.066  1.00 20.00     0.129 C 
BRANCH   6   7
HETATM    7  C5  UNL     1     -33.763   3.580   3.855  1.00 20.00     0.016 C 
HETATM    8  C4  UNL     1     -33.060   3.108   5.116  1.00 20.00     0.006 C 
ENDBRANCH   6   7
ENDBRANCH   5   6
TORSDOF 2
ENDMDL
MODEL 9
REMARK VINA RESULT:      -0.4      1.171      1.899
REMARK  2 active torsions:
REMARK  status: ('A' for Active; 'I' for Inactive)
REMARK    1  A    between atoms: C5_5  and  C6_6 
REMARK    2  A    between atoms: C6_6  and  N8_8 
ROOT
HETATM    1  C1  UNL     1     -32.751   5.738   1.929  1.00 20.00     0.135 A 
HETATM    2  C2  UNL     1     -31.941   6.684   1.346  1.00 20.00     0.111 A 
HETATM    3  C3  UNL     1     -33.416   7.607   2.698  1.00 20.00     0.209 A 
HETATM    4  N7  UNL     1     -33.668   6.319   2.769  1.00 20.00    -0.255 NA
HETATM    5  N8  UNL     1     -32.379   7.876   1.848  1.00 20.00    -0.350 N 
ENDROOT
BRANCH   5   6
HETATM    6  C6  UNL     1     -31.839   9.195   1.536  1.00 20.00     0.129 C 
BRANCH   6   7
HETATM    7  C5  UNL     1     -32.882  10.104   0.887  1.00 20.00     0.016 C 
HETATM    8  C4  UNL     1     -32.811  10.035  -0.629  1.00 20.00     0.006 C 
ENDBRANCH   6   7
ENDBRANCH   5   6
TORSDOF 2
ENDMDL
