MODEL 1
REMARK VINA RESULT:       0.8      0.000      0.000
REMARK  1 active torsions:
REMARK  status: ('A' for Active; 'I' for Inactive)
REMARK    1  A    between atoms: C3_3  and  O11_11 
ROOT
HETATM    1  C1  UNL     1     -32.514   7.807   2.970  1.00 20.00    -0.019 A 
HETATM    2  C2  UNL     1     -33.557   7.396   3.792  1.00 20.00    -0.029 A 
HETATM    3  C3  UNL     1     -32.155   7.033   1.872  1.00 20.00     0.096 A 
HETATM    4  C4  UNL     1     -34.205   6.212   3.476  1.00 20.00     0.037 A 
HETATM    5  C5  UNL     1     -32.865   5.866   1.642  1.00 20.00     0.064 A 
HETATM    6  C6  UNL     1     -31.777   9.075   3.261  1.00 20.00     0.052 C 
HETATM    7  C7  UNL     1     -33.965   8.205   4.977  1.00 20.00     0.051 C 
HETATM    8  C8  UNL     1     -35.333   5.720   4.322  1.00 20.00     0.071 C 
HETATM    9  C9  UNL     1     -32.521   4.997   0.477  1.00 20.00     0.073 C 
HETATM   10  N10 UNL     1     -33.884   5.434   2.418  1.00 20.00    -0.255 NA
ENDROOT
BRANCH   3  11
HETATM   11  O11 UNL     1     -31.140   7.411   1.052  1.00 20.00    -0.358 OA
HETATM   12  H24 UNL     1     -30.399   7.765   1.572  1.00 20.00     0.217 HD
ENDBRANCH   3  11
TORSDOF 1
ENDMDL
MODEL 2
REMARK VINA RESULT:       1.1      1.541      3.257
REMARK  1 active torsions:
REMARK  status: ('A' for Active; 'I' for Inactive)
REMARK    1  A    between atoms: C3_3  and  O11_11 
ROOT
HETATM    1  C1  UNL     1     -32.614   7.877   3.021  1.00 20.00    -0.019 A 
HETATM    2  C2  UNL     1     -32.246   7.120   1.914  1.00 20.00    -0.029 A 
HETATM    3  C3  UNL     1     -33.636   7.431   3.852  1.00 20.00     0.096 A 
HETATM    4  C4  UNL     1     -32.926   5.934   1.684  1.00 20.00     0.037 A 
HETATM    5  C5  UNL     1     -34.253   6.232   3.536  1.00 20.00     0.064 A 
HETATM    6  C6  UNL     1     -31.918   9.166   3.321  1.00 20.00     0.052 C 
HETATM    7  C7  UNL     1     -31.154   7.571   1.004  1.00 20.00     0.051 C 
HETATM    8  C8  UNL     1     -32.575   5.079   0.511  1.00 20.00     0.071 C 
HETATM    9  C9  UNL     1     -35.357   5.708   4.395  1.00 20.00     0.073 C 
HETATM   10  N10 UNL     1     -33.924   5.469   2.470  1.00 20.00    -0.255 NA
ENDROOT
BRANCH   3  11
HETATM   11  O11 UNL     1     -34.015   8.151   4.941  1.00 20.00    -0.358 OA
HETATM   12  H24 UNL     1     -33.993   9.102   4.742  1.00 20.00     0.217 HD
ENDBRANCH   3  11
TORSDOF 1
ENDMDL
MODEL 3
REMARK VINA RESULT:       1.8      1.874      3.496
REMARK  1 active torsions:
REMARK  status: ('A' for Active; 'I' for Inactive)
REMARK    1  A    between atoms: C3_3  and  O11_11 
ROOT
HETATM    1  C1  UNL     1     -34.010   6.430   3.338  1.00 20.00    -0.019 A 
HETATM    2  C2  UNL     1     -33.369   5.343   2.755  1.00 20.00    -0.029 A 
HETATM    3  C3  UNL     1     -33.663   7.721   2.956  1.00 20.00     0.096 A 
HETATM    4  C4  UNL     1     -32.396   5.598   1.802  1.00 20.00     0.037 A 
HETATM    5  C5  UNL     1     -32.677   7.870   1.994  1.00 20.00     0.064 A 
HETATM    6  C6  UNL     1     -35.068   6.218   4.372  1.00 20.00     0.052 C 
HETATM    7  C7  UNL     1     -33.719   3.946   3.143  1.00 20.00     0.051 C 
HETATM    8  C8  UNL     1     -31.673   4.470   1.141  1.00 20.00     0.071 C 
HETATM    9  C9  UNL     1     -32.265   9.235   1.548  1.00 20.00     0.073 C 
HETATM   10  N10 UNL     1     -32.031   6.838   1.405  1.00 20.00    -0.255 NA
ENDROOT
BRANCH   3  11
HETATM   11  O11 UNL     1     -34.273   8.802   3.509  1.00 20.00    -0.358 OA
HETATM   12  H24 UNL     1     -34.185   9.575   2.926  1.00 20.00     0.217 HD
ENDBRANCH   3  11
TORSDOF 1
ENDMDL
MODEL 4
REMARK VINA RESULT:       2.0      1.841      2.998
REMARK  1 active torsions:
REMARK  status: ('A' for Active; 'I' for Inactive)
REMARK    1  A    between atoms: C3_3  and  O11_11 
ROOT
HETATM    1  C1  UNL     1     -33.994   6.250   3.344  1.00 20.00    -0.019 A 
HETATM    2  C2  UNL     1     -33.643   7.568   3.076  1.00 20.00    -0.029 A 
HETATM    3  C3  UNL     1     -33.364   5.215   2.661  1.00 20.00     0.096 A 
HETATM    4  C4  UNL     1     -32.664   7.797   2.122  1.00 20.00     0.037 A 
HETATM    5  C5  UNL     1     -32.399   5.549   1.726  1.00 20.00     0.064 A 
HETATM    6  C6  UNL     1     -35.044   5.939   4.363  1.00 20.00     0.052 C 
HETATM    7  C7  UNL     1     -34.300   8.699   3.793  1.00 20.00     0.051 C 
HETATM    8  C8  UNL     1     -32.245   9.192   1.791  1.00 20.00     0.071 C 
HETATM    9  C9  UNL     1     -31.692   4.478   0.962  1.00 20.00     0.073 C 
HETATM   10  N10 UNL     1     -32.031   6.818   1.437  1.00 20.00    -0.255 NA
ENDROOT
BRANCH   3  11
HETATM   11  O11 UNL     1     -33.688   3.918   2.903  1.00 20.00    -0.358 OA
HETATM   12  H24 UNL     1     -33.649   3.401   2.082  1.00 20.00     0.217 HD
ENDBRANCH   3  11
TORSDOF 1
ENDMDL
MODEL 5
REMARK VINA RESULT:       2.1      1.987      3.373
REMARK  1 active torsions:
REMARK  status: ('A' for Active; 'I' for Inactive)
REMARK    1  A    between atoms: C3_3  and  O11_11 
ROOT
HETATM    1  C1  UNL     1     -33.476   7.480   2.863  1.00 20.00    -0.019 A 
HETATM    2  C2  UNL     1     -32.608   7.043   1.867  1.00 20.00    -0.029 A 
HETATM    3  C3  UNL     1     -34.115   6.551   3.676  1.00 20.00     0.096 A 
HETATM    4  C4  UNL     1     -32.417   5.678   1.726  1.00 20.00     0.037 A 
HETATM    5  C5  UNL     1     -33.857   5.208   3.454  1.00 20.00     0.064 A 
HETATM    6  C6  UNL     1     -33.722   8.941   3.063  1.00 20.00     0.052 C 
HETATM    7  C7  UNL     1     -31.907   8.015   0.980  1.00 20.00     0.051 C 
HETATM    8  C8  UNL     1     -31.498   5.149   0.675  1.00 20.00     0.071 C 
HETATM    9  C9  UNL     1     -34.519   4.169   4.298  1.00 20.00     0.073 C 
HETATM   10  N10 UNL     1     -33.022   4.746   2.497  1.00 20.00    -0.255 NA
ENDROOT
BRANCH   3  11
HETATM   11  O11 UNL     1     -34.967   6.950   4.657  1.00 20.00    -0.358 OA
HETATM   12  H24 UNL     1     -34.524   7.572   5.257  1.00 20.00     0.217 HD
ENDBRANCH   3  11
TORSDOF 1
ENDMDL
MODEL 6
REMARK VINA RESULT:       2.1      1.314      2.838
REMARK  1 active torsions:
REMARK  status: ('A' for Active; 'I' for Inactive)
REMARK    1  A    between atoms: C3_3  and  O11_11 
ROOT
HETATM    1  C1  UNL     1     -32.442   5.853   1.862  1.00 20.00    -0.019 A 
HETATM    2  C2  UNL     1     -33.432   5.592   2.803  1.00 20.00    -0.029 A 
HETATM    3  C3  UNL     1     -32.132   7.168   1.534  1.00 20.00     0.096 A 
HETATM    4  C4  UNL     1     -34.078   6.672   3.382  1.00 20.00     0.037 A 
HETATM    5  C5  UNL     1     -32.836   8.178   2.170  1.00 20.00     0.064 A 
HETATM    6  C6  UNL     1     -31.710   4.728   1.203  1.00 20.00     0.052 C 
HETATM    7  C7  UNL     1     -33.787   4.192   3.176  1.00 20.00     0.051 C 
HETATM    8  C8  UNL     1     -35.150   6.454   4.399  1.00 20.00     0.071 C 
HETATM    9  C9  UNL     1     -32.544   9.609   1.854  1.00 20.00     0.073 C 
HETATM   10  N10 UNL     1     -33.805   7.964   3.088  1.00 20.00    -0.255 NA
ENDROOT
BRANCH   3  11
HETATM   11  O11 UNL     1     -31.169   7.453   0.619  1.00 20.00    -0.358 OA
HETATM   12  H24 UNL     1     -31.308   6.933  -0.190  1.00 20.00     0.217 HD
ENDBRANCH   3  11
TORSDOF 1
ENDMDL
MODEL 7
REMARK VINA RESULT:       2.1      1.467      2.802
REMARK  1 active torsions:
REMARK  status: ('A' for Active; 'I' for Inactive)
REMARK    1  A    between atoms: C3_3  and  O11_11 
ROOT
HETATM    1  C1  UNL     1     -33.444   5.427   2.616  1.00 20.00    -0.019 A 
HETATM    2  C2  UNL     1     -34.074   6.196   3.588  1.00 20.00    -0.029 A 
HETATM    3  C3  UNL     1     -32.519   6.019   1.762  1.00 20.00     0.096 A 
HETATM    4  C4  UNL     1     -33.749   7.541   3.664  1.00 20.00     0.037 A 
HETATM    5  C5  UNL     1     -32.262   7.371   1.920  1.00 20.00     0.064 A 
HETATM    6  C6  UNL     1     -33.754   3.971   2.485  1.00 20.00     0.052 C 
HETATM    7  C7  UNL     1     -35.071   5.591   4.518  1.00 20.00     0.051 C 
HETATM    8  C8  UNL     1     -34.394   8.417   4.687  1.00 20.00     0.071 C 
HETATM    9  C9  UNL     1     -31.279   8.056   1.029  1.00 20.00     0.073 C 
HETATM   10  N10 UNL     1     -32.856   8.151   2.852  1.00 20.00    -0.255 NA
ENDROOT
BRANCH   3  11
HETATM   11  O11 UNL     1     -31.887   5.291   0.804  1.00 20.00    -0.358 OA
HETATM   12  H24 UNL     1     -31.238   5.842   0.335  1.00 20.00     0.217 HD
ENDBRANCH   3  11
TORSDOF 1
ENDMDL
MODEL 8
REMARK VINA RESULT:       2.2      2.119      4.292
REMARK  1 active torsions:
REMARK  status: ('A' for Active; 'I' for Inactive)
REMARK    1  A    between atoms: C3_3  and  O11_11 
ROOT
HETATM    1  C1  UNL     1     -33.502   5.385   2.721  1.00 20.00    -0.019 A 
HETATM    2  C2  UNL     1     -32.603   5.948   1.822  1.00 20.00    -0.029 A 
HETATM    3  C3  UNL     1     -34.104   6.186   3.686  1.00 20.00     0.096 A 
HETATM    4  C4  UNL     1     -32.342   7.305   1.928  1.00 20.00     0.037 A 
HETATM    5  C5  UNL     1     -33.777   7.531   3.709  1.00 20.00     0.064 A 
HETATM    6  C6  UNL     1     -33.823   3.927   2.656  1.00 20.00     0.052 C 
HETATM    7  C7  UNL     1     -31.941   5.116   0.776  1.00 20.00     0.051 C 
HETATM    8  C8  UNL     1     -31.386   7.965   0.990  1.00 20.00     0.071 C 
HETATM    9  C9  UNL     1     -34.394   8.436   4.725  1.00 20.00     0.073 C 
HETATM   10  N10 UNL     1     -32.908   8.114   2.853  1.00 20.00    -0.255 NA
ENDROOT
BRANCH   3  11
HETATM   11  O11 UNL     1     -34.987   5.662   4.577  1.00 20.00    -0.358 OA
HETATM   12  H24 UNL     1     -34.786   5.975   5.475  1.00 20.00     0.217 HD
ENDBRANCH   3  11
TORSDOF 1
ENDMDL
MODEL 9
REMARK VINA RESULT:       2.3      1.884      3.793
REMARK  1 active torsions:
REMARK  status: ('A' for Active; 'I' for Inactive)
REMARK    1  A    between atoms: C3_3  and  O11_11 
ROOT
HETATM    1  C1  UNL     1     -32.482   5.914   1.817  1.00 20.00    -0.019 A 
HETATM    2  C2  UNL     1     -32.226   7.253   1.542  1.00 20.00    -0.029 A 
HETATM    3  C3  UNL     1     -33.445   5.576   2.762  1.00 20.00     0.096 A 
HETATM    4  C4  UNL     1     -32.953   8.208   2.234  1.00 20.00     0.037 A 
HETATM    5  C5  UNL     1     -34.118   6.606   3.399  1.00 20.00     0.064 A 
HETATM    6  C6  UNL     1     -31.730   4.838   1.102  1.00 20.00     0.052 C 
HETATM    7  C7  UNL     1     -31.200   7.647   0.534  1.00 20.00     0.051 C 
HETATM    8  C8  UNL     1     -32.722   9.662   1.982  1.00 20.00     0.071 C 
HETATM    9  C9  UNL     1     -35.161   6.299   4.423  1.00 20.00     0.073 C 
HETATM   10  N10 UNL     1     -33.896   7.918   3.159  1.00 20.00    -0.255 NA
ENDROOT
BRANCH   3  11
HETATM   11  O11 UNL     1     -33.717   4.276   3.049  1.00 20.00    -0.358 OA
HETATM   12  H24 UNL     1     -34.547   4.207   3.550  1.00 20.00     0.217 HD
ENDBRANCH   3  11
TORSDOF 1
ENDMDL
