MODEL 1
REMARK VINA RESULT:       2.3      0.000      0.000
REMARK  0 active torsions:
REMARK  status: ('A' for Active; 'I' for Inactive)
ROOT
HETATM    1  C1  UNL     1     -33.728   4.866   3.783  1.00 20.00    -0.017 C 
HETATM    2  C2  UNL     1     -35.104   5.335   4.151  1.00 20.00     0.155 C 
HETATM    3  C3  UNL     1     -33.182   3.779   4.336  1.00 20.00     0.023 C 
HETATM    4  C4  UNL     1     -35.540   6.632   3.476  1.00 20.00     0.089 C 
HETATM    5  C5  UNL     1     -33.960   6.040   1.578  1.00 20.00     0.016 C 
HETATM    6  C6  UNL     1     -32.994   5.683   2.763  1.00 20.00     0.030 C 
HETATM    7  C7  UNL     1     -34.472   7.184   2.510  1.00 20.00     0.002 C 
HETATM    8  C8  UNL     1     -32.991   7.243   3.082  1.00 20.00    -0.036 C 
HETATM    9  C9  UNL     1     -32.005   8.067   2.232  1.00 20.00     0.016 C 
HETATM   10  C10 UNL     1     -32.823   7.676   4.543  1.00 20.00     0.016 C 
HETATM   11  O11 UNL     1     -35.825   4.732   4.940  1.00 20.00    -0.293 OA
ENDROOT
TORSDOF 0
ENDMDL
MODEL 2
REMARK VINA RESULT:       3.2      1.761      3.002
REMARK  0 active torsions:
REMARK  status: ('A' for Active; 'I' for Inactive)
ROOT
HETATM    1  C1  UNL     1     -34.174   6.678   3.236  1.00 20.00    -0.017 C 
HETATM    2  C2  UNL     1     -33.168   7.627   3.816  1.00 20.00     0.155 C 
HETATM    3  C3  UNL     1     -35.265   6.306   3.912  1.00 20.00     0.023 C 
HETATM    4  C4  UNL     1     -31.949   7.885   2.935  1.00 20.00     0.089 C 
HETATM    5  C5  UNL     1     -33.423   7.346   0.938  1.00 20.00     0.016 C 
HETATM    6  C6  UNL     1     -33.890   6.162   1.858  1.00 20.00     0.030 C 
HETATM    7  C7  UNL     1     -32.020   7.131   1.591  1.00 20.00     0.002 C 
HETATM    8  C8  UNL     1     -32.412   5.594   1.685  1.00 20.00    -0.036 C 
HETATM    9  C9  UNL     1     -32.184   4.792   0.389  1.00 20.00     0.016 C 
HETATM   10  C10 UNL     1     -31.813   4.789   2.844  1.00 20.00     0.016 C 
HETATM   11  O11 UNL     1     -33.305   8.153   4.916  1.00 20.00    -0.293 OA
ENDROOT
TORSDOF 0
ENDMDL
MODEL 3
REMARK VINA RESULT:       3.3      1.639      3.184
REMARK  0 active torsions:
REMARK  status: ('A' for Active; 'I' for Inactive)
ROOT
HETATM    1  C1  UNL     1     -33.689   6.955   3.062  1.00 20.00    -0.017 C 
HETATM    2  C2  UNL     1     -33.026   5.663   2.686  1.00 20.00     0.155 C 
HETATM    3  C3  UNL     1     -34.831   6.987   3.754  1.00 20.00     0.023 C 
HETATM    4  C4  UNL     1     -31.769   5.814   1.834  1.00 20.00     0.089 C 
HETATM    5  C5  UNL     1     -31.463   8.100   2.894  1.00 20.00     0.016 C 
HETATM    6  C6  UNL     1     -33.004   8.213   2.616  1.00 20.00     0.030 C 
HETATM    7  C7  UNL     1     -31.411   7.289   1.561  1.00 20.00     0.002 C 
HETATM    8  C8  UNL     1     -32.612   8.208   1.073  1.00 20.00    -0.036 C 
HETATM    9  C9  UNL     1     -32.186   9.582   0.519  1.00 20.00     0.016 C 
HETATM   10  C10 UNL     1     -33.606   7.593   0.082  1.00 20.00     0.016 C 
HETATM   11  O11 UNL     1     -33.461   4.568   3.026  1.00 20.00    -0.293 OA
ENDROOT
TORSDOF 0
ENDMDL
MODEL 4
REMARK VINA RESULT:       3.3      1.751      2.887
REMARK  0 active torsions:
REMARK  status: ('A' for Active; 'I' for Inactive)
ROOT
HETATM    1  C1  UNL     1     -32.928   7.778   3.632  1.00 20.00    -0.017 C 
HETATM    2  C2  UNL     1     -34.045   6.905   3.141  1.00 20.00     0.155 C 
HETATM    3  C3  UNL     1     -32.945   8.325   4.851  1.00 20.00     0.023 C 
HETATM    4  C4  UNL     1     -33.894   6.425   1.700  1.00 20.00     0.089 C 
HETATM    5  C5  UNL     1     -31.384   6.650   2.009  1.00 20.00     0.016 C 
HETATM    6  C6  UNL     1     -31.792   8.009   2.683  1.00 20.00     0.030 C 
HETATM    7  C7  UNL     1     -32.585   6.914   1.047  1.00 20.00     0.002 C 
HETATM    8  C8  UNL     1     -32.261   8.458   1.230  1.00 20.00    -0.036 C 
HETATM    9  C9  UNL     1     -31.129   8.990   0.329  1.00 20.00     0.016 C 
HETATM   10  C10 UNL     1     -33.437   9.437   1.126  1.00 20.00     0.016 C 
HETATM   11  O11 UNL     1     -35.010   6.604   3.835  1.00 20.00    -0.293 OA
ENDROOT
TORSDOF 0
ENDMDL
MODEL 5
REMARK VINA RESULT:       3.7      2.075      3.678
REMARK  0 active torsions:
REMARK  status: ('A' for Active; 'I' for Inactive)
ROOT
HETATM    1  C1  UNL     1     -32.992   7.783   3.797  1.00 20.00    -0.017 C 
HETATM    2  C2  UNL     1     -32.516   7.487   2.406  1.00 20.00     0.155 C 
HETATM    3  C3  UNL     1     -32.308   8.581   4.622  1.00 20.00     0.023 C 
HETATM    4  C4  UNL     1     -33.384   6.499   1.631  1.00 20.00     0.089 C 
HETATM    5  C5  UNL     1     -35.334   7.262   3.067  1.00 20.00     0.016 C 
HETATM    6  C6  UNL     1     -34.275   7.132   4.219  1.00 20.00     0.030 C 
HETATM    7  C7  UNL     1     -34.611   6.029   2.437  1.00 20.00     0.002 C 
HETATM    8  C8  UNL     1     -34.317   5.568   3.929  1.00 20.00    -0.036 C 
HETATM    9  C9  UNL     1     -35.480   4.823   4.613  1.00 20.00     0.016 C 
HETATM   10  C10 UNL     1     -33.038   4.758   4.172  1.00 20.00     0.016 C 
HETATM   11  O11 UNL     1     -31.506   7.989   1.926  1.00 20.00    -0.293 OA
ENDROOT
TORSDOF 0
ENDMDL
MODEL 6
REMARK VINA RESULT:       3.7      2.206      3.621
REMARK  0 active torsions:
REMARK  status: ('A' for Active; 'I' for Inactive)
ROOT
HETATM    1  C1  UNL     1     -33.020   6.246   1.967  1.00 20.00    -0.017 C 
HETATM    2  C2  UNL     1     -32.742   7.706   2.166  1.00 20.00     0.155 C 
HETATM    3  C3  UNL     1     -32.723   5.620   0.824  1.00 20.00     0.023 C 
HETATM    4  C4  UNL     1     -33.212   8.270   3.504  1.00 20.00     0.089 C 
HETATM    5  C5  UNL     1     -32.941   5.930   4.454  1.00 20.00     0.016 C 
HETATM    6  C6  UNL     1     -33.655   5.523   3.117  1.00 20.00     0.030 C 
HETATM    7  C7  UNL     1     -33.854   7.196   4.406  1.00 20.00     0.002 C 
HETATM    8  C8  UNL     1     -34.934   6.266   3.705  1.00 20.00    -0.036 C 
HETATM    9  C9  UNL     1     -35.777   5.414   4.674  1.00 20.00     0.016 C 
HETATM   10  C10 UNL     1     -35.895   6.933   2.714  1.00 20.00     0.016 C 
HETATM   11  O11 UNL     1     -32.188   8.401   1.320  1.00 20.00    -0.293 OA
ENDROOT
TORSDOF 0
ENDMDL
MODEL 7
REMARK VINA RESULT:       3.9      1.364      2.069
REMARK  0 active torsions:
REMARK  status: ('A' for Active; 'I' for Inactive)
ROOT
HETATM    1  C1  UNL     1     -33.342   5.418   2.670  1.00 20.00    -0.017 C 
HETATM    2  C2  UNL     1     -33.868   4.511   3.742  1.00 20.00     0.155 C 
HETATM    3  C3  UNL     1     -32.325   5.060   1.880  1.00 20.00     0.023 C 
HETATM    4  C4  UNL     1     -34.983   5.110   4.595  1.00 20.00     0.089 C 
HETATM    5  C5  UNL     1     -35.570   6.567   2.600  1.00 20.00     0.016 C 
HETATM    6  C6  UNL     1     -34.012   6.751   2.532  1.00 20.00     0.030 C 
HETATM    7  C7  UNL     1     -35.370   6.534   4.149  1.00 20.00     0.002 C 
HETATM    8  C8  UNL     1     -34.157   7.533   3.911  1.00 20.00    -0.036 C 
HETATM    9  C9  UNL     1     -34.561   9.013   3.767  1.00 20.00     0.016 C 
HETATM   10  C10 UNL     1     -32.989   7.464   4.902  1.00 20.00     0.016 C 
HETATM   11  O11 UNL     1     -33.436   3.378   3.929  1.00 20.00    -0.293 OA
ENDROOT
TORSDOF 0
ENDMDL
MODEL 8
REMARK VINA RESULT:       3.9      1.896      3.652
REMARK  0 active torsions:
REMARK  status: ('A' for Active; 'I' for Inactive)
ROOT
HETATM    1  C1  UNL     1     -32.460   7.434   1.903  1.00 20.00    -0.017 C 
HETATM    2  C2  UNL     1     -33.452   7.254   3.013  1.00 20.00     0.155 C 
HETATM    3  C3  UNL     1     -31.995   8.639   1.561  1.00 20.00     0.023 C 
HETATM    4  C4  UNL     1     -33.928   5.819   3.219  1.00 20.00     0.089 C 
HETATM    5  C5  UNL     1     -31.709   5.065   2.241  1.00 20.00     0.016 C 
HETATM    6  C6  UNL     1     -32.019   6.191   1.191  1.00 20.00     0.030 C 
HETATM    7  C7  UNL     1     -33.253   4.827   2.250  1.00 20.00     0.002 C 
HETATM    8  C8  UNL     1     -33.228   5.266   0.724  1.00 20.00    -0.036 C 
HETATM    9  C9  UNL     1     -32.832   4.148  -0.261  1.00 20.00     0.016 C 
HETATM   10  C10 UNL     1     -34.483   5.951   0.172  1.00 20.00     0.016 C 
HETATM   11  O11 UNL     1     -33.859   8.185   3.701  1.00 20.00    -0.293 OA
ENDROOT
TORSDOF 0
ENDMDL
MODEL 9
REMARK VINA RESULT:       4.3      0.904      2.576
REMARK  0 active torsions:
REMARK  status: ('A' for Active; 'I' for Inactive)
ROOT
HETATM    1  C1  UNL     1     -35.413   6.693   3.369  1.00 20.00    -0.017 C 
HETATM    2  C2  UNL     1     -34.939   5.537   4.197  1.00 20.00     0.155 C 
HETATM    3  C3  UNL     1     -36.683   6.798   2.965  1.00 20.00     0.023 C 
HETATM    4  C4  UNL     1     -33.445   5.543   4.507  1.00 20.00     0.089 C 
HETATM    5  C5  UNL     1     -33.524   8.070   4.278  1.00 20.00     0.016 C 
HETATM    6  C6  UNL     1     -34.387   7.727   3.012  1.00 20.00     0.030 C 
HETATM    7  C7  UNL     1     -32.724   6.776   3.925  1.00 20.00     0.002 C 
HETATM    8  C8  UNL     1     -33.051   7.110   2.407  1.00 20.00    -0.036 C 
HETATM    9  C9  UNL     1     -32.108   8.142   1.758  1.00 20.00     0.016 C 
HETATM   10  C10 UNL     1     -33.180   5.925   1.442  1.00 20.00     0.016 C 
HETATM   11  O11 UNL     1     -35.687   4.648   4.592  1.00 20.00    -0.293 OA
ENDROOT
TORSDOF 0
ENDMDL
