MODEL 1
REMARK VINA RESULT:      -1.6      0.000      0.000
REMARK  1 active torsions:
REMARK  status: ('A' for Active; 'I' for Inactive)
REMARK    1  A    between atoms: C4_4  and  C6_6 
REMARK       I    between atoms: C4_4  and  N8_8 
ROOT
HETATM    1  C1  UNL     1     -35.031   6.009   4.135  1.00 20.00     0.135 A 
HETATM    2  C2  UNL     1     -34.204   5.586   3.121  1.00 20.00     0.120 A 
HETATM    3  C3  UNL     1     -33.780   7.665   3.687  1.00 20.00     0.216 A 
HETATM    4  C4  UNL     1     -32.377   6.751   1.871  1.00 20.00     0.228 C 
HETATM    5  N7  UNL     1     -34.761   7.302   4.483  1.00 20.00    -0.254 NA
HETATM    6  N8  UNL     1     -33.391   6.658   2.827  1.00 20.00    -0.286 N 
HETATM    7  O9  UNL     1     -32.127   5.782   1.168  1.00 20.00    -0.273 OA
ENDROOT
BRANCH   4   8
HETATM    8  C6  UNL     1     -31.671   8.071   1.801  1.00 20.00     0.099 C 
HETATM    9  C5  UNL     1     -32.249   8.917   0.688  1.00 20.00     0.014 C 
ENDBRANCH   4   8
TORSDOF 1
ENDMDL
MODEL 2
REMARK VINA RESULT:      -1.4      1.953      4.000
REMARK  1 active torsions:
REMARK  status: ('A' for Active; 'I' for Inactive)
REMARK    1  A    between atoms: C4_4  and  C6_6 
REMARK       I    between atoms: C4_4  and  N8_8 
ROOT
HETATM    1  C1  UNL     1     -31.611   7.579   1.567  1.00 20.00     0.135 A 
HETATM    2  C2  UNL     1     -32.249   8.037   2.696  1.00 20.00     0.120 A 
HETATM    3  C3  UNL     1     -33.219   6.234   1.902  1.00 20.00     0.216 A 
HETATM    4  C4  UNL     1     -34.247   7.184   3.937  1.00 20.00     0.228 C 
HETATM    5  N7  UNL     1     -32.219   6.457   1.079  1.00 20.00    -0.254 NA
HETATM    6  N8  UNL     1     -33.292   7.166   2.917  1.00 20.00    -0.286 N 
HETATM    7  O9  UNL     1     -34.203   8.068   4.781  1.00 20.00    -0.273 OA
ENDROOT
BRANCH   4   8
HETATM    8  C6  UNL     1     -35.262   6.083   3.896  1.00 20.00     0.099 C 
HETATM    9  C5  UNL     1     -34.670   4.803   4.442  1.00 20.00     0.014 C 
ENDBRANCH   4   8
TORSDOF 1
ENDMDL
MODEL 3
REMARK VINA RESULT:      -0.9      1.990      4.046
REMARK  1 active torsions:
REMARK  status: ('A' for Active; 'I' for Inactive)
REMARK    1  A    between atoms: C4_4  and  C6_6 
REMARK       I    between atoms: C4_4  and  N8_8 
ROOT
HETATM    1  C1  UNL     1     -32.280   8.020   1.846  1.00 20.00     0.135 A 
HETATM    2  C2  UNL     1     -33.269   7.793   2.774  1.00 20.00     0.120 A 
HETATM    3  C3  UNL     1     -32.489   5.910   1.954  1.00 20.00     0.216 A 
HETATM    4  C4  UNL     1     -34.279   5.674   3.641  1.00 20.00     0.228 C 
HETATM    5  N7  UNL     1     -31.799   6.845   1.341  1.00 20.00    -0.254 NA
HETATM    6  N8  UNL     1     -33.407   6.425   2.847  1.00 20.00    -0.286 N 
HETATM    7  O9  UNL     1     -35.047   6.252   4.396  1.00 20.00    -0.273 OA
ENDROOT
BRANCH   4   8
HETATM    8  C6  UNL     1     -34.180   4.187   3.485  1.00 20.00     0.099 C 
HETATM    9  C5  UNL     1     -33.582   3.568   4.728  1.00 20.00     0.014 C 
ENDBRANCH   4   8
TORSDOF 1
ENDMDL
MODEL 4
REMARK VINA RESULT:      -0.6      1.291      2.230
REMARK  1 active torsions:
REMARK  status: ('A' for Active; 'I' for Inactive)
REMARK    1  A    between atoms: C4_4  and  C6_6 
REMARK       I    between atoms: C4_4  and  N8_8 
ROOT
HETATM    1  C1  UNL     1     -34.407   7.616   4.598  1.00 20.00     0.135 A 
HETATM    2  C2  UNL     1     -33.382   7.959   3.748  1.00 20.00     0.120 A 
HETATM    3  C3  UNL     1     -34.300   6.049   3.170  1.00 20.00     0.216 A 
HETATM    4  C4  UNL     1     -32.436   6.810   1.737  1.00 20.00     0.228 C 
HETATM    5  N7  UNL     1     -34.973   6.427   4.232  1.00 20.00    -0.254 NA
HETATM    6  N8  UNL     1     -33.310   6.945   2.820  1.00 20.00    -0.286 N 
HETATM    7  O9  UNL     1     -31.600   7.678   1.533  1.00 20.00    -0.273 OA
ENDROOT
BRANCH   4   8
HETATM    8  C6  UNL     1     -32.618   5.576   0.907  1.00 20.00     0.099 C 
HETATM    9  C5  UNL     1     -31.409   4.675   1.034  1.00 20.00     0.014 C 
ENDBRANCH   4   8
TORSDOF 1
ENDMDL
MODEL 5
REMARK VINA RESULT:      -0.5      0.904      1.028
REMARK  1 active torsions:
REMARK  status: ('A' for Active; 'I' for Inactive)
REMARK    1  A    between atoms: C4_4  and  C6_6 
REMARK       I    between atoms: C4_4  and  N8_8 
ROOT
HETATM    1  C1  UNL     1     -34.198   5.402   3.593  1.00 20.00     0.135 A 
HETATM    2  C2  UNL     1     -33.133   5.572   2.739  1.00 20.00     0.120 A 
HETATM    3  C3  UNL     1     -34.104   7.487   3.203  1.00 20.00     0.216 A 
HETATM    4  C4  UNL     1     -32.166   7.620   1.677  1.00 20.00     0.228 C 
HETATM    5  N7  UNL     1     -34.797   6.597   3.877  1.00 20.00    -0.254 NA
HETATM    6  N8  UNL     1     -33.069   6.924   2.484  1.00 20.00    -0.286 N 
HETATM    7  O9  UNL     1     -31.289   7.002   1.091  1.00 20.00    -0.273 OA
ENDROOT
BRANCH   4   8
HETATM    8  C6  UNL     1     -32.367   9.103   1.609  1.00 20.00     0.099 C 
HETATM    9  C5  UNL     1     -32.440   9.557   0.167  1.00 20.00     0.014 C 
ENDBRANCH   4   8
TORSDOF 1
ENDMDL
MODEL 6
REMARK VINA RESULT:      -0.4      2.062      4.003
REMARK  1 active torsions:
REMARK  status: ('A' for Active; 'I' for Inactive)
REMARK    1  A    between atoms: C4_4  and  C6_6 
REMARK       I    between atoms: C4_4  and  N8_8 
ROOT
HETATM    1  C1  UNL     1     -32.064  10.054  -0.414  1.00 20.00     0.135 A 
HETATM    2  C2  UNL     1     -31.874   8.748  -0.027  1.00 20.00     0.120 A 
HETATM    3  C3  UNL     1     -32.918   9.901   1.523  1.00 20.00     0.216 A 
HETATM    4  C4  UNL     1     -32.499   7.527   2.065  1.00 20.00     0.228 C 
HETATM    5  N7  UNL     1     -32.714  10.765   0.555  1.00 20.00    -0.254 NA
HETATM    6  N8  UNL     1     -32.428   8.645   1.229  1.00 20.00    -0.286 N 
HETATM    7  O9  UNL     1     -32.025   6.466   1.686  1.00 20.00    -0.273 OA
ENDROOT
BRANCH   4   8
HETATM    8  C6  UNL     1     -33.174   7.747   3.385  1.00 20.00     0.099 C 
HETATM    9  C5  UNL     1     -34.280   6.735   3.584  1.00 20.00     0.014 C 
ENDBRANCH   4   8
TORSDOF 1
ENDMDL
MODEL 7
REMARK VINA RESULT:      -0.3      1.893      3.408
REMARK  1 active torsions:
REMARK  status: ('A' for Active; 'I' for Inactive)
REMARK    1  A    between atoms: C4_4  and  C6_6 
REMARK       I    between atoms: C4_4  and  N8_8 
ROOT
HETATM    1  C1  UNL     1     -32.090   5.816   1.044  1.00 20.00     0.135 A 
HETATM    2  C2  UNL     1     -33.124   5.475   1.884  1.00 20.00     0.120 A 
HETATM    3  C3  UNL     1     -32.456   7.538   2.231  1.00 20.00     0.216 A 
HETATM    4  C4  UNL     1     -34.314   6.768   3.664  1.00 20.00     0.228 C 
HETATM    5  N7  UNL     1     -31.680   7.101   1.265  1.00 20.00    -0.254 NA
HETATM    6  N8  UNL     1     -33.364   6.590   2.655  1.00 20.00    -0.286 N 
HETATM    7  O9  UNL     1     -35.066   5.846   3.947  1.00 20.00    -0.273 OA
ENDROOT
BRANCH   4   8
HETATM    8  C6  UNL     1     -34.320   8.115   4.320  1.00 20.00     0.099 C 
HETATM    9  C5  UNL     1     -33.207   8.207   5.341  1.00 20.00     0.014 C 
ENDBRANCH   4   8
TORSDOF 1
ENDMDL
MODEL 8
REMARK VINA RESULT:      -0.2      1.744      2.135
REMARK  1 active torsions:
REMARK  status: ('A' for Active; 'I' for Inactive)
REMARK    1  A    between atoms: C4_4  and  C6_6 
REMARK       I    between atoms: C4_4  and  N8_8 
ROOT
HETATM    1  C1  UNL     1     -35.263   4.910   4.586  1.00 20.00     0.135 A 
HETATM    2  C2  UNL     1     -35.113   6.235   4.251  1.00 20.00     0.120 A 
HETATM    3  C3  UNL     1     -33.557   4.991   3.325  1.00 20.00     0.216 A 
HETATM    4  C4  UNL     1     -33.427   7.406   2.820  1.00 20.00     0.228 C 
HETATM    5  N7  UNL     1     -34.293   4.142   4.007  1.00 20.00    -0.254 NA
HETATM    6  N8  UNL     1     -34.007   6.292   3.433  1.00 20.00    -0.286 N 
HETATM    7  O9  UNL     1     -33.925   8.509   2.995  1.00 20.00    -0.273 OA
ENDROOT
BRANCH   4   8
HETATM    8  C6  UNL     1     -32.217   7.129   1.982  1.00 20.00     0.099 C 
HETATM    9  C5  UNL     1     -31.835   8.360   1.190  1.00 20.00     0.014 C 
ENDBRANCH   4   8
TORSDOF 1
ENDMDL
MODEL 9
REMARK VINA RESULT:      -0.2      2.615      4.337
REMARK  1 active torsions:
REMARK  status: ('A' for Active; 'I' for Inactive)
REMARK    1  A    between atoms: C4_4  and  C6_6 
REMARK       I    between atoms: C4_4  and  N8_8 
ROOT
HETATM    1  C1  UNL     1     -32.863  10.859  -0.003  1.00 20.00     0.135 A 
HETATM    2  C2  UNL     1     -32.601  10.309   1.230  1.00 20.00     0.120 A 
HETATM    3  C3  UNL     1     -32.511   8.796  -0.360  1.00 20.00     0.216 A 
HETATM    4  C4  UNL     1     -32.062   7.966   1.923  1.00 20.00     0.228 C 
HETATM    5  N7  UNL     1     -32.805   9.912  -0.987  1.00 20.00    -0.254 NA
HETATM    6  N8  UNL     1     -32.372   8.970   1.002  1.00 20.00    -0.286 N 
HETATM    7  O9  UNL     1     -31.964   8.251   3.108  1.00 20.00    -0.273 OA
ENDROOT
BRANCH   4   8
HETATM    8  C6  UNL     1     -31.870   6.595   1.349  1.00 20.00     0.099 C 
HETATM    9  C5  UNL     1     -33.032   5.702   1.724  1.00 20.00     0.014 C 
ENDBRANCH   4   8
TORSDOF 1
ENDMDL
