MODEL 1
REMARK VINA RESULT:       0.9      0.000      0.000
REMARK  0 active torsions:
REMARK  status: ('A' for Active; 'I' for Inactive)
ROOT
HETATM    1  C1  UNL     1     -35.331   5.356   3.946  1.00 20.00    -0.024 C 
HETATM    2  C2  UNL     1     -34.053   4.947   4.067  1.00 20.00    -0.083 C 
HETATM    3  C3  UNL     1     -35.656   6.759   3.476  1.00 20.00     0.033 C 
HETATM    4  C4  UNL     1     -33.372   7.349   4.424  1.00 20.00     0.015 C 
HETATM    5  C5  UNL     1     -33.004   5.980   3.741  1.00 20.00     0.022 C 
HETATM    6  C6  UNL     1     -34.342   7.523   3.209  1.00 20.00    -0.002 C 
HETATM    7  C7  UNL     1     -33.251   6.735   2.359  1.00 20.00    -0.036 C 
HETATM    8  C8  UNL     1     -33.625   3.586   4.499  1.00 20.00     0.043 C 
HETATM    9  C9  UNL     1     -33.748   5.912   1.164  1.00 20.00     0.016 C 
HETATM   10  C10 UNL     1     -32.063   7.588   1.868  1.00 20.00     0.016 C 
ENDROOT
TORSDOF 0
ENDMDL
MODEL 2
REMARK VINA RESULT:       1.8      1.261      2.940
REMARK  0 active torsions:
REMARK  status: ('A' for Active; 'I' for Inactive)
ROOT
HETATM    1  C1  UNL     1     -33.101   5.243   3.174  1.00 20.00    -0.024 C 
HETATM    2  C2  UNL     1     -34.007   6.237   3.101  1.00 20.00    -0.083 C 
HETATM    3  C3  UNL     1     -31.966   5.154   2.173  1.00 20.00     0.033 C 
HETATM    4  C4  UNL     1     -33.549   6.408   0.628  1.00 20.00     0.015 C 
HETATM    5  C5  UNL     1     -33.829   7.202   1.957  1.00 20.00     0.022 C 
HETATM    6  C6  UNL     1     -32.082   6.318   1.167  1.00 20.00    -0.002 C 
HETATM    7  C7  UNL     1     -32.341   7.754   1.805  1.00 20.00    -0.036 C 
HETATM    8  C8  UNL     1     -35.146   6.430   4.044  1.00 20.00     0.043 C 
HETATM    9  C9  UNL     1     -31.567   8.107   3.082  1.00 20.00     0.016 C 
HETATM   10  C10 UNL     1     -32.187   8.940   0.832  1.00 20.00     0.016 C 
ENDROOT
TORSDOF 0
ENDMDL
MODEL 3
REMARK VINA RESULT:       2.5      1.756      3.379
REMARK  0 active torsions:
REMARK  status: ('A' for Active; 'I' for Inactive)
ROOT
HETATM    1  C1  UNL     1     -32.801   8.037   4.036  1.00 20.00    -0.024 C 
HETATM    2  C2  UNL     1     -33.628   7.463   3.140  1.00 20.00    -0.083 C 
HETATM    3  C3  UNL     1     -31.470   8.617   3.603  1.00 20.00     0.033 C 
HETATM    4  C4  UNL     1     -31.622   6.929   1.707  1.00 20.00     0.015 C 
HETATM    5  C5  UNL     1     -33.119   7.412   1.721  1.00 20.00     0.022 C 
HETATM    6  C6  UNL     1     -31.296   8.412   2.083  1.00 20.00    -0.002 C 
HETATM    7  C7  UNL     1     -32.554   8.805   1.189  1.00 20.00    -0.036 C 
HETATM    8  C8  UNL     1     -34.964   6.883   3.454  1.00 20.00     0.043 C 
HETATM    9  C9  UNL     1     -33.313  10.084   1.565  1.00 20.00     0.016 C 
HETATM   10  C10 UNL     1     -32.288   8.857  -0.329  1.00 20.00     0.016 C 
ENDROOT
TORSDOF 0
ENDMDL
MODEL 4
REMARK VINA RESULT:       2.7      1.411      2.981
REMARK  0 active torsions:
REMARK  status: ('A' for Active; 'I' for Inactive)
ROOT
HETATM    1  C1  UNL     1     -33.205   7.688   2.748  1.00 20.00    -0.024 C 
HETATM    2  C2  UNL     1     -33.845   6.541   3.045  1.00 20.00    -0.083 C 
HETATM    3  C3  UNL     1     -32.074   7.707   1.739  1.00 20.00     0.033 C 
HETATM    4  C4  UNL     1     -31.765   5.270   2.398  1.00 20.00     0.015 C 
HETATM    5  C5  UNL     1     -33.337   5.308   2.341  1.00 20.00     0.022 C 
HETATM    6  C6  UNL     1     -31.847   6.277   1.203  1.00 20.00    -0.002 C 
HETATM    7  C7  UNL     1     -33.161   5.491   0.767  1.00 20.00    -0.036 C 
HETATM    8  C8  UNL     1     -34.980   6.415   4.003  1.00 20.00     0.043 C 
HETATM    9  C9  UNL     1     -34.234   6.280   0.006  1.00 20.00     0.016 C 
HETATM   10  C10 UNL     1     -32.912   4.183  -0.012  1.00 20.00     0.016 C 
ENDROOT
TORSDOF 0
ENDMDL
MODEL 5
REMARK VINA RESULT:       3.0      1.175      3.495
REMARK  0 active torsions:
REMARK  status: ('A' for Active; 'I' for Inactive)
ROOT
HETATM    1  C1  UNL     1     -31.886   8.208   3.505  1.00 20.00    -0.024 C 
HETATM    2  C2  UNL     1     -32.538   7.900   2.367  1.00 20.00    -0.083 C 
HETATM    3  C3  UNL     1     -32.598   8.168   4.842  1.00 20.00     0.033 C 
HETATM    4  C4  UNL     1     -34.694   8.603   3.470  1.00 20.00     0.015 C 
HETATM    5  C5  UNL     1     -33.998   7.557   2.523  1.00 20.00     0.022 C 
HETATM    6  C6  UNL     1     -34.068   7.751   4.624  1.00 20.00    -0.002 C 
HETATM    7  C7  UNL     1     -34.291   6.493   3.674  1.00 20.00    -0.036 C 
HETATM    8  C8  UNL     1     -31.929   7.887   1.006  1.00 20.00     0.043 C 
HETATM    9  C9  UNL     1     -33.324   5.312   3.830  1.00 20.00     0.016 C 
HETATM   10  C10 UNL     1     -35.722   5.919   3.674  1.00 20.00     0.016 C 
ENDROOT
TORSDOF 0
ENDMDL
MODEL 6
REMARK VINA RESULT:       3.3      1.324      3.525
REMARK  0 active torsions:
REMARK  status: ('A' for Active; 'I' for Inactive)
ROOT
HETATM    1  C1  UNL     1     -32.283   4.905   0.626  1.00 20.00    -0.024 C 
HETATM    2  C2  UNL     1     -33.507   5.441   0.447  1.00 20.00    -0.083 C 
HETATM    3  C3  UNL     1     -31.349   5.442   1.691  1.00 20.00     0.033 C 
HETATM    4  C4  UNL     1     -32.637   7.614   1.386  1.00 20.00     0.015 C 
HETATM    5  C5  UNL     1     -33.845   6.607   1.340  1.00 20.00     0.022 C 
HETATM    6  C6  UNL     1     -32.036   6.612   2.427  1.00 20.00    -0.002 C 
HETATM    7  C7  UNL     1     -33.538   6.348   2.883  1.00 20.00    -0.036 C 
HETATM    8  C8  UNL     1     -34.509   4.976  -0.554  1.00 20.00     0.043 C 
HETATM    9  C9  UNL     1     -33.866   4.966   3.463  1.00 20.00     0.016 C 
HETATM   10  C10 UNL     1     -34.125   7.401   3.845  1.00 20.00     0.016 C 
ENDROOT
TORSDOF 0
ENDMDL
MODEL 7
REMARK VINA RESULT:       3.3      0.961      3.277
REMARK  0 active torsions:
REMARK  status: ('A' for Active; 'I' for Inactive)
ROOT
HETATM    1  C1  UNL     1     -32.375   7.254   2.553  1.00 20.00    -0.024 C 
HETATM    2  C2  UNL     1     -33.142   6.382   1.870  1.00 20.00    -0.083 C 
HETATM    3  C3  UNL     1     -32.823   7.795   3.895  1.00 20.00     0.033 C 
HETATM    4  C4  UNL     1     -35.169   7.332   3.031  1.00 20.00     0.015 C 
HETATM    5  C5  UNL     1     -34.459   6.027   2.514  1.00 20.00     0.022 C 
HETATM    6  C6  UNL     1     -34.200   7.196   4.252  1.00 20.00    -0.002 C 
HETATM    7  C7  UNL     1     -34.337   5.623   4.051  1.00 20.00    -0.036 C 
HETATM    8  C8  UNL     1     -32.788   5.774   0.556  1.00 20.00     0.043 C 
HETATM    9  C9  UNL     1     -33.148   4.752   4.477  1.00 20.00     0.016 C 
HETATM   10  C10 UNL     1     -35.608   4.993   4.657  1.00 20.00     0.016 C 
ENDROOT
TORSDOF 0
ENDMDL
MODEL 8
REMARK VINA RESULT:       3.6      1.732      4.455
REMARK  0 active torsions:
REMARK  status: ('A' for Active; 'I' for Inactive)
ROOT
HETATM    1  C1  UNL     1     -31.322   8.459   0.379  1.00 20.00    -0.024 C 
HETATM    2  C2  UNL     1     -32.396   9.201   0.710  1.00 20.00    -0.083 C 
HETATM    3  C3  UNL     1     -30.820   7.367   1.301  1.00 20.00     0.033 C 
HETATM    4  C4  UNL     1     -31.893   8.756   3.141  1.00 20.00     0.015 C 
HETATM    5  C5  UNL     1     -33.017   8.891   2.048  1.00 20.00     0.022 C 
HETATM    6  C6  UNL     1     -31.710   7.314   2.561  1.00 20.00    -0.002 C 
HETATM    7  C7  UNL     1     -33.280   7.338   2.292  1.00 20.00    -0.036 C 
HETATM    8  C8  UNL     1     -32.983  10.283  -0.131  1.00 20.00     0.043 C 
HETATM    9  C9  UNL     1     -33.807   6.501   1.120  1.00 20.00     0.016 C 
HETATM   10  C10 UNL     1     -34.158   7.015   3.518  1.00 20.00     0.016 C 
ENDROOT
TORSDOF 0
ENDMDL
MODEL 9
REMARK VINA RESULT:       3.6      1.153      3.694
REMARK  0 active torsions:
REMARK  status: ('A' for Active; 'I' for Inactive)
ROOT
HETATM    1  C1  UNL     1     -32.871   7.788   0.837  1.00 20.00    -0.024 C 
HETATM    2  C2  UNL     1     -32.079   7.625   1.914  1.00 20.00    -0.083 C 
HETATM    3  C3  UNL     1     -33.758   6.662   0.348  1.00 20.00     0.033 C 
HETATM    4  C4  UNL     1     -32.033   5.148   1.442  1.00 20.00     0.015 C 
HETATM    5  C5  UNL     1     -32.118   6.259   2.552  1.00 20.00     0.022 C 
HETATM    6  C6  UNL     1     -33.561   5.428   1.255  1.00 20.00    -0.002 C 
HETATM    7  C7  UNL     1     -33.592   5.715   2.821  1.00 20.00    -0.036 C 
HETATM    8  C8  UNL     1     -31.186   8.671   2.490  1.00 20.00     0.043 C 
HETATM    9  C9  UNL     1     -34.646   6.705   3.334  1.00 20.00     0.016 C 
HETATM   10  C10 UNL     1     -33.666   4.461   3.715  1.00 20.00     0.016 C 
ENDROOT
TORSDOF 0
ENDMDL
