MODEL 1
REMARK VINA RESULT:       2.7      0.000      0.000
REMARK  1 active torsions:
REMARK  status: ('A' for Active; 'I' for Inactive)
REMARK    1  A    between atoms: C3_3  and  N6_6 
ROOT
HETATM    1  C1  UNL     1     -32.396   8.367   3.337  1.00 20.00     0.123 C 
HETATM    2  C2  UNL     1     -31.611   6.779   1.408  1.00 20.00     0.123 C 
HETATM    3  C3  UNL     1     -31.837   8.223   1.905  1.00 20.00     0.242 C 
HETATM    4  S7  UNL     1     -34.063   7.672   3.601  1.00 20.00    -0.084 SA
HETATM    5  S8  UNL     1     -33.115   5.753   1.271  1.00 20.00    -0.084 SA
HETATM    6  S9  UNL     1     -33.677   5.698   3.236  1.00 20.00    -0.025 SA
ENDROOT
BRANCH   3   7
HETATM    7  N6  UNL     1     -32.656   8.978   0.950  1.00 20.00     0.086 N 
HETATM    8  C4  UNL     1     -32.068   8.907  -0.384  1.00 20.00     0.310 C 
HETATM    9  C5  UNL     1     -32.785  10.366   1.385  1.00 20.00     0.310 C 
ENDBRANCH   3   7
TORSDOF 1
ENDMDL
MODEL 2
REMARK VINA RESULT:       4.1      3.311      4.173
REMARK  1 active torsions:
REMARK  status: ('A' for Active; 'I' for Inactive)
REMARK    1  A    between atoms: C3_3  and  N6_6 
ROOT
HETATM    1  C1  UNL     1     -34.489   7.406   3.373  1.00 20.00     0.123 C 
HETATM    2  C2  UNL     1     -33.658   5.619   1.647  1.00 20.00     0.123 C 
HETATM    3  C3  UNL     1     -34.472   5.929   2.922  1.00 20.00     0.242 C 
HETATM    4  S7  UNL     1     -32.868   8.097   3.852  1.00 20.00    -0.084 SA
HETATM    5  S8  UNL     1     -31.864   5.939   1.767  1.00 20.00    -0.084 SA
HETATM    6  S9  UNL     1     -31.892   7.963   2.060  1.00 20.00    -0.025 SA
ENDROOT
BRANCH   3   7
HETATM    7  N6  UNL     1     -34.062   5.054   4.025  1.00 20.00     0.086 N 
HETATM    8  C4  UNL     1     -33.613   3.766   3.506  1.00 20.00     0.310 C 
HETATM    9  C5  UNL     1     -35.165   4.878   4.965  1.00 20.00     0.310 C 
ENDBRANCH   3   7
TORSDOF 1
ENDMDL
MODEL 3
REMARK VINA RESULT:       5.0      3.040      3.957
REMARK  1 active torsions:
REMARK  status: ('A' for Active; 'I' for Inactive)
REMARK    1  A    between atoms: C3_3  and  N6_6 
ROOT
HETATM    1  C1  UNL     1     -34.385   7.456   4.080  1.00 20.00     0.123 C 
HETATM    2  C2  UNL     1     -33.517   6.771   1.705  1.00 20.00     0.123 C 
HETATM    3  C3  UNL     1     -34.218   6.350   3.015  1.00 20.00     0.242 C 
HETATM    4  S7  UNL     1     -32.830   8.137   4.753  1.00 20.00    -0.084 SA
HETATM    5  S8  UNL     1     -31.781   7.309   1.884  1.00 20.00    -0.084 SA
HETATM    6  S9  UNL     1     -32.051   8.965   3.054  1.00 20.00    -0.025 SA
ENDROOT
BRANCH   3   7
HETATM    7  N6  UNL     1     -33.572   5.167   3.593  1.00 20.00     0.086 N 
HETATM    8  C4  UNL     1     -33.073   4.298   2.532  1.00 20.00     0.310 C 
HETATM    9  C5  UNL     1     -34.511   4.450   4.451  1.00 20.00     0.310 C 
ENDBRANCH   3   7
TORSDOF 1
ENDMDL
MODEL 4
REMARK VINA RESULT:       5.3      1.989      3.237
REMARK  1 active torsions:
REMARK  status: ('A' for Active; 'I' for Inactive)
REMARK    1  A    between atoms: C3_3  and  N6_6 
ROOT
HETATM    1  C1  UNL     1     -33.884   5.099   1.855  1.00 20.00     0.123 C 
HETATM    2  C2  UNL     1     -34.187   7.615   2.520  1.00 20.00     0.123 C 
HETATM    3  C3  UNL     1     -33.390   6.557   1.727  1.00 20.00     0.242 C 
HETATM    4  S7  UNL     1     -33.786   4.384   3.532  1.00 20.00    -0.084 SA
HETATM    5  S8  UNL     1     -34.152   7.422   4.335  1.00 20.00    -0.084 SA
HETATM    6  S9  UNL     1     -35.093   5.614   4.510  1.00 20.00    -0.025 SA
ENDROOT
BRANCH   3   7
HETATM    7  N6  UNL     1     -31.958   6.648   2.032  1.00 20.00     0.086 N 
HETATM    8  C4  UNL     1     -31.455   7.975   1.692  1.00 20.00     0.310 C 
HETATM    9  C5  UNL     1     -31.223   5.614   1.311  1.00 20.00     0.310 C 
ENDBRANCH   3   7
TORSDOF 1
ENDMDL
MODEL 5
REMARK VINA RESULT:       5.3      2.405      3.797
REMARK  1 active torsions:
REMARK  status: ('A' for Active; 'I' for Inactive)
REMARK    1  A    between atoms: C3_3  and  N6_6 
ROOT
HETATM    1  C1  UNL     1     -32.613   6.151   1.648  1.00 20.00     0.123 C 
HETATM    2  C2  UNL     1     -31.830   8.447   2.635  1.00 20.00     0.123 C 
HETATM    3  C3  UNL     1     -32.558   7.104   2.861  1.00 20.00     0.242 C 
HETATM    4  S7  UNL     1     -33.535   6.775   0.201  1.00 20.00    -0.084 SA
HETATM    5  S8  UNL     1     -32.590   9.550   1.393  1.00 20.00    -0.084 SA
HETATM    6  S9  UNL     1     -32.376   8.390  -0.278  1.00 20.00    -0.025 SA
ENDROOT
BRANCH   3   7
HETATM    7  N6  UNL     1     -33.901   7.327   3.407  1.00 20.00     0.086 N 
HETATM    8  C4  UNL     1     -33.818   8.080   4.655  1.00 20.00     0.310 C 
HETATM    9  C5  UNL     1     -34.578   6.051   3.616  1.00 20.00     0.310 C 
ENDBRANCH   3   7
TORSDOF 1
ENDMDL
MODEL 6
REMARK VINA RESULT:       5.3      2.155      3.378
REMARK  1 active torsions:
REMARK  status: ('A' for Active; 'I' for Inactive)
REMARK    1  A    between atoms: C3_3  and  N6_6 
ROOT
HETATM    1  C1  UNL     1     -33.104   7.965   1.928  1.00 20.00     0.123 C 
HETATM    2  C2  UNL     1     -34.577   6.521   3.543  1.00 20.00     0.123 C 
HETATM    3  C3  UNL     1     -33.739   7.800   3.326  1.00 20.00     0.242 C 
HETATM    4  S7  UNL     1     -31.875   6.695   1.470  1.00 20.00    -0.084 SA
HETATM    5  S8  UNL     1     -33.653   4.950   3.421  1.00 20.00    -0.084 SA
HETATM    6  S9  UNL     1     -33.074   5.039   1.462  1.00 20.00    -0.025 SA
ENDROOT
BRANCH   3   7
HETATM    7  N6  UNL     1     -32.725   7.940   4.376  1.00 20.00     0.086 N 
HETATM    8  C4  UNL     1     -33.355   8.318   5.636  1.00 20.00     0.310 C 
HETATM    9  C5  UNL     1     -31.724   8.927   3.981  1.00 20.00     0.310 C 
ENDBRANCH   3   7
TORSDOF 1
ENDMDL
MODEL 7
REMARK VINA RESULT:       5.4      2.303      3.531
REMARK  1 active torsions:
REMARK  status: ('A' for Active; 'I' for Inactive)
REMARK    1  A    between atoms: C3_3  and  N6_6 
ROOT
HETATM    1  C1  UNL     1     -33.253   5.842   1.761  1.00 20.00     0.123 C 
HETATM    2  C2  UNL     1     -35.024   6.037   3.682  1.00 20.00     0.123 C 
HETATM    3  C3  UNL     1     -33.992   6.742   2.776  1.00 20.00     0.242 C 
HETATM    4  S7  UNL     1     -32.202   4.539   2.490  1.00 20.00    -0.084 SA
HETATM    5  S8  UNL     1     -34.340   4.774   4.811  1.00 20.00    -0.084 SA
HETATM    6  S9  UNL     1     -33.633   3.431   3.440  1.00 20.00    -0.025 SA
ENDROOT
BRANCH   3   7
HETATM    7  N6  UNL     1     -33.036   7.512   3.579  1.00 20.00     0.086 N 
HETATM    8  C4  UNL     1     -33.744   8.329   4.558  1.00 20.00     0.310 C 
HETATM    9  C5  UNL     1     -32.206   8.345   2.712  1.00 20.00     0.310 C 
ENDBRANCH   3   7
TORSDOF 1
ENDMDL
MODEL 8
REMARK VINA RESULT:       5.6      2.499      3.889
REMARK  1 active torsions:
REMARK  status: ('A' for Active; 'I' for Inactive)
REMARK    1  A    between atoms: C3_3  and  N6_6 
ROOT
HETATM    1  C1  UNL     1     -31.209   8.012   0.557  1.00 20.00     0.123 C 
HETATM    2  C2  UNL     1     -32.298   8.518   2.885  1.00 20.00     0.123 C 
HETATM    3  C3  UNL     1     -31.809   7.463   1.870  1.00 20.00     0.242 C 
HETATM    4  S7  UNL     1     -32.362   8.959  -0.495  1.00 20.00    -0.084 SA
HETATM    5  S8  UNL     1     -33.677   9.571   2.317  1.00 20.00    -0.084 SA
HETATM    6  S9  UNL     1     -32.765  10.525   0.756  1.00 20.00    -0.025 SA
ENDROOT
BRANCH   3   7
HETATM    7  N6  UNL     1     -32.866   6.485   1.589  1.00 20.00     0.086 N 
HETATM    8  C4  UNL     1     -33.597   6.170   2.812  1.00 20.00     0.310 C 
HETATM    9  C5  UNL     1     -32.291   5.277   1.003  1.00 20.00     0.310 C 
ENDBRANCH   3   7
TORSDOF 1
ENDMDL
