MODEL 1
REMARK VINA RESULT:       6.0      0.000      0.000
REMARK  1 active torsions:
REMARK  status: ('A' for Active; 'I' for Inactive)
REMARK    1  A    between atoms: C11_11  and  C12_12 
ROOT
HETATM    1  C1  UNL     1     -34.730   4.973   4.406  1.00 20.00     0.059 C 
HETATM    2  C12 UNL     1     -34.859   6.373   4.027  1.00 20.00     0.133 C 
HETATM    3  N13 UNL     1     -34.652   3.862   4.734  1.00 20.00    -0.197 NA
ENDROOT
BRANCH   2   4
HETATM    4  C11 UNL     1     -33.851   6.543   2.887  1.00 20.00    -0.027 C 
HETATM    5  C5  UNL     1     -33.161   7.924   2.981  1.00 20.00     0.015 C 
HETATM    6  C8  UNL     1     -32.148   8.098   1.837  1.00 20.00    -0.013 C 
HETATM    7  C2  UNL     1     -31.085   6.989   1.929  1.00 20.00     0.009 C 
HETATM    8  C3  UNL     1     -32.881   7.986   0.490  1.00 20.00     0.009 C 
HETATM    9  C9  UNL     1     -31.753   5.609   1.816  1.00 20.00    -0.013 C 
HETATM   10  C4  UNL     1     -32.488   5.510   0.469  1.00 20.00     0.009 C 
HETATM   11  C6  UNL     1     -32.767   5.441   2.961  1.00 20.00     0.015 C 
HETATM   12  C10 UNL     1     -33.557   6.611   0.370  1.00 20.00    -0.013 C 
HETATM   13  C7  UNL     1     -34.567   6.440   1.518  1.00 20.00     0.015 C 
ENDBRANCH   2   4
TORSDOF 1
ENDMDL
MODEL 2
REMARK VINA RESULT:       6.0      0.011      2.094
REMARK  1 active torsions:
REMARK  status: ('A' for Active; 'I' for Inactive)
REMARK    1  A    between atoms: C11_11  and  C12_12 
ROOT
HETATM    1  C1  UNL     1     -34.727   4.973   4.410  1.00 20.00     0.059 C 
HETATM    2  C12 UNL     1     -34.861   6.372   4.029  1.00 20.00     0.133 C 
HETATM    3  N13 UNL     1     -34.645   3.863   4.739  1.00 20.00    -0.197 NA
ENDROOT
BRANCH   2   4
HETATM    4  C11 UNL     1     -33.851   6.545   2.892  1.00 20.00    -0.027 C 
HETATM    5  C5  UNL     1     -34.562   6.440   1.522  1.00 20.00     0.015 C 
HETATM    6  C8  UNL     1     -33.550   6.613   0.377  1.00 20.00    -0.013 C 
HETATM    7  C2  UNL     1     -32.879   7.992   0.497  1.00 20.00     0.009 C 
HETATM    8  C3  UNL     1     -32.477   5.517   0.479  1.00 20.00     0.009 C 
HETATM    9  C9  UNL     1     -32.150   8.106   1.847  1.00 20.00    -0.013 C 
HETATM   10  C4  UNL     1     -31.083   7.002   1.941  1.00 20.00     0.009 C 
HETATM   11  C6  UNL     1     -33.165   7.929   2.988  1.00 20.00     0.015 C 
HETATM   12  C10 UNL     1     -31.745   5.618   1.827  1.00 20.00    -0.013 C 
HETATM   13  C7  UNL     1     -32.762   5.448   2.969  1.00 20.00     0.015 C 
ENDBRANCH   2   4
TORSDOF 1
ENDMDL
MODEL 3
REMARK VINA RESULT:       6.0      0.007      2.091
REMARK  1 active torsions:
REMARK  status: ('A' for Active; 'I' for Inactive)
REMARK    1  A    between atoms: C11_11  and  C12_12 
ROOT
HETATM    1  C1  UNL     1     -34.727   4.974   4.410  1.00 20.00     0.059 C 
HETATM    2  C12 UNL     1     -34.860   6.373   4.029  1.00 20.00     0.133 C 
HETATM    3  N13 UNL     1     -34.647   3.864   4.739  1.00 20.00    -0.197 NA
ENDROOT
BRANCH   2   4
HETATM    4  C11 UNL     1     -33.852   6.545   2.890  1.00 20.00    -0.027 C 
HETATM    5  C5  UNL     1     -32.766   5.447   2.963  1.00 20.00     0.015 C 
HETATM    6  C8  UNL     1     -31.751   5.617   1.819  1.00 20.00    -0.013 C 
HETATM    7  C2  UNL     1     -32.486   5.518   0.471  1.00 20.00     0.009 C 
HETATM    8  C3  UNL     1     -31.086   6.999   1.933  1.00 20.00     0.009 C 
HETATM    9  C9  UNL     1     -33.557   6.616   0.374  1.00 20.00    -0.013 C 
HETATM   10  C4  UNL     1     -32.883   7.994   0.495  1.00 20.00     0.009 C 
HETATM   11  C6  UNL     1     -34.567   6.444   1.521  1.00 20.00     0.015 C 
HETATM   12  C10 UNL     1     -32.150   8.105   1.842  1.00 20.00    -0.013 C 
HETATM   13  C7  UNL     1     -33.164   7.929   2.986  1.00 20.00     0.015 C 
ENDBRANCH   2   4
TORSDOF 1
ENDMDL
MODEL 4
REMARK VINA RESULT:       6.1      2.485      3.957
REMARK  1 active torsions:
REMARK  status: ('A' for Active; 'I' for Inactive)
REMARK    1  A    between atoms: C11_11  and  C12_12 
ROOT
HETATM    1  C1  UNL     1     -32.143   9.605   0.527  1.00 20.00     0.059 C 
HETATM    2  C12 UNL     1     -31.387   8.799   1.476  1.00 20.00     0.133 C 
HETATM    3  N13 UNL     1     -32.720  10.272  -0.228  1.00 20.00    -0.197 NA
ENDROOT
BRANCH   2   4
HETATM    4  C11 UNL     1     -32.277   7.578   1.718  1.00 20.00    -0.027 C 
HETATM    5  C5  UNL     1     -31.434   6.283   1.679  1.00 20.00     0.015 C 
HETATM    6  C8  UNL     1     -32.326   5.053   1.922  1.00 20.00    -0.013 C 
HETATM    7  C2  UNL     1     -33.000   5.180   3.299  1.00 20.00     0.009 C 
HETATM    8  C3  UNL     1     -33.408   4.989   0.832  1.00 20.00     0.009 C 
HETATM    9  C9  UNL     1     -33.859   6.455   3.348  1.00 20.00    -0.013 C 
HETATM   10  C4  UNL     1     -34.934   6.383   2.251  1.00 20.00     0.009 C 
HETATM   11  C6  UNL     1     -32.963   7.680   3.101  1.00 20.00     0.015 C 
HETATM   12  C10 UNL     1     -34.270   6.261   0.869  1.00 20.00    -0.013 C 
HETATM   13  C7  UNL     1     -33.373   7.488   0.629  1.00 20.00     0.015 C 
ENDBRANCH   2   4
TORSDOF 1
ENDMDL
MODEL 5
REMARK VINA RESULT:       6.1      2.482      3.973
REMARK  1 active torsions:
REMARK  status: ('A' for Active; 'I' for Inactive)
REMARK    1  A    between atoms: C11_11  and  C12_12 
ROOT
HETATM    1  C1  UNL     1     -32.118   9.622   0.576  1.00 20.00     0.059 C 
HETATM    2  C12 UNL     1     -31.371   8.799   1.517  1.00 20.00     0.133 C 
HETATM    3  N13 UNL     1     -32.688  10.303  -0.173  1.00 20.00    -0.197 NA
ENDROOT
BRANCH   2   4
HETATM    4  C11 UNL     1     -32.267   7.578   1.735  1.00 20.00    -0.027 C 
HETATM    5  C5  UNL     1     -33.352   7.504   0.636  1.00 20.00     0.015 C 
HETATM    6  C8  UNL     1     -34.254   6.277   0.853  1.00 20.00    -0.013 C 
HETATM    7  C2  UNL     1     -33.396   5.002   0.808  1.00 20.00     0.009 C 
HETATM    8  C3  UNL     1     -34.932   6.384   2.230  1.00 20.00     0.009 C 
HETATM    9  C9  UNL     1     -32.323   5.050   1.909  1.00 20.00    -0.013 C 
HETATM   10  C4  UNL     1     -33.010   5.163   3.281  1.00 20.00     0.009 C 
HETATM   11  C6  UNL     1     -31.426   6.280   1.689  1.00 20.00     0.015 C 
HETATM   12  C10 UNL     1     -33.867   6.439   3.338  1.00 20.00    -0.013 C 
HETATM   13  C7  UNL     1     -32.965   7.665   3.115  1.00 20.00     0.015 C 
ENDBRANCH   2   4
TORSDOF 1
ENDMDL
MODEL 6
REMARK VINA RESULT:       6.1      2.487      4.080
REMARK  1 active torsions:
REMARK  status: ('A' for Active; 'I' for Inactive)
REMARK    1  A    between atoms: C11_11  and  C12_12 
ROOT
HETATM    1  C1  UNL     1     -32.128   9.613   0.536  1.00 20.00     0.059 C 
HETATM    2  C12 UNL     1     -31.377   8.803   1.484  1.00 20.00     0.133 C 
HETATM    3  N13 UNL     1     -32.702  10.283  -0.220  1.00 20.00    -0.197 NA
ENDROOT
BRANCH   2   4
HETATM    4  C11 UNL     1     -32.273   7.586   1.726  1.00 20.00    -0.027 C 
HETATM    5  C5  UNL     1     -32.959   7.689   3.108  1.00 20.00     0.015 C 
HETATM    6  C8  UNL     1     -33.860   6.467   3.353  1.00 20.00    -0.013 C 
HETATM    7  C2  UNL     1     -34.935   6.401   2.255  1.00 20.00     0.009 C 
HETATM    8  C3  UNL     1     -33.006   5.190   3.304  1.00 20.00     0.009 C 
HETATM    9  C9  UNL     1     -34.269   6.278   0.874  1.00 20.00    -0.013 C 
HETATM   10  C4  UNL     1     -33.413   5.001   0.837  1.00 20.00     0.009 C 
HETATM   11  C6  UNL     1     -33.367   7.500   0.635  1.00 20.00     0.015 C 
HETATM   12  C10 UNL     1     -32.331   5.060   1.929  1.00 20.00    -0.013 C 
HETATM   13  C7  UNL     1     -31.433   6.286   1.686  1.00 20.00     0.015 C 
ENDBRANCH   2   4
TORSDOF 1
ENDMDL
MODEL 7
REMARK VINA RESULT:       6.3      2.658      4.309
REMARK  1 active torsions:
REMARK  status: ('A' for Active; 'I' for Inactive)
REMARK    1  A    between atoms: C11_11  and  C12_12 
ROOT
HETATM    1  C1  UNL     1     -32.260   9.472   0.626  1.00 20.00     0.059 C 
HETATM    2  C12 UNL     1     -31.803   8.129   0.954  1.00 20.00     0.133 C 
HETATM    3  N13 UNL     1     -32.600  10.544   0.338  1.00 20.00    -0.197 NA
ENDROOT
BRANCH   2   4
HETATM    4  C11 UNL     1     -32.677   7.719   2.142  1.00 20.00    -0.027 C 
HETATM    5  C5  UNL     1     -31.926   7.964   3.472  1.00 20.00     0.015 C 
HETATM    6  C8  UNL     1     -32.802   7.553   4.668  1.00 20.00    -0.013 C 
HETATM    7  C2  UNL     1     -34.098   8.381   4.655  1.00 20.00     0.009 C 
HETATM    8  C3  UNL     1     -33.153   6.060   4.549  1.00 20.00     0.009 C 
HETATM    9  C9  UNL     1     -34.868   8.134   3.347  1.00 20.00    -0.013 C 
HETATM   10  C4  UNL     1     -35.209   6.638   3.235  1.00 20.00     0.009 C 
HETATM   11  C6  UNL     1     -33.987   8.543   2.155  1.00 20.00     0.015 C 
HETATM   12  C10 UNL     1     -33.918   5.801   3.241  1.00 20.00    -0.013 C 
HETATM   13  C7  UNL     1     -33.040   6.217   2.048  1.00 20.00     0.015 C 
ENDBRANCH   2   4
TORSDOF 1
ENDMDL
MODEL 8
REMARK VINA RESULT:       6.3      2.658      4.313
REMARK  1 active torsions:
REMARK  status: ('A' for Active; 'I' for Inactive)
REMARK    1  A    between atoms: C11_11  and  C12_12 
ROOT
HETATM    1  C1  UNL     1     -32.258   9.473   0.624  1.00 20.00     0.059 C 
HETATM    2  C12 UNL     1     -31.800   8.130   0.952  1.00 20.00     0.133 C 
HETATM    3  N13 UNL     1     -32.598  10.545   0.337  1.00 20.00    -0.197 NA
ENDROOT
BRANCH   2   4
HETATM    4  C11 UNL     1     -32.674   7.718   2.138  1.00 20.00    -0.027 C 
HETATM    5  C5  UNL     1     -33.980   8.546   2.156  1.00 20.00     0.015 C 
HETATM    6  C8  UNL     1     -34.862   8.135   3.348  1.00 20.00    -0.013 C 
HETATM    7  C2  UNL     1     -35.207   6.641   3.232  1.00 20.00     0.009 C 
HETATM    8  C3  UNL     1     -34.090   8.376   4.656  1.00 20.00     0.009 C 
HETATM    9  C9  UNL     1     -33.919   5.801   3.233  1.00 20.00    -0.013 C 
HETATM   10  C4  UNL     1     -33.151   6.054   4.542  1.00 20.00     0.009 C 
HETATM   11  C6  UNL     1     -33.040   6.218   2.041  1.00 20.00     0.015 C 
HETATM   12  C10 UNL     1     -32.796   7.545   4.665  1.00 20.00    -0.013 C 
HETATM   13  C7  UNL     1     -31.920   7.957   3.469  1.00 20.00     0.015 C 
ENDBRANCH   2   4
TORSDOF 1
ENDMDL
MODEL 9
REMARK VINA RESULT:       6.3      2.658      4.312
REMARK  1 active torsions:
REMARK  status: ('A' for Active; 'I' for Inactive)
REMARK    1  A    between atoms: C11_11  and  C12_12 
ROOT
HETATM    1  C1  UNL     1     -32.262   9.471   0.626  1.00 20.00     0.059 C 
HETATM    2  C12 UNL     1     -31.802   8.129   0.956  1.00 20.00     0.133 C 
HETATM    3  N13 UNL     1     -32.604  10.542   0.337  1.00 20.00    -0.197 NA
ENDROOT
BRANCH   2   4
HETATM    4  C11 UNL     1     -32.677   7.719   2.143  1.00 20.00    -0.027 C 
HETATM    5  C5  UNL     1     -33.039   6.218   2.049  1.00 20.00     0.015 C 
HETATM    6  C8  UNL     1     -33.918   5.802   3.242  1.00 20.00    -0.013 C 
HETATM    7  C2  UNL     1     -33.153   6.061   4.551  1.00 20.00     0.009 C 
HETATM    8  C3  UNL     1     -35.209   6.639   3.235  1.00 20.00     0.009 C 
HETATM    9  C9  UNL     1     -32.802   7.554   4.668  1.00 20.00    -0.013 C 
HETATM   10  C4  UNL     1     -34.098   8.382   4.656  1.00 20.00     0.009 C 
HETATM   11  C6  UNL     1     -31.926   7.965   3.473  1.00 20.00     0.015 C 
HETATM   12  C10 UNL     1     -34.868   8.134   3.347  1.00 20.00    -0.013 C 
HETATM   13  C7  UNL     1     -33.987   8.544   2.155  1.00 20.00     0.015 C 
ENDBRANCH   2   4
TORSDOF 1
ENDMDL
