MODEL 1
REMARK VINA RESULT:      -1.8      0.000      0.000
REMARK  2 active torsions:
REMARK  status: ('A' for Active; 'I' for Inactive)
REMARK    1  A    between atoms: C2_2  and  C4_4 
REMARK    2  A    between atoms: C4_4  and  O5_5 
ROOT
HETATM    1  C1  UNL     1     -35.481   6.092   3.715  1.00 20.00     0.052 A 
HETATM    2  C2  UNL     1     -34.376   5.305   4.365  1.00 20.00     0.051 A 
HETATM    3  C3  UNL     1     -34.059   6.591   3.636  1.00 20.00     0.119 A 
HETATM    4 CL6  UNL     1     -33.258   6.556   2.070  1.00 20.00    -0.101 Cl
HETATM    5 CL7  UNL     1     -33.626   7.998   4.607  1.00 20.00    -0.101 Cl
ENDROOT
BRANCH   2   6
HETATM    6  C4  UNL     1     -34.008   3.962   3.832  1.00 20.00     0.172 C 
BRANCH   6   7
HETATM    7  O5  UNL     1     -33.355   3.200   4.847  1.00 20.00    -0.400 OA
HETATM    8  H13 UNL     1     -33.926   3.240   5.629  1.00 20.00     0.209 HD
ENDBRANCH   6   7
ENDBRANCH   2   6
TORSDOF 2
ENDMDL
MODEL 2
REMARK VINA RESULT:      -1.6      4.237      4.922
REMARK  2 active torsions:
REMARK  status: ('A' for Active; 'I' for Inactive)
REMARK    1  A    between atoms: C2_2  and  C4_4 
REMARK    2  A    between atoms: C4_4  and  O5_5 
ROOT
HETATM    1  C1  UNL     1     -31.398   8.169   2.509  1.00 20.00     0.052 A 
HETATM    2  C2  UNL     1     -32.426   8.792   1.605  1.00 20.00     0.051 A 
HETATM    3  C3  UNL     1     -32.712   7.467   2.275  1.00 20.00     0.119 A 
HETATM    4 CL6  UNL     1     -32.698   5.974   1.345  1.00 20.00    -0.101 Cl
HETATM    5 CL7  UNL     1     -33.883   7.453   3.595  1.00 20.00    -0.101 Cl
ENDROOT
BRANCH   2   6
HETATM    6  C4  UNL     1     -32.155   8.916   0.144  1.00 20.00     0.172 C 
BRANCH   6   7
HETATM    7  O5  UNL     1     -32.788  10.087  -0.369  1.00 20.00    -0.400 OA
HETATM    8  H13 UNL     1     -33.741   9.909  -0.361  1.00 20.00     0.209 HD
ENDBRANCH   6   7
ENDBRANCH   2   6
TORSDOF 2
ENDMDL
MODEL 3
REMARK VINA RESULT:      -1.3      3.102      3.581
REMARK  2 active torsions:
REMARK  status: ('A' for Active; 'I' for Inactive)
REMARK    1  A    between atoms: C2_2  and  C4_4 
REMARK    2  A    between atoms: C4_4  and  O5_5 
ROOT
HETATM    1  C1  UNL     1     -33.449   7.538   4.264  1.00 20.00     0.052 A 
HETATM    2  C2  UNL     1     -33.536   7.536   2.762  1.00 20.00     0.051 A 
HETATM    3  C3  UNL     1     -34.200   6.436   3.560  1.00 20.00     0.119 A 
HETATM    4 CL6  UNL     1     -33.513   4.817   3.592  1.00 20.00    -0.101 Cl
HETATM    5 CL7  UNL     1     -35.961   6.446   3.660  1.00 20.00    -0.101 Cl
ENDROOT
BRANCH   2   6
HETATM    6  C4  UNL     1     -32.308   7.314   1.947  1.00 20.00     0.172 C 
BRANCH   6   7
HETATM    7  O5  UNL     1     -31.989   8.498   1.218  1.00 20.00    -0.400 OA
HETATM    8  H13 UNL     1     -32.324   8.364   0.318  1.00 20.00     0.209 HD
ENDBRANCH   6   7
ENDBRANCH   2   6
TORSDOF 2
ENDMDL
MODEL 4
REMARK VINA RESULT:      -1.3      2.694      3.474
REMARK  2 active torsions:
REMARK  status: ('A' for Active; 'I' for Inactive)
REMARK    1  A    between atoms: C2_2  and  C4_4 
REMARK    2  A    between atoms: C4_4  and  O5_5 
ROOT
HETATM    1  C1  UNL     1     -32.327   6.573   1.717  1.00 20.00     0.052 A 
HETATM    2  C2  UNL     1     -33.513   7.260   2.336  1.00 20.00     0.051 A 
HETATM    3  C3  UNL     1     -32.279   8.058   1.979  1.00 20.00     0.119 A 
HETATM    4 CL6  UNL     1     -31.197   8.640   3.238  1.00 20.00    -0.101 Cl
HETATM    5 CL7  UNL     1     -32.377   9.142   0.592  1.00 20.00    -0.101 Cl
ENDROOT
BRANCH   2   6
HETATM    6  C4  UNL     1     -33.898   6.954   3.743  1.00 20.00     0.172 C 
BRANCH   6   7
HETATM    7  O5  UNL     1     -35.251   6.501   3.788  1.00 20.00    -0.400 OA
HETATM    8  H13 UNL     1     -35.806   7.283   3.648  1.00 20.00     0.209 HD
ENDBRANCH   6   7
ENDBRANCH   2   6
TORSDOF 2
ENDMDL
MODEL 5
REMARK VINA RESULT:      -1.2      1.617      1.717
REMARK  2 active torsions:
REMARK  status: ('A' for Active; 'I' for Inactive)
REMARK    1  A    between atoms: C2_2  and  C4_4 
REMARK    2  A    between atoms: C4_4  and  O5_5 
ROOT
HETATM    1  C1  UNL     1     -34.804   7.085   2.943  1.00 20.00     0.052 A 
HETATM    2  C2  UNL     1     -33.998   6.263   3.911  1.00 20.00     0.051 A 
HETATM    3  C3  UNL     1     -33.368   6.749   2.625  1.00 20.00     0.119 A 
HETATM    4 CL6  UNL     1     -33.055   5.629   1.305  1.00 20.00    -0.101 Cl
HETATM    5 CL7  UNL     1     -32.176   8.044   2.736  1.00 20.00    -0.101 Cl
ENDROOT
BRANCH   2   6
HETATM    6  C4  UNL     1     -34.353   4.834   4.148  1.00 20.00     0.172 C 
BRANCH   6   7
HETATM    7  O5  UNL     1     -35.663   4.746   4.706  1.00 20.00    -0.400 OA
HETATM    8  H13 UNL     1     -35.676   5.343   5.470  1.00 20.00     0.209 HD
ENDBRANCH   6   7
ENDBRANCH   2   6
TORSDOF 2
ENDMDL
MODEL 6
REMARK VINA RESULT:      -1.2      1.664      2.542
REMARK  2 active torsions:
REMARK  status: ('A' for Active; 'I' for Inactive)
REMARK    1  A    between atoms: C2_2  and  C4_4 
REMARK    2  A    between atoms: C4_4  and  O5_5 
ROOT
HETATM    1  C1  UNL     1     -33.134   5.739   3.277  1.00 20.00     0.052 A 
HETATM    2  C2  UNL     1     -34.439   6.446   3.035  1.00 20.00     0.051 A 
HETATM    3  C3  UNL     1     -33.180   7.246   3.282  1.00 20.00     0.119 A 
HETATM    4 CL6  UNL     1     -32.935   8.075   4.814  1.00 20.00    -0.101 Cl
HETATM    5 CL7  UNL     1     -32.468   8.096   1.910  1.00 20.00    -0.101 Cl
ENDROOT
BRANCH   2   6
HETATM    6  C4  UNL     1     -35.538   6.339   4.037  1.00 20.00     0.172 C 
BRANCH   6   7
HETATM    7  O5  UNL     1     -35.599   5.010   4.552  1.00 20.00    -0.400 OA
HETATM    8  H13 UNL     1     -34.976   4.975   5.293  1.00 20.00     0.209 HD
ENDBRANCH   6   7
ENDBRANCH   2   6
TORSDOF 2
ENDMDL
MODEL 7
REMARK VINA RESULT:      -1.1      3.253      3.901
REMARK  2 active torsions:
REMARK  status: ('A' for Active; 'I' for Inactive)
REMARK    1  A    between atoms: C2_2  and  C4_4 
REMARK    2  A    between atoms: C4_4  and  O5_5 
ROOT
HETATM    1  C1  UNL     1     -33.609   6.071   1.427  1.00 20.00     0.052 A 
HETATM    2  C2  UNL     1     -32.414   6.520   2.222  1.00 20.00     0.051 A 
HETATM    3  C3  UNL     1     -33.634   5.978   2.932  1.00 20.00     0.119 A 
HETATM    4 CL6  UNL     1     -34.711   7.058   3.809  1.00 20.00    -0.101 Cl
HETATM    5 CL7  UNL     1     -33.513   4.375   3.660  1.00 20.00    -0.101 Cl
ENDROOT
BRANCH   2   6
HETATM    6  C4  UNL     1     -32.038   7.962   2.249  1.00 20.00     0.172 C 
BRANCH   6   7
HETATM    7  O5  UNL     1     -32.123   8.510   0.934  1.00 20.00    -0.400 OA
HETATM    8  H13 UNL     1     -32.639   7.880   0.408  1.00 20.00     0.209 HD
ENDBRANCH   6   7
ENDBRANCH   2   6
TORSDOF 2
ENDMDL
MODEL 8
REMARK VINA RESULT:      -0.8      2.617      3.016
REMARK  2 active torsions:
REMARK  status: ('A' for Active; 'I' for Inactive)
REMARK    1  A    between atoms: C2_2  and  C4_4 
REMARK    2  A    between atoms: C4_4  and  O5_5 
ROOT
HETATM    1  C1  UNL     1     -33.427   7.300   3.908  1.00 20.00     0.052 A 
HETATM    2  C2  UNL     1     -33.542   6.895   2.464  1.00 20.00     0.051 A 
HETATM    3  C3  UNL     1     -34.338   6.162   3.520  1.00 20.00     0.119 A 
HETATM    4 CL6  UNL     1     -33.885   4.535   4.013  1.00 20.00    -0.101 Cl
HETATM    5 CL7  UNL     1     -36.078   6.446   3.578  1.00 20.00    -0.101 Cl
ENDROOT
BRANCH   2   6
HETATM    6  C4  UNL     1     -32.373   6.287   1.767  1.00 20.00     0.172 C 
BRANCH   6   7
HETATM    7  O5  UNL     1     -32.822   5.303   0.836  1.00 20.00    -0.400 OA
HETATM    8  H13 UNL     1     -33.525   4.806   1.281  1.00 20.00     0.209 HD
ENDBRANCH   6   7
ENDBRANCH   2   6
TORSDOF 2
ENDMDL
MODEL 9
REMARK VINA RESULT:      -0.5      2.665      3.273
REMARK  2 active torsions:
REMARK  status: ('A' for Active; 'I' for Inactive)
REMARK    1  A    between atoms: C2_2  and  C4_4 
REMARK    2  A    between atoms: C4_4  and  O5_5 
ROOT
HETATM    1  C1  UNL     1     -35.143   6.823   3.067  1.00 20.00     0.052 A 
HETATM    2  C2  UNL     1     -33.852   7.384   3.596  1.00 20.00     0.051 A 
HETATM    3  C3  UNL     1     -33.906   5.961   3.089  1.00 20.00     0.119 A 
HETATM    4 CL6  UNL     1     -33.860   4.609   4.215  1.00 20.00    -0.101 Cl
HETATM    5 CL7  UNL     1     -33.120   5.610   1.549  1.00 20.00    -0.101 Cl
ENDROOT
BRANCH   2   6
HETATM    6  C4  UNL     1     -33.726   7.722   5.043  1.00 20.00     0.172 C 
BRANCH   6   7
HETATM    7  O5  UNL     1     -32.508   8.431   5.271  1.00 20.00    -0.400 OA
HETATM    8  H13 UNL     1     -32.071   7.990   6.015  1.00 20.00     0.209 HD
ENDBRANCH   6   7
ENDBRANCH   2   6
TORSDOF 2
ENDMDL
