MODEL 1
REMARK VINA RESULT:       2.9      0.000      0.000
REMARK  1 active torsions:
REMARK  status: ('A' for Active; 'I' for Inactive)
REMARK    1  A    between atoms: C1_1  and  C10_10 
ROOT
HETATM    1  C2  UNL     1     -31.110   6.561   1.206  1.00 20.00     0.009 C 
HETATM    2  C3  UNL     1     -32.759   8.463   1.032  1.00 20.00     0.010 C 
HETATM    3  C4  UNL     1     -33.537   6.149   0.653  1.00 20.00     0.010 C 
HETATM    4  C5  UNL     1     -32.026   7.869   3.162  1.00 20.00     0.022 C 
HETATM    5  C6  UNL     1     -32.804   5.551   2.784  1.00 20.00     0.022 C 
HETATM    6  C7  UNL     1     -31.490   7.977   1.733  1.00 20.00    -0.013 C 
HETATM    7  C8  UNL     1     -32.301   5.564   1.338  1.00 20.00    -0.013 C 
HETATM    8  C9  UNL     1     -33.772   7.408   1.502  1.00 20.00     0.002 C 
HETATM    9  C10 UNL     1     -33.272   7.002   2.934  1.00 20.00     0.024 C 
ENDROOT
BRANCH   9  10
HETATM   10  C1  UNL     1     -34.301   7.187   4.001  1.00 20.00     0.132 C 
HETATM   11  C11 UNL     1     -35.464   6.233   3.992  1.00 20.00     0.091 C 
HETATM   12  O12 UNL     1     -34.201   8.075   4.846  1.00 20.00    -0.298 OA
ENDBRANCH   9  10
TORSDOF 1
ENDMDL
MODEL 2
REMARK VINA RESULT:       3.3      2.069      3.542
REMARK  1 active torsions:
REMARK  status: ('A' for Active; 'I' for Inactive)
REMARK    1  A    between atoms: C1_1  and  C10_10 
ROOT
HETATM    1  C2  UNL     1     -33.625   6.336   3.041  1.00 20.00     0.009 C 
HETATM    2  C3  UNL     1     -31.880   8.105   3.481  1.00 20.00     0.010 C 
HETATM    3  C4  UNL     1     -31.481   6.424   1.714  1.00 20.00     0.010 C 
HETATM    4  C5  UNL     1     -33.837   8.771   2.408  1.00 20.00     0.022 C 
HETATM    5  C6  UNL     1     -33.440   7.089   0.638  1.00 20.00     0.022 C 
HETATM    6  C7  UNL     1     -33.379   7.803   3.502  1.00 20.00    -0.013 C 
HETATM    7  C8  UNL     1     -32.964   6.052   1.659  1.00 20.00    -0.013 C 
HETATM    8  C9  UNL     1     -31.570   7.935   1.986  1.00 20.00     0.002 C 
HETATM    9  C10 UNL     1     -32.893   8.376   1.265  1.00 20.00     0.024 C 
ENDROOT
BRANCH   9  10
HETATM   10  C1  UNL     1     -32.696   9.479   0.278  1.00 20.00     0.132 C 
HETATM   11  C11 UNL     1     -32.586  10.873   0.834  1.00 20.00     0.091 C 
HETATM   12  O12 UNL     1     -32.625   9.259  -0.930  1.00 20.00    -0.298 OA
ENDBRANCH   9  10
TORSDOF 1
ENDMDL
MODEL 3
REMARK VINA RESULT:       3.4      1.729      2.220
REMARK  1 active torsions:
REMARK  status: ('A' for Active; 'I' for Inactive)
REMARK    1  A    between atoms: C1_1  and  C10_10 
ROOT
HETATM    1  C2  UNL     1     -32.161   7.712   2.271  1.00 20.00     0.009 C 
HETATM    2  C3  UNL     1     -34.578   7.924   2.962  1.00 20.00     0.010 C 
HETATM    3  C4  UNL     1     -33.972   6.370   1.139  1.00 20.00     0.010 C 
HETATM    4  C5  UNL     1     -33.143   6.791   4.406  1.00 20.00     0.022 C 
HETATM    5  C6  UNL     1     -32.535   5.234   2.582  1.00 20.00     0.022 C 
HETATM    6  C7  UNL     1     -33.132   7.991   3.456  1.00 20.00    -0.013 C 
HETATM    7  C8  UNL     1     -32.500   6.370   1.555  1.00 20.00    -0.013 C 
HETATM    8  C9  UNL     1     -34.662   6.458   2.510  1.00 20.00     0.002 C 
HETATM    9  C10 UNL     1     -33.689   5.698   3.478  1.00 20.00     0.024 C 
ENDROOT
BRANCH   9  10
HETATM   10  C1  UNL     1     -34.341   4.583   4.228  1.00 20.00     0.132 C 
HETATM   11  C11 UNL     1     -33.532   3.329   4.418  1.00 20.00     0.091 C 
HETATM   12  O12 UNL     1     -35.485   4.687   4.670  1.00 20.00    -0.298 OA
ENDBRANCH   9  10
TORSDOF 1
ENDMDL
MODEL 4
REMARK VINA RESULT:       3.9      1.848      3.325
REMARK  1 active torsions:
REMARK  status: ('A' for Active; 'I' for Inactive)
REMARK    1  A    between atoms: C1_1  and  C10_10 
ROOT
HETATM    1  C2  UNL     1     -33.049   5.345   3.314  1.00 20.00     0.009 C 
HETATM    2  C3  UNL     1     -33.538   5.525   0.844  1.00 20.00     0.010 C 
HETATM    3  C4  UNL     1     -34.752   6.983   2.428  1.00 20.00     0.010 C 
HETATM    4  C5  UNL     1     -31.512   6.387   1.604  1.00 20.00     0.022 C 
HETATM    5  C6  UNL     1     -32.725   7.846   3.191  1.00 20.00     0.022 C 
HETATM    6  C7  UNL     1     -32.456   5.215   1.879  1.00 20.00    -0.013 C 
HETATM    7  C8  UNL     1     -33.721   6.734   3.531  1.00 20.00    -0.013 C 
HETATM    8  C9  UNL     1     -33.851   6.991   1.183  1.00 20.00     0.002 C 
HETATM    9  C10 UNL     1     -32.487   7.567   1.703  1.00 20.00     0.024 C 
ENDROOT
BRANCH   9  10
HETATM   10  C1  UNL     1     -32.016   8.764   0.943  1.00 20.00     0.132 C 
HETATM   11  C11 UNL     1     -32.852  10.010   1.055  1.00 20.00     0.091 C 
HETATM   12  O12 UNL     1     -30.993   8.732   0.259  1.00 20.00    -0.298 OA
ENDBRANCH   9  10
TORSDOF 1
ENDMDL
MODEL 5
REMARK VINA RESULT:       4.4      1.733      3.561
REMARK  1 active torsions:
REMARK  status: ('A' for Active; 'I' for Inactive)
REMARK    1  A    between atoms: C1_1  and  C10_10 
ROOT
HETATM    1  C2  UNL     1     -35.341   6.401   3.790  1.00 20.00     0.009 C 
HETATM    2  C3  UNL     1     -33.470   7.701   4.872  1.00 20.00     0.010 C 
HETATM    3  C4  UNL     1     -32.992   5.486   3.887  1.00 20.00     0.010 C 
HETATM    4  C5  UNL     1     -34.247   8.453   2.809  1.00 20.00     0.022 C 
HETATM    5  C6  UNL     1     -33.770   6.235   1.820  1.00 20.00     0.022 C 
HETATM    6  C7  UNL     1     -34.782   7.821   4.096  1.00 20.00    -0.013 C 
HETATM    7  C8  UNL     1     -34.284   5.512   3.068  1.00 20.00    -0.013 C 
HETATM    8  C9  UNL     1     -32.592   6.970   3.845  1.00 20.00     0.002 C 
HETATM    9  C10 UNL     1     -33.122   7.470   2.456  1.00 20.00     0.024 C 
ENDROOT
BRANCH   9  10
HETATM   10  C1  UNL     1     -32.066   8.092   1.602  1.00 20.00     0.132 C 
HETATM   11  C11 UNL     1     -32.467   9.304   0.804  1.00 20.00     0.091 C 
HETATM   12  O12 UNL     1     -30.924   7.637   1.555  1.00 20.00    -0.298 OA
ENDBRANCH   9  10
TORSDOF 1
ENDMDL
MODEL 6
REMARK VINA RESULT:       4.6      0.812      2.348
REMARK  1 active torsions:
REMARK  status: ('A' for Active; 'I' for Inactive)
REMARK    1  A    between atoms: C1_1  and  C10_10 
ROOT
HETATM    1  C2  UNL     1     -32.395   7.712   0.107  1.00 20.00     0.009 C 
HETATM    2  C3  UNL     1     -31.723   5.909   1.739  1.00 20.00     0.010 C 
HETATM    3  C4  UNL     1     -31.174   8.264   2.244  1.00 20.00     0.010 C 
HETATM    4  C5  UNL     1     -33.983   6.461   1.618  1.00 20.00     0.022 C 
HETATM    5  C6  UNL     1     -33.435   8.820   2.123  1.00 20.00     0.022 C 
HETATM    6  C7  UNL     1     -32.767   6.321   0.699  1.00 20.00    -0.013 C 
HETATM    7  C8  UNL     1     -32.195   8.777   1.227  1.00 20.00    -0.013 C 
HETATM    8  C9  UNL     1     -31.900   7.021   2.784  1.00 20.00     0.002 C 
HETATM    9  C10 UNL     1     -33.421   7.398   2.695  1.00 20.00     0.024 C 
ENDROOT
BRANCH   9  10
HETATM   10  C1  UNL     1     -34.144   7.274   3.996  1.00 20.00     0.132 C 
HETATM   11  C11 UNL     1     -35.248   6.253   4.062  1.00 20.00     0.091 C 
HETATM   12  O12 UNL     1     -33.850   7.971   4.966  1.00 20.00    -0.298 OA
ENDBRANCH   9  10
TORSDOF 1
ENDMDL
MODEL 7
REMARK VINA RESULT:       4.7      1.483      2.589
REMARK  1 active torsions:
REMARK  status: ('A' for Active; 'I' for Inactive)
REMARK    1  A    between atoms: C1_1  and  C10_10 
ROOT
HETATM    1  C2  UNL     1     -32.681   7.931   0.521  1.00 20.00     0.009 C 
HETATM    2  C3  UNL     1     -32.128   5.475   0.692  1.00 20.00     0.010 C 
HETATM    3  C4  UNL     1     -31.242   7.037   2.390  1.00 20.00     0.010 C 
HETATM    4  C5  UNL     1     -34.299   6.126   1.225  1.00 20.00     0.022 C 
HETATM    5  C6  UNL     1     -33.415   7.690   2.925  1.00 20.00     0.022 C 
HETATM    6  C7  UNL     1     -33.184   6.484   0.240  1.00 20.00    -0.013 C 
HETATM    7  C8  UNL     1     -32.261   8.112   2.011  1.00 20.00    -0.013 C 
HETATM    8  C9  UNL     1     -32.080   5.761   2.201  1.00 20.00     0.002 C 
HETATM    9  C10 UNL     1     -33.541   6.208   2.556  1.00 20.00     0.024 C 
ENDROOT
BRANCH   9  10
HETATM   10  C1  UNL     1     -34.175   5.382   3.628  1.00 20.00     0.132 C 
HETATM   11  C11 UNL     1     -35.390   5.961   4.300  1.00 20.00     0.091 C 
HETATM   12  O12 UNL     1     -33.725   4.282   3.943  1.00 20.00    -0.298 OA
ENDBRANCH   9  10
TORSDOF 1
ENDMDL
MODEL 8
REMARK VINA RESULT:       4.9      1.788      3.897
REMARK  1 active torsions:
REMARK  status: ('A' for Active; 'I' for Inactive)
REMARK    1  A    between atoms: C1_1  and  C10_10 
ROOT
HETATM    1  C2  UNL     1     -34.741   6.793   5.341  1.00 20.00     0.009 C 
HETATM    2  C3  UNL     1     -35.826   6.555   3.075  1.00 20.00     0.010 C 
HETATM    3  C4  UNL     1     -34.618   8.640   3.627  1.00 20.00     0.010 C 
HETATM    4  C5  UNL     1     -33.887   5.327   3.473  1.00 20.00     0.022 C 
HETATM    5  C6  UNL     1     -32.677   7.412   4.025  1.00 20.00     0.022 C 
HETATM    6  C7  UNL     1     -35.141   5.797   4.213  1.00 20.00    -0.013 C 
HETATM    7  C8  UNL     1     -33.882   7.970   4.788  1.00 20.00    -0.013 C 
HETATM    8  C9  UNL     1     -34.688   7.481   2.619  1.00 20.00     0.002 C 
HETATM    9  C10 UNL     1     -33.382   6.655   2.895  1.00 20.00     0.024 C 
ENDROOT
BRANCH   9  10
HETATM   10  C1  UNL     1     -32.528   6.465   1.684  1.00 20.00     0.132 C 
HETATM   11  C11 UNL     1     -31.794   7.677   1.177  1.00 20.00     0.091 C 
HETATM   12  O12 UNL     1     -32.429   5.372   1.131  1.00 20.00    -0.298 OA
ENDBRANCH   9  10
TORSDOF 1
ENDMDL
MODEL 9
REMARK VINA RESULT:       4.9      1.680      3.093
REMARK  1 active torsions:
REMARK  status: ('A' for Active; 'I' for Inactive)
REMARK    1  A    between atoms: C1_1  and  C10_10 
ROOT
HETATM    1  C2  UNL     1     -33.728   8.502   2.072  1.00 20.00     0.009 C 
HETATM    2  C3  UNL     1     -31.959   7.301   3.412  1.00 20.00     0.010 C 
HETATM    3  C4  UNL     1     -33.876   8.331   4.584  1.00 20.00     0.010 C 
HETATM    4  C5  UNL     1     -33.426   5.998   2.157  1.00 20.00     0.022 C 
HETATM    5  C6  UNL     1     -35.346   7.027   3.329  1.00 20.00     0.022 C 
HETATM    6  C7  UNL     1     -32.693   7.338   2.071  1.00 20.00    -0.013 C 
HETATM    7  C8  UNL     1     -34.691   8.411   3.293  1.00 20.00    -0.013 C 
HETATM    8  C9  UNL     1     -33.123   7.007   4.371  1.00 20.00     0.002 C 
HETATM    9  C10 UNL     1     -34.114   6.136   3.521  1.00 20.00     0.024 C 
ENDROOT
BRANCH   9  10
HETATM   10  C1  UNL     1     -34.429   4.814   4.141  1.00 20.00     0.132 C 
HETATM   11  C11 UNL     1     -33.397   3.730   3.985  1.00 20.00     0.091 C 
HETATM   12  O12 UNL     1     -35.480   4.621   4.750  1.00 20.00    -0.298 OA
ENDBRANCH   9  10
TORSDOF 1
ENDMDL
