MODEL 1
REMARK VINA RESULT:      -0.6      0.000      0.000
REMARK  2 active torsions:
REMARK  status: ('A' for Active; 'I' for Inactive)
REMARK    1  A    between atoms: C3_3  and  C10_10 
REMARK    2  A    between atoms: C5_5  and  C10_10 
ROOT
HETATM    1  C1  UNL     1     -33.629   7.131   3.881  1.00 20.00    -0.023 C 
HETATM    2  C2  UNL     1     -33.660   6.021   3.130  1.00 20.00    -0.079 C 
HETATM    3  C4  UNL     1     -32.942   8.258   3.184  1.00 20.00     0.033 C 
HETATM    4  C5  UNL     1     -32.956   7.788   1.724  1.00 20.00     0.007 C 
HETATM    5  C6  UNL     1     -32.974   6.230   1.792  1.00 20.00    -0.021 C 
HETATM    6  C7  UNL     1     -34.238   4.712   3.547  1.00 20.00     0.044 C 
HETATM    7  C8  UNL     1     -33.774   5.657   0.613  1.00 20.00     0.020 C 
HETATM    8  C9  UNL     1     -31.573   5.598   1.816  1.00 20.00     0.020 C 
ENDROOT
BRANCH   4   9
HETATM    9  C10 UNL     1     -31.842   8.420   0.899  1.00 20.00     0.075 C 
BRANCH   9  10
HETATM   10  C3  UNL     1     -32.258   9.724   0.272  1.00 20.00     0.231 C 
HETATM   11  O11 UNL     1     -32.943   9.832  -0.740  1.00 20.00    -0.307 OA
ENDBRANCH   9  10
ENDBRANCH   4   9
TORSDOF 2
ENDMDL
MODEL 2
REMARK VINA RESULT:      -0.5      2.717      4.464
REMARK  2 active torsions:
REMARK  status: ('A' for Active; 'I' for Inactive)
REMARK    1  A    between atoms: C3_3  and  C10_10 
REMARK    2  A    between atoms: C5_5  and  C10_10 
ROOT
HETATM    1  C1  UNL     1     -33.419   7.971   3.147  1.00 20.00    -0.023 C 
HETATM    2  C2  UNL     1     -32.709   7.521   2.103  1.00 20.00    -0.079 C 
HETATM    3  C4  UNL     1     -34.117   6.866   3.868  1.00 20.00     0.033 C 
HETATM    4  C5  UNL     1     -33.362   5.629   3.365  1.00 20.00     0.007 C 
HETATM    5  C6  UNL     1     -32.834   6.014   1.949  1.00 20.00    -0.021 C 
HETATM    6  C7  UNL     1     -31.931   8.368   1.157  1.00 20.00     0.044 C 
HETATM    7  C8  UNL     1     -31.487   5.328   1.681  1.00 20.00     0.020 C 
HETATM    8  C9  UNL     1     -33.814   5.682   0.813  1.00 20.00     0.020 C 
ENDROOT
BRANCH   4   9
HETATM    9  C10 UNL     1     -34.200   4.360   3.455  1.00 20.00     0.075 C 
BRANCH   9  10
HETATM   10  C3  UNL     1     -33.790   3.480   4.606  1.00 20.00     0.231 C 
HETATM   11  O11 UNL     1     -32.657   3.051   4.795  1.00 20.00    -0.307 OA
ENDBRANCH   9  10
ENDBRANCH   4   9
TORSDOF 2
ENDMDL
MODEL 3
REMARK VINA RESULT:      -0.3      1.073      2.484
REMARK  2 active torsions:
REMARK  status: ('A' for Active; 'I' for Inactive)
REMARK    1  A    between atoms: C3_3  and  C10_10 
REMARK    2  A    between atoms: C5_5  and  C10_10 
ROOT
HETATM    1  C1  UNL     1     -33.615   5.551   2.334  1.00 20.00    -0.023 C 
HETATM    2  C2  UNL     1     -34.135   6.119   3.431  1.00 20.00    -0.079 C 
HETATM    3  C4  UNL     1     -32.712   6.482   1.597  1.00 20.00     0.033 C 
HETATM    4  C5  UNL     1     -32.418   7.550   2.659  1.00 20.00     0.007 C 
HETATM    5  C6  UNL     1     -33.663   7.553   3.598  1.00 20.00    -0.021 C 
HETATM    6  C7  UNL     1     -35.102   5.473   4.362  1.00 20.00     0.044 C 
HETATM    7  C8  UNL     1     -33.239   7.880   5.037  1.00 20.00     0.020 C 
HETATM    8  C9  UNL     1     -34.768   8.524   3.155  1.00 20.00     0.020 C 
ENDROOT
BRANCH   4   9
HETATM    9  C10 UNL     1     -32.027   8.888   2.044  1.00 20.00     0.075 C 
BRANCH   9  10
HETATM   10  C3  UNL     1     -32.161   8.895   0.544  1.00 20.00     0.231 C 
HETATM   11  O11 UNL     1     -32.534   9.852  -0.125  1.00 20.00    -0.307 OA
ENDBRANCH   9  10
ENDBRANCH   4   9
TORSDOF 2
ENDMDL
MODEL 4
REMARK VINA RESULT:       0.1      2.888      4.764
REMARK  2 active torsions:
REMARK  status: ('A' for Active; 'I' for Inactive)
REMARK    1  A    between atoms: C3_3  and  C10_10 
REMARK    2  A    between atoms: C5_5  and  C10_10 
ROOT
HETATM    1  C1  UNL     1     -32.281   6.465   1.542  1.00 20.00    -0.023 C 
HETATM    2  C2  UNL     1     -32.755   7.590   2.096  1.00 20.00    -0.079 C 
HETATM    3  C4  UNL     1     -32.785   5.244   2.236  1.00 20.00     0.033 C 
HETATM    4  C5  UNL     1     -33.989   5.793   3.015  1.00 20.00     0.007 C 
HETATM    5  C6  UNL     1     -33.660   7.294   3.280  1.00 20.00    -0.021 C 
HETATM    6  C7  UNL     1     -32.414   8.975   1.666  1.00 20.00     0.044 C 
HETATM    7  C8  UNL     1     -34.949   8.128   3.271  1.00 20.00     0.020 C 
HETATM    8  C9  UNL     1     -32.900   7.536   4.594  1.00 20.00     0.020 C 
ENDROOT
BRANCH   4   9
HETATM    9  C10 UNL     1     -34.327   4.946   4.234  1.00 20.00     0.075 C 
BRANCH   9  10
HETATM   10  C3  UNL     1     -33.738   3.562   4.156  1.00 20.00     0.231 C 
HETATM   11  O11 UNL     1     -33.064   3.033   5.033  1.00 20.00    -0.307 OA
ENDBRANCH   9  10
ENDBRANCH   4   9
TORSDOF 2
ENDMDL
MODEL 5
REMARK VINA RESULT:       0.7      2.563      4.194
REMARK  2 active torsions:
REMARK  status: ('A' for Active; 'I' for Inactive)
REMARK    1  A    between atoms: C3_3  and  C10_10 
REMARK    2  A    between atoms: C5_5  and  C10_10 
ROOT
HETATM    1  C1  UNL     1     -32.818   8.363   2.780  1.00 20.00    -0.023 C 
HETATM    2  C2  UNL     1     -32.317   7.765   1.689  1.00 20.00    -0.079 C 
HETATM    3  C4  UNL     1     -33.595   7.414   3.630  1.00 20.00     0.033 C 
HETATM    4  C5  UNL     1     -33.112   6.052   3.114  1.00 20.00     0.007 C 
HETATM    5  C6  UNL     1     -32.699   6.296   1.631  1.00 20.00    -0.021 C 
HETATM    6  C7  UNL     1     -31.529   8.439   0.620  1.00 20.00     0.044 C 
HETATM    7  C8  UNL     1     -31.520   5.387   1.254  1.00 20.00     0.020 C 
HETATM    8  C9  UNL     1     -33.846   6.091   0.629  1.00 20.00     0.020 C 
ENDROOT
BRANCH   4   9
HETATM    9  C10 UNL     1     -34.127   4.944   3.364  1.00 20.00     0.075 C 
BRANCH   9  10
HETATM   10  C3  UNL     1     -35.296   5.408   4.191  1.00 20.00     0.231 C 
HETATM   11  O11 UNL     1     -35.786   4.787   5.128  1.00 20.00    -0.307 OA
ENDBRANCH   9  10
ENDBRANCH   4   9
TORSDOF 2
ENDMDL
MODEL 6
REMARK VINA RESULT:       1.0      2.571      4.361
REMARK  2 active torsions:
REMARK  status: ('A' for Active; 'I' for Inactive)
REMARK    1  A    between atoms: C3_3  and  C10_10 
REMARK    2  A    between atoms: C5_5  and  C10_10 
ROOT
HETATM    1  C1  UNL     1     -32.033   6.302   1.112  1.00 20.00    -0.023 C 
HETATM    2  C2  UNL     1     -31.839   7.627   1.167  1.00 20.00    -0.079 C 
HETATM    3  C4  UNL     1     -32.980   5.830   2.164  1.00 20.00     0.033 C 
HETATM    4  C5  UNL     1     -33.672   7.136   2.580  1.00 20.00     0.007 C 
HETATM    5  C6  UNL     1     -32.632   8.262   2.296  1.00 20.00    -0.021 C 
HETATM    6  C7  UNL     1     -30.924   8.404   0.284  1.00 20.00     0.044 C 
HETATM    7  C8  UNL     1     -33.350   9.551   1.871  1.00 20.00     0.020 C 
HETATM    8  C9  UNL     1     -31.705   8.560   3.486  1.00 20.00     0.020 C 
ENDROOT
BRANCH   4   9
HETATM    9  C10 UNL     1     -34.234   7.070   3.994  1.00 20.00     0.075 C 
BRANCH   9  10
HETATM   10  C3  UNL     1     -35.390   6.111   4.110  1.00 20.00     0.231 C 
HETATM   11  O11 UNL     1     -35.309   4.957   4.516  1.00 20.00    -0.307 OA
ENDBRANCH   9  10
ENDBRANCH   4   9
TORSDOF 2
ENDMDL
MODEL 7
REMARK VINA RESULT:       1.2      2.156      3.293
REMARK  2 active torsions:
REMARK  status: ('A' for Active; 'I' for Inactive)
REMARK    1  A    between atoms: C3_3  and  C10_10 
REMARK    2  A    between atoms: C5_5  and  C10_10 
ROOT
HETATM    1  C1  UNL     1     -32.316   8.166   3.153  1.00 20.00    -0.023 C 
HETATM    2  C2  UNL     1     -33.326   7.675   3.885  1.00 20.00    -0.079 C 
HETATM    3  C4  UNL     1     -32.103   7.384   1.899  1.00 20.00     0.033 C 
HETATM    4  C5  UNL     1     -33.426   6.616   1.772  1.00 20.00     0.007 C 
HETATM    5  C6  UNL     1     -33.951   6.455   3.231  1.00 20.00    -0.021 C 
HETATM    6  C7  UNL     1     -33.769   8.200   5.207  1.00 20.00     0.044 C 
HETATM    7  C8  UNL     1     -35.486   6.488   3.248  1.00 20.00     0.020 C 
HETATM    8  C9  UNL     1     -33.458   5.176   3.927  1.00 20.00     0.020 C 
ENDROOT
BRANCH   4   9
HETATM    9  C10 UNL     1     -33.279   5.338   0.957  1.00 20.00     0.075 C 
BRANCH   9  10
HETATM   10  C3  UNL     1     -31.844   4.898   0.828  1.00 20.00     0.231 C 
HETATM   11  O11 UNL     1     -31.421   4.116  -0.016  1.00 20.00    -0.307 OA
ENDBRANCH   9  10
ENDBRANCH   4   9
TORSDOF 2
ENDMDL
MODEL 8
REMARK VINA RESULT:       1.6      1.425      2.854
REMARK  2 active torsions:
REMARK  status: ('A' for Active; 'I' for Inactive)
REMARK    1  A    between atoms: C3_3  and  C10_10 
REMARK    2  A    between atoms: C5_5  and  C10_10 
ROOT
HETATM    1  C1  UNL     1     -33.898   4.138   3.629  1.00 20.00    -0.023 C 
HETATM    2  C2  UNL     1     -34.579   5.113   4.248  1.00 20.00    -0.079 C 
HETATM    3  C4  UNL     1     -33.128   4.650   2.458  1.00 20.00     0.033 C 
HETATM    4  C5  UNL     1     -33.096   6.159   2.731  1.00 20.00     0.007 C 
HETATM    5  C6  UNL     1     -34.379   6.455   3.566  1.00 20.00    -0.021 C 
HETATM    6  C7  UNL     1     -35.475   4.928   5.424  1.00 20.00     0.044 C 
HETATM    7  C8  UNL     1     -34.114   7.596   4.559  1.00 20.00     0.020 C 
HETATM    8  C9  UNL     1     -35.608   6.797   2.708  1.00 20.00     0.020 C 
ENDROOT
BRANCH   4   9
HETATM    9  C10 UNL     1     -32.910   6.976   1.459  1.00 20.00     0.075 C 
BRANCH   9  10
HETATM   10  C3  UNL     1     -32.030   8.180   1.671  1.00 20.00     0.231 C 
HETATM   11  O11 UNL     1     -32.063   9.203   0.996  1.00 20.00    -0.307 OA
ENDBRANCH   9  10
ENDBRANCH   4   9
TORSDOF 2
ENDMDL
