MODEL 1
REMARK VINA RESULT:      -1.4      0.000      0.000
REMARK  1 active torsions:
REMARK  status: ('A' for Active; 'I' for Inactive)
REMARK    1  A    between atoms: C5_5  and  C6_6 
ROOT
HETATM    1  C1  UNL     1     -32.849   5.921   1.646  1.00 20.00     0.014 C 
HETATM    2  C2  UNL     1     -33.625   6.095   2.546  1.00 20.00    -0.091 C 
HETATM    3  C4  UNL     1     -34.060   7.437   4.559  1.00 20.00     0.046 C 
HETATM    4  C6  UNL     1     -34.573   6.310   3.655  1.00 20.00     0.095 C 
HETATM    5 CL7  UNL     1     -36.126   6.847   2.929  1.00 20.00    -0.105 Cl
ENDROOT
BRANCH   4   6
HETATM    6  C5  UNL     1     -34.778   5.027   4.486  1.00 20.00     0.034 C 
HETATM    7  C3  UNL     1     -33.821   3.877   4.179  1.00 20.00     0.008 C 
ENDBRANCH   4   6
TORSDOF 1
ENDMDL
MODEL 2
REMARK VINA RESULT:      -1.4      1.581      2.985
REMARK  1 active torsions:
REMARK  status: ('A' for Active; 'I' for Inactive)
REMARK    1  A    between atoms: C5_5  and  C6_6 
ROOT
HETATM    1  C1  UNL     1     -33.859   3.914   4.339  1.00 20.00     0.014 C 
HETATM    2  C2  UNL     1     -33.978   5.039   3.936  1.00 20.00    -0.091 C 
HETATM    3  C4  UNL     1     -35.618   6.747   3.273  1.00 20.00     0.046 C 
HETATM    4  C6  UNL     1     -34.129   6.419   3.438  1.00 20.00     0.095 C 
HETATM    5 CL7  UNL     1     -33.456   7.513   4.693  1.00 20.00    -0.105 Cl
ENDROOT
BRANCH   4   6
HETATM    6  C5  UNL     1     -33.399   6.622   2.094  1.00 20.00     0.034 C 
HETATM    7  C3  UNL     1     -32.312   7.694   2.083  1.00 20.00     0.008 C 
ENDBRANCH   4   6
TORSDOF 1
ENDMDL
MODEL 3
REMARK VINA RESULT:      -1.4      3.076      3.849
REMARK  1 active torsions:
REMARK  status: ('A' for Active; 'I' for Inactive)
REMARK    1  A    between atoms: C5_5  and  C6_6 
ROOT
HETATM    1  C1  UNL     1     -32.548   9.787   0.151  1.00 20.00     0.014 C 
HETATM    2  C2  UNL     1     -32.443   8.969   1.024  1.00 20.00    -0.091 C 
HETATM    3  C4  UNL     1     -32.098   6.576   1.470  1.00 20.00     0.046 C 
HETATM    4  C6  UNL     1     -32.318   7.960   2.092  1.00 20.00     0.095 C 
HETATM    5 CL7  UNL     1     -30.854   8.377   3.047  1.00 20.00    -0.105 Cl
ENDROOT
BRANCH   4   6
HETATM    6  C5  UNL     1     -33.566   7.933   2.998  1.00 20.00     0.034 C 
HETATM    7  C3  UNL     1     -34.070   6.546   3.394  1.00 20.00     0.008 C 
ENDBRANCH   4   6
TORSDOF 1
ENDMDL
MODEL 4
REMARK VINA RESULT:      -1.3      2.778      3.682
REMARK  1 active torsions:
REMARK  status: ('A' for Active; 'I' for Inactive)
REMARK    1  A    between atoms: C5_5  and  C6_6 
ROOT
HETATM    1  C1  UNL     1     -32.587   9.898   0.118  1.00 20.00     0.014 C 
HETATM    2  C2  UNL     1     -32.404   9.055   0.954  1.00 20.00    -0.091 C 
HETATM    3  C4  UNL     1     -31.027   8.457   2.900  1.00 20.00     0.046 C 
HETATM    4  C6  UNL     1     -32.172   8.021   1.980  1.00 20.00     0.095 C 
HETATM    5 CL7  UNL     1     -33.667   7.911   2.969  1.00 20.00    -0.105 Cl
ENDROOT
BRANCH   4   6
HETATM    6  C5  UNL     1     -31.840   6.655   1.345  1.00 20.00     0.034 C 
HETATM    7  C3  UNL     1     -32.922   5.584   1.468  1.00 20.00     0.008 C 
ENDBRANCH   4   6
TORSDOF 1
ENDMDL
MODEL 5
REMARK VINA RESULT:      -1.2      2.935      4.390
REMARK  1 active torsions:
REMARK  status: ('A' for Active; 'I' for Inactive)
REMARK    1  A    between atoms: C5_5  and  C6_6 
ROOT
HETATM    1  C1  UNL     1     -34.205   7.347   3.928  1.00 20.00     0.014 C 
HETATM    2  C2  UNL     1     -33.399   7.492   3.049  1.00 20.00    -0.091 C 
HETATM    3  C4  UNL     1     -31.150   8.345   2.540  1.00 20.00     0.046 C 
HETATM    4  C6  UNL     1     -32.408   7.676   1.973  1.00 20.00     0.095 C 
HETATM    5 CL7  UNL     1     -31.950   6.041   1.388  1.00 20.00    -0.105 Cl
ENDROOT
BRANCH   4   6
HETATM    6  C5  UNL     1     -32.975   8.527   0.817  1.00 20.00     0.034 C 
HETATM    7  C3  UNL     1     -32.170   9.773   0.453  1.00 20.00     0.008 C 
ENDBRANCH   4   6
TORSDOF 1
ENDMDL
MODEL 6
REMARK VINA RESULT:      -1.1      2.063      3.920
REMARK  1 active torsions:
REMARK  status: ('A' for Active; 'I' for Inactive)
REMARK    1  A    between atoms: C5_5  and  C6_6 
ROOT
HETATM    1  C1  UNL     1     -34.500   6.533   3.802  1.00 20.00     0.014 C 
HETATM    2  C2  UNL     1     -33.732   6.550   2.878  1.00 20.00    -0.091 C 
HETATM    3  C4  UNL     1     -31.899   5.317   1.800  1.00 20.00     0.046 C 
HETATM    4  C6  UNL     1     -32.786   6.567   1.748  1.00 20.00     0.095 C 
HETATM    5 CL7  UNL     1     -33.758   6.494   0.240  1.00 20.00    -0.105 Cl
ENDROOT
BRANCH   4   6
HETATM    6  C5  UNL     1     -31.904   7.833   1.764  1.00 20.00     0.034 C 
HETATM    7  C3  UNL     1     -32.328   8.950   0.814  1.00 20.00     0.008 C 
ENDBRANCH   4   6
TORSDOF 1
ENDMDL
MODEL 7
REMARK VINA RESULT:      -1.0      2.766      3.796
REMARK  1 active torsions:
REMARK  status: ('A' for Active; 'I' for Inactive)
REMARK    1  A    between atoms: C5_5  and  C6_6 
ROOT
HETATM    1  C1  UNL     1     -34.261   7.409   3.853  1.00 20.00     0.014 C 
HETATM    2  C2  UNL     1     -33.356   7.618   3.091  1.00 20.00    -0.091 C 
HETATM    3  C4  UNL     1     -32.689   8.910   1.110  1.00 20.00     0.046 C 
HETATM    4  C6  UNL     1     -32.249   7.875   2.152  1.00 20.00     0.095 C 
HETATM    5 CL7  UNL     1     -30.900   8.584   3.102  1.00 20.00    -0.105 Cl
ENDROOT
BRANCH   4   6
HETATM    6  C5  UNL     1     -31.793   6.583   1.443  1.00 20.00     0.034 C 
HETATM    7  C3  UNL     1     -32.864   5.509   1.265  1.00 20.00     0.008 C 
ENDBRANCH   4   6
TORSDOF 1
ENDMDL
MODEL 8
REMARK VINA RESULT:      -1.0      2.418      3.359
REMARK  1 active torsions:
REMARK  status: ('A' for Active; 'I' for Inactive)
REMARK    1  A    between atoms: C5_5  and  C6_6 
ROOT
HETATM    1  C1  UNL     1     -31.868   8.443   1.711  1.00 20.00     0.014 C 
HETATM    2  C2  UNL     1     -32.297   7.321   1.689  1.00 20.00    -0.091 C 
HETATM    3  C4  UNL     1     -33.801   5.797   0.483  1.00 20.00     0.046 C 
HETATM    4  C6  UNL     1     -32.828   5.946   1.658  1.00 20.00     0.095 C 
HETATM    5 CL7  UNL     1     -31.438   4.846   1.371  1.00 20.00    -0.105 Cl
ENDROOT
BRANCH   4   6
HETATM    6  C5  UNL     1     -33.544   5.584   2.976  1.00 20.00     0.034 C 
HETATM    7  C3  UNL     1     -34.399   6.688   3.594  1.00 20.00     0.008 C 
ENDBRANCH   4   6
TORSDOF 1
ENDMDL
MODEL 9
REMARK VINA RESULT:      -1.0      1.570      2.276
REMARK  1 active torsions:
REMARK  status: ('A' for Active; 'I' for Inactive)
REMARK    1  A    between atoms: C5_5  and  C6_6 
ROOT
HETATM    1  C1  UNL     1     -33.390   8.226   4.996  1.00 20.00     0.014 C 
HETATM    2  C2  UNL     1     -33.906   7.340   4.371  1.00 20.00    -0.091 C 
HETATM    3  C4  UNL     1     -35.906   6.728   3.079  1.00 20.00     0.046 C 
HETATM    4  C6  UNL     1     -34.546   6.254   3.605  1.00 20.00     0.095 C 
HETATM    5 CL7  UNL     1     -33.494   5.911   2.191  1.00 20.00    -0.105 Cl
ENDROOT
BRANCH   4   6
HETATM    6  C5  UNL     1     -34.733   4.986   4.464  1.00 20.00     0.034 C 
HETATM    7  C3  UNL     1     -33.784   3.830   4.155  1.00 20.00     0.008 C 
ENDBRANCH   4   6
TORSDOF 1
ENDMDL
