MODEL 1
REMARK VINA RESULT:       5.3      0.000      0.000
REMARK  0 active torsions:
REMARK  status: ('A' for Active; 'I' for Inactive)
ROOT
HETATM    1  C1  UNL     1     -32.586   7.980   3.775  1.00 20.00    -0.080 C 
HETATM    2  C2  UNL     1     -32.748   8.216   5.080  1.00 20.00     0.015 C 
HETATM    3  C3  UNL     1     -31.271   8.107   3.036  1.00 20.00     0.039 C 
HETATM    4  C4  UNL     1     -32.576   8.868   1.057  1.00 20.00     0.007 C 
HETATM    5  C5  UNL     1     -33.891   8.729   1.852  1.00 20.00     0.015 C 
HETATM    6  C6  UNL     1     -31.713   7.707   1.608  1.00 20.00    -0.002 C 
HETATM    7  C7  UNL     1     -33.625   7.495   2.757  1.00 20.00    -0.014 C 
HETATM    8  C8  UNL     1     -32.750   6.577   1.851  1.00 20.00    -0.033 C 
HETATM    9  C9  UNL     1     -34.897   6.876   3.311  1.00 20.00     0.021 C 
HETATM   10  C10 UNL     1     -33.432   6.075   0.561  1.00 20.00     0.016 C 
HETATM   11  C11 UNL     1     -32.174   5.325   2.549  1.00 20.00     0.016 C 
ENDROOT
TORSDOF 0
ENDMDL
MODEL 2
REMARK VINA RESULT:       5.6      1.544      3.638
REMARK  0 active torsions:
REMARK  status: ('A' for Active; 'I' for Inactive)
ROOT
HETATM    1  C1  UNL     1     -34.074   4.937   3.815  1.00 20.00    -0.080 C 
HETATM    2  C2  UNL     1     -33.532   3.723   3.946  1.00 20.00     0.015 C 
HETATM    3  C3  UNL     1     -35.195   5.475   4.679  1.00 20.00     0.039 C 
HETATM    4  C4  UNL     1     -36.019   6.693   2.671  1.00 20.00     0.007 C 
HETATM    5  C5  UNL     1     -34.863   6.116   1.828  1.00 20.00     0.015 C 
HETATM    6  C6  UNL     1     -35.371   6.883   4.064  1.00 20.00    -0.002 C 
HETATM    7  C7  UNL     1     -33.687   6.055   2.840  1.00 20.00    -0.014 C 
HETATM    8  C8  UNL     1     -33.919   7.317   3.725  1.00 20.00    -0.033 C 
HETATM    9  C9  UNL     1     -32.328   5.945   2.170  1.00 20.00     0.021 C 
HETATM   10  C10 UNL     1     -33.833   8.668   2.986  1.00 20.00     0.016 C 
HETATM   11  C11 UNL     1     -32.988   7.436   4.952  1.00 20.00     0.016 C 
ENDROOT
TORSDOF 0
ENDMDL
MODEL 3
REMARK VINA RESULT:       5.8      1.126      2.951
REMARK  0 active torsions:
REMARK  status: ('A' for Active; 'I' for Inactive)
ROOT
HETATM    1  C1  UNL     1     -33.439   7.513   3.085  1.00 20.00    -0.080 C 
HETATM    2  C2  UNL     1     -33.890   7.692   4.330  1.00 20.00     0.015 C 
HETATM    3  C3  UNL     1     -34.274   6.990   1.936  1.00 20.00     0.039 C 
HETATM    4  C4  UNL     1     -32.217   5.881   1.081  1.00 20.00     0.007 C 
HETATM    5  C5  UNL     1     -31.407   6.431   2.273  1.00 20.00     0.015 C 
HETATM    6  C6  UNL     1     -33.230   7.016   0.796  1.00 20.00    -0.002 C 
HETATM    7  C7  UNL     1     -32.048   7.824   2.519  1.00 20.00    -0.014 C 
HETATM    8  C8  UNL     1     -32.410   8.304   1.082  1.00 20.00    -0.033 C 
HETATM    9  C9  UNL     1     -31.163   8.752   3.335  1.00 20.00     0.021 C 
HETATM   10  C10 UNL     1     -31.213   8.501   0.129  1.00 20.00     0.016 C 
HETATM   11  C11 UNL     1     -33.233   9.610   1.015  1.00 20.00     0.016 C 
ENDROOT
TORSDOF 0
ENDMDL
MODEL 4
REMARK VINA RESULT:       6.2      1.117      3.146
REMARK  0 active torsions:
REMARK  status: ('A' for Active; 'I' for Inactive)
ROOT
HETATM    1  C1  UNL     1     -33.521   5.168   3.220  1.00 20.00    -0.080 C 
HETATM    2  C2  UNL     1     -33.398   4.087   3.996  1.00 20.00     0.015 C 
HETATM    3  C3  UNL     1     -34.625   6.197   3.349  1.00 20.00     0.039 C 
HETATM    4  C4  UNL     1     -34.527   6.460   0.876  1.00 20.00     0.007 C 
HETATM    5  C5  UNL     1     -33.408   5.402   0.793  1.00 20.00     0.015 C 
HETATM    6  C6  UNL     1     -34.230   7.174   2.218  1.00 20.00    -0.002 C 
HETATM    7  C7  UNL     1     -32.597   5.646   2.094  1.00 20.00    -0.014 C 
HETATM    8  C8  UNL     1     -32.678   7.191   2.275  1.00 20.00    -0.033 C 
HETATM    9  C9  UNL     1     -31.201   5.047   2.049  1.00 20.00     0.021 C 
HETATM   10  C10 UNL     1     -32.025   8.025   1.153  1.00 20.00     0.016 C 
HETATM   11  C11 UNL     1     -32.098   7.727   3.603  1.00 20.00     0.016 C 
ENDROOT
TORSDOF 0
ENDMDL
MODEL 5
REMARK VINA RESULT:       6.2      1.303      2.909
REMARK  0 active torsions:
REMARK  status: ('A' for Active; 'I' for Inactive)
ROOT
HETATM    1  C1  UNL     1     -32.871   7.283   2.548  1.00 20.00    -0.080 C 
HETATM    2  C2  UNL     1     -31.784   8.034   2.349  1.00 20.00     0.015 C 
HETATM    3  C3  UNL     1     -33.456   6.332   1.526  1.00 20.00     0.039 C 
HETATM    4  C4  UNL     1     -35.704   6.908   2.429  1.00 20.00     0.007 C 
HETATM    5  C5  UNL     1     -35.063   7.871   3.449  1.00 20.00     0.015 C 
HETATM    6  C6  UNL     1     -34.658   5.771   2.321  1.00 20.00    -0.002 C 
HETATM    7  C7  UNL     1     -33.730   7.162   3.812  1.00 20.00    -0.014 C 
HETATM    8  C8  UNL     1     -34.112   5.652   3.771  1.00 20.00    -0.033 C 
HETATM    9  C9  UNL     1     -33.120   7.665   5.110  1.00 20.00     0.021 C 
HETATM   10  C10 UNL     1     -35.174   5.209   4.798  1.00 20.00     0.016 C 
HETATM   11  C11 UNL     1     -32.928   4.672   3.925  1.00 20.00     0.016 C 
ENDROOT
TORSDOF 0
ENDMDL
MODEL 6
REMARK VINA RESULT:       6.2      0.949      3.197
REMARK  0 active torsions:
REMARK  status: ('A' for Active; 'I' for Inactive)
ROOT
HETATM    1  C1  UNL     1     -32.802   9.330   1.158  1.00 20.00    -0.080 C 
HETATM    2  C2  UNL     1     -32.861  10.404   0.365  1.00 20.00     0.015 C 
HETATM    3  C3  UNL     1     -33.841   8.973   2.200  1.00 20.00     0.039 C 
HETATM    4  C4  UNL     1     -31.987   8.057   3.585  1.00 20.00     0.007 C 
HETATM    5  C5  UNL     1     -30.963   8.444   2.498  1.00 20.00     0.015 C 
HETATM    6  C6  UNL     1     -33.237   7.665   2.761  1.00 20.00    -0.002 C 
HETATM    7  C7  UNL     1     -31.749   8.215   1.178  1.00 20.00    -0.014 C 
HETATM    8  C8  UNL     1     -32.634   6.974   1.507  1.00 20.00    -0.033 C 
HETATM    9  C9  UNL     1     -30.849   8.095  -0.040  1.00 20.00     0.021 C 
HETATM   10  C10 UNL     1     -31.862   5.677   1.825  1.00 20.00     0.016 C 
HETATM   11  C11 UNL     1     -33.672   6.605   0.424  1.00 20.00     0.016 C 
ENDROOT
TORSDOF 0
ENDMDL
MODEL 7
REMARK VINA RESULT:       6.3      0.986      3.361
REMARK  0 active torsions:
REMARK  status: ('A' for Active; 'I' for Inactive)
ROOT
HETATM    1  C1  UNL     1     -33.396   5.636   1.010  1.00 20.00    -0.080 C 
HETATM    2  C2  UNL     1     -33.610   4.519   0.309  1.00 20.00     0.015 C 
HETATM    3  C3  UNL     1     -33.683   7.034   0.507  1.00 20.00     0.039 C 
HETATM    4  C4  UNL     1     -31.705   7.799   1.810  1.00 20.00     0.007 C 
HETATM    5  C5  UNL     1     -31.447   6.356   2.293  1.00 20.00     0.015 C 
HETATM    6  C6  UNL     1     -33.250   7.869   1.735  1.00 20.00    -0.002 C 
HETATM    7  C7  UNL     1     -32.879   5.777   2.447  1.00 20.00    -0.014 C 
HETATM    8  C8  UNL     1     -33.704   7.003   2.942  1.00 20.00    -0.033 C 
HETATM    9  C9  UNL     1     -32.930   4.536   3.322  1.00 20.00     0.021 C 
HETATM   10  C10 UNL     1     -33.280   7.577   4.310  1.00 20.00     0.016 C 
HETATM   11  C11 UNL     1     -35.230   6.777   3.024  1.00 20.00     0.016 C 
ENDROOT
TORSDOF 0
ENDMDL
MODEL 8
REMARK VINA RESULT:       6.5      0.952      2.400
REMARK  0 active torsions:
REMARK  status: ('A' for Active; 'I' for Inactive)
ROOT
HETATM    1  C1  UNL     1     -33.029   5.855   2.782  1.00 20.00    -0.080 C 
HETATM    2  C2  UNL     1     -33.673   4.891   3.445  1.00 20.00     0.015 C 
HETATM    3  C3  UNL     1     -31.802   5.635   1.923  1.00 20.00     0.039 C 
HETATM    4  C4  UNL     1     -31.016   7.882   2.650  1.00 20.00     0.007 C 
HETATM    5  C5  UNL     1     -32.280   8.060   3.516  1.00 20.00     0.015 C 
HETATM    6  C6  UNL     1     -31.539   7.078   1.434  1.00 20.00    -0.002 C 
HETATM    7  C7  UNL     1     -33.379   7.345   2.684  1.00 20.00    -0.014 C 
HETATM    8  C8  UNL     1     -32.965   7.654   1.214  1.00 20.00    -0.033 C 
HETATM    9  C9  UNL     1     -34.788   7.749   3.084  1.00 20.00     0.021 C 
HETATM   10  C10 UNL     1     -32.977   9.146   0.823  1.00 20.00     0.016 C 
HETATM   11  C11 UNL     1     -33.787   6.918   0.133  1.00 20.00     0.016 C 
ENDROOT
TORSDOF 0
ENDMDL
MODEL 9
REMARK VINA RESULT:       6.8      1.056      2.976
REMARK  0 active torsions:
REMARK  status: ('A' for Active; 'I' for Inactive)
ROOT
HETATM    1  C1  UNL     1     -31.801   6.235   1.571  1.00 20.00    -0.080 C 
HETATM    2  C2  UNL     1     -31.616   4.966   1.199  1.00 20.00     0.015 C 
HETATM    3  C3  UNL     1     -30.781   7.069   2.318  1.00 20.00     0.039 C 
HETATM    4  C4  UNL     1     -32.687   8.179   3.472  1.00 20.00     0.007 C 
HETATM    5  C5  UNL     1     -33.689   7.303   2.692  1.00 20.00     0.015 C 
HETATM    6  C6  UNL     1     -31.550   8.404   2.445  1.00 20.00    -0.002 C 
HETATM    7  C7  UNL     1     -33.009   7.142   1.306  1.00 20.00    -0.014 C 
HETATM    8  C8  UNL     1     -32.309   8.518   1.095  1.00 20.00    -0.033 C 
HETATM    9  C9  UNL     1     -33.972   6.704   0.215  1.00 20.00     0.021 C 
HETATM   10  C10 UNL     1     -33.253   9.736   1.015  1.00 20.00     0.016 C 
HETATM   11  C11 UNL     1     -31.391   8.604  -0.145  1.00 20.00     0.016 C 
ENDROOT
TORSDOF 0
ENDMDL
