MODEL 1
REMARK VINA RESULT:      -0.7      0.000      0.000
REMARK  2 active torsions:
REMARK  status: ('A' for Active; 'I' for Inactive)
REMARK    1  A    between atoms: C1_1  and  C7_7 
REMARK    2  A    between atoms: C7_7  and  S10_10 
ROOT
HETATM    1  C1  UNL     1     -32.699   7.150   2.374  1.00 20.00     0.009 A 
HETATM    2  C2  UNL     1     -33.628   7.135   3.429  1.00 20.00     0.068 A 
HETATM    3  C3  UNL     1     -32.774   5.885   1.855  1.00 20.00     0.084 A 
HETATM    4  C4  UNL     1     -33.974   8.231   4.349  1.00 20.00     0.073 C 
HETATM    5  C5  UNL     1     -32.097   5.194   0.751  1.00 20.00     0.079 C 
HETATM    6  N8  UNL     1     -34.233   5.952   3.555  1.00 20.00    -0.133 NA
HETATM    7  O9  UNL     1     -33.687   5.160   2.551  1.00 20.00    -0.217 OA
ENDROOT
BRANCH   1   8
HETATM    8  C7  UNL     1     -31.824   8.285   1.918  1.00 20.00     0.116 C 
BRANCH   8   9
HETATM    9  S10 UNL     1     -32.198   8.796   0.223  1.00 20.00    -0.169 SA
HETATM   10  C6  UNL     1     -32.656  10.514   0.554  1.00 20.00     0.090 C 
ENDBRANCH   8   9
ENDBRANCH   1   8
TORSDOF 2
ENDMDL
MODEL 2
REMARK VINA RESULT:      -0.5      0.624      2.545
REMARK  2 active torsions:
REMARK  status: ('A' for Active; 'I' for Inactive)
REMARK    1  A    between atoms: C1_1  and  C7_7 
REMARK    2  A    between atoms: C7_7  and  S10_10 
ROOT
HETATM    1  C1  UNL     1     -32.689   7.175   2.376  1.00 20.00     0.009 A 
HETATM    2  C2  UNL     1     -32.804   5.861   1.890  1.00 20.00     0.068 A 
HETATM    3  C3  UNL     1     -33.575   7.215   3.419  1.00 20.00     0.084 A 
HETATM    4  C4  UNL     1     -32.084   5.243   0.764  1.00 20.00     0.073 C 
HETATM    5  C5  UNL     1     -33.978   8.255   4.375  1.00 20.00     0.079 C 
HETATM    6  N8  UNL     1     -33.694   5.142   2.579  1.00 20.00    -0.133 NA
HETATM    7  O9  UNL     1     -34.181   6.008   3.551  1.00 20.00    -0.217 OA
ENDROOT
BRANCH   1   8
HETATM    8  C7  UNL     1     -31.804   8.281   1.872  1.00 20.00     0.116 C 
BRANCH   8   9
HETATM    9  S10 UNL     1     -32.265   8.821   0.209  1.00 20.00    -0.169 SA
HETATM   10  C6  UNL     1     -32.651  10.548   0.583  1.00 20.00     0.090 C 
ENDBRANCH   8   9
ENDBRANCH   1   8
TORSDOF 2
ENDMDL
MODEL 3
REMARK VINA RESULT:       0.3      3.010      4.731
REMARK  2 active torsions:
REMARK  status: ('A' for Active; 'I' for Inactive)
REMARK    1  A    between atoms: C1_1  and  C7_7 
REMARK    2  A    between atoms: C7_7  and  S10_10 
ROOT
HETATM    1  C1  UNL     1     -33.394   5.974   2.671  1.00 20.00     0.009 A 
HETATM    2  C2  UNL     1     -32.402   6.107   1.685  1.00 20.00     0.068 A 
HETATM    3  C3  UNL     1     -33.456   7.219   3.240  1.00 20.00     0.084 A 
HETATM    4  C4  UNL     1     -31.907   5.081   0.751  1.00 20.00     0.073 C 
HETATM    5  C5  UNL     1     -34.259   7.807   4.319  1.00 20.00     0.079 C 
HETATM    6  N8  UNL     1     -31.888   7.339   1.644  1.00 20.00    -0.133 NA
HETATM    7  O9  UNL     1     -32.563   8.042   2.635  1.00 20.00    -0.217 OA
ENDROOT
BRANCH   1   8
HETATM    8  C7  UNL     1     -34.200   4.756   3.025  1.00 20.00     0.116 C 
BRANCH   8   9
HETATM    9  S10 UNL     1     -33.993   4.281   4.758  1.00 20.00    -0.169 SA
HETATM   10  C6  UNL     1     -33.120   2.717   4.507  1.00 20.00     0.090 C 
ENDBRANCH   8   9
ENDBRANCH   1   8
TORSDOF 2
ENDMDL
MODEL 4
REMARK VINA RESULT:       0.4      2.935      4.012
REMARK  2 active torsions:
REMARK  status: ('A' for Active; 'I' for Inactive)
REMARK    1  A    between atoms: C1_1  and  C7_7 
REMARK    2  A    between atoms: C7_7  and  S10_10 
ROOT
HETATM    1  C1  UNL     1     -33.409   5.917   2.679  1.00 20.00     0.009 A 
HETATM    2  C2  UNL     1     -33.385   7.226   3.191  1.00 20.00     0.068 A 
HETATM    3  C3  UNL     1     -32.473   5.941   1.680  1.00 20.00     0.084 A 
HETATM    4  C4  UNL     1     -34.191   7.786   4.289  1.00 20.00     0.073 C 
HETATM    5  C5  UNL     1     -31.971   4.941   0.729  1.00 20.00     0.079 C 
HETATM    6  N8  UNL     1     -32.502   8.002   2.558  1.00 20.00    -0.133 NA
HETATM    7  O9  UNL     1     -31.924   7.180   1.598  1.00 20.00    -0.217 OA
ENDROOT
BRANCH   1   8
HETATM    8  C7  UNL     1     -34.260   4.759   3.119  1.00 20.00     0.116 C 
BRANCH   8   9
HETATM    9  S10 UNL     1     -33.868   4.224   4.802  1.00 20.00    -0.169 SA
HETATM   10  C6  UNL     1     -33.141   2.615   4.412  1.00 20.00     0.090 C 
ENDBRANCH   8   9
ENDBRANCH   1   8
TORSDOF 2
ENDMDL
MODEL 5
REMARK VINA RESULT:       0.7      2.260      2.715
REMARK  2 active torsions:
REMARK  status: ('A' for Active; 'I' for Inactive)
REMARK    1  A    between atoms: C1_1  and  C7_7 
REMARK    2  A    between atoms: C7_7  and  S10_10 
ROOT
HETATM    1  C1  UNL     1     -33.564   5.246   3.460  1.00 20.00     0.009 A 
HETATM    2  C2  UNL     1     -34.571   6.179   3.759  1.00 20.00     0.068 A 
HETATM    3  C3  UNL     1     -33.961   4.114   4.121  1.00 20.00     0.084 A 
HETATM    4  C4  UNL     1     -34.671   7.580   3.316  1.00 20.00     0.073 C 
HETATM    5  C5  UNL     1     -33.402   2.763   4.257  1.00 20.00     0.079 C 
HETATM    6  N8  UNL     1     -35.521   5.666   4.546  1.00 20.00    -0.133 NA
HETATM    7  O9  UNL     1     -35.128   4.352   4.773  1.00 20.00    -0.217 OA
ENDROOT
BRANCH   1   8
HETATM    8  C7  UNL     1     -32.335   5.438   2.615  1.00 20.00     0.116 C 
BRANCH   8   9
HETATM    9  S10 UNL     1     -32.691   6.343   1.090  1.00 20.00    -0.169 SA
HETATM   10  C6  UNL     1     -31.842   7.889   1.489  1.00 20.00     0.090 C 
ENDBRANCH   8   9
ENDBRANCH   1   8
TORSDOF 2
ENDMDL
MODEL 6
REMARK VINA RESULT:       0.8      2.275      3.272
REMARK  2 active torsions:
REMARK  status: ('A' for Active; 'I' for Inactive)
REMARK    1  A    between atoms: C1_1  and  C7_7 
REMARK    2  A    between atoms: C7_7  and  S10_10 
ROOT
HETATM    1  C1  UNL     1     -33.608   5.305   3.453  1.00 20.00     0.009 A 
HETATM    2  C2  UNL     1     -34.049   4.175   4.162  1.00 20.00     0.068 A 
HETATM    3  C3  UNL     1     -34.559   6.252   3.723  1.00 20.00     0.084 A 
HETATM    4  C4  UNL     1     -33.415   2.848   4.241  1.00 20.00     0.073 C 
HETATM    5  C5  UNL     1     -34.747   7.652   3.324  1.00 20.00     0.079 C 
HETATM    6  N8  UNL     1     -35.188   4.403   4.822  1.00 20.00    -0.133 NA
HETATM    7  O9  UNL     1     -35.508   5.726   4.539  1.00 20.00    -0.217 OA
ENDROOT
BRANCH   1   8
HETATM    8  C7  UNL     1     -32.381   5.447   2.596  1.00 20.00     0.116 C 
BRANCH   8   9
HETATM    9  S10 UNL     1     -32.700   6.418   1.103  1.00 20.00    -0.169 SA
HETATM   10  C6  UNL     1     -31.837   7.934   1.577  1.00 20.00     0.090 C 
ENDBRANCH   8   9
ENDBRANCH   1   8
TORSDOF 2
ENDMDL
MODEL 7
REMARK VINA RESULT:       1.5      2.164      3.392
REMARK  2 active torsions:
REMARK  status: ('A' for Active; 'I' for Inactive)
REMARK    1  A    between atoms: C1_1  and  C7_7 
REMARK    2  A    between atoms: C7_7  and  S10_10 
ROOT
HETATM    1  C1  UNL     1     -33.345   6.466   2.439  1.00 20.00     0.009 A 
HETATM    2  C2  UNL     1     -34.170   6.461   3.576  1.00 20.00     0.068 A 
HETATM    3  C3  UNL     1     -32.784   7.716   2.448  1.00 20.00     0.084 A 
HETATM    4  C4  UNL     1     -35.025   5.370   4.073  1.00 20.00     0.073 C 
HETATM    5  C5  UNL     1     -31.834   8.414   1.573  1.00 20.00     0.079 C 
HETATM    6  N8  UNL     1     -34.126   7.619   4.241  1.00 20.00    -0.133 NA
HETATM    7  O9  UNL     1     -33.242   8.414   3.519  1.00 20.00    -0.217 OA
ENDROOT
BRANCH   1   8
HETATM    8  C7  UNL     1     -33.124   5.363   1.442  1.00 20.00     0.116 C 
BRANCH   8   9
HETATM    9  S10 UNL     1     -31.426   4.742   1.476  1.00 20.00    -0.169 SA
HETATM   10  C6  UNL     1     -31.396   3.949  -0.150  1.00 20.00     0.090 C 
ENDBRANCH   8   9
ENDBRANCH   1   8
TORSDOF 2
ENDMDL
MODEL 8
REMARK VINA RESULT:       1.6      2.210      3.603
REMARK  2 active torsions:
REMARK  status: ('A' for Active; 'I' for Inactive)
REMARK    1  A    between atoms: C1_1  and  C7_7 
REMARK    2  A    between atoms: C7_7  and  S10_10 
ROOT
HETATM    1  C1  UNL     1     -33.419   6.489   2.534  1.00 20.00     0.009 A 
HETATM    2  C2  UNL     1     -32.827   7.761   2.625  1.00 20.00     0.068 A 
HETATM    3  C3  UNL     1     -34.257   6.442   3.615  1.00 20.00     0.084 A 
HETATM    4  C4  UNL     1     -31.833   8.366   1.723  1.00 20.00     0.073 C 
HETATM    5  C5  UNL     1     -35.182   5.432   4.146  1.00 20.00     0.079 C 
HETATM    6  N8  UNL     1     -33.264   8.450   3.682  1.00 20.00    -0.133 NA
HETATM    7  O9  UNL     1     -34.175   7.606   4.308  1.00 20.00    -0.217 OA
ENDROOT
BRANCH   1   8
HETATM    8  C7  UNL     1     -33.189   5.426   1.496  1.00 20.00     0.116 C 
BRANCH   8   9
HETATM    9  S10 UNL     1     -31.492   4.801   1.523  1.00 20.00    -0.169 SA
HETATM   10  C6  UNL     1     -31.468   4.013  -0.104  1.00 20.00     0.090 C 
ENDBRANCH   8   9
ENDBRANCH   1   8
TORSDOF 2
ENDMDL
MODEL 9
REMARK VINA RESULT:       1.9      2.835      3.335
REMARK  2 active torsions:
REMARK  status: ('A' for Active; 'I' for Inactive)
REMARK    1  A    between atoms: C1_1  and  C7_7 
REMARK    2  A    between atoms: C7_7  and  S10_10 
ROOT
HETATM    1  C1  UNL     1     -33.220   6.204   2.900  1.00 20.00     0.009 A 
HETATM    2  C2  UNL     1     -32.970   7.514   3.343  1.00 20.00     0.068 A 
HETATM    3  C3  UNL     1     -32.651   6.167   1.654  1.00 20.00     0.084 A 
HETATM    4  C4  UNL     1     -33.356   8.127   4.624  1.00 20.00     0.073 C 
HETATM    5  C5  UNL     1     -32.528   5.132   0.619  1.00 20.00     0.079 C 
HETATM    6  N8  UNL     1     -32.298   8.235   2.442  1.00 20.00    -0.133 NA
HETATM    7  O9  UNL     1     -32.097   7.373   1.369  1.00 20.00    -0.217 OA
ENDROOT
BRANCH   1   8
HETATM    8  C7  UNL     1     -33.942   5.098   3.618  1.00 20.00     0.116 C 
BRANCH   8   9
HETATM    9  S10 UNL     1     -35.440   5.685   4.445  1.00 20.00    -0.169 SA
HETATM   10  C6  UNL     1     -36.160   6.615   3.071  1.00 20.00     0.090 C 
ENDBRANCH   8   9
ENDBRANCH   1   8
TORSDOF 2
ENDMDL
