MODEL 1
REMARK VINA RESULT:      -0.4      0.000      0.000
REMARK  1 active torsions:
REMARK  status: ('A' for Active; 'I' for Inactive)
REMARK    1  A    between atoms: C5_5  and  C7_7 
ROOT
HETATM    1  C1  UNL     1     -33.410   7.273   3.389  1.00 20.00     0.010 C 
HETATM    2  C2  UNL     1     -32.452   8.250   2.640  1.00 20.00    -0.004 A 
HETATM    3  C3  UNL     1     -33.398   6.063   2.406  1.00 20.00    -0.004 A 
HETATM    4  C4  UNL     1     -31.437   7.414   1.884  1.00 20.00    -0.000 A 
HETATM    5  C5  UNL     1     -32.604   7.997   1.151  1.00 20.00    -0.000 A 
HETATM    6  C6  UNL     1     -32.037   6.025   1.735  1.00 20.00    -0.000 A 
HETATM    7  C7  UNL     1     -33.205   6.607   1.003  1.00 20.00    -0.000 A 
ENDROOT
TORSDOF 1
ENDMDL
MODEL 2
REMARK VINA RESULT:      -0.4      0.014      2.059
REMARK  1 active torsions:
REMARK  status: ('A' for Active; 'I' for Inactive)
REMARK    1  A    between atoms: C5_5  and  C7_7 
ROOT
HETATM    1  C1  UNL     1     -33.408   7.273   3.383  1.00 20.00     0.010 C 
HETATM    2  C2  UNL     1     -33.391   6.068   2.393  1.00 20.00    -0.004 A 
HETATM    3  C3  UNL     1     -32.451   8.256   2.641  1.00 20.00    -0.004 A 
HETATM    4  C4  UNL     1     -33.196   6.621   0.994  1.00 20.00    -0.000 A 
HETATM    5  C5  UNL     1     -32.029   6.036   1.725  1.00 20.00    -0.000 A 
HETATM    6  C6  UNL     1     -32.599   8.010   1.151  1.00 20.00    -0.000 A 
HETATM    7  C7  UNL     1     -31.432   7.426   1.883  1.00 20.00    -0.000 A 
ENDROOT
TORSDOF 1
ENDMDL
MODEL 3
REMARK VINA RESULT:      -0.3      1.739      2.968
REMARK  1 active torsions:
REMARK  status: ('A' for Active; 'I' for Inactive)
REMARK    1  A    between atoms: C5_5  and  C7_7 
ROOT
HETATM    1  C1  UNL     1     -34.211   4.759   3.902  1.00 20.00     0.010 C 
HETATM    2  C2  UNL     1     -35.242   5.844   4.342  1.00 20.00    -0.004 A 
HETATM    3  C3  UNL     1     -33.292   5.609   2.971  1.00 20.00    -0.004 A 
HETATM    4  C4  UNL     1     -34.524   7.180   4.371  1.00 20.00    -0.000 A 
HETATM    5  C5  UNL     1     -35.389   6.833   3.200  1.00 20.00    -0.000 A 
HETATM    6  C6  UNL     1     -33.286   7.031   3.500  1.00 20.00    -0.000 A 
HETATM    7  C7  UNL     1     -34.150   6.683   2.330  1.00 20.00    -0.000 A 
ENDROOT
TORSDOF 1
ENDMDL
MODEL 4
REMARK VINA RESULT:      -0.3      1.784      3.078
REMARK  1 active torsions:
REMARK  status: ('A' for Active; 'I' for Inactive)
REMARK    1  A    between atoms: C5_5  and  C7_7 
ROOT
HETATM    1  C1  UNL     1     -34.218   4.688   3.956  1.00 20.00     0.010 C 
HETATM    2  C2  UNL     1     -33.315   5.514   2.989  1.00 20.00    -0.004 A 
HETATM    3  C3  UNL     1     -35.242   5.782   4.386  1.00 20.00    -0.004 A 
HETATM    4  C4  UNL     1     -34.184   6.572   2.336  1.00 20.00    -0.000 A 
HETATM    5  C5  UNL     1     -33.300   6.949   3.483  1.00 20.00    -0.000 A 
HETATM    6  C6  UNL     1     -35.408   6.742   3.222  1.00 20.00    -0.000 A 
HETATM    7  C7  UNL     1     -34.525   7.119   4.370  1.00 20.00    -0.000 A 
ENDROOT
TORSDOF 1
ENDMDL
MODEL 5
REMARK VINA RESULT:      -0.0      0.791      2.085
REMARK  1 active torsions:
REMARK  status: ('A' for Active; 'I' for Inactive)
REMARK    1  A    between atoms: C5_5  and  C7_7 
ROOT
HETATM    1  C1  UNL     1     -32.779   5.871   1.824  1.00 20.00     0.010 C 
HETATM    2  C2  UNL     1     -32.002   7.176   1.469  1.00 20.00    -0.004 A 
HETATM    3  C3  UNL     1     -33.697   6.396   2.970  1.00 20.00    -0.004 A 
HETATM    4  C4  UNL     1     -32.925   8.350   1.735  1.00 20.00    -0.000 A 
HETATM    5  C5  UNL     1     -31.873   7.997   2.739  1.00 20.00    -0.000 A 
HETATM    6  C6  UNL     1     -34.001   7.855   2.688  1.00 20.00    -0.000 A 
HETATM    7  C7  UNL     1     -32.950   7.502   3.692  1.00 20.00    -0.000 A 
ENDROOT
TORSDOF 1
ENDMDL
MODEL 6
REMARK VINA RESULT:      -0.0      0.792      2.154
REMARK  1 active torsions:
REMARK  status: ('A' for Active; 'I' for Inactive)
REMARK    1  A    between atoms: C5_5  and  C7_7 
ROOT
HETATM    1  C1  UNL     1     -32.780   5.870   1.824  1.00 20.00     0.010 C 
HETATM    2  C2  UNL     1     -33.695   6.393   2.974  1.00 20.00    -0.004 A 
HETATM    3  C3  UNL     1     -32.004   7.175   1.470  1.00 20.00    -0.004 A 
HETATM    4  C4  UNL     1     -32.946   7.496   3.695  1.00 20.00    -0.000 A 
HETATM    5  C5  UNL     1     -34.001   7.852   2.695  1.00 20.00    -0.000 A 
HETATM    6  C6  UNL     1     -31.872   7.994   2.741  1.00 20.00    -0.000 A 
HETATM    7  C7  UNL     1     -32.925   8.349   1.740  1.00 20.00    -0.000 A 
ENDROOT
TORSDOF 1
ENDMDL
MODEL 7
REMARK VINA RESULT:       0.0      1.377      3.149
REMARK  1 active torsions:
REMARK  status: ('A' for Active; 'I' for Inactive)
REMARK    1  A    between atoms: C5_5  and  C7_7 
ROOT
HETATM    1  C1  UNL     1     -33.145   6.153   2.404  1.00 20.00     0.010 C 
HETATM    2  C2  UNL     1     -34.261   5.501   3.277  1.00 20.00    -0.004 A 
HETATM    3  C3  UNL     1     -33.233   7.630   2.897  1.00 20.00    -0.004 A 
HETATM    4  C4  UNL     1     -34.322   6.256   4.591  1.00 20.00    -0.000 A 
HETATM    5  C5  UNL     1     -35.328   6.551   3.524  1.00 20.00    -0.000 A 
HETATM    6  C6  UNL     1     -33.669   7.608   4.350  1.00 20.00    -0.000 A 
HETATM    7  C7  UNL     1     -34.675   7.904   3.283  1.00 20.00    -0.000 A 
ENDROOT
TORSDOF 1
ENDMDL
MODEL 8
REMARK VINA RESULT:       0.1      1.398      2.901
REMARK  1 active torsions:
REMARK  status: ('A' for Active; 'I' for Inactive)
REMARK    1  A    between atoms: C5_5  and  C7_7 
ROOT
HETATM    1  C1  UNL     1     -33.155   6.164   2.415  1.00 20.00     0.010 C 
HETATM    2  C2  UNL     1     -33.250   7.629   2.943  1.00 20.00    -0.004 A 
HETATM    3  C3  UNL     1     -34.251   5.481   3.288  1.00 20.00    -0.004 A 
HETATM    4  C4  UNL     1     -34.687   7.879   3.358  1.00 20.00    -0.000 A 
HETATM    5  C5  UNL     1     -33.661   7.569   4.402  1.00 20.00    -0.000 A 
HETATM    6  C6  UNL     1     -35.323   6.516   3.577  1.00 20.00    -0.000 A 
HETATM    7  C7  UNL     1     -34.298   6.205   4.621  1.00 20.00    -0.000 A 
ENDROOT
TORSDOF 1
ENDMDL
MODEL 9
REMARK VINA RESULT:       0.2      0.835      2.220
REMARK  1 active torsions:
REMARK  status: ('A' for Active; 'I' for Inactive)
REMARK    1  A    between atoms: C5_5  and  C7_7 
ROOT
HETATM    1  C1  UNL     1     -32.496   8.073   3.057  1.00 20.00     0.010 C 
HETATM    2  C2  UNL     1     -33.687   7.322   3.728  1.00 20.00    -0.004 A 
HETATM    3  C3  UNL     1     -32.271   7.174   1.803  1.00 20.00    -0.004 A 
HETATM    4  C4  UNL     1     -34.513   6.687   2.626  1.00 20.00    -0.000 A 
HETATM    5  C5  UNL     1     -33.547   5.847   3.401  1.00 20.00    -0.000 A 
HETATM    6  C6  UNL     1     -33.614   6.593   1.404  1.00 20.00    -0.000 A 
HETATM    7  C7  UNL     1     -32.648   5.753   2.178  1.00 20.00    -0.000 A 
ENDROOT
TORSDOF 1
ENDMDL
