MODEL 1
REMARK VINA RESULT:      -2.4      0.000      0.000
REMARK  2 active torsions:
REMARK  status: ('A' for Active; 'I' for Inactive)
REMARK    1  A    between atoms: C1_1  and  C6_6 
REMARK    2  A    between atoms: C7_7  and  C9_9 
ROOT
HETATM    1  C2  UNL     1     -33.260   5.526   2.053  1.00 20.00     0.015 C 
HETATM    2  C3  UNL     1     -33.887   7.299   3.738  1.00 20.00     0.015 C 
HETATM    3  C4  UNL     1     -32.306   6.507   1.372  1.00 20.00     0.005 C 
HETATM    4  C5  UNL     1     -32.936   8.284   3.059  1.00 20.00     0.005 C 
HETATM    5  C6  UNL     1     -33.430   5.860   3.530  1.00 20.00     0.087 C 
HETATM    6  C7  UNL     1     -32.757   7.961   1.568  1.00 20.00    -0.015 C 
ENDROOT
BRANCH   5   7
HETATM    7  C1  UNL     1     -34.511   4.951   4.085  1.00 20.00     0.177 C 
HETATM    8  O10 UNL     1     -35.609   5.516   4.346  1.00 20.00    -0.648 OA
HETATM    9  O11 UNL     1     -34.171   3.740   4.213  1.00 20.00    -0.648 OA
ENDBRANCH   5   7
BRANCH   6  10
HETATM   10  C9  UNL     1     -31.762   8.926   0.924  1.00 20.00     0.000 C 
HETATM   11  C8  UNL     1     -32.455   9.994   0.145  1.00 20.00     0.005 C 
ENDBRANCH   6  10
TORSDOF 2
ENDMDL
MODEL 2
REMARK VINA RESULT:      -2.4      0.511      1.604
REMARK  2 active torsions:
REMARK  status: ('A' for Active; 'I' for Inactive)
REMARK    1  A    between atoms: C1_1  and  C6_6 
REMARK    2  A    between atoms: C7_7  and  C9_9 
ROOT
HETATM    1  C2  UNL     1     -33.772   7.172   3.744  1.00 20.00     0.015 C 
HETATM    2  C3  UNL     1     -32.978   5.334   2.206  1.00 20.00     0.015 C 
HETATM    3  C4  UNL     1     -33.207   8.220   2.787  1.00 20.00     0.005 C 
HETATM    4  C5  UNL     1     -32.410   6.380   1.247  1.00 20.00     0.005 C 
HETATM    5  C6  UNL     1     -34.150   5.896   3.001  1.00 20.00     0.087 C 
HETATM    6  C7  UNL     1     -32.021   7.670   1.982  1.00 20.00    -0.015 C 
ENDROOT
BRANCH   5   7
HETATM    7  C1  UNL     1     -34.540   4.859   4.038  1.00 20.00     0.177 C 
HETATM    8  O10 UNL     1     -35.608   5.101   4.666  1.00 20.00    -0.648 OA
HETATM    9  O11 UNL     1     -33.743   3.884   4.138  1.00 20.00    -0.648 OA
ENDBRANCH   5   7
BRANCH   6  10
HETATM   10  C9  UNL     1     -31.505   8.717   0.996  1.00 20.00     0.000 C 
HETATM   11  C8  UNL     1     -32.599   9.617   0.524  1.00 20.00     0.005 C 
ENDBRANCH   6  10
TORSDOF 2
ENDMDL
MODEL 3
REMARK VINA RESULT:      -1.9      2.893      4.977
REMARK  2 active torsions:
REMARK  status: ('A' for Active; 'I' for Inactive)
REMARK    1  A    between atoms: C1_1  and  C6_6 
REMARK    2  A    between atoms: C7_7  and  C9_9 
ROOT
HETATM    1  C2  UNL     1     -33.386   8.391   2.938  1.00 20.00     0.015 C 
HETATM    2  C3  UNL     1     -32.671   6.539   1.379  1.00 20.00     0.015 C 
HETATM    3  C4  UNL     1     -33.869   7.355   3.952  1.00 20.00     0.005 C 
HETATM    4  C5  UNL     1     -33.155   5.499   2.390  1.00 20.00     0.005 C 
HETATM    5  C6  UNL     1     -32.263   7.832   2.072  1.00 20.00     0.087 C 
HETATM    6  C7  UNL     1     -34.289   6.048   3.267  1.00 20.00    -0.015 C 
ENDROOT
BRANCH   5   7
HETATM    7  C1  UNL     1     -31.961   8.856   0.994  1.00 20.00     0.177 C 
HETATM    8  O10 UNL     1     -31.011   8.557   0.219  1.00 20.00    -0.648 OA
HETATM    9  O11 UNL     1     -32.703   9.878   1.011  1.00 20.00    -0.648 OA
ENDBRANCH   5   7
BRANCH   6  10
HETATM   10  C9  UNL     1     -34.719   5.010   4.302  1.00 20.00     0.000 C 
HETATM   11  C8  UNL     1     -33.830   3.811   4.285  1.00 20.00     0.005 C 
ENDBRANCH   6  10
TORSDOF 2
ENDMDL
MODEL 4
REMARK VINA RESULT:      -1.6      0.653      1.888
REMARK  2 active torsions:
REMARK  status: ('A' for Active; 'I' for Inactive)
REMARK    1  A    between atoms: C1_1  and  C6_6 
REMARK    2  A    between atoms: C7_7  and  C9_9 
ROOT
HETATM    1  C2  UNL     1     -33.764   7.144   4.180  1.00 20.00     0.015 C 
HETATM    2  C3  UNL     1     -33.210   5.620   2.246  1.00 20.00     0.015 C 
HETATM    3  C4  UNL     1     -33.293   8.350   3.368  1.00 20.00     0.005 C 
HETATM    4  C5  UNL     1     -32.736   6.823   1.431  1.00 20.00     0.005 C 
HETATM    5  C6  UNL     1     -34.261   6.028   3.270  1.00 20.00     0.087 C 
HETATM    6  C7  UNL     1     -32.229   7.955   2.335  1.00 20.00    -0.015 C 
ENDROOT
BRANCH   5   7
HETATM    7  C1  UNL     1     -34.548   4.819   4.140  1.00 20.00     0.177 C 
HETATM    8  O10 UNL     1     -33.667   3.916   4.115  1.00 20.00    -0.648 OA
HETATM    9  O11 UNL     1     -35.636   4.873   4.780  1.00 20.00    -0.648 OA
ENDBRANCH   5   7
BRANCH   6  10
HETATM   10  C9  UNL     1     -31.811   9.165   1.502  1.00 20.00     0.000 C 
HETATM   11  C8  UNL     1     -32.280   9.051   0.089  1.00 20.00     0.005 C 
ENDBRANCH   6  10
TORSDOF 2
ENDMDL
MODEL 5
REMARK VINA RESULT:      -1.1      2.812      4.708
REMARK  2 active torsions:
REMARK  status: ('A' for Active; 'I' for Inactive)
REMARK    1  A    between atoms: C1_1  and  C6_6 
REMARK    2  A    between atoms: C7_7  and  C9_9 
ROOT
HETATM    1  C2  UNL     1     -32.356   6.275   1.423  1.00 20.00     0.015 C 
HETATM    2  C3  UNL     1     -33.351   7.883   3.095  1.00 20.00     0.015 C 
HETATM    3  C4  UNL     1     -33.155   5.131   2.044  1.00 20.00     0.005 C 
HETATM    4  C5  UNL     1     -34.151   6.741   3.720  1.00 20.00     0.005 C 
HETATM    5  C6  UNL     1     -33.060   7.611   1.624  1.00 20.00     0.087 C 
HETATM    6  C7  UNL     1     -33.451   5.389   3.528  1.00 20.00    -0.015 C 
ENDROOT
BRANCH   5   7
HETATM    7  C1  UNL     1     -32.127   8.702   1.131  1.00 20.00     0.177 C 
HETATM    8  O10 UNL     1     -32.684   9.796   0.839  1.00 20.00    -0.648 OA
HETATM    9  O11 UNL     1     -30.909   8.372   1.078  1.00 20.00    -0.648 OA
ENDBRANCH   5   7
BRANCH   6  10
HETATM   10  C9  UNL     1     -34.294   4.257   4.114  1.00 20.00     0.000 C 
HETATM   11  C8  UNL     1     -33.445   3.128   4.595  1.00 20.00     0.005 C 
ENDBRANCH   6  10
TORSDOF 2
ENDMDL
