MODEL 1
REMARK VINA RESULT:      -1.8      0.000      0.000
REMARK  1 active torsions:
REMARK  status: ('A' for Active; 'I' for Inactive)
REMARK    1  A    between atoms: C4_4  and  C7_7 
ROOT
HETATM    1  C1  UNL     1     -31.880   6.580   1.348  1.00 20.00     0.015 A 
HETATM    2  C2  UNL     1     -32.392   5.385   1.856  1.00 20.00     0.008 A 
HETATM    3  C3  UNL     1     -33.457   7.873   2.676  1.00 20.00     0.022 A 
HETATM    4  C4  UNL     1     -32.409   7.815   1.755  1.00 20.00     0.002 A 
HETATM    5  C5  UNL     1     -33.422   5.451   2.779  1.00 20.00    -0.052 A 
HETATM    6  C6  UNL     1     -33.949   6.683   3.185  1.00 20.00    -0.051 A 
HETATM    7  C8  UNL     1     -34.151   4.318   3.430  1.00 20.00     0.039 C 
HETATM    8  C9  UNL     1     -35.081   6.487   4.143  1.00 20.00     0.039 C 
HETATM    9  C10 UNL     1     -34.840   5.040   4.597  1.00 20.00     0.009 C 
ENDROOT
BRANCH   4  10
HETATM   10  C7  UNL     1     -31.865   9.047   1.205  1.00 20.00     0.269 C 
HETATM   11  O11 UNL     1     -32.422   9.689   0.310  1.00 20.00    -0.301 OA
ENDBRANCH   4  10
TORSDOF 1
ENDMDL
MODEL 2
REMARK VINA RESULT:      -0.8      2.548      4.659
REMARK  1 active torsions:
REMARK  status: ('A' for Active; 'I' for Inactive)
REMARK    1  A    between atoms: C4_4  and  C7_7 
ROOT
HETATM    1  C1  UNL     1     -34.525   6.216   4.235  1.00 20.00     0.015 A 
HETATM    2  C2  UNL     1     -34.272   7.494   3.734  1.00 20.00     0.008 A 
HETATM    3  C3  UNL     1     -32.973   5.232   2.639  1.00 20.00     0.022 A 
HETATM    4  C4  UNL     1     -33.880   5.093   3.692  1.00 20.00     0.002 A 
HETATM    5  C5  UNL     1     -33.361   7.625   2.699  1.00 20.00    -0.052 A 
HETATM    6  C6  UNL     1     -32.718   6.505   2.157  1.00 20.00    -0.051 A 
HETATM    7  C8  UNL     1     -32.957   8.872   1.979  1.00 20.00     0.039 C 
HETATM    8  C9  UNL     1     -31.827   6.901   1.023  1.00 20.00     0.039 C 
HETATM    9  C10 UNL     1     -31.672   8.407   1.277  1.00 20.00     0.009 C 
ENDROOT
BRANCH   4  10
HETATM   10  C7  UNL     1     -34.166   3.770   4.225  1.00 20.00     0.269 C 
HETATM   11  O11 UNL     1     -33.305   3.049   4.736  1.00 20.00    -0.301 OA
ENDBRANCH   4  10
TORSDOF 1
ENDMDL
MODEL 3
REMARK VINA RESULT:      -0.7      2.340      4.237
REMARK  1 active torsions:
REMARK  status: ('A' for Active; 'I' for Inactive)
REMARK    1  A    between atoms: C4_4  and  C7_7 
ROOT
HETATM    1  C1  UNL     1     -33.538   5.299   2.620  1.00 20.00     0.015 A 
HETATM    2  C2  UNL     1     -32.594   5.719   1.681  1.00 20.00     0.008 A 
HETATM    3  C3  UNL     1     -33.939   7.596   3.314  1.00 20.00     0.022 A 
HETATM    4  C4  UNL     1     -34.206   6.231   3.430  1.00 20.00     0.002 A 
HETATM    5  C5  UNL     1     -32.345   7.076   1.562  1.00 20.00    -0.052 A 
HETATM    6  C6  UNL     1     -33.010   8.005   2.371  1.00 20.00    -0.051 A 
HETATM    7  C8  UNL     1     -31.361   7.758   0.665  1.00 20.00     0.039 C 
HETATM    8  C9  UNL     1     -32.532   9.394   2.090  1.00 20.00     0.039 C 
HETATM    9  C10 UNL     1     -31.866   9.208   0.719  1.00 20.00     0.009 C 
ENDROOT
BRANCH   4  10
HETATM   10  C7  UNL     1     -35.179   5.768   4.407  1.00 20.00     0.269 C 
HETATM   11  O11 UNL     1     -35.352   4.575   4.672  1.00 20.00    -0.301 OA
ENDBRANCH   4  10
TORSDOF 1
ENDMDL
MODEL 4
REMARK VINA RESULT:       0.3      1.973      2.885
REMARK  1 active torsions:
REMARK  status: ('A' for Active; 'I' for Inactive)
REMARK    1  A    between atoms: C4_4  and  C7_7 
ROOT
HETATM    1  C1  UNL     1     -31.854   7.128   1.470  1.00 20.00     0.015 A 
HETATM    2  C2  UNL     1     -32.613   7.833   2.405  1.00 20.00     0.008 A 
HETATM    3  C3  UNL     1     -32.944   5.042   2.087  1.00 20.00     0.022 A 
HETATM    4  C4  UNL     1     -32.018   5.743   1.312  1.00 20.00     0.002 A 
HETATM    5  C5  UNL     1     -33.539   7.133   3.161  1.00 20.00    -0.052 A 
HETATM    6  C6  UNL     1     -33.702   5.751   3.003  1.00 20.00    -0.051 A 
HETATM    7  C8  UNL     1     -34.433   7.656   4.241  1.00 20.00     0.039 C 
HETATM    8  C9  UNL     1     -34.719   5.223   3.965  1.00 20.00     0.039 C 
HETATM    9  C10 UNL     1     -35.452   6.513   4.362  1.00 20.00     0.009 C 
ENDROOT
BRANCH   4  10
HETATM   10  C7  UNL     1     -31.209   5.029   0.336  1.00 20.00     0.269 C 
HETATM   11  O11 UNL     1     -31.529   3.933  -0.132  1.00 20.00    -0.301 OA
ENDBRANCH   4  10
TORSDOF 1
ENDMDL
MODEL 5
REMARK VINA RESULT:       0.5      0.663      1.972
REMARK  1 active torsions:
REMARK  status: ('A' for Active; 'I' for Inactive)
REMARK    1  A    between atoms: C4_4  and  C7_7 
ROOT
HETATM    1  C1  UNL     1     -33.537   8.451   2.745  1.00 20.00     0.015 A 
HETATM    2  C2  UNL     1     -34.253   7.673   3.657  1.00 20.00     0.008 A 
HETATM    3  C3  UNL     1     -32.392   6.481   1.892  1.00 20.00     0.022 A 
HETATM    4  C4  UNL     1     -32.613   7.859   1.869  1.00 20.00     0.002 A 
HETATM    5  C5  UNL     1     -34.037   6.305   3.663  1.00 20.00    -0.052 A 
HETATM    6  C6  UNL     1     -33.115   5.715   2.790  1.00 20.00    -0.051 A 
HETATM    7  C8  UNL     1     -34.650   5.279   4.564  1.00 20.00     0.039 C 
HETATM    8  C9  UNL     1     -33.026   4.241   3.027  1.00 20.00     0.039 C 
HETATM    9  C10 UNL     1     -34.326   3.985   3.803  1.00 20.00     0.009 C 
ENDROOT
BRANCH   4  10
HETATM   10  C7  UNL     1     -31.873   8.692   0.934  1.00 20.00     0.269 C 
HETATM   11  O11 UNL     1     -32.349   9.703   0.409  1.00 20.00    -0.301 OA
ENDBRANCH   4  10
TORSDOF 1
ENDMDL
MODEL 6
REMARK VINA RESULT:       1.0      2.755      4.803
REMARK  1 active torsions:
REMARK  status: ('A' for Active; 'I' for Inactive)
REMARK    1  A    between atoms: C4_4  and  C7_7 
ROOT
HETATM    1  C1  UNL     1     -35.006   5.204   4.443  1.00 20.00     0.015 A 
HETATM    2  C2  UNL     1     -35.037   6.442   3.800  1.00 20.00     0.008 A 
HETATM    3  C3  UNL     1     -32.969   4.589   3.262  1.00 20.00     0.022 A 
HETATM    4  C4  UNL     1     -33.980   4.284   4.176  1.00 20.00     0.002 A 
HETATM    5  C5  UNL     1     -34.023   6.743   2.905  1.00 20.00    -0.052 A 
HETATM    6  C6  UNL     1     -33.001   5.825   2.639  1.00 20.00    -0.051 A 
HETATM    7  C8  UNL     1     -33.863   7.977   2.075  1.00 20.00     0.039 C 
HETATM    8  C9  UNL     1     -32.062   6.360   1.604  1.00 20.00     0.039 C 
HETATM    9  C10 UNL     1     -32.391   7.859   1.650  1.00 20.00     0.009 C 
ENDROOT
BRANCH   4  10
HETATM   10  C7  UNL     1     -33.974   2.996   4.853  1.00 20.00     0.269 C 
HETATM   11  O11 UNL     1     -33.255   2.055   4.505  1.00 20.00    -0.301 OA
ENDBRANCH   4  10
TORSDOF 1
ENDMDL
