MODEL 1
REMARK VINA RESULT:       1.1      0.000      0.000
REMARK  2 active torsions:
REMARK  status: ('A' for Active; 'I' for Inactive)
REMARK    1  A    between atoms: C3_3  and  C9_9 
REMARK    2  A    between atoms: C4_4  and  C10_10 
ROOT
HETATM    1  C1  UNL     1     -31.673   8.597   2.825  1.00 20.00     0.009 A 
HETATM    2  C2  UNL     1     -32.324   7.731   3.599  1.00 20.00     0.009 A 
HETATM    3  C3  UNL     1     -32.202   8.537   1.432  1.00 20.00     0.076 A 
HETATM    4  C4  UNL     1     -33.355   7.006   2.801  1.00 20.00     0.076 A 
HETATM    5  C5  UNL     1     -31.136   8.084   0.438  1.00 20.00     0.050 C 
HETATM    6  C6  UNL     1     -33.076   5.506   2.744  1.00 20.00     0.050 C 
HETATM    7  O11 UNL     1     -33.247   7.536   1.459  1.00 20.00    -0.362 OA
ENDROOT
BRANCH   3   8
HETATM    8  C9  UNL     1     -32.824   9.864   1.004  1.00 20.00     0.037 C 
HETATM    9  C7  UNL     1     -32.698  10.085  -0.468  1.00 20.00     0.008 C 
ENDBRANCH   3   8
BRANCH   4  10
HETATM   10  C10 UNL     1     -34.766   7.285   3.311  1.00 20.00     0.037 C 
HETATM   11  C8  UNL     1     -35.309   6.134   4.095  1.00 20.00     0.008 C 
ENDBRANCH   4  10
TORSDOF 2
ENDMDL
MODEL 2
REMARK VINA RESULT:       1.3      1.233      4.157
REMARK  2 active torsions:
REMARK  status: ('A' for Active; 'I' for Inactive)
REMARK    1  A    between atoms: C3_3  and  C9_9 
REMARK    2  A    between atoms: C4_4  and  C10_10 
ROOT
HETATM    1  C1  UNL     1     -33.224   7.622   4.155  1.00 20.00     0.009 A 
HETATM    2  C2  UNL     1     -32.290   8.150   3.368  1.00 20.00     0.009 A 
HETATM    3  C3  UNL     1     -34.124   6.737   3.360  1.00 20.00     0.076 A 
HETATM    4  C4  UNL     1     -32.471   7.671   1.966  1.00 20.00     0.076 A 
HETATM    5  C5  UNL     1     -35.563   7.247   3.355  1.00 20.00     0.050 C 
HETATM    6  C6  UNL     1     -32.778   8.819   1.009  1.00 20.00     0.050 C 
HETATM    7  O11 UNL     1     -33.621   6.794   2.004  1.00 20.00    -0.362 OA
ENDROOT
BRANCH   3   8
HETATM    8  C9  UNL     1     -34.056   5.287   3.833  1.00 20.00     0.037 C 
HETATM    9  C7  UNL     1     -35.268   4.905   4.618  1.00 20.00     0.008 C 
ENDBRANCH   3   8
BRANCH   4  10
HETATM   10  C10 UNL     1     -31.270   6.860   1.485  1.00 20.00     0.037 C 
HETATM   11  C8  UNL     1     -31.662   5.473   1.091  1.00 20.00     0.008 C 
ENDBRANCH   4  10
TORSDOF 2
ENDMDL
MODEL 3
REMARK VINA RESULT:       1.4      1.074      4.049
REMARK  2 active torsions:
REMARK  status: ('A' for Active; 'I' for Inactive)
REMARK    1  A    between atoms: C3_3  and  C9_9 
REMARK    2  A    between atoms: C4_4  and  C10_10 
ROOT
HETATM    1  C1  UNL     1     -32.966   6.148   2.723  1.00 20.00     0.009 A 
HETATM    2  C2  UNL     1     -32.204   6.559   1.712  1.00 20.00     0.009 A 
HETATM    3  C3  UNL     1     -33.551   7.322   3.434  1.00 20.00     0.076 A 
HETATM    4  C4  UNL     1     -32.204   8.049   1.644  1.00 20.00     0.076 A 
HETATM    5  C5  UNL     1     -33.077   7.402   4.883  1.00 20.00     0.050 C 
HETATM    6  C6  UNL     1     -30.809   8.626   1.869  1.00 20.00     0.050 C 
HETATM    7  O11 UNL     1     -33.053   8.485   2.732  1.00 20.00    -0.362 OA
ENDROOT
BRANCH   3   8
HETATM    8  C9  UNL     1     -35.076   7.332   3.352  1.00 20.00     0.037 C 
HETATM    9  C7  UNL     1     -35.673   6.136   4.017  1.00 20.00     0.008 C 
ENDBRANCH   3   8
BRANCH   4  10
HETATM   10  C10 UNL     1     -32.806   8.557   0.336  1.00 20.00     0.037 C 
HETATM   11  C8  UNL     1     -32.519  10.008   0.123  1.00 20.00     0.008 C 
ENDBRANCH   4  10
TORSDOF 2
ENDMDL
MODEL 4
REMARK VINA RESULT:       1.5      1.363      2.740
REMARK  2 active torsions:
REMARK  status: ('A' for Active; 'I' for Inactive)
REMARK    1  A    between atoms: C3_3  and  C9_9 
REMARK    2  A    between atoms: C4_4  and  C10_10 
ROOT
HETATM    1  C1  UNL     1     -32.890   5.062   2.772  1.00 20.00     0.009 A 
HETATM    2  C2  UNL     1     -33.708   5.253   3.803  1.00 20.00     0.009 A 
HETATM    3  C3  UNL     1     -32.987   6.207   1.821  1.00 20.00     0.076 A 
HETATM    4  C4  UNL     1     -34.435   6.546   3.647  1.00 20.00     0.076 A 
HETATM    5  C5  UNL     1     -33.505   5.768   0.454  1.00 20.00     0.050 C 
HETATM    6  C6  UNL     1     -35.943   6.339   3.529  1.00 20.00     0.050 C 
HETATM    7  O11 UNL     1     -33.958   7.109   2.402  1.00 20.00    -0.362 OA
ENDROOT
BRANCH   3   8
HETATM    8  C9  UNL     1     -31.660   6.953   1.693  1.00 20.00     0.037 C 
HETATM    9  C7  UNL     1     -31.848   8.320   1.124  1.00 20.00     0.008 C 
ENDBRANCH   3   8
BRANCH   4  10
HETATM   10  C10 UNL     1     -34.101   7.525   4.771  1.00 20.00     0.037 C 
HETATM   11  C8  UNL     1     -32.819   8.247   4.511  1.00 20.00     0.008 C 
ENDBRANCH   4  10
TORSDOF 2
ENDMDL
MODEL 5
REMARK VINA RESULT:       1.6      1.143      4.158
REMARK  2 active torsions:
REMARK  status: ('A' for Active; 'I' for Inactive)
REMARK    1  A    between atoms: C3_3  and  C9_9 
REMARK    2  A    between atoms: C4_4  and  C10_10 
ROOT
HETATM    1  C1  UNL     1     -33.477   5.993   1.440  1.00 20.00     0.009 A 
HETATM    2  C2  UNL     1     -32.712   6.904   0.843  1.00 20.00     0.009 A 
HETATM    3  C3  UNL     1     -33.625   6.318   2.888  1.00 20.00     0.076 A 
HETATM    4  C4  UNL     1     -32.272   7.930   1.833  1.00 20.00     0.076 A 
HETATM    5  C5  UNL     1     -33.034   5.227   3.778  1.00 20.00     0.050 C 
HETATM    6  C6  UNL     1     -30.755   7.942   2.000  1.00 20.00     0.050 C 
HETATM    7  O11 UNL     1     -32.862   7.529   3.092  1.00 20.00    -0.362 OA
ENDROOT
BRANCH   3   8
HETATM    8  C9  UNL     1     -35.079   6.602   3.260  1.00 20.00     0.037 C 
HETATM    9  C7  UNL     1     -35.540   5.739   4.388  1.00 20.00     0.008 C 
ENDBRANCH   3   8
BRANCH   4  10
HETATM   10  C10 UNL     1     -32.798   9.320   1.481  1.00 20.00     0.037 C 
HETATM   11  C8  UNL     1     -32.381   9.738   0.110  1.00 20.00     0.008 C 
ENDBRANCH   4  10
TORSDOF 2
ENDMDL
MODEL 6
REMARK VINA RESULT:       1.8      1.484      3.966
REMARK  2 active torsions:
REMARK  status: ('A' for Active; 'I' for Inactive)
REMARK    1  A    between atoms: C3_3  and  C9_9 
REMARK    2  A    between atoms: C4_4  and  C10_10 
ROOT
HETATM    1  C1  UNL     1     -34.773   6.544   2.109  1.00 20.00     0.009 A 
HETATM    2  C2  UNL     1     -33.823   6.612   1.180  1.00 20.00     0.009 A 
HETATM    3  C3  UNL     1     -34.160   6.353   3.456  1.00 20.00     0.076 A 
HETATM    4  C4  UNL     1     -32.478   6.475   1.811  1.00 20.00     0.076 A 
HETATM    5  C5  UNL     1     -34.575   5.026   4.086  1.00 20.00     0.050 C 
HETATM    6  C6  UNL     1     -31.744   5.232   1.316  1.00 20.00     0.050 C 
HETATM    7  O11 UNL     1     -32.732   6.316   3.227  1.00 20.00    -0.362 OA
ENDROOT
BRANCH   3   8
HETATM    8  C9  UNL     1     -34.463   7.524   4.388  1.00 20.00     0.037 C 
HETATM    9  C7  UNL     1     -33.215   8.129   4.940  1.00 20.00     0.008 C 
ENDBRANCH   3   8
BRANCH   4  10
HETATM   10  C10 UNL     1     -31.630   7.730   1.617  1.00 20.00     0.037 C 
HETATM   11  C8  UNL     1     -32.403   8.823   0.956  1.00 20.00     0.008 C 
ENDBRANCH   4  10
TORSDOF 2
ENDMDL
MODEL 7
REMARK VINA RESULT:       1.9      1.273      2.479
REMARK  2 active torsions:
REMARK  status: ('A' for Active; 'I' for Inactive)
REMARK    1  A    between atoms: C3_3  and  C9_9 
REMARK    2  A    between atoms: C4_4  and  C10_10 
ROOT
HETATM    1  C1  UNL     1     -31.168   7.031   1.618  1.00 20.00     0.009 A 
HETATM    2  C2  UNL     1     -31.690   5.815   1.478  1.00 20.00     0.009 A 
HETATM    3  C3  UNL     1     -32.228   8.000   2.023  1.00 20.00     0.076 A 
HETATM    4  C4  UNL     1     -33.151   5.847   1.776  1.00 20.00     0.076 A 
HETATM    5  C5  UNL     1     -32.433   9.089   0.974  1.00 20.00     0.050 C 
HETATM    6  C6  UNL     1     -33.988   5.465   0.558  1.00 20.00     0.050 C 
HETATM    7  O11 UNL     1     -33.446   7.224   2.111  1.00 20.00    -0.362 OA
ENDROOT
BRANCH   3   8
HETATM    8  C9  UNL     1     -31.948   8.605   3.397  1.00 20.00     0.037 C 
HETATM    9  C7  UNL     1     -33.047   8.312   4.364  1.00 20.00     0.008 C 
ENDBRANCH   3   8
BRANCH   4  10
HETATM   10  C10 UNL     1     -33.504   4.978   2.980  1.00 20.00     0.037 C 
HETATM   11  C8  UNL     1     -34.636   5.555   3.766  1.00 20.00     0.008 C 
ENDBRANCH   4  10
TORSDOF 2
ENDMDL
MODEL 8
REMARK VINA RESULT:       1.9      1.574      2.382
REMARK  2 active torsions:
REMARK  status: ('A' for Active; 'I' for Inactive)
REMARK    1  A    between atoms: C3_3  and  C9_9 
REMARK    2  A    between atoms: C4_4  and  C10_10 
ROOT
HETATM    1  C1  UNL     1     -33.289   7.561   3.047  1.00 20.00     0.009 A 
HETATM    2  C2  UNL     1     -33.558   6.316   2.658  1.00 20.00     0.009 A 
HETATM    3  C3  UNL     1     -32.295   8.182   2.124  1.00 20.00     0.076 A 
HETATM    4  C4  UNL     1     -32.771   5.980   1.437  1.00 20.00     0.076 A 
HETATM    5  C5  UNL     1     -30.996   8.537   2.844  1.00 20.00     0.050 C 
HETATM    6  C6  UNL     1     -31.799   4.830   1.687  1.00 20.00     0.050 C 
HETATM    7  O11 UNL     1     -31.999   7.166   1.136  1.00 20.00    -0.362 OA
ENDROOT
BRANCH   3   8
HETATM    8  C9  UNL     1     -32.873   9.396   1.401  1.00 20.00     0.037 C 
HETATM    9  C7  UNL     1     -32.290   9.555   0.035  1.00 20.00     0.008 C 
ENDBRANCH   3   8
BRANCH   4  10
HETATM   10  C10 UNL     1     -33.676   5.686   0.242  1.00 20.00     0.037 C 
HETATM   11  C8  UNL     1     -33.547   4.269  -0.214  1.00 20.00     0.008 C 
ENDBRANCH   4  10
TORSDOF 2
ENDMDL
MODEL 9
REMARK VINA RESULT:       2.2      1.690      2.657
REMARK  2 active torsions:
REMARK  status: ('A' for Active; 'I' for Inactive)
REMARK    1  A    between atoms: C3_3  and  C9_9 
REMARK    2  A    between atoms: C4_4  and  C10_10 
ROOT
HETATM    1  C1  UNL     1     -33.464   8.404   1.817  1.00 20.00     0.009 A 
HETATM    2  C2  UNL     1     -34.243   8.508   2.891  1.00 20.00     0.009 A 
HETATM    3  C3  UNL     1     -32.554   7.230   1.956  1.00 20.00     0.076 A 
HETATM    4  C4  UNL     1     -33.934   7.414   3.857  1.00 20.00     0.076 A 
HETATM    5  C5  UNL     1     -31.087   7.649   1.983  1.00 20.00     0.050 C 
HETATM    6  C6  UNL     1     -33.410   7.959   5.182  1.00 20.00     0.050 C 
HETATM    7  O11 UNL     1     -32.878   6.641   3.237  1.00 20.00    -0.362 OA
ENDROOT
BRANCH   3   8
HETATM    8  C9  UNL     1     -32.808   6.185   0.873  1.00 20.00     0.037 C 
HETATM    9  C7  UNL     1     -32.072   4.915   1.148  1.00 20.00     0.008 C 
ENDBRANCH   3   8
BRANCH   4  10
HETATM   10  C10 UNL     1     -35.132   6.494   4.075  1.00 20.00     0.037 C 
HETATM   11  C8  UNL     1     -34.720   5.060   4.158  1.00 20.00     0.008 C 
ENDBRANCH   4  10
TORSDOF 2
ENDMDL
