MODEL 1
REMARK VINA RESULT:      -1.7      0.000      0.000
REMARK  2 active torsions:
REMARK  status: ('A' for Active; 'I' for Inactive)
REMARK    1  A    between atoms: C2_2  and  C4_4 
REMARK    2  A    between atoms: C3_3  and  C4_4 
ROOT
HETATM    1  C4  UNL     1     -33.087   7.205   2.032  1.00 20.00     0.127 C 
HETATM    2 CL7  UNL     1     -32.566   5.553   1.582  1.00 20.00    -0.121 Cl
ENDROOT
BRANCH   1   3
HETATM    3  C2  UNL     1     -32.001   8.205   1.655  1.00 20.00     0.164 A 
HETATM    4  C1  UNL     1     -31.968   8.845   0.295  1.00 20.00     0.201 A 
HETATM    5  O5  UNL     1     -32.470   9.541   1.447  1.00 20.00    -0.380 OA
ENDBRANCH   1   3
BRANCH   1   6
HETATM    6  C3  UNL     1     -33.497   7.268   3.504  1.00 20.00     0.137 C 
HETATM    7 CL6  UNL     1     -35.063   6.490   3.846  1.00 20.00    -0.129 Cl
ENDBRANCH   1   6
TORSDOF 2
ENDMDL
MODEL 2
REMARK VINA RESULT:      -1.6      2.155      3.322
REMARK  2 active torsions:
REMARK  status: ('A' for Active; 'I' for Inactive)
REMARK    1  A    between atoms: C2_2  and  C4_4 
REMARK    2  A    between atoms: C3_3  and  C4_4 
ROOT
HETATM    1  C4  UNL     1     -32.630   6.935   2.514  1.00 20.00     0.127 C 
HETATM    2 CL7  UNL     1     -32.792   5.709   1.220  1.00 20.00    -0.121 Cl
ENDROOT
BRANCH   1   3
HETATM    3  C2  UNL     1     -34.013   7.369   2.984  1.00 20.00     0.164 A 
HETATM    4  C1  UNL     1     -34.809   6.531   3.944  1.00 20.00     0.201 A 
HETATM    5  O5  UNL     1     -34.093   7.698   4.375  1.00 20.00    -0.380 OA
ENDBRANCH   1   3
BRANCH   1   6
HETATM    6  C3  UNL     1     -31.743   8.095   2.061  1.00 20.00     0.137 C 
HETATM    7 CL6  UNL     1     -32.480   9.109   0.795  1.00 20.00    -0.129 Cl
ENDBRANCH   1   6
TORSDOF 2
ENDMDL
MODEL 3
REMARK VINA RESULT:      -1.6      2.363      2.968
REMARK  2 active torsions:
REMARK  status: ('A' for Active; 'I' for Inactive)
REMARK    1  A    between atoms: C2_2  and  C4_4 
REMARK    2  A    between atoms: C3_3  and  C4_4 
ROOT
HETATM    1  C4  UNL     1     -33.623   6.122   3.500  1.00 20.00     0.127 C 
HETATM    2 CL7  UNL     1     -34.334   7.616   4.182  1.00 20.00    -0.121 Cl
ENDROOT
BRANCH   1   3
HETATM    3  C2  UNL     1     -33.330   6.325   2.018  1.00 20.00     0.164 A 
HETATM    4  C1  UNL     1     -32.089   7.040   1.560  1.00 20.00     0.201 A 
HETATM    5  O5  UNL     1     -32.189   5.607   1.535  1.00 20.00    -0.380 OA
ENDBRANCH   1   3
BRANCH   1   6
HETATM    6  C3  UNL     1     -34.512   4.911   3.790  1.00 20.00     0.137 C 
HETATM    7 CL6  UNL     1     -33.616   3.491   4.386  1.00 20.00    -0.129 Cl
ENDBRANCH   1   6
TORSDOF 2
ENDMDL
MODEL 4
REMARK VINA RESULT:      -1.5      2.149      2.535
REMARK  2 active torsions:
REMARK  status: ('A' for Active; 'I' for Inactive)
REMARK    1  A    between atoms: C2_2  and  C4_4 
REMARK    2  A    between atoms: C3_3  and  C4_4 
ROOT
HETATM    1  C4  UNL     1     -33.629   7.018   3.752  1.00 20.00     0.127 C 
HETATM    2 CL7  UNL     1     -33.372   8.336   4.936  1.00 20.00    -0.121 Cl
ENDROOT
BRANCH   1   3
HETATM    3  C2  UNL     1     -33.288   7.514   2.352  1.00 20.00     0.164 A 
HETATM    4  C1  UNL     1     -31.862   7.715   1.921  1.00 20.00     0.201 A 
HETATM    5  O5  UNL     1     -32.614   6.556   1.529  1.00 20.00    -0.380 OA
ENDBRANCH   1   3
BRANCH   1   6
HETATM    6  C3  UNL     1     -35.040   6.441   3.873  1.00 20.00     0.137 C 
HETATM    7 CL6  UNL     1     -35.080   4.769   4.487  1.00 20.00    -0.129 Cl
ENDBRANCH   1   6
TORSDOF 2
ENDMDL
MODEL 5
REMARK VINA RESULT:      -1.4      1.102      1.129
REMARK  2 active torsions:
REMARK  status: ('A' for Active; 'I' for Inactive)
REMARK    1  A    between atoms: C2_2  and  C4_4 
REMARK    2  A    between atoms: C3_3  and  C4_4 
ROOT
HETATM    1  C4  UNL     1     -33.076   6.280   1.749  1.00 20.00     0.127 C 
HETATM    2 CL7  UNL     1     -32.620   4.901   0.704  1.00 20.00    -0.121 Cl
ENDROOT
BRANCH   1   3
HETATM    3  C2  UNL     1     -31.939   7.294   1.784  1.00 20.00     0.164 A 
HETATM    4  C1  UNL     1     -32.106   8.673   1.210  1.00 20.00     0.201 A 
HETATM    5  O5  UNL     1     -32.179   8.429   2.623  1.00 20.00    -0.380 OA
ENDBRANCH   1   3
BRANCH   1   6
HETATM    6  C3  UNL     1     -33.511   5.798   3.134  1.00 20.00     0.137 C 
HETATM    7 CL6  UNL     1     -34.923   6.668   3.785  1.00 20.00    -0.129 Cl
ENDBRANCH   1   6
TORSDOF 2
ENDMDL
MODEL 6
REMARK VINA RESULT:      -1.4      3.550      4.293
REMARK  2 active torsions:
REMARK  status: ('A' for Active; 'I' for Inactive)
REMARK    1  A    between atoms: C2_2  and  C4_4 
REMARK    2  A    between atoms: C3_3  and  C4_4 
ROOT
HETATM    1  C4  UNL     1     -33.482   5.689   3.285  1.00 20.00     0.127 C 
HETATM    2 CL7  UNL     1     -32.903   5.877   1.601  1.00 20.00    -0.121 Cl
ENDROOT
BRANCH   1   3
HETATM    3  C2  UNL     1     -34.016   4.277   3.488  1.00 20.00     0.164 A 
HETATM    4  C1  UNL     1     -33.466   3.383   4.564  1.00 20.00     0.201 A 
HETATM    5  O5  UNL     1     -34.714   4.077   4.722  1.00 20.00    -0.380 OA
ENDBRANCH   1   3
BRANCH   1   6
HETATM    6  C3  UNL     1     -34.488   6.784   3.643  1.00 20.00     0.137 C 
HETATM    7 CL6  UNL     1     -33.813   8.066   4.679  1.00 20.00    -0.129 Cl
ENDBRANCH   1   6
TORSDOF 2
ENDMDL
MODEL 7
REMARK VINA RESULT:      -1.2      2.606      2.706
REMARK  2 active torsions:
REMARK  status: ('A' for Active; 'I' for Inactive)
REMARK    1  A    between atoms: C2_2  and  C4_4 
REMARK    2  A    between atoms: C3_3  and  C4_4 
ROOT
HETATM    1  C4  UNL     1     -34.211   5.395   3.212  1.00 20.00     0.127 C 
HETATM    2 CL7  UNL     1     -33.953   3.933   4.212  1.00 20.00    -0.121 Cl
ENDROOT
BRANCH   1   3
HETATM    3  C2  UNL     1     -32.877   5.875   2.654  1.00 20.00     0.164 A 
HETATM    4  C1  UNL     1     -32.433   5.502   1.267  1.00 20.00     0.201 A 
HETATM    5  O5  UNL     1     -32.986   6.795   1.562  1.00 20.00    -0.380 OA
ENDBRANCH   1   3
BRANCH   1   6
HETATM    6  C3  UNL     1     -34.970   6.467   3.996  1.00 20.00     0.137 C 
HETATM    7 CL6  UNL     1     -33.957   7.848   4.488  1.00 20.00    -0.129 Cl
ENDBRANCH   1   6
TORSDOF 2
ENDMDL
MODEL 8
REMARK VINA RESULT:      -1.1      2.470      3.397
REMARK  2 active torsions:
REMARK  status: ('A' for Active; 'I' for Inactive)
REMARK    1  A    between atoms: C2_2  and  C4_4 
REMARK    2  A    between atoms: C3_3  and  C4_4 
ROOT
HETATM    1  C4  UNL     1     -33.233   7.267   2.243  1.00 20.00     0.127 C 
HETATM    2 CL7  UNL     1     -33.897   7.526   3.885  1.00 20.00    -0.121 Cl
ENDROOT
BRANCH   1   3
HETATM    3  C2  UNL     1     -32.947   5.785   2.035  1.00 20.00     0.164 A 
HETATM    4  C1  UNL     1     -32.999   5.166   0.666  1.00 20.00     0.201 A 
HETATM    5  O5  UNL     1     -31.753   5.509   1.293  1.00 20.00    -0.380 OA
ENDBRANCH   1   3
BRANCH   1   6
HETATM    6  C3  UNL     1     -32.022   8.167   1.994  1.00 20.00     0.137 C 
HETATM    7 CL6  UNL     1     -32.259   9.335   0.669  1.00 20.00    -0.129 Cl
ENDBRANCH   1   6
TORSDOF 2
ENDMDL
MODEL 9
REMARK VINA RESULT:      -1.1      2.856      3.710
REMARK  2 active torsions:
REMARK  status: ('A' for Active; 'I' for Inactive)
REMARK    1  A    between atoms: C2_2  and  C4_4 
REMARK    2  A    between atoms: C3_3  and  C4_4 
ROOT
HETATM    1  C4  UNL     1     -33.152   6.799   2.059  1.00 20.00     0.127 C 
HETATM    2 CL7  UNL     1     -32.081   8.226   1.907  1.00 20.00    -0.121 Cl
ENDROOT
BRANCH   1   3
HETATM    3  C2  UNL     1     -33.665   6.695   3.490  1.00 20.00     0.164 A 
HETATM    4  C1  UNL     1     -35.135   6.578   3.784  1.00 20.00     0.201 A 
HETATM    5  O5  UNL     1     -34.264   5.436   3.816  1.00 20.00    -0.380 OA
ENDBRANCH   1   3
BRANCH   1   6
HETATM    6  C3  UNL     1     -32.451   5.533   1.564  1.00 20.00     0.137 C 
HETATM    7 CL6  UNL     1     -33.298   4.723   0.222  1.00 20.00    -0.129 Cl
ENDBRANCH   1   6
TORSDOF 2
ENDMDL
