MODEL 1
REMARK VINA RESULT:      -0.3      0.000      0.000
REMARK  0 active torsions:
REMARK  status: ('A' for Active; 'I' for Inactive)
ROOT
HETATM    1  C1  UNL     1     -34.177   7.311   4.699  1.00 20.00    -0.018 C 
HETATM    2  C2  UNL     1     -33.316   7.677   3.734  1.00 20.00    -0.025 C 
HETATM    3  C3  UNL     1     -34.275   5.102   3.822  1.00 20.00     0.135 C 
HETATM    4  C4  UNL     1     -33.313   5.424   2.679  1.00 20.00     0.087 C 
HETATM    5  C5  UNL     1     -35.213   6.873   2.671  1.00 20.00     0.025 C 
HETATM    6  C6  UNL     1     -35.140   6.324   4.099  1.00 20.00     0.078 C 
HETATM    7  C7  UNL     1     -33.690   6.912   2.480  1.00 20.00     0.016 C 
HETATM    8  O8  UNL     1     -34.311   4.050   4.442  1.00 20.00    -0.297 OA
ENDROOT
TORSDOF 0
ENDMDL
MODEL 2
REMARK VINA RESULT:       0.2      1.802      2.842
REMARK  0 active torsions:
REMARK  status: ('A' for Active; 'I' for Inactive)
ROOT
HETATM    1  C1  UNL     1     -33.565   5.178   3.034  1.00 20.00    -0.018 C 
HETATM    2  C2  UNL     1     -34.248   5.291   4.186  1.00 20.00    -0.025 C 
HETATM    3  C3  UNL     1     -33.082   7.507   3.052  1.00 20.00     0.135 C 
HETATM    4  C4  UNL     1     -33.848   7.740   4.354  1.00 20.00     0.087 C 
HETATM    5  C5  UNL     1     -35.233   6.750   2.678  1.00 20.00     0.025 C 
HETATM    6  C6  UNL     1     -33.799   6.435   2.243  1.00 20.00     0.078 C 
HETATM    7  C7  UNL     1     -34.928   6.646   4.179  1.00 20.00     0.016 C 
HETATM    8  O8  UNL     1     -32.040   8.059   2.737  1.00 20.00    -0.297 OA
ENDROOT
TORSDOF 0
ENDMDL
MODEL 3
REMARK VINA RESULT:       0.5      1.909      2.815
REMARK  0 active torsions:
REMARK  status: ('A' for Active; 'I' for Inactive)
ROOT
HETATM    1  C1  UNL     1     -31.613   7.353   1.888  1.00 20.00    -0.018 C 
HETATM    2  C2  UNL     1     -31.610   6.026   1.675  1.00 20.00    -0.025 C 
HETATM    3  C3  UNL     1     -33.569   7.169   3.228  1.00 20.00     0.135 C 
HETATM    4  C4  UNL     1     -33.659   5.655   3.035  1.00 20.00     0.087 C 
HETATM    5  C5  UNL     1     -33.663   6.816   0.946  1.00 20.00     0.025 C 
HETATM    6  C6  UNL     1     -33.048   7.800   1.945  1.00 20.00     0.078 C 
HETATM    7  C7  UNL     1     -33.055   5.573   1.612  1.00 20.00     0.016 C 
HETATM    8  O8  UNL     1     -33.830   7.766   4.261  1.00 20.00    -0.297 OA
ENDROOT
TORSDOF 0
ENDMDL
MODEL 4
REMARK VINA RESULT:       0.7      2.455      3.609
REMARK  0 active torsions:
REMARK  status: ('A' for Active; 'I' for Inactive)
ROOT
HETATM    1  C1  UNL     1     -32.008   8.507   0.507  1.00 20.00    -0.018 C 
HETATM    2  C2  UNL     1     -32.760   9.278   1.312  1.00 20.00    -0.025 C 
HETATM    3  C3  UNL     1     -32.573   6.575   1.774  1.00 20.00     0.135 C 
HETATM    4  C4  UNL     1     -33.441   7.368   2.751  1.00 20.00     0.087 C 
HETATM    5  C5  UNL     1     -31.208   8.213   2.664  1.00 20.00     0.025 C 
HETATM    6  C6  UNL     1     -31.387   7.434   1.358  1.00 20.00     0.078 C 
HETATM    7  C7  UNL     1     -32.661   8.704   2.711  1.00 20.00     0.016 C 
HETATM    8  O8  UNL     1     -32.820   5.453   1.360  1.00 20.00    -0.297 OA
ENDROOT
TORSDOF 0
ENDMDL
MODEL 5
REMARK VINA RESULT:       0.7      2.114      2.753
REMARK  0 active torsions:
REMARK  status: ('A' for Active; 'I' for Inactive)
ROOT
HETATM    1  C1  UNL     1     -34.605   7.676   3.959  1.00 20.00    -0.018 C 
HETATM    2  C2  UNL     1     -35.216   6.595   3.444  1.00 20.00    -0.025 C 
HETATM    3  C3  UNL     1     -32.785   7.407   2.450  1.00 20.00     0.135 C 
HETATM    4  C4  UNL     1     -33.394   6.159   1.809  1.00 20.00     0.087 C 
HETATM    5  C5  UNL     1     -33.127   5.901   4.169  1.00 20.00     0.025 C 
HETATM    6  C6  UNL     1     -33.124   7.414   3.934  1.00 20.00     0.078 C 
HETATM    7  C7  UNL     1     -34.136   5.608   3.050  1.00 20.00     0.016 C 
HETATM    8  O8  UNL     1     -32.169   8.277   1.856  1.00 20.00    -0.297 OA
ENDROOT
TORSDOF 0
ENDMDL
MODEL 6
REMARK VINA RESULT:       0.9      2.978      3.843
REMARK  0 active torsions:
REMARK  status: ('A' for Active; 'I' for Inactive)
ROOT
HETATM    1  C1  UNL     1     -32.990   7.776   3.283  1.00 20.00    -0.018 C 
HETATM    2  C2  UNL     1     -33.691   6.733   2.805  1.00 20.00    -0.025 C 
HETATM    3  C3  UNL     1     -32.470   8.482   1.072  1.00 20.00     0.135 C 
HETATM    4  C4  UNL     1     -33.232   7.321   0.433  1.00 20.00     0.087 C 
HETATM    5  C5  UNL     1     -31.548   6.550   1.942  1.00 20.00     0.025 C 
HETATM    6  C6  UNL     1     -31.822   7.998   2.362  1.00 20.00     0.078 C 
HETATM    7  C7  UNL     1     -33.001   6.264   1.540  1.00 20.00     0.016 C 
HETATM    8  O8  UNL     1     -32.429   9.623   0.639  1.00 20.00    -0.297 OA
ENDROOT
TORSDOF 0
ENDMDL
MODEL 7
REMARK VINA RESULT:       1.0      1.537      2.451
REMARK  0 active torsions:
REMARK  status: ('A' for Active; 'I' for Inactive)
ROOT
HETATM    1  C1  UNL     1     -35.400   7.188   2.951  1.00 20.00    -0.018 C 
HETATM    2  C2  UNL     1     -35.741   6.212   3.811  1.00 20.00    -0.025 C 
HETATM    3  C3  UNL     1     -33.336   6.102   2.484  1.00 20.00     0.135 C 
HETATM    4  C4  UNL     1     -33.626   4.953   3.451  1.00 20.00     0.087 C 
HETATM    5  C5  UNL     1     -33.719   7.075   4.545  1.00 20.00     0.025 C 
HETATM    6  C6  UNL     1     -33.914   7.388   3.058  1.00 20.00     0.078 C 
HETATM    7  C7  UNL     1     -34.469   5.737   4.485  1.00 20.00     0.016 C 
HETATM    8  O8  UNL     1     -32.773   5.993   1.406  1.00 20.00    -0.297 OA
ENDROOT
TORSDOF 0
ENDMDL
MODEL 8
REMARK VINA RESULT:       1.0      1.765      2.971
REMARK  0 active torsions:
REMARK  status: ('A' for Active; 'I' for Inactive)
ROOT
HETATM    1  C1  UNL     1     -33.454   6.860   0.626  1.00 20.00    -0.018 C 
HETATM    2  C2  UNL     1     -32.705   7.968   0.767  1.00 20.00    -0.025 C 
HETATM    3  C3  UNL     1     -33.613   6.627   2.988  1.00 20.00     0.135 C 
HETATM    4  C4  UNL     1     -32.758   7.867   3.252  1.00 20.00     0.087 C 
HETATM    5  C5  UNL     1     -31.607   6.269   1.898  1.00 20.00     0.025 C 
HETATM    6  C6  UNL     1     -33.090   5.922   1.744  1.00 20.00     0.078 C 
HETATM    7  C7  UNL     1     -31.847   7.782   2.003  1.00 20.00     0.016 C 
HETATM    8  O8  UNL     1     -34.585   6.286   3.644  1.00 20.00    -0.297 OA
ENDROOT
TORSDOF 0
ENDMDL
MODEL 9
REMARK VINA RESULT:       1.2      3.416      4.348
REMARK  0 active torsions:
REMARK  status: ('A' for Active; 'I' for Inactive)
ROOT
HETATM    1  C1  UNL     1     -33.427   7.576   2.408  1.00 20.00    -0.018 C 
HETATM    2  C2  UNL     1     -32.721   6.627   1.770  1.00 20.00    -0.025 C 
HETATM    3  C3  UNL     1     -32.444   9.266   1.054  1.00 20.00     0.135 C 
HETATM    4  C4  UNL     1     -31.588   8.264   0.279  1.00 20.00     0.087 C 
HETATM    5  C5  UNL     1     -31.188   8.137   2.631  1.00 20.00     0.025 C 
HETATM    6  C6  UNL     1     -32.561   8.802   2.499  1.00 20.00     0.078 C 
HETATM    7  C7  UNL     1     -31.377   7.228   1.409  1.00 20.00     0.016 C 
HETATM    8  O8  UNL     1     -32.983  10.252   0.577  1.00 20.00    -0.297 OA
ENDROOT
TORSDOF 0
ENDMDL
