MODEL 1
REMARK VINA RESULT:      -0.6      0.000      0.000
REMARK  1 active torsions:
REMARK  status: ('A' for Active; 'I' for Inactive)
REMARK    1  A    between atoms: C6_6  and  C10_10 
ROOT
HETATM    1  C1  UNL     1     -34.519   5.208   3.989  1.00 20.00     0.127 C 
HETATM    2  C2  UNL     1     -35.299   6.499   4.116  1.00 20.00     0.082 C 
HETATM    3  C3  UNL     1     -33.341   5.196   3.041  1.00 20.00     0.083 C 
HETATM    4  C4  UNL     1     -33.486   7.706   2.770  1.00 20.00     0.010 C 
HETATM    5  C5  UNL     1     -34.381   7.721   4.028  1.00 20.00    -0.011 C 
HETATM    6  C6  UNL     1     -33.446   6.350   2.044  1.00 20.00    -0.004 C 
HETATM    7  C7  UNL     1     -33.536   7.868   5.299  1.00 20.00     0.010 C 
HETATM    8  O11 UNL     1     -34.836   4.203   4.625  1.00 20.00    -0.298 OA
ENDROOT
BRANCH   6   9
HETATM    9  C10 UNL     1     -32.297   6.310   1.038  1.00 20.00    -0.018 C 
HETATM   10  C8  UNL     1     -31.348   7.485   1.259  1.00 20.00     0.010 C 
HETATM   11  C9  UNL     1     -31.544   4.985   1.137  1.00 20.00     0.010 C 
ENDBRANCH   6   9
TORSDOF 1
ENDMDL
MODEL 2
REMARK VINA RESULT:      -0.2      0.461      1.151
REMARK  1 active torsions:
REMARK  status: ('A' for Active; 'I' for Inactive)
REMARK    1  A    between atoms: C6_6  and  C10_10 
ROOT
HETATM    1  C1  UNL     1     -34.698   5.212   4.114  1.00 20.00     0.127 C 
HETATM    2  C2  UNL     1     -35.404   6.543   3.971  1.00 20.00     0.082 C 
HETATM    3  C3  UNL     1     -33.378   5.043   3.396  1.00 20.00     0.083 C 
HETATM    4  C4  UNL     1     -33.313   7.512   2.855  1.00 20.00     0.010 C 
HETATM    5  C5  UNL     1     -34.408   7.705   3.925  1.00 20.00    -0.011 C 
HETATM    6  C6  UNL     1     -33.236   6.085   2.286  1.00 20.00    -0.004 C 
HETATM    7  C7  UNL     1     -33.788   7.953   5.305  1.00 20.00     0.010 C 
HETATM    8  O11 UNL     1     -35.183   4.298   4.781  1.00 20.00    -0.298 OA
ENDROOT
BRANCH   6   9
HETATM    9  C10 UNL     1     -31.936   5.882   1.510  1.00 20.00    -0.018 C 
HETATM   10  C8  UNL     1     -32.123   4.835   0.415  1.00 20.00     0.010 C 
HETATM   11  C9  UNL     1     -31.456   7.203   0.913  1.00 20.00     0.010 C 
ENDBRANCH   6   9
TORSDOF 1
ENDMDL
MODEL 3
REMARK VINA RESULT:      -0.1      1.873      3.841
REMARK  1 active torsions:
REMARK  status: ('A' for Active; 'I' for Inactive)
REMARK    1  A    between atoms: C6_6  and  C10_10 
ROOT
HETATM    1  C1  UNL     1     -32.183   5.905   1.370  1.00 20.00     0.127 C 
HETATM    2  C2  UNL     1     -31.287   7.046   1.799  1.00 20.00     0.082 C 
HETATM    3  C3  UNL     1     -33.540   5.799   2.029  1.00 20.00     0.083 C 
HETATM    4  C4  UNL     1     -33.243   8.075   3.089  1.00 20.00     0.010 C 
HETATM    5  C5  UNL     1     -32.092   8.315   2.090  1.00 20.00    -0.011 C 
HETATM    6  C6  UNL     1     -33.562   6.591   3.337  1.00 20.00    -0.004 C 
HETATM    7  C7  UNL     1     -32.614   8.945   0.793  1.00 20.00     0.010 C 
HETATM    8  O11 UNL     1     -31.820   5.087   0.524  1.00 20.00    -0.298 OA
ENDROOT
BRANCH   6   9
HETATM    9  C10 UNL     1     -34.906   6.438   4.047  1.00 20.00    -0.018 C 
HETATM   10  C8  UNL     1     -36.048   6.869   3.131  1.00 20.00     0.010 C 
HETATM   11  C9  UNL     1     -35.105   4.998   4.513  1.00 20.00     0.010 C 
ENDBRANCH   6   9
TORSDOF 1
ENDMDL
MODEL 4
REMARK VINA RESULT:       1.0      1.063      1.498
REMARK  1 active torsions:
REMARK  status: ('A' for Active; 'I' for Inactive)
REMARK    1  A    between atoms: C6_6  and  C10_10 
ROOT
HETATM    1  C1  UNL     1     -33.880   5.519   3.348  1.00 20.00     0.127 C 
HETATM    2  C2  UNL     1     -34.919   6.495   3.853  1.00 20.00     0.082 C 
HETATM    3  C3  UNL     1     -32.777   6.067   2.470  1.00 20.00     0.083 C 
HETATM    4  C4  UNL     1     -33.489   8.436   2.993  1.00 20.00     0.010 C 
HETATM    5  C5  UNL     1     -34.301   7.860   4.171  1.00 20.00    -0.011 C 
HETATM    6  C6  UNL     1     -33.185   7.418   1.881  1.00 20.00    -0.004 C 
HETATM    7  C7  UNL     1     -33.448   7.794   5.444  1.00 20.00     0.010 C 
HETATM    8  O11 UNL     1     -33.933   4.322   3.631  1.00 20.00    -0.298 OA
ENDROOT
BRANCH   6   9
HETATM    9  C10 UNL     1     -32.107   7.951   0.939  1.00 20.00    -0.018 C 
HETATM   10  C8  UNL     1     -32.511   9.312   0.377  1.00 20.00     0.010 C 
HETATM   11  C9  UNL     1     -30.763   8.043   1.658  1.00 20.00     0.010 C 
ENDBRANCH   6   9
TORSDOF 1
ENDMDL
MODEL 5
REMARK VINA RESULT:       1.0      2.206      4.466
REMARK  1 active torsions:
REMARK  status: ('A' for Active; 'I' for Inactive)
REMARK    1  A    between atoms: C6_6  and  C10_10 
ROOT
HETATM    1  C1  UNL     1     -31.967   7.946   1.314  1.00 20.00     0.127 C 
HETATM    2  C2  UNL     1     -32.364   6.792   0.419  1.00 20.00     0.082 C 
HETATM    3  C3  UNL     1     -32.618   8.026   2.677  1.00 20.00     0.083 C 
HETATM    4  C4  UNL     1     -33.601   5.715   2.384  1.00 20.00     0.010 C 
HETATM    5  C5  UNL     1     -32.604   5.512   1.224  1.00 20.00    -0.011 C 
HETATM    6  C6  UNL     1     -33.898   7.189   2.708  1.00 20.00    -0.004 C 
HETATM    7  C7  UNL     1     -31.282   4.927   1.734  1.00 20.00     0.010 C 
HETATM    8  O11 UNL     1     -31.152   8.792   0.946  1.00 20.00    -0.298 OA
ENDROOT
BRANCH   6   9
HETATM    9  C10 UNL     1     -34.601   7.316   4.058  1.00 20.00    -0.018 C 
HETATM   10  C8  UNL     1     -35.212   5.979   4.472  1.00 20.00     0.010 C 
HETATM   11  C9  UNL     1     -33.630   7.816   5.125  1.00 20.00     0.010 C 
ENDBRANCH   6   9
TORSDOF 1
ENDMDL
MODEL 6
REMARK VINA RESULT:       1.1      1.695      3.348
REMARK  1 active torsions:
REMARK  status: ('A' for Active; 'I' for Inactive)
REMARK    1  A    between atoms: C6_6  and  C10_10 
ROOT
HETATM    1  C1  UNL     1     -33.965   6.740   3.163  1.00 20.00     0.127 C 
HETATM    2  C2  UNL     1     -33.090   5.522   2.959  1.00 20.00     0.082 C 
HETATM    3  C3  UNL     1     -33.598   7.995   2.403  1.00 20.00     0.083 C 
HETATM    4  C4  UNL     1     -31.912   6.713   1.023  1.00 20.00     0.010 C 
HETATM    5  C5  UNL     1     -32.597   5.419   1.513  1.00 20.00    -0.011 C 
HETATM    6  C6  UNL     1     -32.145   7.930   1.933  1.00 20.00    -0.004 C 
HETATM    7  C7  UNL     1     -33.735   5.011   0.570  1.00 20.00     0.010 C 
HETATM    8  O11 UNL     1     -34.932   6.715   3.924  1.00 20.00    -0.298 OA
ENDROOT
BRANCH   6   9
HETATM    9  C10 UNL     1     -31.742   9.221   1.223  1.00 20.00    -0.018 C 
HETATM   10  C8  UNL     1     -31.140   8.915  -0.146  1.00 20.00     0.010 C 
HETATM   11  C9  UNL     1     -32.942  10.155   1.085  1.00 20.00     0.010 C 
ENDBRANCH   6   9
TORSDOF 1
ENDMDL
MODEL 7
REMARK VINA RESULT:       1.5      1.850      2.645
REMARK  1 active torsions:
REMARK  status: ('A' for Active; 'I' for Inactive)
REMARK    1  A    between atoms: C6_6  and  C10_10 
ROOT
HETATM    1  C1  UNL     1     -32.978   5.982   2.367  1.00 20.00     0.127 C 
HETATM    2  C2  UNL     1     -34.222   6.497   3.056  1.00 20.00     0.082 C 
HETATM    3  C3  UNL     1     -32.067   7.001   1.721  1.00 20.00     0.083 C 
HETATM    4  C4  UNL     1     -33.349   8.890   2.806  1.00 20.00     0.010 C 
HETATM    5  C5  UNL     1     -33.967   7.838   3.750  1.00 20.00    -0.011 C 
HETATM    6  C6  UNL     1     -32.815   8.313   1.484  1.00 20.00    -0.004 C 
HETATM    7  C7  UNL     1     -33.104   7.653   5.004  1.00 20.00     0.010 C 
HETATM    8  O11 UNL     1     -32.719   4.779   2.326  1.00 20.00    -0.298 OA
ENDROOT
BRANCH   6   9
HETATM    9  C10 UNL     1     -31.926   9.328   0.770  1.00 20.00    -0.018 C 
HETATM   10  C8  UNL     1     -31.124   8.653  -0.339  1.00 20.00     0.010 C 
HETATM   11  C9  UNL     1     -32.763  10.474   0.207  1.00 20.00     0.010 C 
ENDBRANCH   6   9
TORSDOF 1
ENDMDL
MODEL 8
REMARK VINA RESULT:       1.6      2.073      4.236
REMARK  1 active torsions:
REMARK  status: ('A' for Active; 'I' for Inactive)
REMARK    1  A    between atoms: C6_6  and  C10_10 
ROOT
HETATM    1  C1  UNL     1     -31.935   8.041   2.735  1.00 20.00     0.127 C 
HETATM    2  C2  UNL     1     -32.026   7.582   1.296  1.00 20.00     0.082 C 
HETATM    3  C3  UNL     1     -32.946   7.481   3.710  1.00 20.00     0.083 C 
HETATM    4  C4  UNL     1     -33.733   5.804   1.990  1.00 20.00     0.010 C 
HETATM    5  C5  UNL     1     -32.444   6.112   1.200  1.00 20.00    -0.011 C 
HETATM    6  C6  UNL     1     -34.155   6.918   2.963  1.00 20.00    -0.004 C 
HETATM    7  C7  UNL     1     -31.301   5.186   1.635  1.00 20.00     0.010 C 
HETATM    8  O11 UNL     1     -31.077   8.845   3.098  1.00 20.00    -0.298 OA
ENDROOT
BRANCH   6   9
HETATM    9  C10 UNL     1     -35.214   6.411   3.939  1.00 20.00    -0.018 C 
HETATM   10  C8  UNL     1     -36.606   6.512   3.321  1.00 20.00     0.010 C 
HETATM   11  C9  UNL     1     -34.915   4.973   4.357  1.00 20.00     0.010 C 
ENDBRANCH   6   9
TORSDOF 1
ENDMDL
MODEL 9
REMARK VINA RESULT:       2.1      2.144      3.720
REMARK  1 active torsions:
REMARK  status: ('A' for Active; 'I' for Inactive)
REMARK    1  A    between atoms: C6_6  and  C10_10 
ROOT
HETATM    1  C1  UNL     1     -32.281   7.225   1.857  1.00 20.00     0.127 C 
HETATM    2  C2  UNL     1     -32.144   8.192   3.013  1.00 20.00     0.082 C 
HETATM    3  C3  UNL     1     -33.192   6.034   2.050  1.00 20.00     0.083 C 
HETATM    4  C4  UNL     1     -34.077   7.012   4.206  1.00 20.00     0.010 C 
HETATM    5  C5  UNL     1     -33.466   8.359   3.766  1.00 20.00    -0.011 C 
HETATM    6  C6  UNL     1     -33.438   5.784   3.538  1.00 20.00    -0.004 C 
HETATM    7  C7  UNL     1     -34.471   9.173   2.941  1.00 20.00     0.010 C 
HETATM    8  O11 UNL     1     -31.669   7.396   0.803  1.00 20.00    -0.298 OA
ENDROOT
BRANCH   6   9
HETATM    9  C10 UNL     1     -34.302   4.542   3.748  1.00 20.00    -0.018 C 
HETATM   10  C8  UNL     1     -33.477   3.412   4.358  1.00 20.00     0.010 C 
HETATM   11  C9  UNL     1     -35.504   4.868   4.633  1.00 20.00     0.010 C 
ENDBRANCH   6   9
TORSDOF 1
ENDMDL
