MODEL 1
REMARK VINA RESULT:      -0.9      0.000      0.000
REMARK  1 active torsions:
REMARK  status: ('A' for Active; 'I' for Inactive)
REMARK    1  A    between atoms: C1_1  and  C5_5 
ROOT
HETATM    1  C2  UNL     1     -35.778   6.766   3.257  1.00 20.00     0.022 C 
HETATM    2  C3  UNL     1     -33.781   7.612   4.520  1.00 20.00     0.022 C 
HETATM    3  C4  UNL     1     -33.481   6.546   2.267  1.00 20.00     0.022 C 
HETATM    4  C5  UNL     1     -34.296   6.531   3.564  1.00 20.00     0.002 C 
ENDROOT
BRANCH   4   5
HETATM    5  C1  UNL     1     -34.160   5.148   4.188  1.00 20.00     0.239 C 
HETATM    6  O6  UNL     1     -35.102   4.455   4.562  1.00 20.00    -0.306 OA
ENDBRANCH   4   5
TORSDOF 1
ENDMDL
MODEL 2
REMARK VINA RESULT:      -0.8      0.049      1.762
REMARK  1 active torsions:
REMARK  status: ('A' for Active; 'I' for Inactive)
REMARK    1  A    between atoms: C1_1  and  C5_5 
ROOT
HETATM    1  C2  UNL     1     -33.793   7.608   4.545  1.00 20.00     0.022 C 
HETATM    2  C3  UNL     1     -33.437   6.610   2.270  1.00 20.00     0.022 C 
HETATM    3  C4  UNL     1     -35.756   6.784   3.214  1.00 20.00     0.022 C 
HETATM    4  C5  UNL     1     -34.279   6.552   3.548  1.00 20.00     0.002 C 
ENDROOT
BRANCH   4   5
HETATM    5  C1  UNL     1     -34.157   5.187   4.215  1.00 20.00     0.239 C 
HETATM    6  O6  UNL     1     -35.107   4.477   4.530  1.00 20.00    -0.306 OA
ENDBRANCH   4   5
TORSDOF 1
ENDMDL
MODEL 3
REMARK VINA RESULT:      -0.8      1.562      2.563
REMARK  1 active torsions:
REMARK  status: ('A' for Active; 'I' for Inactive)
REMARK    1  A    between atoms: C1_1  and  C5_5 
ROOT
HETATM    1  C2  UNL     1     -33.740   7.523   4.526  1.00 20.00     0.022 C 
HETATM    2  C3  UNL     1     -35.779   6.758   3.278  1.00 20.00     0.022 C 
HETATM    3  C4  UNL     1     -34.098   5.077   4.084  1.00 20.00     0.022 C 
HETATM    4  C5  UNL     1     -34.292   6.494   3.535  1.00 20.00     0.002 C 
ENDROOT
BRANCH   4   5
HETATM    5  C1  UNL     1     -33.491   6.611   2.244  1.00 20.00     0.239 C 
HETATM    6  O6  UNL     1     -32.852   5.696   1.734  1.00 20.00    -0.306 OA
ENDBRANCH   4   5
TORSDOF 1
ENDMDL
MODEL 4
REMARK VINA RESULT:      -0.8      0.073      1.792
REMARK  1 active torsions:
REMARK  status: ('A' for Active; 'I' for Inactive)
REMARK    1  A    between atoms: C1_1  and  C5_5 
ROOT
HETATM    1  C2  UNL     1     -33.502   6.625   2.296  1.00 20.00     0.022 C 
HETATM    2  C3  UNL     1     -35.827   6.799   3.225  1.00 20.00     0.022 C 
HETATM    3  C4  UNL     1     -33.871   7.591   4.584  1.00 20.00     0.022 C 
HETATM    4  C5  UNL     1     -34.354   6.553   3.567  1.00 20.00     0.002 C 
ENDROOT
BRANCH   4   5
HETATM    5  C1  UNL     1     -34.164   5.170   4.180  1.00 20.00     0.239 C 
HETATM    6  O6  UNL     1     -35.079   4.426   4.517  1.00 20.00    -0.306 OA
ENDBRANCH   4   5
TORSDOF 1
ENDMDL
MODEL 5
REMARK VINA RESULT:      -0.8      1.566      2.389
REMARK  1 active torsions:
REMARK  status: ('A' for Active; 'I' for Inactive)
REMARK    1  A    between atoms: C1_1  and  C5_5 
ROOT
HETATM    1  C2  UNL     1     -35.780   6.763   3.215  1.00 20.00     0.022 C 
HETATM    2  C3  UNL     1     -34.153   5.085   4.130  1.00 20.00     0.022 C 
HETATM    3  C4  UNL     1     -33.832   7.529   4.603  1.00 20.00     0.022 C 
HETATM    4  C5  UNL     1     -34.314   6.503   3.572  1.00 20.00     0.002 C 
ENDROOT
BRANCH   4   5
HETATM    5  C1  UNL     1     -33.484   6.683   2.306  1.00 20.00     0.239 C 
HETATM    6  O6  UNL     1     -32.910   5.776   1.713  1.00 20.00    -0.306 OA
ENDBRANCH   4   5
TORSDOF 1
ENDMDL
MODEL 6
REMARK VINA RESULT:      -0.7      1.561      2.365
REMARK  1 active torsions:
REMARK  status: ('A' for Active; 'I' for Inactive)
REMARK    1  A    between atoms: C1_1  and  C5_5 
ROOT
HETATM    1  C2  UNL     1     -34.104   5.079   4.080  1.00 20.00     0.022 C 
HETATM    2  C3  UNL     1     -33.823   7.518   4.604  1.00 20.00     0.022 C 
HETATM    3  C4  UNL     1     -35.780   6.746   3.235  1.00 20.00     0.022 C 
HETATM    4  C5  UNL     1     -34.303   6.505   3.559  1.00 20.00     0.002 C 
ENDROOT
BRANCH   4   5
HETATM    5  C1  UNL     1     -33.509   6.646   2.265  1.00 20.00     0.239 C 
HETATM    6  O6  UNL     1     -32.903   5.733   1.715  1.00 20.00    -0.306 OA
ENDBRANCH   4   5
TORSDOF 1
ENDMDL
MODEL 7
REMARK VINA RESULT:      -0.4      1.969      3.059
REMARK  1 active torsions:
REMARK  status: ('A' for Active; 'I' for Inactive)
REMARK    1  A    between atoms: C1_1  and  C5_5 
ROOT
HETATM    1  C2  UNL     1     -32.106   7.743   1.723  1.00 20.00     0.022 C 
HETATM    2  C3  UNL     1     -31.727   5.262   1.680  1.00 20.00     0.022 C 
HETATM    3  C4  UNL     1     -33.722   6.246   0.518  1.00 20.00     0.022 C 
HETATM    4  C5  UNL     1     -32.784   6.370   1.723  1.00 20.00     0.002 C 
ENDROOT
BRANCH   4   5
HETATM    5  C1  UNL     1     -33.629   6.263   2.988  1.00 20.00     0.239 C 
HETATM    6  O6  UNL     1     -33.946   7.213   3.696  1.00 20.00    -0.306 OA
ENDBRANCH   4   5
TORSDOF 1
ENDMDL
MODEL 8
REMARK VINA RESULT:      -0.4      1.954      2.760
REMARK  1 active torsions:
REMARK  status: ('A' for Active; 'I' for Inactive)
REMARK    1  A    between atoms: C1_1  and  C5_5 
ROOT
HETATM    1  C2  UNL     1     -33.706   6.174   0.511  1.00 20.00     0.022 C 
HETATM    2  C3  UNL     1     -32.128   7.739   1.678  1.00 20.00     0.022 C 
HETATM    3  C4  UNL     1     -31.709   5.264   1.732  1.00 20.00     0.022 C 
HETATM    4  C5  UNL     1     -32.785   6.355   1.721  1.00 20.00     0.002 C 
ENDROOT
BRANCH   4   5
HETATM    5  C1  UNL     1     -33.628   6.196   2.981  1.00 20.00     0.239 C 
HETATM    6  O6  UNL     1     -33.975   7.120   3.709  1.00 20.00    -0.306 OA
ENDBRANCH   4   5
TORSDOF 1
ENDMDL
MODEL 9
REMARK VINA RESULT:      -0.4      2.331      3.336
REMARK  1 active torsions:
REMARK  status: ('A' for Active; 'I' for Inactive)
REMARK    1  A    between atoms: C1_1  and  C5_5 
ROOT
HETATM    1  C2  UNL     1     -32.018   6.477   1.420  1.00 20.00     0.022 C 
HETATM    2  C3  UNL     1     -32.608   8.867   0.930  1.00 20.00     0.022 C 
HETATM    3  C4  UNL     1     -31.086   8.319   2.849  1.00 20.00     0.022 C 
HETATM    4  C5  UNL     1     -32.296   7.851   2.034  1.00 20.00     0.002 C 
ENDROOT
BRANCH   4   5
HETATM    5  C1  UNL     1     -33.477   7.709   2.987  1.00 20.00     0.239 C 
HETATM    6  O6  UNL     1     -33.966   6.640   3.338  1.00 20.00    -0.306 OA
ENDBRANCH   4   5
TORSDOF 1
ENDMDL
