MODEL 1
REMARK VINA RESULT:      -1.3      0.000      0.000
REMARK  1 active torsions:
REMARK  status: ('A' for Active; 'I' for Inactive)
REMARK    1  A    between atoms: C3_3  and  C6_6 
ROOT
HETATM    1  C1  UNL     1     -34.724   5.425   3.762  1.00 20.00    -0.030 C 
HETATM    2  C2  UNL     1     -34.704   6.703   4.156  1.00 20.00    -0.026 C 
HETATM    3  C4  UNL     1     -33.788   4.869   2.736  1.00 20.00     0.031 C 
HETATM    4  C5  UNL     1     -33.717   7.721   3.643  1.00 20.00     0.014 C 
HETATM    5  C6  UNL     1     -32.576   7.093   2.803  1.00 20.00     0.058 C 
HETATM    6  C7  UNL     1     -33.091   5.955   1.897  1.00 20.00    -0.004 C 
HETATM    7  C8  UNL     1     -33.142   8.518   4.821  1.00 20.00     0.015 C 
HETATM    8  C9  UNL     1     -31.971   5.316   1.069  1.00 20.00     0.011 C 
ENDROOT
BRANCH   5   9
HETATM    9  C3  UNL     1     -31.955   8.176   1.967  1.00 20.00     0.236 C 
HETATM   10  O10 UNL     1     -32.564   8.797   1.103  1.00 20.00    -0.306 OA
ENDBRANCH   5   9
TORSDOF 1
ENDMDL
MODEL 2
REMARK VINA RESULT:      -0.9      2.116      3.176
REMARK  1 active torsions:
REMARK  status: ('A' for Active; 'I' for Inactive)
REMARK    1  A    between atoms: C3_3  and  C6_6 
ROOT
HETATM    1  C1  UNL     1     -32.600   8.221   2.487  1.00 20.00    -0.030 C 
HETATM    2  C2  UNL     1     -33.419   7.889   3.491  1.00 20.00    -0.026 C 
HETATM    3  C4  UNL     1     -32.075   7.232   1.497  1.00 20.00     0.031 C 
HETATM    4  C5  UNL     1     -33.936   6.492   3.721  1.00 20.00     0.014 C 
HETATM    5  C6  UNL     1     -33.628   5.528   2.546  1.00 20.00     0.058 C 
HETATM    6  C7  UNL     1     -32.222   5.771   1.960  1.00 20.00    -0.004 C 
HETATM    7  C8  UNL     1     -35.445   6.540   3.995  1.00 20.00     0.015 C 
HETATM    8  C9  UNL     1     -31.908   4.833   0.789  1.00 20.00     0.011 C 
ENDROOT
BRANCH   5   9
HETATM    9  C3  UNL     1     -33.738   4.117   3.052  1.00 20.00     0.236 C 
HETATM   10  O10 UNL     1     -33.978   3.835   4.222  1.00 20.00    -0.306 OA
ENDBRANCH   5   9
TORSDOF 1
ENDMDL
MODEL 3
REMARK VINA RESULT:      -0.8      1.540      3.022
REMARK  1 active torsions:
REMARK  status: ('A' for Active; 'I' for Inactive)
REMARK    1  A    between atoms: C3_3  and  C6_6 
ROOT
HETATM    1  C1  UNL     1     -32.561   5.388   1.361  1.00 20.00    -0.030 C 
HETATM    2  C2  UNL     1     -31.917   6.559   1.405  1.00 20.00    -0.026 C 
HETATM    3  C4  UNL     1     -33.719   5.055   2.247  1.00 20.00     0.031 C 
HETATM    4  C5  UNL     1     -32.303   7.691   2.324  1.00 20.00     0.014 C 
HETATM    5  C6  UNL     1     -33.661   7.462   3.035  1.00 20.00     0.058 C 
HETATM    6  C7  UNL     1     -33.842   5.990   3.463  1.00 20.00    -0.004 C 
HETATM    7  C8  UNL     1     -32.323   9.008   1.537  1.00 20.00     0.015 C 
HETATM    8  C9  UNL     1     -35.187   5.747   4.157  1.00 20.00     0.011 C 
ENDROOT
BRANCH   5   9
HETATM    9  C3  UNL     1     -33.721   8.359   4.239  1.00 20.00     0.236 C 
HETATM   10  O10 UNL     1     -32.939   8.280   5.181  1.00 20.00    -0.306 OA
ENDBRANCH   5   9
TORSDOF 1
ENDMDL
MODEL 4
REMARK VINA RESULT:      -0.7      2.024      4.120
REMARK  1 active torsions:
REMARK  status: ('A' for Active; 'I' for Inactive)
REMARK    1  A    between atoms: C3_3  and  C6_6 
ROOT
HETATM    1  C1  UNL     1     -31.914   8.235   1.696  1.00 20.00    -0.030 C 
HETATM    2  C2  UNL     1     -32.111   7.083   1.045  1.00 20.00    -0.026 C 
HETATM    3  C4  UNL     1     -32.487   8.520   3.048  1.00 20.00     0.031 C 
HETATM    4  C5  UNL     1     -32.899   5.928   1.609  1.00 20.00     0.014 C 
HETATM    5  C6  UNL     1     -33.251   6.106   3.108  1.00 20.00     0.058 C 
HETATM    6  C7  UNL     1     -33.629   7.565   3.438  1.00 20.00    -0.004 C 
HETATM    7  C8  UNL     1     -32.124   4.622   1.390  1.00 20.00     0.015 C 
HETATM    8  C9  UNL     1     -33.968   7.758   4.920  1.00 20.00     0.011 C 
ENDROOT
BRANCH   5   9
HETATM    9  C3  UNL     1     -34.397   5.190   3.435  1.00 20.00     0.236 C 
HETATM   10  O10 UNL     1     -34.291   4.207   4.160  1.00 20.00    -0.306 OA
ENDBRANCH   5   9
TORSDOF 1
ENDMDL
MODEL 5
REMARK VINA RESULT:      -0.5      0.751      2.839
REMARK  1 active torsions:
REMARK  status: ('A' for Active; 'I' for Inactive)
REMARK    1  A    between atoms: C3_3  and  C6_6 
ROOT
HETATM    1  C1  UNL     1     -34.512   4.833   3.874  1.00 20.00    -0.030 C 
HETATM    2  C2  UNL     1     -33.502   4.503   3.063  1.00 20.00    -0.026 C 
HETATM    3  C4  UNL     1     -34.907   6.247   4.158  1.00 20.00     0.031 C 
HETATM    4  C5  UNL     1     -32.668   5.511   2.313  1.00 20.00     0.014 C 
HETATM    5  C6  UNL     1     -33.245   6.948   2.380  1.00 20.00     0.058 C 
HETATM    6  C7  UNL     1     -33.822   7.270   3.774  1.00 20.00    -0.004 C 
HETATM    7  C8  UNL     1     -32.506   5.062   0.855  1.00 20.00     0.015 C 
HETATM    8  C9  UNL     1     -34.409   8.684   3.849  1.00 20.00     0.011 C 
ENDROOT
BRANCH   5   9
HETATM    9  C3  UNL     1     -32.145   7.915   2.042  1.00 20.00     0.236 C 
HETATM   10  O10 UNL     1     -32.200   8.699   1.101  1.00 20.00    -0.306 OA
ENDBRANCH   5   9
TORSDOF 1
ENDMDL
MODEL 6
REMARK VINA RESULT:      -0.1      1.516      2.701
REMARK  1 active torsions:
REMARK  status: ('A' for Active; 'I' for Inactive)
REMARK    1  A    between atoms: C3_3  and  C6_6 
ROOT
HETATM    1  C1  UNL     1     -34.520   7.622   4.070  1.00 20.00    -0.030 C 
HETATM    2  C2  UNL     1     -33.882   8.121   3.005  1.00 20.00    -0.026 C 
HETATM    3  C4  UNL     1     -34.511   6.169   4.423  1.00 20.00     0.031 C 
HETATM    4  C5  UNL     1     -33.053   7.288   2.060  1.00 20.00     0.014 C 
HETATM    5  C6  UNL     1     -32.809   5.846   2.575  1.00 20.00     0.058 C 
HETATM    6  C7  UNL     1     -34.061   5.263   3.262  1.00 20.00    -0.004 C 
HETATM    7  C8  UNL     1     -31.719   7.995   1.787  1.00 20.00     0.015 C 
HETATM    8  C9  UNL     1     -33.829   3.842   3.788  1.00 20.00     0.011 C 
ENDROOT
BRANCH   5   9
HETATM    9  C3  UNL     1     -32.416   4.988   1.405  1.00 20.00     0.236 C 
HETATM   10  O10 UNL     1     -33.047   4.948   0.354  1.00 20.00    -0.306 OA
ENDBRANCH   5   9
TORSDOF 1
ENDMDL
MODEL 7
REMARK VINA RESULT:       0.4      1.562      2.912
REMARK  1 active torsions:
REMARK  status: ('A' for Active; 'I' for Inactive)
REMARK    1  A    between atoms: C3_3  and  C6_6 
ROOT
HETATM    1  C1  UNL     1     -32.832   8.553   4.646  1.00 20.00    -0.030 C 
HETATM    2  C2  UNL     1     -33.620   7.483   4.806  1.00 20.00    -0.026 C 
HETATM    3  C4  UNL     1     -32.147   8.880   3.358  1.00 20.00     0.031 C 
HETATM    4  C5  UNL     1     -33.937   6.506   3.703  1.00 20.00     0.014 C 
HETATM    5  C6  UNL     1     -33.465   6.989   2.308  1.00 20.00     0.058 C 
HETATM    6  C7  UNL     1     -32.094   7.693   2.379  1.00 20.00    -0.004 C 
HETATM    7  C8  UNL     1     -35.443   6.215   3.691  1.00 20.00     0.015 C 
HETATM    8  C9  UNL     1     -31.620   8.187   1.008  1.00 20.00     0.011 C 
ENDROOT
BRANCH   5   9
HETATM    9  C3  UNL     1     -33.384   5.795   1.398  1.00 20.00     0.236 C 
HETATM   10  O10 UNL     1     -32.415   5.044   1.352  1.00 20.00    -0.306 OA
ENDBRANCH   5   9
TORSDOF 1
ENDMDL
MODEL 8
REMARK VINA RESULT:       0.4      1.661      3.263
REMARK  1 active torsions:
REMARK  status: ('A' for Active; 'I' for Inactive)
REMARK    1  A    between atoms: C3_3  and  C6_6 
ROOT
HETATM    1  C1  UNL     1     -32.235   5.481   1.003  1.00 20.00    -0.030 C 
HETATM    2  C2  UNL     1     -33.280   4.958   1.655  1.00 20.00    -0.026 C 
HETATM    3  C4  UNL     1     -31.655   6.821   1.326  1.00 20.00     0.031 C 
HETATM    4  C5  UNL     1     -33.970   5.639   2.810  1.00 20.00     0.014 C 
HETATM    5  C6  UNL     1     -33.205   6.883   3.328  1.00 20.00     0.058 C 
HETATM    6  C7  UNL     1     -32.591   7.701   2.173  1.00 20.00    -0.004 C 
HETATM    7  C8  UNL     1     -34.188   4.630   3.945  1.00 20.00     0.015 C 
HETATM    8  C9  UNL     1     -31.821   8.928   2.672  1.00 20.00     0.011 C 
ENDROOT
BRANCH   5   9
HETATM    9  C3  UNL     1     -34.165   7.736   4.110  1.00 20.00     0.236 C 
HETATM   10  O10 UNL     1     -33.939   8.140   5.246  1.00 20.00    -0.306 OA
ENDBRANCH   5   9
TORSDOF 1
ENDMDL
MODEL 9
REMARK VINA RESULT:       1.2      1.544      2.920
REMARK  1 active torsions:
REMARK  status: ('A' for Active; 'I' for Inactive)
REMARK    1  A    between atoms: C3_3  and  C6_6 
ROOT
HETATM    1  C1  UNL     1     -34.166   8.024   4.011  1.00 20.00    -0.030 C 
HETATM    2  C2  UNL     1     -34.091   6.720   4.303  1.00 20.00    -0.026 C 
HETATM    3  C4  UNL     1     -33.503   8.636   2.818  1.00 20.00     0.031 C 
HETATM    4  C5  UNL     1     -33.363   5.713   3.449  1.00 20.00     0.014 C 
HETATM    5  C6  UNL     1     -32.919   6.285   2.078  1.00 20.00     0.058 C 
HETATM    6  C7  UNL     1     -32.416   7.739   2.199  1.00 20.00    -0.004 C 
HETATM    7  C8  UNL     1     -34.243   4.472   3.255  1.00 20.00     0.015 C 
HETATM    8  C9  UNL     1     -31.986   8.321   0.848  1.00 20.00     0.011 C 
ENDROOT
BRANCH   5   9
HETATM    9  C3  UNL     1     -31.829   5.407   1.531  1.00 20.00     0.236 C 
HETATM   10  O10 UNL     1     -31.952   4.730   0.516  1.00 20.00    -0.306 OA
ENDBRANCH   5   9
TORSDOF 1
ENDMDL
