MODEL 1
REMARK VINA RESULT:      -2.0      0.000      0.000
REMARK  2 active torsions:
REMARK  status: ('A' for Active; 'I' for Inactive)
REMARK    1  A    between atoms: C2_2  and  C4_4 
REMARK    2  A    between atoms: C5_5  and  C9_9 
ROOT
HETATM    1  C1  UNL     1     -33.083   8.313   2.710  1.00 20.00    -0.016 C 
HETATM    2  C2  UNL     1     -32.361   7.940   1.644  1.00 20.00    -0.024 C 
HETATM    3  C6  UNL     1     -33.774   7.324   3.607  1.00 20.00     0.036 C 
HETATM    4  C7  UNL     1     -32.188   6.517   1.210  1.00 20.00     0.042 C 
HETATM    5  C8  UNL     1     -33.189   5.569   1.882  1.00 20.00     0.014 C 
HETATM    6  C9  UNL     1     -33.316   5.873   3.381  1.00 20.00     0.017 C 
ENDROOT
BRANCH   6   7
HETATM    7  C5  UNL     1     -34.254   4.916   4.051  1.00 20.00    -0.089 C 
HETATM    8  C3  UNL     1     -35.490   5.279   4.423  1.00 20.00     0.014 C 
HETATM    9  C10 UNL     1     -33.732   3.528   4.279  1.00 20.00     0.043 C 
ENDBRANCH   6   7
BRANCH   2  10
HETATM   10  C4  UNL     1     -31.726   8.994   0.847  1.00 20.00     0.265 C 
HETATM   11  O11 UNL     1     -32.370   9.807   0.197  1.00 20.00    -0.302 OA
ENDBRANCH   2  10
TORSDOF 2
ENDMDL
MODEL 2
REMARK VINA RESULT:      -1.7      0.351      1.558
REMARK  2 active torsions:
REMARK  status: ('A' for Active; 'I' for Inactive)
REMARK    1  A    between atoms: C2_2  and  C4_4 
REMARK    2  A    between atoms: C5_5  and  C9_9 
ROOT
HETATM    1  C1  UNL     1     -32.254   6.606   1.382  1.00 20.00    -0.016 C 
HETATM    2  C2  UNL     1     -32.390   7.902   1.698  1.00 20.00    -0.024 C 
HETATM    3  C6  UNL     1     -32.952   5.510   2.138  1.00 20.00     0.036 C 
HETATM    4  C7  UNL     1     -33.215   8.398   2.846  1.00 20.00     0.042 C 
HETATM    5  C8  UNL     1     -33.599   7.281   3.824  1.00 20.00     0.014 C 
HETATM    6  C9  UNL     1     -34.059   6.024   3.073  1.00 20.00     0.017 C 
ENDROOT
BRANCH   6   7
HETATM    7  C5  UNL     1     -34.483   4.948   4.026  1.00 20.00    -0.089 C 
HETATM    8  C3  UNL     1     -35.570   5.076   4.802  1.00 20.00     0.014 C 
HETATM    9  C10 UNL     1     -33.623   3.719   4.062  1.00 20.00     0.043 C 
ENDBRANCH   6   7
BRANCH   2  10
HETATM   10  C4  UNL     1     -31.668   8.882   0.883  1.00 20.00     0.265 C 
HETATM   11  O11 UNL     1     -32.240   9.697   0.170  1.00 20.00    -0.302 OA
ENDBRANCH   2  10
TORSDOF 2
ENDMDL
MODEL 3
REMARK VINA RESULT:      -1.4      2.381      5.053
REMARK  2 active torsions:
REMARK  status: ('A' for Active; 'I' for Inactive)
REMARK    1  A    between atoms: C2_2  and  C4_4 
REMARK    2  A    between atoms: C5_5  and  C9_9 
ROOT
HETATM    1  C1  UNL     1     -33.237   5.508   2.289  1.00 20.00    -0.016 C 
HETATM    2  C2  UNL     1     -33.895   5.868   3.400  1.00 20.00    -0.024 C 
HETATM    3  C6  UNL     1     -32.563   6.504   1.386  1.00 20.00     0.036 C 
HETATM    4  C7  UNL     1     -34.061   7.288   3.846  1.00 20.00     0.042 C 
HETATM    5  C8  UNL     1     -33.717   8.299   2.746  1.00 20.00     0.014 C 
HETATM    6  C9  UNL     1     -32.426   7.901   2.015  1.00 20.00     0.017 C 
ENDROOT
BRANCH   6   7
HETATM    7  C5  UNL     1     -32.060   8.913   0.973  1.00 20.00    -0.089 C 
HETATM    8  C3  UNL     1     -31.121   8.669   0.048  1.00 20.00     0.014 C 
HETATM    9  C10 UNL     1     -32.805  10.214   1.023  1.00 20.00     0.043 C 
ENDBRANCH   6   7
BRANCH   2  10
HETATM   10  C4  UNL     1     -34.505   4.807   4.206  1.00 20.00     0.265 C 
HETATM   11  O11 UNL     1     -34.030   3.681   4.281  1.00 20.00    -0.302 OA
ENDBRANCH   2  10
TORSDOF 2
ENDMDL
MODEL 4
REMARK VINA RESULT:      -0.9      2.360      4.847
REMARK  2 active torsions:
REMARK  status: ('A' for Active; 'I' for Inactive)
REMARK    1  A    between atoms: C2_2  and  C4_4 
REMARK    2  A    between atoms: C5_5  and  C9_9 
ROOT
HETATM    1  C1  UNL     1     -33.973   7.247   3.748  1.00 20.00    -0.016 C 
HETATM    2  C2  UNL     1     -33.945   5.967   3.351  1.00 20.00    -0.024 C 
HETATM    3  C6  UNL     1     -33.368   8.360   2.939  1.00 20.00     0.036 C 
HETATM    4  C7  UNL     1     -33.287   5.500   2.089  1.00 20.00     0.042 C 
HETATM    5  C8  UNL     1     -32.358   6.557   1.480  1.00 20.00     0.014 C 
HETATM    6  C9  UNL     1     -33.013   7.945   1.501  1.00 20.00     0.017 C 
ENDROOT
BRANCH   6   7
HETATM    7  C5  UNL     1     -32.128   8.971   0.861  1.00 20.00    -0.089 C 
HETATM    8  C3  UNL     1     -30.861   8.700   0.517  1.00 20.00     0.014 C 
HETATM    9  C10 UNL     1     -32.742  10.320   0.626  1.00 20.00     0.043 C 
ENDBRANCH   6   7
BRANCH   2  10
HETATM   10  C4  UNL     1     -34.576   4.969   4.219  1.00 20.00     0.265 C 
HETATM   11  O11 UNL     1     -34.177   3.814   4.294  1.00 20.00    -0.302 OA
ENDBRANCH   2  10
TORSDOF 2
ENDMDL
MODEL 5
REMARK VINA RESULT:      -0.7      0.585      1.911
REMARK  2 active torsions:
REMARK  status: ('A' for Active; 'I' for Inactive)
REMARK    1  A    between atoms: C2_2  and  C4_4 
REMARK    2  A    between atoms: C5_5  and  C9_9 
ROOT
HETATM    1  C1  UNL     1     -32.443   6.995   1.563  1.00 20.00    -0.016 C 
HETATM    2  C2  UNL     1     -32.781   8.237   1.938  1.00 20.00    -0.024 C 
HETATM    3  C6  UNL     1     -32.976   5.768   2.250  1.00 20.00     0.036 C 
HETATM    4  C7  UNL     1     -33.690   8.543   3.089  1.00 20.00     0.042 C 
HETATM    5  C8  UNL     1     -33.913   7.333   4.003  1.00 20.00     0.014 C 
HETATM    6  C9  UNL     1     -34.164   6.060   3.183  1.00 20.00     0.017 C 
ENDROOT
BRANCH   6   7
HETATM    7  C5  UNL     1     -34.433   4.885   4.073  1.00 20.00    -0.089 C 
HETATM    8  C3  UNL     1     -33.671   3.783   4.042  1.00 20.00     0.014 C 
HETATM    9  C10 UNL     1     -35.604   5.014   5.003  1.00 20.00     0.043 C 
ENDBRANCH   6   7
BRANCH   2  10
HETATM   10  C4  UNL     1     -32.204   9.356   1.188  1.00 20.00     0.265 C 
HETATM   11  O11 UNL     1     -32.284   9.444  -0.031  1.00 20.00    -0.302 OA
ENDBRANCH   2  10
TORSDOF 2
ENDMDL
