MODEL 1
REMARK VINA RESULT:      -0.5      0.000      0.000
REMARK  0 active torsions:
REMARK  status: ('A' for Active; 'I' for Inactive)
ROOT
HETATM    1  C1  UNL     1     -33.389   6.660   2.436  1.00 20.00     0.118 C 
HETATM    2  C2  UNL     1     -34.276   5.080   4.095  1.00 20.00     0.118 C 
HETATM    3  C3  UNL     1     -34.297   6.445   3.564  1.00 20.00     0.288 C 
HETATM    4  N4  UNL     1     -32.669   6.829   1.542  1.00 20.00    -0.193 NA
HETATM    5  N5  UNL     1     -34.258   3.998   4.515  1.00 20.00    -0.193 NA
HETATM    6 CL6  UNL     1     -33.836   7.560   4.871  1.00 20.00    -0.069 Cl
HETATM    7 CL7  UNL     1     -35.954   6.808   3.023  1.00 20.00    -0.069 Cl
ENDROOT
TORSDOF 0
ENDMDL
MODEL 2
REMARK VINA RESULT:      -0.5      0.011      3.111
REMARK  0 active torsions:
REMARK  status: ('A' for Active; 'I' for Inactive)
ROOT
HETATM    1  C1  UNL     1     -34.270   5.075   4.099  1.00 20.00     0.118 C 
HETATM    2  C2  UNL     1     -33.384   6.648   2.435  1.00 20.00     0.118 C 
HETATM    3  C3  UNL     1     -34.292   6.436   3.564  1.00 20.00     0.288 C 
HETATM    4  N4  UNL     1     -34.252   3.994   4.522  1.00 20.00    -0.193 NA
HETATM    5  N5  UNL     1     -32.664   6.815   1.539  1.00 20.00    -0.193 NA
HETATM    6 CL6  UNL     1     -35.948   6.798   3.024  1.00 20.00    -0.069 Cl
HETATM    7 CL7  UNL     1     -33.830   7.556   4.869  1.00 20.00    -0.069 Cl
ENDROOT
TORSDOF 0
ENDMDL
MODEL 3
REMARK VINA RESULT:      -0.5      1.892      2.248
REMARK  0 active torsions:
REMARK  status: ('A' for Active; 'I' for Inactive)
ROOT
HETATM    1  C1  UNL     1     -33.753   7.328   4.324  1.00 20.00     0.118 C 
HETATM    2  C2  UNL     1     -34.159   4.929   3.985  1.00 20.00     0.118 C 
HETATM    3  C3  UNL     1     -34.273   6.284   3.440  1.00 20.00     0.288 C 
HETATM    4  N4  UNL     1     -33.341   8.155   5.026  1.00 20.00    -0.193 NA
HETATM    5  N5  UNL     1     -34.068   3.856   4.418  1.00 20.00    -0.193 NA
HETATM    6 CL6  UNL     1     -35.993   6.618   3.132  1.00 20.00    -0.069 Cl
HETATM    7 CL7  UNL     1     -33.367   6.347   1.908  1.00 20.00    -0.069 Cl
ENDROOT
TORSDOF 0
ENDMDL
MODEL 4
REMARK VINA RESULT:      -0.5      1.893      2.912
REMARK  0 active torsions:
REMARK  status: ('A' for Active; 'I' for Inactive)
ROOT
HETATM    1  C1  UNL     1     -34.161   4.932   3.985  1.00 20.00     0.118 C 
HETATM    2  C2  UNL     1     -33.755   7.330   4.325  1.00 20.00     0.118 C 
HETATM    3  C3  UNL     1     -34.274   6.285   3.440  1.00 20.00     0.288 C 
HETATM    4  N4  UNL     1     -34.071   3.859   4.418  1.00 20.00    -0.193 NA
HETATM    5  N5  UNL     1     -33.342   8.157   5.027  1.00 20.00    -0.193 NA
HETATM    6 CL6  UNL     1     -33.368   6.349   1.910  1.00 20.00    -0.069 Cl
HETATM    7 CL7  UNL     1     -35.995   6.621   3.130  1.00 20.00    -0.069 Cl
ENDROOT
TORSDOF 0
ENDMDL
MODEL 5
REMARK VINA RESULT:      -0.5      3.094      3.689
REMARK  0 active torsions:
REMARK  status: ('A' for Active; 'I' for Inactive)
ROOT
HETATM    1  C1  UNL     1     -32.454   8.873   1.062  1.00 20.00     0.118 C 
HETATM    2  C2  UNL     1     -33.317   7.673   3.024  1.00 20.00     0.118 C 
HETATM    3  C3  UNL     1     -32.201   7.868   2.096  1.00 20.00     0.288 C 
HETATM    4  N4  UNL     1     -32.656   9.670   0.242  1.00 20.00    -0.193 NA
HETATM    5  N5  UNL     1     -34.202   7.519   3.759  1.00 20.00    -0.193 NA
HETATM    6 CL6  UNL     1     -31.863   6.316   1.295  1.00 20.00    -0.069 Cl
HETATM    7 CL7  UNL     1     -30.777   8.380   3.034  1.00 20.00    -0.069 Cl
ENDROOT
TORSDOF 0
ENDMDL
MODEL 6
REMARK VINA RESULT:      -0.5      3.103      4.330
REMARK  0 active torsions:
REMARK  status: ('A' for Active; 'I' for Inactive)
ROOT
HETATM    1  C1  UNL     1     -33.321   7.694   3.023  1.00 20.00     0.118 C 
HETATM    2  C2  UNL     1     -32.457   8.879   1.052  1.00 20.00     0.118 C 
HETATM    3  C3  UNL     1     -32.204   7.883   2.096  1.00 20.00     0.288 C 
HETATM    4  N4  UNL     1     -34.208   7.546   3.757  1.00 20.00    -0.193 NA
HETATM    5  N5  UNL     1     -32.657   9.668   0.225  1.00 20.00    -0.193 NA
HETATM    6 CL6  UNL     1     -30.784   8.405   3.033  1.00 20.00    -0.069 Cl
HETATM    7 CL7  UNL     1     -31.862   6.323   1.309  1.00 20.00    -0.069 Cl
ENDROOT
TORSDOF 0
ENDMDL
MODEL 7
REMARK VINA RESULT:      -0.1      2.764      4.269
REMARK  0 active torsions:
REMARK  status: ('A' for Active; 'I' for Inactive)
ROOT
HETATM    1  C1  UNL     1     -32.181   6.596   1.591  1.00 20.00     0.118 C 
HETATM    2  C2  UNL     1     -32.455   8.965   1.001  1.00 20.00     0.118 C 
HETATM    3  C3  UNL     1     -32.315   7.973   2.069  1.00 20.00     0.288 C 
HETATM    4  N4  UNL     1     -32.075   5.505   1.211  1.00 20.00    -0.193 NA
HETATM    5  N5  UNL     1     -32.567   9.750   0.154  1.00 20.00    -0.193 NA
HETATM    6 CL6  UNL     1     -33.755   8.065   3.110  1.00 20.00    -0.069 Cl
HETATM    7 CL7  UNL     1     -30.864   8.377   3.019  1.00 20.00    -0.069 Cl
ENDROOT
TORSDOF 0
ENDMDL
MODEL 8
REMARK VINA RESULT:      -0.1      2.765      3.321
REMARK  0 active torsions:
REMARK  status: ('A' for Active; 'I' for Inactive)
ROOT
HETATM    1  C1  UNL     1     -32.466   8.972   1.040  1.00 20.00     0.118 C 
HETATM    2  C2  UNL     1     -32.173   6.597   1.594  1.00 20.00     0.118 C 
HETATM    3  C3  UNL     1     -32.317   7.967   2.093  1.00 20.00     0.288 C 
HETATM    4  N4  UNL     1     -32.583   9.768   0.203  1.00 20.00    -0.193 NA
HETATM    5  N5  UNL     1     -32.059   5.512   1.198  1.00 20.00    -0.193 NA
HETATM    6 CL6  UNL     1     -30.870   8.368   3.047  1.00 20.00    -0.069 Cl
HETATM    7 CL7  UNL     1     -33.759   8.033   3.135  1.00 20.00    -0.069 Cl
ENDROOT
TORSDOF 0
ENDMDL
MODEL 9
REMARK VINA RESULT:      -0.1      1.952      2.472
REMARK  0 active torsions:
REMARK  status: ('A' for Active; 'I' for Inactive)
ROOT
HETATM    1  C1  UNL     1     -33.536   6.094   2.347  1.00 20.00     0.118 C 
HETATM    2  C2  UNL     1     -33.878   7.357   4.425  1.00 20.00     0.118 C 
HETATM    3  C3  UNL     1     -34.363   6.299   3.537  1.00 20.00     0.288 C 
HETATM    4  N4  UNL     1     -32.880   5.933   1.403  1.00 20.00    -0.193 NA
HETATM    5  N5  UNL     1     -33.494   8.197   5.128  1.00 20.00    -0.193 NA
HETATM    6 CL6  UNL     1     -36.008   6.723   3.008  1.00 20.00    -0.069 Cl
HETATM    7 CL7  UNL     1     -34.405   4.774   4.456  1.00 20.00    -0.069 Cl
ENDROOT
TORSDOF 0
ENDMDL
