MODEL 1
REMARK VINA RESULT:      -0.9      0.000      0.000
REMARK  1 active torsions:
REMARK  status: ('A' for Active; 'I' for Inactive)
REMARK    1  A    between atoms: C6_6  and  C10_10 
ROOT
HETATM    1  C1  UNL     1     -34.977   4.736   4.414  1.00 20.00     0.053 A 
HETATM    2  C2  UNL     1     -33.745   4.279   4.130  1.00 20.00    -0.075 A 
HETATM    3  C3  UNL     1     -35.126   6.020   3.691  1.00 20.00     0.159 A 
HETATM    4  C4  UNL     1     -33.388   5.445   1.852  1.00 20.00     0.029 A 
HETATM    5  C5  UNL     1     -32.934   5.141   3.252  1.00 20.00     0.032 A 
HETATM    6  C6  UNL     1     -33.844   6.341   2.982  1.00 20.00     0.035 A 
HETATM    7  C7  UNL     1     -33.179   2.996   4.633  1.00 20.00     0.044 C 
HETATM    8  O11 UNL     1     -36.124   6.717   3.668  1.00 20.00    -0.292 OA
ENDROOT
BRANCH   6   9
HETATM    9  C10 UNL     1     -33.270   7.724   3.074  1.00 20.00    -0.006 C 
HETATM   10  C8  UNL     1     -32.907   8.088   4.522  1.00 20.00     0.011 C 
HETATM   11  C9  UNL     1     -32.032   7.881   2.178  1.00 20.00     0.011 C 
ENDBRANCH   6   9
TORSDOF 1
ENDMDL
MODEL 2
REMARK VINA RESULT:      -0.7      1.097      1.613
REMARK  1 active torsions:
REMARK  status: ('A' for Active; 'I' for Inactive)
REMARK    1  A    between atoms: C6_6  and  C10_10 
ROOT
HETATM    1  C1  UNL     1     -34.494   5.844   4.133  1.00 20.00     0.053 A 
HETATM    2  C2  UNL     1     -33.692   4.885   3.639  1.00 20.00    -0.075 A 
HETATM    3  C3  UNL     1     -34.225   7.065   3.340  1.00 20.00     0.159 A 
HETATM    4  C4  UNL     1     -33.397   5.790   1.237  1.00 20.00     0.029 A 
HETATM    5  C5  UNL     1     -32.812   5.299   2.532  1.00 20.00     0.032 A 
HETATM    6  C6  UNL     1     -33.136   6.783   2.348  1.00 20.00     0.035 A 
HETATM    7  C7  UNL     1     -33.648   3.479   4.131  1.00 20.00     0.044 C 
HETATM    8  O11 UNL     1     -34.790   8.138   3.462  1.00 20.00    -0.292 OA
ENDROOT
BRANCH   6   9
HETATM    9  C10 UNL     1     -32.008   7.758   2.184  1.00 20.00    -0.006 C 
HETATM   10  C8  UNL     1     -32.259   8.719   1.012  1.00 20.00     0.011 C 
HETATM   11  C9  UNL     1     -31.771   8.567   3.470  1.00 20.00     0.011 C 
ENDBRANCH   6   9
TORSDOF 1
ENDMDL
MODEL 3
REMARK VINA RESULT:      -0.6      1.597      4.016
REMARK  1 active torsions:
REMARK  status: ('A' for Active; 'I' for Inactive)
REMARK    1  A    between atoms: C6_6  and  C10_10 
ROOT
HETATM    1  C1  UNL     1     -32.364   8.809   2.596  1.00 20.00     0.053 A 
HETATM    2  C2  UNL     1     -32.413   8.281   1.361  1.00 20.00    -0.075 A 
HETATM    3  C3  UNL     1     -32.746   7.726   3.531  1.00 20.00     0.159 A 
HETATM    4  C4  UNL     1     -32.007   5.800   1.957  1.00 20.00     0.029 A 
HETATM    5  C5  UNL     1     -32.827   6.868   1.289  1.00 20.00     0.032 A 
HETATM    6  C6  UNL     1     -33.093   6.494   2.748  1.00 20.00     0.035 A 
HETATM    7  C7  UNL     1     -32.082   9.018   0.109  1.00 20.00     0.044 C 
HETATM    8  O11 UNL     1     -32.778   7.806   4.746  1.00 20.00    -0.292 OA
ENDROOT
BRANCH   6   9
HETATM    9  C10 UNL     1     -34.335   5.724   3.087  1.00 20.00    -0.006 C 
HETATM   10  C8  UNL     1     -34.007   4.438   3.861  1.00 20.00     0.011 C 
HETATM   11  C9  UNL     1     -35.323   6.576   3.899  1.00 20.00     0.011 C 
ENDBRANCH   6   9
TORSDOF 1
ENDMDL
MODEL 4
REMARK VINA RESULT:      -0.4      2.184      3.355
REMARK  1 active torsions:
REMARK  status: ('A' for Active; 'I' for Inactive)
REMARK    1  A    between atoms: C6_6  and  C10_10 
ROOT
HETATM    1  C1  UNL     1     -33.486   5.631   2.530  1.00 20.00     0.053 A 
HETATM    2  C2  UNL     1     -34.052   6.637   3.220  1.00 20.00    -0.075 A 
HETATM    3  C3  UNL     1     -32.429   6.240   1.691  1.00 20.00     0.159 A 
HETATM    4  C4  UNL     1     -32.068   8.292   3.238  1.00 20.00     0.029 A 
HETATM    5  C5  UNL     1     -33.509   7.980   2.947  1.00 20.00     0.032 A 
HETATM    6  C6  UNL     1     -32.437   7.728   1.884  1.00 20.00     0.035 A 
HETATM    7  C7  UNL     1     -35.154   6.474   4.209  1.00 20.00     0.044 C 
HETATM    8  O11 UNL     1     -31.665   5.642   0.954  1.00 20.00    -0.292 OA
ENDROOT
BRANCH   6   9
HETATM    9  C10 UNL     1     -32.370   8.633   0.690  1.00 20.00    -0.006 C 
HETATM   10  C8  UNL     1     -32.775  10.071   1.049  1.00 20.00     0.011 C 
HETATM   11  C9  UNL     1     -30.968   8.634   0.061  1.00 20.00     0.011 C 
ENDBRANCH   6   9
TORSDOF 1
ENDMDL
MODEL 5
REMARK VINA RESULT:       0.5      2.275      3.591
REMARK  1 active torsions:
REMARK  status: ('A' for Active; 'I' for Inactive)
REMARK    1  A    between atoms: C6_6  and  C10_10 
ROOT
HETATM    1  C1  UNL     1     -33.403   5.816   2.372  1.00 20.00     0.053 A 
HETATM    2  C2  UNL     1     -33.994   6.776   3.104  1.00 20.00    -0.075 A 
HETATM    3  C3  UNL     1     -32.272   6.462   1.667  1.00 20.00     0.159 A 
HETATM    4  C4  UNL     1     -31.976   8.361   3.410  1.00 20.00     0.029 A 
HETATM    5  C5  UNL     1     -33.399   8.120   2.990  1.00 20.00     0.032 A 
HETATM    6  C6  UNL     1     -32.259   7.927   1.989  1.00 20.00     0.035 A 
HETATM    7  C7  UNL     1     -35.170   6.563   3.994  1.00 20.00     0.044 C 
HETATM    8  O11 UNL     1     -31.471   5.906   0.937  1.00 20.00    -0.292 OA
ENDROOT
BRANCH   6   9
HETATM    9  C10 UNL     1     -32.082   8.928   0.886  1.00 20.00    -0.006 C 
HETATM   10  C8  UNL     1     -32.731   8.448  -0.421  1.00 20.00     0.011 C 
HETATM   11  C9  UNL     1     -32.656  10.300   1.272  1.00 20.00     0.011 C 
ENDBRANCH   6   9
TORSDOF 1
ENDMDL
MODEL 6
REMARK VINA RESULT:       0.7      1.523      3.881
REMARK  1 active torsions:
REMARK  status: ('A' for Active; 'I' for Inactive)
REMARK    1  A    between atoms: C6_6  and  C10_10 
ROOT
HETATM    1  C1  UNL     1     -32.112   6.818   1.568  1.00 20.00     0.053 A 
HETATM    2  C2  UNL     1     -32.210   7.759   2.523  1.00 20.00    -0.075 A 
HETATM    3  C3  UNL     1     -33.136   5.795   1.880  1.00 20.00     0.159 A 
HETATM    4  C4  UNL     1     -34.684   7.417   3.185  1.00 20.00     0.029 A 
HETATM    5  C5  UNL     1     -33.231   7.511   3.557  1.00 20.00     0.032 A 
HETATM    6  C6  UNL     1     -33.836   6.166   3.154  1.00 20.00     0.035 A 
HETATM    7  C7  UNL     1     -31.378   8.993   2.588  1.00 20.00     0.044 C 
HETATM    8  O11 UNL     1     -33.383   4.803   1.217  1.00 20.00    -0.292 OA
ENDROOT
BRANCH   6   9
HETATM    9  C10 UNL     1     -34.059   5.123   4.209  1.00 20.00    -0.006 C 
HETATM   10  C8  UNL     1     -35.537   5.046   4.621  1.00 20.00     0.011 C 
HETATM   11  C9  UNL     1     -33.581   3.738   3.744  1.00 20.00     0.011 C 
ENDBRANCH   6   9
TORSDOF 1
ENDMDL
MODEL 7
REMARK VINA RESULT:       0.9      1.620      3.889
REMARK  1 active torsions:
REMARK  status: ('A' for Active; 'I' for Inactive)
REMARK    1  A    between atoms: C6_6  and  C10_10 
ROOT
HETATM    1  C1  UNL     1     -32.133   7.053   1.807  1.00 20.00     0.053 A 
HETATM    2  C2  UNL     1     -32.413   7.717   2.941  1.00 20.00    -0.075 A 
HETATM    3  C3  UNL     1     -33.134   5.967   1.697  1.00 20.00     0.159 A 
HETATM    4  C4  UNL     1     -34.934   7.178   3.121  1.00 20.00     0.029 A 
HETATM    5  C5  UNL     1     -33.554   7.198   3.716  1.00 20.00     0.032 A 
HETATM    6  C6  UNL     1     -34.024   5.990   2.905  1.00 20.00     0.035 A 
HETATM    7  C7  UNL     1     -31.665   8.907   3.435  1.00 20.00     0.044 C 
HETATM    8  O11 UNL     1     -33.233   5.173   0.779  1.00 20.00    -0.292 OA
ENDROOT
BRANCH   6   9
HETATM    9  C10 UNL     1     -34.337   4.709   3.621  1.00 20.00    -0.006 C 
HETATM   10  C8  UNL     1     -33.060   4.021   4.128  1.00 20.00     0.011 C 
HETATM   11  C9  UNL     1     -35.298   4.941   4.797  1.00 20.00     0.011 C 
ENDBRANCH   6   9
TORSDOF 1
ENDMDL
MODEL 8
REMARK VINA RESULT:       1.1      1.838      3.345
REMARK  1 active torsions:
REMARK  status: ('A' for Active; 'I' for Inactive)
REMARK    1  A    between atoms: C6_6  and  C10_10 
ROOT
HETATM    1  C1  UNL     1     -32.050   6.515   0.940  1.00 20.00     0.053 A 
HETATM    2  C2  UNL     1     -32.806   5.405   0.978  1.00 20.00    -0.075 A 
HETATM    3  C3  UNL     1     -32.289   7.230   2.215  1.00 20.00     0.159 A 
HETATM    4  C4  UNL     1     -32.970   5.106   3.539  1.00 20.00     0.029 A 
HETATM    5  C5  UNL     1     -33.624   5.234   2.192  1.00 20.00     0.032 A 
HETATM    6  C6  UNL     1     -33.312   6.483   3.018  1.00 20.00     0.035 A 
HETATM    7  C7  UNL     1     -32.858   4.376  -0.098  1.00 20.00     0.044 C 
HETATM    8  O11 UNL     1     -31.749   8.263   2.569  1.00 20.00    -0.292 OA
ENDROOT
BRANCH   6   9
HETATM    9  C10 UNL     1     -34.443   7.231   3.660  1.00 20.00    -0.006 C 
HETATM   10  C8  UNL     1     -35.559   6.280   4.120  1.00 20.00     0.011 C 
HETATM   11  C9  UNL     1     -33.958   8.070   4.853  1.00 20.00     0.011 C 
ENDBRANCH   6   9
TORSDOF 1
ENDMDL
MODEL 9
REMARK VINA RESULT:       1.4      1.759      4.540
REMARK  1 active torsions:
REMARK  status: ('A' for Active; 'I' for Inactive)
REMARK    1  A    between atoms: C6_6  and  C10_10 
ROOT
HETATM    1  C1  UNL     1     -33.342   9.396   2.170  1.00 20.00     0.053 A 
HETATM    2  C2  UNL     1     -32.634   9.323   1.029  1.00 20.00    -0.075 A 
HETATM    3  C3  UNL     1     -33.247   8.064   2.809  1.00 20.00     0.159 A 
HETATM    4  C4  UNL     1     -30.997   7.433   1.680  1.00 20.00     0.029 A 
HETATM    5  C5  UNL     1     -32.020   8.014   0.745  1.00 20.00     0.032 A 
HETATM    6  C6  UNL     1     -32.461   7.143   1.922  1.00 20.00     0.035 A 
HETATM    7  C7  UNL     1     -32.443  10.452   0.075  1.00 20.00     0.044 C 
HETATM    8  O11 UNL     1     -33.726   7.749   3.884  1.00 20.00    -0.292 OA
ENDROOT
BRANCH   6   9
HETATM    9  C10 UNL     1     -32.970   5.758   1.652  1.00 20.00    -0.006 C 
HETATM   10  C8  UNL     1     -31.875   4.861   1.056  1.00 20.00     0.011 C 
HETATM   11  C9  UNL     1     -33.534   5.106   2.925  1.00 20.00     0.011 C 
ENDBRANCH   6   9
TORSDOF 1
ENDMDL
