MODEL 1
REMARK VINA RESULT:      -2.2      0.000      0.000
REMARK  2 active torsions:
REMARK  status: ('A' for Active; 'I' for Inactive)
REMARK    1  A    between atoms: C1_1  and  C2_2 
REMARK    2  A    between atoms: C2_2  and  C3_3 
ROOT
HETATM    1  C1  UNL     1     -32.970   7.098   2.429  1.00 20.00     0.173 C 
HETATM    2  O4  UNL     1     -32.229   8.091   2.172  1.00 20.00    -0.648 OA
HETATM    3  O5  UNL     1     -33.100   6.012   1.799  1.00 20.00    -0.648 OA
ENDROOT
BRANCH   1   4
HETATM    4  C2  UNL     1     -33.810   7.255   3.703  1.00 20.00     0.128 C 
BRANCH   4   5
HETATM    5  C3  UNL     1     -35.113   6.475   3.764  1.00 20.00     0.125 C 
HETATM    6 CL6  UNL     1     -34.848   4.831   4.395  1.00 20.00    -0.130 Cl
ENDBRANCH   4   5
ENDBRANCH   1   4
TORSDOF 2
ENDMDL
MODEL 2
REMARK VINA RESULT:      -2.2      0.037      1.319
REMARK  2 active torsions:
REMARK  status: ('A' for Active; 'I' for Inactive)
REMARK    1  A    between atoms: C1_1  and  C2_2 
REMARK    2  A    between atoms: C2_2  and  C3_3 
ROOT
HETATM    1  C1  UNL     1     -32.947   7.126   2.442  1.00 20.00     0.173 C 
HETATM    2  O4  UNL     1     -33.104   6.030   1.829  1.00 20.00    -0.648 OA
HETATM    3  O5  UNL     1     -32.213   8.109   2.148  1.00 20.00    -0.648 OA
ENDROOT
BRANCH   1   4
HETATM    4  C2  UNL     1     -33.793   7.261   3.714  1.00 20.00     0.128 C 
BRANCH   4   5
HETATM    5  C3  UNL     1     -35.109   6.501   3.746  1.00 20.00     0.125 C 
HETATM    6 CL6  UNL     1     -34.888   4.862   4.408  1.00 20.00    -0.130 Cl
ENDBRANCH   4   5
ENDBRANCH   1   4
TORSDOF 2
ENDMDL
MODEL 3
REMARK VINA RESULT:      -2.2      2.781      3.371
REMARK  2 active torsions:
REMARK  status: ('A' for Active; 'I' for Inactive)
REMARK    1  A    between atoms: C1_1  and  C2_2 
REMARK    2  A    between atoms: C2_2  and  C3_3 
ROOT
HETATM    1  C1  UNL     1     -34.478   6.673   3.828  1.00 20.00     0.173 C 
HETATM    2  O4  UNL     1     -35.573   6.072   4.031  1.00 20.00    -0.648 OA
HETATM    3  O5  UNL     1     -34.117   7.825   4.194  1.00 20.00    -0.648 OA
ENDROOT
BRANCH   1   4
HETATM    4  C2  UNL     1     -33.452   5.856   3.033  1.00 20.00     0.128 C 
BRANCH   4   5
HETATM    5  C3  UNL     1     -33.075   6.382   1.657  1.00 20.00     0.125 C 
HETATM    6 CL6  UNL     1     -31.875   7.693   1.778  1.00 20.00    -0.130 Cl
ENDBRANCH   4   5
ENDBRANCH   1   4
TORSDOF 2
ENDMDL
MODEL 4
REMARK VINA RESULT:      -2.1      3.310      3.943
REMARK  2 active torsions:
REMARK  status: ('A' for Active; 'I' for Inactive)
REMARK    1  A    between atoms: C1_1  and  C2_2 
REMARK    2  A    between atoms: C2_2  and  C3_3 
ROOT
HETATM    1  C1  UNL     1     -32.485   9.855   0.212  1.00 20.00     0.173 C 
HETATM    2  O4  UNL     1     -32.952   9.658  -0.947  1.00 20.00    -0.648 OA
HETATM    3  O5  UNL     1     -32.605  10.862   0.963  1.00 20.00    -0.648 OA
ENDROOT
BRANCH   1   4
HETATM    4  C2  UNL     1     -31.672   8.680   0.769  1.00 20.00     0.128 C 
BRANCH   4   5
HETATM    5  C3  UNL     1     -32.238   7.973   1.990  1.00 20.00     0.125 C 
HETATM    6 CL6  UNL     1     -32.720   6.304   1.598  1.00 20.00    -0.130 Cl
ENDBRANCH   4   5
ENDBRANCH   1   4
TORSDOF 2
ENDMDL
MODEL 5
REMARK VINA RESULT:      -2.1      2.780      3.116
REMARK  2 active torsions:
REMARK  status: ('A' for Active; 'I' for Inactive)
REMARK    1  A    between atoms: C1_1  and  C2_2 
REMARK    2  A    between atoms: C2_2  and  C3_3 
ROOT
HETATM    1  C1  UNL     1     -34.478   6.672   3.820  1.00 20.00     0.173 C 
HETATM    2  O4  UNL     1     -34.079   7.812   4.199  1.00 20.00    -0.648 OA
HETATM    3  O5  UNL     1     -35.602   6.122   3.985  1.00 20.00    -0.648 OA
ENDROOT
BRANCH   1   4
HETATM    4  C2  UNL     1     -33.432   5.870   3.036  1.00 20.00     0.128 C 
BRANCH   4   5
HETATM    5  C3  UNL     1     -33.063   6.390   1.657  1.00 20.00     0.125 C 
HETATM    6 CL6  UNL     1     -31.868   7.707   1.766  1.00 20.00    -0.130 Cl
ENDBRANCH   4   5
ENDBRANCH   1   4
TORSDOF 2
ENDMDL
MODEL 6
REMARK VINA RESULT:      -2.0      2.980      3.642
REMARK  2 active torsions:
REMARK  status: ('A' for Active; 'I' for Inactive)
REMARK    1  A    between atoms: C1_1  and  C2_2 
REMARK    2  A    between atoms: C2_2  and  C3_3 
ROOT
HETATM    1  C1  UNL     1     -34.073   7.143   3.699  1.00 20.00     0.173 C 
HETATM    2  O4  UNL     1     -35.115   6.433   3.800  1.00 20.00    -0.648 OA
HETATM    3  O5  UNL     1     -33.587   7.972   4.516  1.00 20.00    -0.648 OA
ENDROOT
BRANCH   1   4
HETATM    4  C2  UNL     1     -33.298   6.937   2.392  1.00 20.00     0.128 C 
BRANCH   4   5
HETATM    5  C3  UNL     1     -32.076   7.816   2.174  1.00 20.00     0.125 C 
HETATM    6 CL6  UNL     1     -32.374   9.025   0.900  1.00 20.00    -0.130 Cl
ENDBRANCH   4   5
ENDBRANCH   1   4
TORSDOF 2
ENDMDL
MODEL 7
REMARK VINA RESULT:      -2.0      3.249      3.694
REMARK  2 active torsions:
REMARK  status: ('A' for Active; 'I' for Inactive)
REMARK    1  A    between atoms: C1_1  and  C2_2 
REMARK    2  A    between atoms: C2_2  and  C3_3 
ROOT
HETATM    1  C1  UNL     1     -33.097   6.613   2.331  1.00 20.00     0.173 C 
HETATM    2  O4  UNL     1     -33.954   6.525   3.257  1.00 20.00    -0.648 OA
HETATM    3  O5  UNL     1     -32.768   5.759   1.461  1.00 20.00    -0.648 OA
ENDROOT
BRANCH   1   4
HETATM    4  C2  UNL     1     -32.379   7.966   2.265  1.00 20.00     0.128 C 
BRANCH   4   5
HETATM    5  C3  UNL     1     -31.859   8.400   0.904  1.00 20.00     0.125 C 
HETATM    6 CL6  UNL     1     -32.525   9.985   0.438  1.00 20.00    -0.130 Cl
ENDBRANCH   4   5
ENDBRANCH   1   4
TORSDOF 2
ENDMDL
MODEL 8
REMARK VINA RESULT:      -2.0      3.230      3.740
REMARK  2 active torsions:
REMARK  status: ('A' for Active; 'I' for Inactive)
REMARK    1  A    between atoms: C1_1  and  C2_2 
REMARK    2  A    between atoms: C2_2  and  C3_3 
ROOT
HETATM    1  C1  UNL     1     -33.125   6.631   2.360  1.00 20.00     0.173 C 
HETATM    2  O4  UNL     1     -32.776   5.784   1.487  1.00 20.00    -0.648 OA
HETATM    3  O5  UNL     1     -33.991   6.530   3.272  1.00 20.00    -0.648 OA
ENDROOT
BRANCH   1   4
HETATM    4  C2  UNL     1     -32.361   7.959   2.286  1.00 20.00     0.128 C 
BRANCH   4   5
HETATM    5  C3  UNL     1     -31.856   8.384   0.917  1.00 20.00     0.125 C 
HETATM    6 CL6  UNL     1     -32.516   9.973   0.455  1.00 20.00    -0.130 Cl
ENDBRANCH   4   5
ENDBRANCH   1   4
TORSDOF 2
ENDMDL
MODEL 9
REMARK VINA RESULT:      -2.0      1.342      1.783
REMARK  2 active torsions:
REMARK  status: ('A' for Active; 'I' for Inactive)
REMARK    1  A    between atoms: C1_1  and  C2_2 
REMARK    2  A    between atoms: C2_2  and  C3_3 
ROOT
HETATM    1  C1  UNL     1     -32.266   7.780   1.828  1.00 20.00     0.173 C 
HETATM    2  O4  UNL     1     -31.599   6.740   1.556  1.00 20.00    -0.648 OA
HETATM    3  O5  UNL     1     -32.263   8.905   1.256  1.00 20.00    -0.648 OA
ENDROOT
BRANCH   1   4
HETATM    4  C2  UNL     1     -33.220   7.621   3.019  1.00 20.00     0.128 C 
BRANCH   4   5
HETATM    5  C3  UNL     1     -33.823   6.242   3.234  1.00 20.00     0.125 C 
HETATM    6 CL6  UNL     1     -35.433   6.357   3.988  1.00 20.00    -0.130 Cl
ENDBRANCH   4   5
ENDBRANCH   1   4
TORSDOF 2
ENDMDL
