MODEL 1
REMARK VINA RESULT:      -1.4      0.000      0.000
REMARK  1 active torsions:
REMARK  status: ('A' for Active; 'I' for Inactive)
REMARK    1  A    between atoms: C8_8  and  O9_9 
ROOT
HETATM    1  C1  UNL     1     -32.355   9.876   0.015  1.00 20.00     0.015 C 
HETATM    2  C2  UNL     1     -32.451   9.064   0.894  1.00 20.00    -0.079 C 
HETATM    3  C3  UNL     1     -34.167   5.982   3.361  1.00 20.00     0.000 C 
HETATM    4  C4  UNL     1     -33.984   7.368   3.971  1.00 20.00     0.004 C 
HETATM    5  C5  UNL     1     -32.995   5.605   2.460  1.00 20.00     0.004 C 
HETATM    6  C6  UNL     1     -33.742   8.429   2.896  1.00 20.00     0.051 C 
HETATM    7  C7  UNL     1     -32.754   6.661   1.381  1.00 20.00     0.051 C 
HETATM    8  C8  UNL     1     -32.568   8.067   1.972  1.00 20.00     0.120 C 
ENDROOT
BRANCH   8   9
HETATM    9  O9  UNL     1     -31.371   8.092   2.752  1.00 20.00    -0.378 OA
HETATM   10  H21 UNL     1     -31.649   8.080   3.680  1.00 20.00     0.211 HD
ENDBRANCH   8   9
TORSDOF 1
ENDMDL
MODEL 2
REMARK VINA RESULT:      -0.2      1.815      2.760
REMARK  1 active torsions:
REMARK  status: ('A' for Active; 'I' for Inactive)
REMARK    1  A    between atoms: C8_8  and  O9_9 
ROOT
HETATM    1  C1  UNL     1     -31.471   8.134   1.709  1.00 20.00     0.015 C 
HETATM    2  C2  UNL     1     -32.346   7.377   2.033  1.00 20.00    -0.079 C 
HETATM    3  C3  UNL     1     -34.810   4.913   4.560  1.00 20.00     0.000 C 
HETATM    4  C4  UNL     1     -33.881   4.218   3.570  1.00 20.00     0.004 C 
HETATM    5  C5  UNL     1     -35.435   6.168   3.959  1.00 20.00     0.004 C 
HETATM    6  C6  UNL     1     -32.812   5.173   3.035  1.00 20.00     0.051 C 
HETATM    7  C7  UNL     1     -34.369   7.128   3.429  1.00 20.00     0.051 C 
HETATM    8  C8  UNL     1     -33.419   6.449   2.430  1.00 20.00     0.120 C 
ENDROOT
BRANCH   8   9
HETATM    9  O9  UNL     1     -34.156   6.074   1.264  1.00 20.00    -0.378 OA
HETATM   10  H21 UNL     1     -34.380   6.898   0.806  1.00 20.00     0.211 HD
ENDBRANCH   8   9
TORSDOF 1
ENDMDL
MODEL 3
REMARK VINA RESULT:       0.1      1.853      3.137
REMARK  1 active torsions:
REMARK  status: ('A' for Active; 'I' for Inactive)
REMARK    1  A    between atoms: C8_8  and  O9_9 
ROOT
HETATM    1  C1  UNL     1     -31.207   4.312   0.635  1.00 20.00     0.015 C 
HETATM    2  C2  UNL     1     -31.959   5.117   1.113  1.00 20.00    -0.079 C 
HETATM    3  C3  UNL     1     -33.707   7.769   4.019  1.00 20.00     0.000 C 
HETATM    4  C4  UNL     1     -34.485   6.514   3.635  1.00 20.00     0.004 C 
HETATM    5  C5  UNL     1     -33.013   8.391   2.812  1.00 20.00     0.004 C 
HETATM    6  C6  UNL     1     -33.596   5.497   2.916  1.00 20.00     0.051 C 
HETATM    7  C7  UNL     1     -32.119   7.379   2.094  1.00 20.00     0.051 C 
HETATM    8  C8  UNL     1     -32.882   6.105   1.699  1.00 20.00     0.120 C 
ENDROOT
BRANCH   8   9
HETATM    9  O9  UNL     1     -33.876   6.437   0.727  1.00 20.00    -0.378 OA
HETATM   10  H21 UNL     1     -33.810   7.393   0.585  1.00 20.00     0.211 HD
ENDBRANCH   8   9
TORSDOF 1
ENDMDL
MODEL 4
REMARK VINA RESULT:       0.3      1.790      3.906
REMARK  1 active torsions:
REMARK  status: ('A' for Active; 'I' for Inactive)
REMARK    1  A    between atoms: C8_8  and  O9_9 
ROOT
HETATM    1  C1  UNL     1     -33.923   3.653   4.495  1.00 20.00     0.015 C 
HETATM    2  C2  UNL     1     -33.846   4.689   3.891  1.00 20.00    -0.079 C 
HETATM    3  C3  UNL     1     -32.081   8.152   2.042  1.00 20.00     0.000 C 
HETATM    4  C4  UNL     1     -32.919   8.361   3.299  1.00 20.00     0.004 C 
HETATM    5  C5  UNL     1     -32.687   7.089   1.132  1.00 20.00     0.004 C 
HETATM    6  C6  UNL     1     -33.147   7.047   4.050  1.00 20.00     0.051 C 
HETATM    7  C7  UNL     1     -32.910   5.772   1.877  1.00 20.00     0.051 C 
HETATM    8  C8  UNL     1     -33.752   5.958   3.150  1.00 20.00     0.120 C 
ENDROOT
BRANCH   8   9
HETATM    9  O9  UNL     1     -35.069   6.374   2.783  1.00 20.00    -0.378 OA
HETATM   10  H21 UNL     1     -35.530   6.581   3.610  1.00 20.00     0.211 HD
ENDBRANCH   8   9
TORSDOF 1
ENDMDL
MODEL 5
REMARK VINA RESULT:       0.8      1.123      3.770
REMARK  1 active torsions:
REMARK  status: ('A' for Active; 'I' for Inactive)
REMARK    1  A    between atoms: C8_8  and  O9_9 
ROOT
HETATM    1  C1  UNL     1     -34.389   6.855   4.072  1.00 20.00     0.015 C 
HETATM    2  C2  UNL     1     -33.636   7.476   3.373  1.00 20.00    -0.079 C 
HETATM    3  C3  UNL     1     -32.006   9.301  -0.170  1.00 20.00     0.000 C 
HETATM    4  C4  UNL     1     -31.274   8.097   0.417  1.00 20.00     0.004 C 
HETATM    5  C5  UNL     1     -32.545  10.219   0.922  1.00 20.00     0.004 C 
HETATM    6  C6  UNL     1     -32.154   7.332   1.408  1.00 20.00     0.051 C 
HETATM    7  C7  UNL     1     -33.429   9.458   1.911  1.00 20.00     0.051 C 
HETATM    8  C8  UNL     1     -32.712   8.240   2.515  1.00 20.00     0.120 C 
ENDROOT
BRANCH   8   9
HETATM    9  O9  UNL     1     -31.613   8.690   3.311  1.00 20.00    -0.378 OA
HETATM   10  H21 UNL     1     -31.003   9.138   2.706  1.00 20.00     0.211 HD
ENDBRANCH   8   9
TORSDOF 1
ENDMDL
MODEL 6
REMARK VINA RESULT:       0.9      1.119      3.691
REMARK  1 active torsions:
REMARK  status: ('A' for Active; 'I' for Inactive)
REMARK    1  A    between atoms: C8_8  and  O9_9 
ROOT
HETATM    1  C1  UNL     1     -35.357   6.167   4.093  1.00 20.00     0.015 C 
HETATM    2  C2  UNL     1     -34.442   6.790   3.628  1.00 20.00    -0.079 C 
HETATM    3  C3  UNL     1     -31.961   8.711   0.681  1.00 20.00     0.000 C 
HETATM    4  C4  UNL     1     -31.424   7.454   1.359  1.00 20.00     0.004 C 
HETATM    5  C5  UNL     1     -32.721   9.598   1.662  1.00 20.00     0.004 C 
HETATM    6  C6  UNL     1     -32.536   6.679   2.069  1.00 20.00     0.051 C 
HETATM    7  C7  UNL     1     -33.837   8.828   2.369  1.00 20.00     0.051 C 
HETATM    8  C8  UNL     1     -33.319   7.555   3.058  1.00 20.00     0.120 C 
ENDROOT
BRANCH   8   9
HETATM    9  O9  UNL     1     -32.432   7.924   4.116  1.00 20.00    -0.378 OA
HETATM   10  H21 UNL     1     -32.977   8.354   4.793  1.00 20.00     0.211 HD
ENDBRANCH   8   9
TORSDOF 1
ENDMDL
