MODEL 1
REMARK VINA RESULT:      -1.1      0.000      0.000
REMARK  4 active torsions:
REMARK  status: ('A' for Active; 'I' for Inactive)
REMARK    1  A    between atoms: C1_1  and  C7_7 
REMARK    2  A    between atoms: C1_1  and  C8_8 
REMARK    3  A    between atoms: C7_7  and  C9_9 
REMARK    4  A    between atoms: C8_8  and  C10_10 
ROOT
HETATM    1  C1  UNL     1     -32.752   5.981   1.856  1.00 20.00     0.131 C 
HETATM    2  O11 UNL     1     -32.050   5.141   1.294  1.00 20.00    -0.298 OA
ENDROOT
BRANCH   1   3
HETATM    3  C7  UNL     1     -33.118   7.300   1.187  1.00 20.00     0.082 C 
BRANCH   3   4
HETATM    4  C9  UNL     1     -31.925   8.253   1.025  1.00 20.00    -0.016 C 
HETATM    5  C3  UNL     1     -32.358   9.588   0.414  1.00 20.00     0.010 C 
HETATM    6  C4  UNL     1     -31.261   8.494   2.382  1.00 20.00     0.010 C 
ENDBRANCH   3   4
ENDBRANCH   1   3
BRANCH   1   7
HETATM    7  C8  UNL     1     -33.278   5.771   3.279  1.00 20.00     0.054 C 
HETATM    8  C2  UNL     1     -33.702   4.315   3.480  1.00 20.00     0.018 C 
BRANCH   7   9
HETATM    9  C10 UNL     1     -34.374   6.815   3.604  1.00 20.00    -0.012 C 
HETATM   10  C5  UNL     1     -33.889   7.826   4.648  1.00 20.00     0.010 C 
HETATM   11  C6  UNL     1     -35.697   6.194   4.063  1.00 20.00     0.010 C 
ENDBRANCH   7   9
ENDBRANCH   1   7
TORSDOF 4
ENDMDL
MODEL 2
REMARK VINA RESULT:      -1.1      1.508      1.936
REMARK  4 active torsions:
REMARK  status: ('A' for Active; 'I' for Inactive)
REMARK    1  A    between atoms: C1_1  and  C7_7 
REMARK    2  A    between atoms: C1_1  and  C8_8 
REMARK    3  A    between atoms: C7_7  and  C9_9 
REMARK    4  A    between atoms: C8_8  and  C10_10 
ROOT
HETATM    1  C1  UNL     1     -32.053   7.890   2.157  1.00 20.00     0.131 C 
HETATM    2  O11 UNL     1     -31.188   8.489   2.794  1.00 20.00    -0.298 OA
ENDROOT
BRANCH   1   3
HETATM    3  C7  UNL     1     -32.393   8.259   0.718  1.00 20.00     0.082 C 
BRANCH   3   4
HETATM    4  C9  UNL     1     -32.184   9.748   0.406  1.00 20.00    -0.016 C 
HETATM    5  C3  UNL     1     -32.553  10.069  -1.046  1.00 20.00     0.010 C 
HETATM    6  C4  UNL     1     -33.022  10.604   1.356  1.00 20.00     0.010 C 
ENDBRANCH   3   4
ENDBRANCH   1   3
BRANCH   1   7
HETATM    7  C8  UNL     1     -32.871   6.754   2.779  1.00 20.00     0.054 C 
HETATM    8  C2  UNL     1     -33.204   5.698   1.724  1.00 20.00     0.018 C 
BRANCH   7   9
HETATM    9  C10 UNL     1     -34.097   7.327   3.531  1.00 20.00    -0.012 C 
HETATM   10  C5  UNL     1     -33.677   8.053   4.812  1.00 20.00     0.010 C 
HETATM   11  C6  UNL     1     -35.162   6.276   3.859  1.00 20.00     0.010 C 
ENDBRANCH   7   9
ENDBRANCH   1   7
TORSDOF 4
ENDMDL
MODEL 3
REMARK VINA RESULT:      -0.8      0.927      2.047
REMARK  4 active torsions:
REMARK  status: ('A' for Active; 'I' for Inactive)
REMARK    1  A    between atoms: C1_1  and  C7_7 
REMARK    2  A    between atoms: C1_1  and  C8_8 
REMARK    3  A    between atoms: C7_7  and  C9_9 
REMARK    4  A    between atoms: C8_8  and  C10_10 
ROOT
HETATM    1  C1  UNL     1     -32.754   7.054   2.050  1.00 20.00     0.131 C 
HETATM    2  O11 UNL     1     -32.572   6.006   1.430  1.00 20.00    -0.298 OA
ENDROOT
BRANCH   1   3
HETATM    3  C7  UNL     1     -31.916   8.298   1.787  1.00 20.00     0.082 C 
BRANCH   3   4
HETATM    4  C9  UNL     1     -32.279   9.013   0.477  1.00 20.00    -0.016 C 
HETATM    5  C3  UNL     1     -32.700  10.463   0.733  1.00 20.00     0.010 C 
HETATM    6  C4  UNL     1     -31.090   8.979  -0.484  1.00 20.00     0.010 C 
ENDBRANCH   3   4
ENDBRANCH   1   3
BRANCH   1   7
HETATM    7  C8  UNL     1     -33.814   7.166   3.150  1.00 20.00     0.054 C 
HETATM    8  C2  UNL     1     -33.216   7.814   4.400  1.00 20.00     0.018 C 
BRANCH   7   9
HETATM    9  C10 UNL     1     -34.483   5.790   3.391  1.00 20.00    -0.012 C 
HETATM   10  C5  UNL     1     -35.653   5.904   4.372  1.00 20.00     0.010 C 
HETATM   11  C6  UNL     1     -33.510   4.709   3.871  1.00 20.00     0.010 C 
ENDBRANCH   7   9
ENDBRANCH   1   7
TORSDOF 4
ENDMDL
MODEL 4
REMARK VINA RESULT:      -0.7      0.966      4.142
REMARK  4 active torsions:
REMARK  status: ('A' for Active; 'I' for Inactive)
REMARK    1  A    between atoms: C1_1  and  C7_7 
REMARK    2  A    between atoms: C1_1  and  C8_8 
REMARK    3  A    between atoms: C7_7  and  C9_9 
REMARK    4  A    between atoms: C8_8  and  C10_10 
ROOT
HETATM    1  C1  UNL     1     -32.509   6.792   1.701  1.00 20.00     0.131 C 
HETATM    2  O11 UNL     1     -32.003   5.694   1.470  1.00 20.00    -0.298 OA
ENDROOT
BRANCH   1   3
HETATM    3  C7  UNL     1     -33.928   6.925   2.237  1.00 20.00     0.082 C 
BRANCH   3   4
HETATM    4  C9  UNL     1     -34.041   6.647   3.742  1.00 20.00    -0.016 C 
HETATM    5  C3  UNL     1     -33.895   7.934   4.559  1.00 20.00     0.010 C 
HETATM    6  C4  UNL     1     -35.383   5.984   4.053  1.00 20.00     0.010 C 
ENDBRANCH   3   4
ENDBRANCH   1   3
BRANCH   1   7
HETATM    7  C8  UNL     1     -31.757   8.098   1.432  1.00 20.00     0.054 C 
HETATM    8  C2  UNL     1     -31.144   8.635   2.727  1.00 20.00     0.018 C 
BRANCH   7   9
HETATM    9  C10 UNL     1     -32.672   9.099   0.685  1.00 20.00    -0.012 C 
HETATM   10  C5  UNL     1     -32.312   9.183  -0.801  1.00 20.00     0.010 C 
HETATM   11  C6  UNL     1     -32.673  10.504   1.296  1.00 20.00     0.010 C 
ENDBRANCH   7   9
ENDBRANCH   1   7
TORSDOF 4
ENDMDL
MODEL 5
REMARK VINA RESULT:      -0.5      1.623      2.818
REMARK  4 active torsions:
REMARK  status: ('A' for Active; 'I' for Inactive)
REMARK    1  A    between atoms: C1_1  and  C7_7 
REMARK    2  A    between atoms: C1_1  and  C8_8 
REMARK    3  A    between atoms: C7_7  and  C9_9 
REMARK    4  A    between atoms: C8_8  and  C10_10 
ROOT
HETATM    1  C1  UNL     1     -32.230   8.182   2.680  1.00 20.00     0.131 C 
HETATM    2  O11 UNL     1     -31.667   8.632   3.678  1.00 20.00    -0.298 OA
ENDROOT
BRANCH   1   3
HETATM    3  C7  UNL     1     -31.763   8.524   1.271  1.00 20.00     0.082 C 
BRANCH   3   4
HETATM    4  C9  UNL     1     -32.713   9.474   0.528  1.00 20.00    -0.016 C 
HETATM    5  C3  UNL     1     -32.609  10.902   1.070  1.00 20.00     0.010 C 
HETATM    6  C4  UNL     1     -32.398   9.463  -0.969  1.00 20.00     0.010 C 
ENDBRANCH   3   4
ENDBRANCH   1   3
BRANCH   1   7
HETATM    7  C8  UNL     1     -33.459   7.275   2.789  1.00 20.00     0.054 C 
HETATM    8  C2  UNL     1     -34.224   7.567   4.081  1.00 20.00     0.018 C 
BRANCH   7   9
HETATM    9  C10 UNL     1     -33.050   5.794   2.600  1.00 20.00    -0.012 C 
HETATM   10  C5  UNL     1     -33.075   5.392   1.122  1.00 20.00     0.010 C 
HETATM   11  C6  UNL     1     -33.897   4.813   3.416  1.00 20.00     0.010 C 
ENDBRANCH   7   9
ENDBRANCH   1   7
TORSDOF 4
ENDMDL
MODEL 6
REMARK VINA RESULT:      -0.5      0.972      4.132
REMARK  4 active torsions:
REMARK  status: ('A' for Active; 'I' for Inactive)
REMARK    1  A    between atoms: C1_1  and  C7_7 
REMARK    2  A    between atoms: C1_1  and  C8_8 
REMARK    3  A    between atoms: C7_7  and  C9_9 
REMARK    4  A    between atoms: C8_8  and  C10_10 
ROOT
HETATM    1  C1  UNL     1     -32.712   6.755   1.643  1.00 20.00     0.131 C 
HETATM    2  O11 UNL     1     -33.131   6.045   0.728  1.00 20.00    -0.298 OA
ENDROOT
BRANCH   1   3
HETATM    3  C7  UNL     1     -33.027   6.454   3.102  1.00 20.00     0.082 C 
BRANCH   3   4
HETATM    4  C9  UNL     1     -34.288   7.167   3.613  1.00 20.00    -0.016 C 
HETATM    5  C3  UNL     1     -35.374   6.162   4.008  1.00 20.00     0.010 C 
HETATM    6  C4  UNL     1     -33.938   8.051   4.812  1.00 20.00     0.010 C 
ENDBRANCH   3   4
ENDBRANCH   1   3
BRANCH   1   7
HETATM    7  C8  UNL     1     -31.874   8.008   1.371  1.00 20.00     0.054 C 
HETATM    8  C2  UNL     1     -31.193   8.481   2.656  1.00 20.00     0.018 C 
BRANCH   7   9
HETATM    9  C10 UNL     1     -32.732   9.082   0.660  1.00 20.00    -0.012 C 
HETATM   10  C5  UNL     1     -32.322   9.243  -0.807  1.00 20.00     0.010 C 
HETATM   11  C6  UNL     1     -32.707  10.447   1.355  1.00 20.00     0.010 C 
ENDBRANCH   7   9
ENDBRANCH   1   7
TORSDOF 4
ENDMDL
MODEL 7
REMARK VINA RESULT:      -0.3      1.704      2.710
REMARK  4 active torsions:
REMARK  status: ('A' for Active; 'I' for Inactive)
REMARK    1  A    between atoms: C1_1  and  C7_7 
REMARK    2  A    between atoms: C1_1  and  C8_8 
REMARK    3  A    between atoms: C7_7  and  C9_9 
REMARK    4  A    between atoms: C8_8  and  C10_10 
ROOT
HETATM    1  C1  UNL     1     -33.126   7.830   3.659  1.00 20.00     0.131 C 
HETATM    2  O11 UNL     1     -33.330   8.274   4.789  1.00 20.00    -0.298 OA
ENDROOT
BRANCH   1   3
HETATM    3  C7  UNL     1     -32.023   8.381   2.766  1.00 20.00     0.082 C 
BRANCH   3   4
HETATM    4  C9  UNL     1     -32.485   8.662   1.329  1.00 20.00    -0.016 C 
HETATM    5  C3  UNL     1     -32.811  10.145   1.129  1.00 20.00     0.010 C 
HETATM    6  C4  UNL     1     -31.403   8.230   0.338  1.00 20.00     0.010 C 
ENDBRANCH   3   4
ENDBRANCH   1   3
BRANCH   1   7
HETATM    7  C8  UNL     1     -33.991   6.715   3.064  1.00 20.00     0.054 C 
HETATM    8  C2  UNL     1     -35.289   6.566   3.859  1.00 20.00     0.018 C 
BRANCH   7   9
HETATM    9  C10 UNL     1     -33.165   5.413   2.924  1.00 20.00    -0.012 C 
HETATM   10  C5  UNL     1     -32.896   5.079   1.453  1.00 20.00     0.010 C 
HETATM   11  C6  UNL     1     -33.798   4.205   3.620  1.00 20.00     0.010 C 
ENDBRANCH   7   9
ENDBRANCH   1   7
TORSDOF 4
ENDMDL
MODEL 8
REMARK VINA RESULT:      -0.1      1.638      2.347
REMARK  4 active torsions:
REMARK  status: ('A' for Active; 'I' for Inactive)
REMARK    1  A    between atoms: C1_1  and  C7_7 
REMARK    2  A    between atoms: C1_1  and  C8_8 
REMARK    3  A    between atoms: C7_7  and  C9_9 
REMARK    4  A    between atoms: C8_8  and  C10_10 
ROOT
HETATM    1  C1  UNL     1     -32.786   7.637   2.713  1.00 20.00     0.131 C 
HETATM    2  O11 UNL     1     -33.287   8.341   3.590  1.00 20.00    -0.298 OA
ENDROOT
BRANCH   1   3
HETATM    3  C7  UNL     1     -31.960   8.231   1.580  1.00 20.00     0.082 C 
BRANCH   3   4
HETATM    4  C9  UNL     1     -32.754   9.194   0.686  1.00 20.00    -0.016 C 
HETATM    5  C3  UNL     1     -32.617  10.642   1.168  1.00 20.00     0.010 C 
HETATM    6  C4  UNL     1     -32.273   9.082  -0.761  1.00 20.00     0.010 C 
ENDBRANCH   3   4
ENDBRANCH   1   3
BRANCH   1   7
HETATM    7  C8  UNL     1     -32.987   6.119   2.685  1.00 20.00     0.054 C 
HETATM    8  C2  UNL     1     -33.395   5.662   1.284  1.00 20.00     0.018 C 
BRANCH   7   9
HETATM    9  C10 UNL     1     -33.954   5.686   3.814  1.00 20.00    -0.012 C 
HETATM   10  C5  UNL     1     -34.030   4.161   3.929  1.00 20.00     0.010 C 
HETATM   11  C6  UNL     1     -35.366   6.263   3.669  1.00 20.00     0.010 C 
ENDBRANCH   7   9
ENDBRANCH   1   7
TORSDOF 4
ENDMDL
MODEL 9
REMARK VINA RESULT:      -0.1      1.523      2.156
REMARK  4 active torsions:
REMARK  status: ('A' for Active; 'I' for Inactive)
REMARK    1  A    between atoms: C1_1  and  C7_7 
REMARK    2  A    between atoms: C1_1  and  C8_8 
REMARK    3  A    between atoms: C7_7  and  C9_9 
REMARK    4  A    between atoms: C8_8  and  C10_10 
ROOT
HETATM    1  C1  UNL     1     -32.715   7.488   2.592  1.00 20.00     0.131 C 
HETATM    2  O11 UNL     1     -32.388   8.065   3.629  1.00 20.00    -0.298 OA
ENDROOT
BRANCH   1   3
HETATM    3  C7  UNL     1     -33.037   8.253   1.315  1.00 20.00     0.082 C 
BRANCH   3   4
HETATM    4  C9  UNL     1     -31.940   9.245   0.905  1.00 20.00    -0.016 C 
HETATM    5  C3  UNL     1     -31.110   8.705  -0.264  1.00 20.00     0.010 C 
HETATM    6  C4  UNL     1     -32.565  10.587   0.521  1.00 20.00     0.010 C 
ENDBRANCH   3   4
ENDBRANCH   1   3
BRANCH   1   7
HETATM    7  C8  UNL     1     -32.852   5.964   2.527  1.00 20.00     0.054 C 
HETATM    8  C2  UNL     1     -32.656   5.474   1.092  1.00 20.00     0.018 C 
BRANCH   7   9
HETATM    9  C10 UNL     1     -34.178   5.517   3.188  1.00 20.00    -0.012 C 
HETATM   10  C5  UNL     1     -34.819   6.660   3.981  1.00 20.00     0.010 C 
HETATM   11  C6  UNL     1     -34.032   4.285   4.086  1.00 20.00     0.010 C 
ENDBRANCH   7   9
ENDBRANCH   1   7
TORSDOF 4
ENDMDL
