MODEL 1
REMARK VINA RESULT:      -2.3      0.000      0.000
REMARK  2 active torsions:
REMARK  status: ('A' for Active; 'I' for Inactive)
REMARK    1  A    between atoms: C2_2  and  C4_4 
REMARK    2  A    between atoms: C3_3  and  C4_4 
ROOT
HETATM    1  C4  UNL     1     -33.100   6.894   2.027  1.00 20.00     0.127 C 
HETATM    2 CL7  UNL     1     -32.520   5.399   1.234  1.00 20.00    -0.121 Cl
ENDROOT
BRANCH   1   3
HETATM    3  C2  UNL     1     -33.572   6.577   3.441  1.00 20.00     0.164 A 
HETATM    4  C1  UNL     1     -35.036   6.493   3.773  1.00 20.00     0.201 A 
HETATM    5  O5  UNL     1     -34.252   7.652   4.097  1.00 20.00    -0.380 OA
ENDBRANCH   1   3
BRANCH   1   6
HETATM    6  C3  UNL     1     -32.031   7.987   1.963  1.00 20.00     0.137 C 
HETATM    7 CL6  UNL     1     -32.345   9.225   0.721  1.00 20.00    -0.129 Cl
ENDBRANCH   1   6
TORSDOF 2
ENDMDL
MODEL 2
REMARK VINA RESULT:      -1.6      2.584      3.934
REMARK  2 active torsions:
REMARK  status: ('A' for Active; 'I' for Inactive)
REMARK    1  A    between atoms: C2_2  and  C4_4 
REMARK    2  A    between atoms: C3_3  and  C4_4 
ROOT
HETATM    1  C4  UNL     1     -34.247   6.889   3.524  1.00 20.00     0.127 C 
HETATM    2 CL7  UNL     1     -33.856   8.064   4.817  1.00 20.00    -0.121 Cl
ENDROOT
BRANCH   1   3
HETATM    3  C2  UNL     1     -32.966   6.444   2.829  1.00 20.00     0.164 A 
HETATM    4  C1  UNL     1     -32.327   7.287   1.761  1.00 20.00     0.201 A 
HETATM    5  O5  UNL     1     -33.119   6.132   1.441  1.00 20.00    -0.380 OA
ENDBRANCH   1   3
BRANCH   1   6
HETATM    6  C3  UNL     1     -35.081   5.733   4.081  1.00 20.00     0.137 C 
HETATM    7 CL6  UNL     1     -34.188   4.195   4.193  1.00 20.00    -0.129 Cl
ENDBRANCH   1   6
TORSDOF 2
ENDMDL
MODEL 3
REMARK VINA RESULT:      -1.6      2.813      3.836
REMARK  2 active torsions:
REMARK  status: ('A' for Active; 'I' for Inactive)
REMARK    1  A    between atoms: C2_2  and  C4_4 
REMARK    2  A    between atoms: C3_3  and  C4_4 
ROOT
HETATM    1  C4  UNL     1     -33.520   7.644   3.327  1.00 20.00     0.127 C 
HETATM    2 CL7  UNL     1     -33.411   8.199   5.024  1.00 20.00    -0.121 Cl
ENDROOT
BRANCH   1   3
HETATM    3  C2  UNL     1     -32.195   7.894   2.617  1.00 20.00     0.164 A 
HETATM    4  C1  UNL     1     -32.149   8.528   1.255  1.00 20.00     0.201 A 
HETATM    5  O5  UNL     1     -31.995   7.111   1.436  1.00 20.00    -0.380 OA
ENDBRANCH   1   3
BRANCH   1   6
HETATM    6  C3  UNL     1     -33.989   6.188   3.266  1.00 20.00     0.137 C 
HETATM    7 CL6  UNL     1     -35.453   5.866   4.228  1.00 20.00    -0.129 Cl
ENDBRANCH   1   6
TORSDOF 2
ENDMDL
MODEL 4
REMARK VINA RESULT:      -1.3      2.139      3.494
REMARK  2 active torsions:
REMARK  status: ('A' for Active; 'I' for Inactive)
REMARK    1  A    between atoms: C2_2  and  C4_4 
REMARK    2  A    between atoms: C3_3  and  C4_4 
ROOT
HETATM    1  C4  UNL     1     -33.323   5.379   3.227  1.00 20.00     0.127 C 
HETATM    2 CL7  UNL     1     -32.617   5.153   1.598  1.00 20.00    -0.121 Cl
ENDROOT
BRANCH   1   3
HETATM    3  C2  UNL     1     -34.212   6.616   3.236  1.00 20.00     0.164 A 
HETATM    4  C1  UNL     1     -34.142   7.617   4.356  1.00 20.00     0.201 A 
HETATM    5  O5  UNL     1     -35.192   6.639   4.279  1.00 20.00    -0.380 OA
ENDBRANCH   1   3
BRANCH   1   6
HETATM    6  C3  UNL     1     -34.034   4.104   3.688  1.00 20.00     0.137 C 
HETATM    7 CL6  UNL     1     -33.060   3.100   4.791  1.00 20.00    -0.129 Cl
ENDBRANCH   1   6
TORSDOF 2
ENDMDL
MODEL 5
REMARK VINA RESULT:      -1.2      2.673      3.317
REMARK  2 active torsions:
REMARK  status: ('A' for Active; 'I' for Inactive)
REMARK    1  A    between atoms: C2_2  and  C4_4 
REMARK    2  A    between atoms: C3_3  and  C4_4 
ROOT
HETATM    1  C4  UNL     1     -33.596   5.604   3.453  1.00 20.00     0.127 C 
HETATM    2 CL7  UNL     1     -33.996   3.925   3.925  1.00 20.00    -0.121 Cl
ENDROOT
BRANCH   1   3
HETATM    3  C2  UNL     1     -33.325   5.667   1.955  1.00 20.00     0.164 A 
HETATM    4  C1  UNL     1     -31.934   5.510   1.408  1.00 20.00     0.201 A 
HETATM    5  O5  UNL     1     -32.556   6.799   1.536  1.00 20.00    -0.380 OA
ENDBRANCH   1   3
BRANCH   1   6
HETATM    6  C3  UNL     1     -34.685   6.570   3.925  1.00 20.00     0.137 C 
HETATM    7 CL6  UNL     1     -34.049   8.096   4.590  1.00 20.00    -0.129 Cl
ENDBRANCH   1   6
TORSDOF 2
ENDMDL
MODEL 6
REMARK VINA RESULT:      -1.1      2.310      3.401
REMARK  2 active torsions:
REMARK  status: ('A' for Active; 'I' for Inactive)
REMARK    1  A    between atoms: C2_2  and  C4_4 
REMARK    2  A    between atoms: C3_3  and  C4_4 
ROOT
HETATM    1  C4  UNL     1     -32.936   7.018   3.050  1.00 20.00     0.127 C 
HETATM    2 CL7  UNL     1     -33.241   5.808   1.767  1.00 20.00    -0.121 Cl
ENDROOT
BRANCH   1   3
HETATM    3  C2  UNL     1     -32.134   8.181   2.480  1.00 20.00     0.164 A 
HETATM    4  C1  UNL     1     -32.438   8.744   1.120  1.00 20.00     0.201 A 
HETATM    5  O5  UNL     1     -31.335   7.851   1.340  1.00 20.00    -0.380 OA
ENDBRANCH   1   3
BRANCH   1   6
HETATM    6  C3  UNL     1     -34.248   7.439   3.716  1.00 20.00     0.137 C 
HETATM    7 CL6  UNL     1     -35.346   6.079   4.060  1.00 20.00    -0.129 Cl
ENDBRANCH   1   6
TORSDOF 2
ENDMDL
MODEL 7
REMARK VINA RESULT:      -1.1      2.567      3.523
REMARK  2 active torsions:
REMARK  status: ('A' for Active; 'I' for Inactive)
REMARK    1  A    between atoms: C2_2  and  C4_4 
REMARK    2  A    between atoms: C3_3  and  C4_4 
ROOT
HETATM    1  C4  UNL     1     -32.082   7.960   1.773  1.00 20.00     0.127 C 
HETATM    2 CL7  UNL     1     -32.413   6.244   1.388  1.00 20.00    -0.121 Cl
ENDROOT
BRANCH   1   3
HETATM    3  C2  UNL     1     -32.818   8.859   0.788  1.00 20.00     0.164 A 
HETATM    4  C1  UNL     1     -32.070   9.682  -0.224  1.00 20.00     0.201 A 
HETATM    5  O5  UNL     1     -32.597  10.260   0.981  1.00 20.00    -0.380 OA
ENDBRANCH   1   3
BRANCH   1   6
HETATM    6  C3  UNL     1     -32.405   8.255   3.240  1.00 20.00     0.137 C 
HETATM    7 CL6  UNL     1     -33.904   7.479   3.813  1.00 20.00    -0.129 Cl
ENDBRANCH   1   6
TORSDOF 2
ENDMDL
MODEL 8
REMARK VINA RESULT:      -1.1      1.194      2.363
REMARK  2 active torsions:
REMARK  status: ('A' for Active; 'I' for Inactive)
REMARK    1  A    between atoms: C2_2  and  C4_4 
REMARK    2  A    between atoms: C3_3  and  C4_4 
ROOT
HETATM    1  C4  UNL     1     -32.731   7.024   2.433  1.00 20.00     0.127 C 
HETATM    2 CL7  UNL     1     -31.990   8.295   1.414  1.00 20.00    -0.121 Cl
ENDROOT
BRANCH   1   3
HETATM    3  C2  UNL     1     -33.957   7.584   3.144  1.00 20.00     0.164 A 
HETATM    4  C1  UNL     1     -34.050   7.592   4.645  1.00 20.00     0.201 A 
HETATM    5  O5  UNL     1     -34.733   6.611   3.849  1.00 20.00    -0.380 OA
ENDBRANCH   1   3
BRANCH   1   6
HETATM    6  C3  UNL     1     -33.017   5.769   1.605  1.00 20.00     0.137 C 
HETATM    7 CL6  UNL     1     -31.554   5.004   0.935  1.00 20.00    -0.129 Cl
ENDBRANCH   1   6
TORSDOF 2
ENDMDL
MODEL 9
REMARK VINA RESULT:      -0.9      2.913      4.011
REMARK  2 active torsions:
REMARK  status: ('A' for Active; 'I' for Inactive)
REMARK    1  A    between atoms: C2_2  and  C4_4 
REMARK    2  A    between atoms: C3_3  and  C4_4 
ROOT
HETATM    1  C4  UNL     1     -32.345   8.241   1.636  1.00 20.00     0.127 C 
HETATM    2 CL7  UNL     1     -31.834   8.647   3.302  1.00 20.00    -0.121 Cl
ENDROOT
BRANCH   1   3
HETATM    3  C2  UNL     1     -31.876   9.326   0.675  1.00 20.00     0.164 A 
HETATM    4  C1  UNL     1     -32.699  10.560   0.432  1.00 20.00     0.201 A 
HETATM    5  O5  UNL     1     -32.679   9.468  -0.501  1.00 20.00    -0.380 OA
ENDBRANCH   1   3
BRANCH   1   6
HETATM    6  C3  UNL     1     -31.876   6.834   1.257  1.00 20.00     0.137 C 
HETATM    7 CL6  UNL     1     -33.061   5.558   1.634  1.00 20.00    -0.129 Cl
ENDBRANCH   1   6
TORSDOF 2
ENDMDL
