MODEL 1
REMARK VINA RESULT:      -2.4      0.000      0.000
REMARK  2 active torsions:
REMARK  status: ('A' for Active; 'I' for Inactive)
REMARK    1  A    between atoms: C1_1  and  C2_2 
REMARK    2  A    between atoms: C1_1  and  C3_3 
ROOT
HETATM    1  C1  UNL     1     -32.839   7.292   2.469  1.00 20.00     0.168 C 
HETATM    2  O4  UNL     1     -32.045   8.107   2.001  1.00 20.00    -0.294 OA
ENDROOT
BRANCH   1   3
HETATM    3  C2  UNL     1     -33.035   5.947   1.817  1.00 20.00     0.301 C 
HETATM    4  F5  UNL     1     -31.856   5.446   1.357  1.00 20.00    -0.248 F 
ENDBRANCH   1   3
BRANCH   1   5
HETATM    5  C3  UNL     1     -33.671   7.548   3.706  1.00 20.00     0.195 C 
HETATM    6 CL6  UNL     1     -35.004   6.390   3.813  1.00 20.00    -0.122 Cl
ENDBRANCH   1   5
TORSDOF 2
ENDMDL
MODEL 2
REMARK VINA RESULT:      -2.4      1.853      2.010
REMARK  2 active torsions:
REMARK  status: ('A' for Active; 'I' for Inactive)
REMARK    1  A    between atoms: C1_1  and  C2_2 
REMARK    2  A    between atoms: C1_1  and  C3_3 
ROOT
HETATM    1  C1  UNL     1     -32.915   7.005   2.342  1.00 20.00     0.168 C 
HETATM    2  O4  UNL     1     -33.118   5.936   1.769  1.00 20.00    -0.294 OA
ENDROOT
BRANCH   1   3
HETATM    3  C2  UNL     1     -31.867   7.962   1.837  1.00 20.00     0.301 C 
HETATM    4  F5  UNL     1     -32.425   8.963   1.104  1.00 20.00    -0.248 F 
ENDBRANCH   1   3
BRANCH   1   5
HETATM    5  C3  UNL     1     -33.675   7.454   3.571  1.00 20.00     0.195 C 
HETATM    6 CL6  UNL     1     -35.075   6.411   3.856  1.00 20.00    -0.122 Cl
ENDBRANCH   1   5
TORSDOF 2
ENDMDL
MODEL 3
REMARK VINA RESULT:      -2.3      2.809      3.091
REMARK  2 active torsions:
REMARK  status: ('A' for Active; 'I' for Inactive)
REMARK    1  A    between atoms: C1_1  and  C2_2 
REMARK    2  A    between atoms: C1_1  and  C3_3 
ROOT
HETATM    1  C1  UNL     1     -34.092   6.899   3.632  1.00 20.00     0.168 C 
HETATM    2  O4  UNL     1     -33.744   7.859   4.317  1.00 20.00    -0.294 OA
ENDROOT
BRANCH   1   3
HETATM    3  C2  UNL     1     -35.348   6.134   3.963  1.00 20.00     0.301 C 
HETATM    4  F5  UNL     1     -35.063   4.861   4.350  1.00 20.00    -0.248 F 
ENDBRANCH   1   3
BRANCH   1   5
HETATM    5  C3  UNL     1     -33.323   6.406   2.427  1.00 20.00     0.195 C 
HETATM    6 CL6  UNL     1     -32.190   7.641   1.861  1.00 20.00    -0.122 Cl
ENDBRANCH   1   5
TORSDOF 2
ENDMDL
MODEL 4
REMARK VINA RESULT:      -2.2      2.839      3.032
REMARK  2 active torsions:
REMARK  status: ('A' for Active; 'I' for Inactive)
REMARK    1  A    between atoms: C1_1  and  C2_2 
REMARK    2  A    between atoms: C1_1  and  C3_3 
ROOT
HETATM    1  C1  UNL     1     -32.949   6.757   2.241  1.00 20.00     0.168 C 
HETATM    2  O4  UNL     1     -32.850   5.817   1.454  1.00 20.00    -0.294 OA
ENDROOT
BRANCH   1   3
HETATM    3  C2  UNL     1     -34.022   6.765   3.300  1.00 20.00     0.301 C 
HETATM    4  F5  UNL     1     -33.772   7.708   4.248  1.00 20.00    -0.248 F 
ENDBRANCH   1   3
BRANCH   1   5
HETATM    5  C3  UNL     1     -32.033   7.960   2.228  1.00 20.00     0.195 C 
HETATM    6 CL6  UNL     1     -32.368   8.987   0.827  1.00 20.00    -0.122 Cl
ENDBRANCH   1   5
TORSDOF 2
ENDMDL
MODEL 5
REMARK VINA RESULT:      -2.2      3.192      3.513
REMARK  2 active torsions:
REMARK  status: ('A' for Active; 'I' for Inactive)
REMARK    1  A    between atoms: C1_1  and  C2_2 
REMARK    2  A    between atoms: C1_1  and  C3_3 
ROOT
HETATM    1  C1  UNL     1     -34.497   6.231   3.763  1.00 20.00     0.168 C 
HETATM    2  O4  UNL     1     -35.652   6.074   4.155  1.00 20.00    -0.294 OA
ENDROOT
BRANCH   1   3
HETATM    3  C2  UNL     1     -33.865   7.600   3.762  1.00 20.00     0.301 C 
HETATM    4  F5  UNL     1     -33.797   8.112   5.020  1.00 20.00    -0.248 F 
ENDBRANCH   1   3
BRANCH   1   5
HETATM    5  C3  UNL     1     -33.621   5.105   3.261  1.00 20.00     0.195 C 
HETATM    6 CL6  UNL     1     -33.811   3.667   4.275  1.00 20.00    -0.122 Cl
ENDBRANCH   1   5
TORSDOF 2
ENDMDL
MODEL 6
REMARK VINA RESULT:      -2.1      2.315      2.490
REMARK  2 active torsions:
REMARK  status: ('A' for Active; 'I' for Inactive)
REMARK    1  A    between atoms: C1_1  and  C2_2 
REMARK    2  A    between atoms: C1_1  and  C3_3 
ROOT
HETATM    1  C1  UNL     1     -32.797   7.188   2.306  1.00 20.00     0.168 C 
HETATM    2  O4  UNL     1     -33.531   7.486   3.247  1.00 20.00    -0.294 OA
ENDROOT
BRANCH   1   3
HETATM    3  C2  UNL     1     -32.930   5.851   1.621  1.00 20.00     0.301 C 
HETATM    4  F5  UNL     1     -31.714   5.359   1.261  1.00 20.00    -0.248 F 
ENDBRANCH   1   3
BRANCH   1   5
HETATM    5  C3  UNL     1     -31.726   8.102   1.756  1.00 20.00     0.195 C 
HETATM    6 CL6  UNL     1     -32.430   9.313   0.675  1.00 20.00    -0.122 Cl
ENDBRANCH   1   5
TORSDOF 2
ENDMDL
MODEL 7
REMARK VINA RESULT:      -2.1      3.585      3.658
REMARK  2 active torsions:
REMARK  status: ('A' for Active; 'I' for Inactive)
REMARK    1  A    between atoms: C1_1  and  C2_2 
REMARK    2  A    between atoms: C1_1  and  C3_3 
ROOT
HETATM    1  C1  UNL     1     -34.425   4.745   4.058  1.00 20.00     0.168 C 
HETATM    2  O4  UNL     1     -35.477   4.769   4.694  1.00 20.00    -0.294 OA
ENDROOT
BRANCH   1   3
HETATM    3  C2  UNL     1     -33.576   3.500   4.023  1.00 20.00     0.301 C 
HETATM    4  F5  UNL     1     -33.246   3.093   5.279  1.00 20.00    -0.248 F 
ENDBRANCH   1   3
BRANCH   1   5
HETATM    5  C3  UNL     1     -33.895   5.922   3.270  1.00 20.00     0.195 C 
HETATM    6 CL6  UNL     1     -34.289   7.445   4.080  1.00 20.00    -0.122 Cl
ENDBRANCH   1   5
TORSDOF 2
ENDMDL
MODEL 8
REMARK VINA RESULT:      -2.1      2.221      2.306
REMARK  2 active torsions:
REMARK  status: ('A' for Active; 'I' for Inactive)
REMARK    1  A    between atoms: C1_1  and  C2_2 
REMARK    2  A    between atoms: C1_1  and  C3_3 
ROOT
HETATM    1  C1  UNL     1     -34.180   6.496   3.589  1.00 20.00     0.168 C 
HETATM    2  O4  UNL     1     -34.211   7.633   4.057  1.00 20.00    -0.294 OA
ENDROOT
BRANCH   1   3
HETATM    3  C2  UNL     1     -33.343   6.188   2.374  1.00 20.00     0.301 C 
HETATM    4  F5  UNL     1     -32.579   7.255   2.017  1.00 20.00    -0.248 F 
ENDBRANCH   1   3
BRANCH   1   5
HETATM    5  C3  UNL     1     -34.951   5.330   4.166  1.00 20.00     0.195 C 
HETATM    6 CL6  UNL     1     -33.939   3.880   4.226  1.00 20.00    -0.122 Cl
ENDBRANCH   1   5
TORSDOF 2
ENDMDL
MODEL 9
REMARK VINA RESULT:      -2.1      2.758      3.074
REMARK  2 active torsions:
REMARK  status: ('A' for Active; 'I' for Inactive)
REMARK    1  A    between atoms: C1_1  and  C2_2 
REMARK    2  A    between atoms: C1_1  and  C3_3 
ROOT
HETATM    1  C1  UNL     1     -34.154   6.245   3.503  1.00 20.00     0.168 C 
HETATM    2  O4  UNL     1     -33.490   6.100   2.478  1.00 20.00    -0.294 OA
ENDROOT
BRANCH   1   3
HETATM    3  C2  UNL     1     -34.322   7.608   4.125  1.00 20.00     0.301 C 
HETATM    4  F5  UNL     1     -33.205   7.980   4.806  1.00 20.00    -0.248 F 
ENDBRANCH   1   3
BRANCH   1   5
HETATM    5  C3  UNL     1     -34.850   5.109   4.219  1.00 20.00     0.195 C 
HETATM    6 CL6  UNL     1     -33.807   3.680   4.286  1.00 20.00    -0.122 Cl
ENDBRANCH   1   5
TORSDOF 2
ENDMDL
