MODEL 1
REMARK VINA RESULT:      -2.1      0.000      0.000
REMARK  2 active torsions:
REMARK  status: ('A' for Active; 'I' for Inactive)
REMARK    1  A    between atoms: C2_2  and  C3_3 
REMARK    2  A    between atoms: N9_9  and  N10_10 
ROOT
HETATM    1  C1  UNL     1     -33.314   5.128   3.311  1.00 20.00    -0.018 C 
HETATM    2  C2  UNL     1     -33.791   6.372   3.193  1.00 20.00    -0.043 C 
HETATM    3  C5  UNL     1     -34.273   4.236   4.028  1.00 20.00     0.028 C 
HETATM    4  C6  UNL     1     -35.146   6.508   3.811  1.00 20.00     0.040 C 
HETATM    5  C7  UNL     1     -35.269   5.223   4.631  1.00 20.00     0.008 C 
ENDROOT
BRANCH   2   6
HETATM    6  C3  UNL     1     -33.141   7.469   2.548  1.00 20.00     0.147 C 
HETATM    7  N9  UNL     1     -32.098   7.328   1.786  1.00 20.00    -0.163 NA
BRANCH   7   8
HETATM    8  N10 UNL     1     -31.670   8.555   1.291  1.00 20.00    -0.168 NA
HETATM    9  C4  UNL     1     -32.644   9.170   0.706  1.00 20.00     0.109 C 
HETATM   10  C8  UNL     1     -32.435  10.516   0.087  1.00 20.00     0.059 C 
ENDBRANCH   7   8
ENDBRANCH   2   6
TORSDOF 2
ENDMDL
MODEL 2
REMARK VINA RESULT:      -2.0      0.141      1.260
REMARK  2 active torsions:
REMARK  status: ('A' for Active; 'I' for Inactive)
REMARK    1  A    between atoms: C2_2  and  C3_3 
REMARK    2  A    between atoms: N9_9  and  N10_10 
ROOT
HETATM    1  C1  UNL     1     -34.970   6.613   3.839  1.00 20.00    -0.018 C 
HETATM    2  C2  UNL     1     -33.798   6.491   3.203  1.00 20.00    -0.043 C 
HETATM    3  C5  UNL     1     -35.337   5.360   4.563  1.00 20.00     0.028 C 
HETATM    4  C6  UNL     1     -33.196   5.137   3.404  1.00 20.00     0.040 C 
HETATM    5  C7  UNL     1     -34.363   4.336   3.984  1.00 20.00     0.008 C 
ENDROOT
BRANCH   2   6
HETATM    6  C3  UNL     1     -33.145   7.502   2.433  1.00 20.00     0.147 C 
HETATM    7  N9  UNL     1     -32.035   7.298   1.788  1.00 20.00    -0.163 NA
BRANCH   7   8
HETATM    8  N10 UNL     1     -31.622   8.448   1.126  1.00 20.00    -0.168 NA
HETATM    9  C4  UNL     1     -32.640   9.170   0.796  1.00 20.00     0.109 C 
HETATM   10  C8  UNL     1     -32.455  10.464   0.068  1.00 20.00     0.059 C 
ENDBRANCH   7   8
ENDBRANCH   2   6
TORSDOF 2
ENDMDL
MODEL 3
REMARK VINA RESULT:      -0.1      2.261      5.153
REMARK  2 active torsions:
REMARK  status: ('A' for Active; 'I' for Inactive)
REMARK    1  A    between atoms: C2_2  and  C3_3 
REMARK    2  A    between atoms: N9_9  and  N10_10 
ROOT
HETATM    1  C1  UNL     1     -32.070   6.898   1.141  1.00 20.00    -0.018 C 
HETATM    2  C2  UNL     1     -32.768   6.868   2.282  1.00 20.00    -0.043 C 
HETATM    3  C5  UNL     1     -31.736   8.296   0.737  1.00 20.00     0.028 C 
HETATM    4  C6  UNL     1     -33.010   8.240   2.822  1.00 20.00     0.040 C 
HETATM    5  C7  UNL     1     -32.640   9.135   1.638  1.00 20.00     0.008 C 
ENDROOT
BRANCH   2   6
HETATM    6  C3  UNL     1     -33.232   5.697   2.958  1.00 20.00     0.147 C 
HETATM    7  N9  UNL     1     -34.325   5.669   3.662  1.00 20.00    -0.163 NA
BRANCH   7   8
HETATM    8  N10 UNL     1     -34.536   4.408   4.208  1.00 20.00    -0.168 NA
HETATM    9  C4  UNL     1     -33.441   3.724   4.201  1.00 20.00     0.109 C 
HETATM   10  C8  UNL     1     -33.410   2.327   4.738  1.00 20.00     0.059 C 
ENDBRANCH   7   8
ENDBRANCH   2   6
TORSDOF 2
ENDMDL
MODEL 4
REMARK VINA RESULT:      -0.1      2.351      5.311
REMARK  2 active torsions:
REMARK  status: ('A' for Active; 'I' for Inactive)
REMARK    1  A    between atoms: C2_2  and  C3_3 
REMARK    2  A    between atoms: N9_9  and  N10_10 
ROOT
HETATM    1  C1  UNL     1     -33.154   8.038   2.776  1.00 20.00    -0.018 C 
HETATM    2  C2  UNL     1     -32.910   6.779   2.394  1.00 20.00    -0.043 C 
HETATM    3  C5  UNL     1     -32.584   9.026   1.812  1.00 20.00     0.028 C 
HETATM    4  C6  UNL     1     -32.139   6.726   1.114  1.00 20.00     0.040 C 
HETATM    5  C7  UNL     1     -31.654   8.168   0.957  1.00 20.00     0.008 C 
ENDROOT
BRANCH   2   6
HETATM    6  C3  UNL     1     -33.328   5.593   3.073  1.00 20.00     0.147 C 
HETATM    7  N9  UNL     1     -34.392   5.539   3.817  1.00 20.00    -0.163 NA
BRANCH   7   8
HETATM    8  N10 UNL     1     -34.562   4.269   4.356  1.00 20.00    -0.168 NA
HETATM    9  C4  UNL     1     -33.467   3.590   4.266  1.00 20.00     0.109 C 
HETATM   10  C8  UNL     1     -33.395   2.186   4.778  1.00 20.00     0.059 C 
ENDBRANCH   7   8
ENDBRANCH   2   6
TORSDOF 2
ENDMDL
MODEL 5
REMARK VINA RESULT:      -0.1      1.804      5.073
REMARK  2 active torsions:
REMARK  status: ('A' for Active; 'I' for Inactive)
REMARK    1  A    between atoms: C2_2  and  C3_3 
REMARK    2  A    between atoms: N9_9  and  N10_10 
ROOT
HETATM    1  C1  UNL     1     -31.510   7.655   0.967  1.00 20.00    -0.018 C 
HETATM    2  C2  UNL     1     -32.534   7.790   1.818  1.00 20.00    -0.043 C 
HETATM    3  C5  UNL     1     -31.216   8.932   0.252  1.00 20.00     0.028 C 
HETATM    4  C6  UNL     1     -33.085   9.180   1.807  1.00 20.00     0.040 C 
HETATM    5  C7  UNL     1     -32.449   9.781   0.553  1.00 20.00     0.008 C 
ENDROOT
BRANCH   2   6
HETATM    6  C3  UNL     1     -33.063   6.775   2.672  1.00 20.00     0.147 C 
HETATM    7  N9  UNL     1     -34.208   6.881   3.278  1.00 20.00    -0.163 NA
BRANCH   7   8
HETATM    8  N10 UNL     1     -34.476   5.752   4.044  1.00 20.00    -0.168 NA
HETATM    9  C4  UNL     1     -33.678   4.789   3.723  1.00 20.00     0.109 C 
HETATM   10  C8  UNL     1     -33.769   3.462   4.408  1.00 20.00     0.059 C 
ENDBRANCH   7   8
ENDBRANCH   2   6
TORSDOF 2
ENDMDL
MODEL 6
REMARK VINA RESULT:      -0.0      1.628      5.123
REMARK  2 active torsions:
REMARK  status: ('A' for Active; 'I' for Inactive)
REMARK    1  A    between atoms: C2_2  and  C3_3 
REMARK    2  A    between atoms: N9_9  and  N10_10 
ROOT
HETATM    1  C1  UNL     1     -31.493   8.007   0.685  1.00 20.00    -0.018 C 
HETATM    2  C2  UNL     1     -32.470   8.422   1.501  1.00 20.00    -0.043 C 
HETATM    3  C5  UNL     1     -31.118   9.061  -0.304  1.00 20.00     0.028 C 
HETATM    4  C6  UNL     1     -32.901   9.818   1.186  1.00 20.00     0.040 C 
HETATM    5  C7  UNL     1     -32.262  10.064  -0.182  1.00 20.00     0.008 C 
ENDROOT
BRANCH   2   6
HETATM    6  C3  UNL     1     -33.052   7.674   2.570  1.00 20.00     0.147 C 
HETATM    7  N9  UNL     1     -33.776   8.216   3.504  1.00 20.00    -0.163 NA
BRANCH   7   8
HETATM    8  N10 UNL     1     -34.213   7.262   4.416  1.00 20.00    -0.168 NA
HETATM    9  C4  UNL     1     -34.765   6.270   3.801  1.00 20.00     0.109 C 
HETATM   10  C8  UNL     1     -35.320   5.110   4.567  1.00 20.00     0.059 C 
ENDBRANCH   7   8
ENDBRANCH   2   6
TORSDOF 2
ENDMDL
MODEL 7
REMARK VINA RESULT:       0.3      1.799      5.252
REMARK  2 active torsions:
REMARK  status: ('A' for Active; 'I' for Inactive)
REMARK    1  A    between atoms: C2_2  and  C3_3 
REMARK    2  A    between atoms: N9_9  and  N10_10 
ROOT
HETATM    1  C1  UNL     1     -33.064   9.185   1.721  1.00 20.00    -0.018 C 
HETATM    2  C2  UNL     1     -32.604   7.931   1.809  1.00 20.00    -0.043 C 
HETATM    3  C5  UNL     1     -32.420   9.930   0.599  1.00 20.00     0.028 C 
HETATM    4  C6  UNL     1     -31.582   7.639   0.758  1.00 20.00     0.040 C 
HETATM    5  C7  UNL     1     -31.241   9.033   0.229  1.00 20.00     0.008 C 
ENDROOT
BRANCH   2   6
HETATM    6  C3  UNL     1     -33.019   6.943   2.754  1.00 20.00     0.147 C 
HETATM    7  N9  UNL     1     -34.247   6.820   3.161  1.00 20.00    -0.163 NA
BRANCH   7   8
HETATM    8  N10 UNL     1     -34.369   5.783   4.079  1.00 20.00    -0.168 NA
HETATM    9  C4  UNL     1     -33.751   4.731   3.656  1.00 20.00     0.109 C 
HETATM   10  C8  UNL     1     -33.738   3.475   4.469  1.00 20.00     0.059 C 
ENDBRANCH   7   8
ENDBRANCH   2   6
TORSDOF 2
ENDMDL
