MODEL 1
REMARK VINA RESULT:      -1.1      0.000      0.000
REMARK  1 active torsions:
REMARK  status: ('A' for Active; 'I' for Inactive)
REMARK    1  A    between atoms: C1_1  and  C6_6 
ROOT
HETATM    1  C3  UNL     1     -33.809   7.576   4.596  1.00 20.00     0.022 C 
HETATM    2  C4  UNL     1     -34.232   5.135   4.159  1.00 20.00     0.022 C 
HETATM    3  C5  UNL     1     -35.634   6.867   3.039  1.00 20.00     0.022 C 
HETATM    4  C6  UNL     1     -34.217   6.539   3.542  1.00 20.00     0.009 C 
ENDROOT
BRANCH   4   5
HETATM    5  C1  UNL     1     -33.225   6.609   2.365  1.00 20.00     0.130 C 
HETATM    6  C2  UNL     1     -32.425   7.875   2.172  1.00 20.00     0.091 C 
HETATM    7  O7  UNL     1     -33.086   5.673   1.574  1.00 20.00    -0.298 OA
ENDBRANCH   4   5
TORSDOF 1
ENDMDL
MODEL 2
REMARK VINA RESULT:      -1.1      0.033      1.633
REMARK  1 active torsions:
REMARK  status: ('A' for Active; 'I' for Inactive)
REMARK    1  A    between atoms: C1_1  and  C6_6 
ROOT
HETATM    1  C3  UNL     1     -34.160   5.131   4.145  1.00 20.00     0.022 C 
HETATM    2  C4  UNL     1     -35.639   6.849   3.055  1.00 20.00     0.022 C 
HETATM    3  C5  UNL     1     -33.814   7.567   4.595  1.00 20.00     0.022 C 
HETATM    4  C6  UNL     1     -34.214   6.534   3.527  1.00 20.00     0.009 C 
ENDROOT
BRANCH   4   5
HETATM    5  C1  UNL     1     -33.221   6.599   2.352  1.00 20.00     0.130 C 
HETATM    6  C2  UNL     1     -32.412   7.860   2.162  1.00 20.00     0.091 C 
HETATM    7  O7  UNL     1     -33.087   5.664   1.558  1.00 20.00    -0.298 OA
ENDBRANCH   4   5
TORSDOF 1
ENDMDL
MODEL 3
REMARK VINA RESULT:      -1.0      0.032      1.642
REMARK  1 active torsions:
REMARK  status: ('A' for Active; 'I' for Inactive)
REMARK    1  A    between atoms: C1_1  and  C6_6 
ROOT
HETATM    1  C3  UNL     1     -35.618   6.872   2.995  1.00 20.00     0.022 C 
HETATM    2  C4  UNL     1     -33.820   7.581   4.605  1.00 20.00     0.022 C 
HETATM    3  C5  UNL     1     -34.204   5.160   4.147  1.00 20.00     0.022 C 
HETATM    4  C6  UNL     1     -34.211   6.566   3.523  1.00 20.00     0.009 C 
ENDROOT
BRANCH   4   5
HETATM    5  C1  UNL     1     -33.217   6.611   2.347  1.00 20.00     0.130 C 
HETATM    6  C2  UNL     1     -32.399   7.864   2.142  1.00 20.00     0.091 C 
HETATM    7  O7  UNL     1     -33.090   5.665   1.565  1.00 20.00    -0.298 OA
ENDBRANCH   4   5
TORSDOF 1
ENDMDL
MODEL 4
REMARK VINA RESULT:      -0.8      1.494      2.960
REMARK  1 active torsions:
REMARK  status: ('A' for Active; 'I' for Inactive)
REMARK    1  A    between atoms: C1_1  and  C6_6 
ROOT
HETATM    1  C3  UNL     1     -32.173   7.669   1.800  1.00 20.00     0.022 C 
HETATM    2  C4  UNL     1     -33.758   6.169   0.548  1.00 20.00     0.022 C 
HETATM    3  C5  UNL     1     -31.755   5.205   1.680  1.00 20.00     0.022 C 
HETATM    4  C6  UNL     1     -32.843   6.289   1.774  1.00 20.00     0.009 C 
ENDROOT
BRANCH   4   5
HETATM    5  C1  UNL     1     -33.645   6.101   3.075  1.00 20.00     0.130 C 
HETATM    6  C2  UNL     1     -34.125   7.330   3.811  1.00 20.00     0.091 C 
HETATM    7  O7  UNL     1     -33.885   4.982   3.537  1.00 20.00    -0.298 OA
ENDBRANCH   4   5
TORSDOF 1
ENDMDL
MODEL 5
REMARK VINA RESULT:      -0.8      1.495      2.964
REMARK  1 active torsions:
REMARK  status: ('A' for Active; 'I' for Inactive)
REMARK    1  A    between atoms: C1_1  and  C6_6 
ROOT
HETATM    1  C3  UNL     1     -33.789   6.126   0.584  1.00 20.00     0.022 C 
HETATM    2  C4  UNL     1     -31.713   5.242   1.697  1.00 20.00     0.022 C 
HETATM    3  C5  UNL     1     -32.220   7.683   1.754  1.00 20.00     0.022 C 
HETATM    4  C6  UNL     1     -32.843   6.276   1.782  1.00 20.00     0.009 C 
ENDROOT
BRANCH   4   5
HETATM    5  C1  UNL     1     -33.651   6.098   3.081  1.00 20.00     0.130 C 
HETATM    6  C2  UNL     1     -34.126   7.333   3.809  1.00 20.00     0.091 C 
HETATM    7  O7  UNL     1     -33.900   4.983   3.546  1.00 20.00    -0.298 OA
ENDBRANCH   4   5
TORSDOF 1
ENDMDL
MODEL 6
REMARK VINA RESULT:      -0.8      1.488      2.966
REMARK  1 active torsions:
REMARK  status: ('A' for Active; 'I' for Inactive)
REMARK    1  A    between atoms: C1_1  and  C6_6 
ROOT
HETATM    1  C3  UNL     1     -31.758   5.219   1.707  1.00 20.00     0.022 C 
HETATM    2  C4  UNL     1     -32.196   7.695   1.742  1.00 20.00     0.022 C 
HETATM    3  C5  UNL     1     -33.772   6.163   0.563  1.00 20.00     0.022 C 
HETATM    4  C6  UNL     1     -32.840   6.303   1.780  1.00 20.00     0.009 C 
ENDROOT
BRANCH   4   5
HETATM    5  C1  UNL     1     -33.652   6.110   3.074  1.00 20.00     0.130 C 
HETATM    6  C2  UNL     1     -34.133   7.337   3.813  1.00 20.00     0.091 C 
HETATM    7  O7  UNL     1     -33.900   4.990   3.527  1.00 20.00    -0.298 OA
ENDBRANCH   4   5
TORSDOF 1
ENDMDL
MODEL 7
REMARK VINA RESULT:      -0.8      1.823      2.921
REMARK  1 active torsions:
REMARK  status: ('A' for Active; 'I' for Inactive)
REMARK    1  A    between atoms: C1_1  and  C6_6 
ROOT
HETATM    1  C3  UNL     1     -33.491   6.194   2.389  1.00 20.00     0.022 C 
HETATM    2  C4  UNL     1     -33.875   7.389   4.570  1.00 20.00     0.022 C 
HETATM    3  C5  UNL     1     -35.794   6.916   3.049  1.00 20.00     0.022 C 
HETATM    4  C6  UNL     1     -34.451   6.376   3.572  1.00 20.00     0.009 C 
ENDROOT
BRANCH   4   5
HETATM    5  C1  UNL     1     -34.675   5.010   4.246  1.00 20.00     0.130 C 
HETATM    6  C2  UNL     1     -33.612   3.948   4.093  1.00 20.00     0.091 C 
HETATM    7  O7  UNL     1     -35.700   4.759   4.886  1.00 20.00    -0.298 OA
ENDBRANCH   4   5
TORSDOF 1
ENDMDL
MODEL 8
REMARK VINA RESULT:      -0.7      1.797      3.035
REMARK  1 active torsions:
REMARK  status: ('A' for Active; 'I' for Inactive)
REMARK    1  A    between atoms: C1_1  and  C6_6 
ROOT
HETATM    1  C3  UNL     1     -35.785   6.896   3.023  1.00 20.00     0.022 C 
HETATM    2  C4  UNL     1     -33.430   6.266   2.404  1.00 20.00     0.022 C 
HETATM    3  C5  UNL     1     -33.893   7.386   4.584  1.00 20.00     0.022 C 
HETATM    4  C6  UNL     1     -34.440   6.384   3.553  1.00 20.00     0.009 C 
ENDROOT
BRANCH   4   5
HETATM    5  C1  UNL     1     -34.660   5.018   4.230  1.00 20.00     0.130 C 
HETATM    6  C2  UNL     1     -33.596   3.957   4.075  1.00 20.00     0.091 C 
HETATM    7  O7  UNL     1     -35.682   4.766   4.873  1.00 20.00    -0.298 OA
ENDBRANCH   4   5
TORSDOF 1
ENDMDL
MODEL 9
REMARK VINA RESULT:      -0.6      1.799      2.908
REMARK  1 active torsions:
REMARK  status: ('A' for Active; 'I' for Inactive)
REMARK    1  A    between atoms: C1_1  and  C6_6 
ROOT
HETATM    1  C3  UNL     1     -33.827   7.367   4.594  1.00 20.00     0.022 C 
HETATM    2  C4  UNL     1     -35.759   6.969   3.033  1.00 20.00     0.022 C 
HETATM    3  C5  UNL     1     -33.460   6.251   2.386  1.00 20.00     0.022 C 
HETATM    4  C6  UNL     1     -34.436   6.405   3.566  1.00 20.00     0.009 C 
ENDROOT
BRANCH   4   5
HETATM    5  C1  UNL     1     -34.654   5.035   4.233  1.00 20.00     0.130 C 
HETATM    6  C2  UNL     1     -33.588   3.977   4.074  1.00 20.00     0.091 C 
HETATM    7  O7  UNL     1     -35.677   4.777   4.872  1.00 20.00    -0.298 OA
ENDBRANCH   4   5
TORSDOF 1
ENDMDL
