MODEL 1
REMARK VINA RESULT:      -2.3      0.000      0.000
REMARK  1 active torsions:
REMARK  status: ('A' for Active; 'I' for Inactive)
REMARK    1  A    between atoms: C1_1  and  C3_3 
ROOT
HETATM    1  C1  UNL     1     -34.872   4.947   4.497  1.00 20.00     0.000 C 
HETATM    2  C2  UNL     1     -33.874   4.216   3.991  1.00 20.00     0.081 C 
HETATM    3 CL4  UNL     1     -33.321   2.765   4.711  1.00 20.00    -0.097 Cl
ENDROOT
BRANCH   1   4
HETATM    4  C3  UNL     1     -35.364   6.209   3.869  1.00 20.00     0.142 C 
HETATM    5 CL5  UNL     1     -34.127   7.476   4.007  1.00 20.00    -0.126 Cl
ENDBRANCH   1   4
TORSDOF 1
ENDMDL
MODEL 2
REMARK VINA RESULT:      -2.3      3.149      3.869
REMARK  1 active torsions:
REMARK  status: ('A' for Active; 'I' for Inactive)
REMARK    1  A    between atoms: C1_1  and  C3_3 
ROOT
HETATM    1  C1  UNL     1     -33.153   7.164   2.304  1.00 20.00     0.000 C 
HETATM    2  C2  UNL     1     -33.733   7.285   3.502  1.00 20.00     0.081 C 
HETATM    3 CL4  UNL     1     -35.141   6.419   3.949  1.00 20.00    -0.097 Cl
ENDROOT
BRANCH   1   4
HETATM    4  C3  UNL     1     -31.921   7.910   1.912  1.00 20.00     0.142 C 
HETATM    5 CL5  UNL     1     -32.337   9.207   0.772  1.00 20.00    -0.126 Cl
ENDBRANCH   1   4
TORSDOF 1
ENDMDL
MODEL 3
REMARK VINA RESULT:      -2.2      2.092      3.465
REMARK  1 active torsions:
REMARK  status: ('A' for Active; 'I' for Inactive)
REMARK    1  A    between atoms: C1_1  and  C3_3 
ROOT
HETATM    1  C1  UNL     1     -34.115   7.120   3.590  1.00 20.00     0.000 C 
HETATM    2  C2  UNL     1     -33.293   6.854   2.570  1.00 20.00     0.081 C 
HETATM    3 CL4  UNL     1     -32.106   7.956   2.015  1.00 20.00    -0.097 Cl
ENDROOT
BRANCH   1   4
HETATM    4  C3  UNL     1     -35.145   6.160   4.084  1.00 20.00     0.142 C 
HETATM    5 CL5  UNL     1     -34.447   4.530   4.199  1.00 20.00    -0.126 Cl
ENDBRANCH   1   4
TORSDOF 1
ENDMDL
MODEL 4
REMARK VINA RESULT:      -2.0      2.651      3.332
REMARK  1 active torsions:
REMARK  status: ('A' for Active; 'I' for Inactive)
REMARK    1  A    between atoms: C1_1  and  C3_3 
ROOT
HETATM    1  C1  UNL     1     -33.461   5.945   2.298  1.00 20.00     0.000 C 
HETATM    2  C2  UNL     1     -33.970   6.619   3.334  1.00 20.00     0.081 C 
HETATM    3 CL4  UNL     1     -35.402   6.146   4.144  1.00 20.00    -0.097 Cl
ENDROOT
BRANCH   1   4
HETATM    4  C3  UNL     1     -32.208   6.349   1.594  1.00 20.00     0.142 C 
HETATM    5 CL5  UNL     1     -31.988   8.108   1.711  1.00 20.00    -0.126 Cl
ENDBRANCH   1   4
TORSDOF 1
ENDMDL
MODEL 5
REMARK VINA RESULT:      -1.9      2.799      3.415
REMARK  1 active torsions:
REMARK  status: ('A' for Active; 'I' for Inactive)
REMARK    1  A    between atoms: C1_1  and  C3_3 
ROOT
HETATM    1  C1  UNL     1     -33.461   7.505   3.179  1.00 20.00     0.000 C 
HETATM    2  C2  UNL     1     -34.096   6.332   3.255  1.00 20.00     0.081 C 
HETATM    3 CL4  UNL     1     -35.419   6.053   4.305  1.00 20.00    -0.097 Cl
ENDROOT
BRANCH   1   4
HETATM    4  C3  UNL     1     -32.313   7.757   2.259  1.00 20.00     0.142 C 
HETATM    5 CL5  UNL     1     -31.928   6.278   1.352  1.00 20.00    -0.126 Cl
ENDBRANCH   1   4
TORSDOF 1
ENDMDL
MODEL 6
REMARK VINA RESULT:      -1.8      2.689      3.034
REMARK  1 active torsions:
REMARK  status: ('A' for Active; 'I' for Inactive)
REMARK    1  A    between atoms: C1_1  and  C3_3 
ROOT
HETATM    1  C1  UNL     1     -33.207   7.160   2.972  1.00 20.00     0.000 C 
HETATM    2  C2  UNL     1     -33.175   6.011   2.289  1.00 20.00     0.081 C 
HETATM    3 CL4  UNL     1     -31.981   5.656   1.114  1.00 20.00    -0.097 Cl
ENDROOT
BRANCH   1   4
HETATM    4  C3  UNL     1     -34.239   7.472   4.003  1.00 20.00     0.142 C 
HETATM    5 CL5  UNL     1     -35.418   6.146   4.100  1.00 20.00    -0.126 Cl
ENDBRANCH   1   4
TORSDOF 1
ENDMDL
MODEL 7
REMARK VINA RESULT:      -1.8      2.879      3.996
REMARK  1 active torsions:
REMARK  status: ('A' for Active; 'I' for Inactive)
REMARK    1  A    between atoms: C1_1  and  C3_3 
ROOT
HETATM    1  C1  UNL     1     -33.491   7.322   2.831  1.00 20.00     0.000 C 
HETATM    2  C2  UNL     1     -32.406   8.065   2.589  1.00 20.00     0.081 C 
HETATM    3 CL4  UNL     1     -31.584   8.055   1.087  1.00 20.00    -0.097 Cl
ENDROOT
BRANCH   1   4
HETATM    4  C3  UNL     1     -34.216   7.334   4.136  1.00 20.00     0.142 C 
HETATM    5 CL5  UNL     1     -35.431   6.038   4.164  1.00 20.00    -0.126 Cl
ENDBRANCH   1   4
TORSDOF 1
ENDMDL
MODEL 8
REMARK VINA RESULT:      -1.8      4.576      5.984
REMARK  1 active torsions:
REMARK  status: ('A' for Active; 'I' for Inactive)
REMARK    1  A    between atoms: C1_1  and  C3_3 
ROOT
HETATM    1  C1  UNL     1     -32.291   8.377   1.548  1.00 20.00     0.000 C 
HETATM    2  C2  UNL     1     -32.039   9.164   0.498  1.00 20.00     0.081 C 
HETATM    3 CL4  UNL     1     -32.713  10.728   0.320  1.00 20.00    -0.097 Cl
ENDROOT
BRANCH   1   4
HETATM    4  C3  UNL     1     -31.700   7.017   1.713  1.00 20.00     0.142 C 
HETATM    5 CL5  UNL     1     -32.973   5.784   1.581  1.00 20.00    -0.126 Cl
ENDBRANCH   1   4
TORSDOF 1
ENDMDL
MODEL 9
REMARK VINA RESULT:      -1.5      4.520      4.767
REMARK  1 active torsions:
REMARK  status: ('A' for Active; 'I' for Inactive)
REMARK    1  A    between atoms: C1_1  and  C3_3 
ROOT
HETATM    1  C1  UNL     1     -31.909   7.894   1.178  1.00 20.00     0.000 C 
HETATM    2  C2  UNL     1     -32.719   6.952   1.669  1.00 20.00     0.081 C 
HETATM    3 CL4  UNL     1     -32.362   5.279   1.589  1.00 20.00    -0.097 Cl
ENDROOT
BRANCH   1   4
HETATM    4  C3  UNL     1     -32.210   9.354   1.253  1.00 20.00     0.142 C 
HETATM    5 CL5  UNL     1     -32.673   9.959  -0.352  1.00 20.00    -0.126 Cl
ENDBRANCH   1   4
TORSDOF 1
ENDMDL
