MODEL 1
REMARK VINA RESULT:      -0.4      0.000      0.000
REMARK  0 active torsions:
REMARK  status: ('A' for Active; 'I' for Inactive)
ROOT
HETATM    1  C1  UNL     1     -33.640   5.091   3.225  1.00 20.00    -0.021 C 
HETATM    2  C2  UNL     1     -34.559   5.092   4.211  1.00 20.00    -0.021 C 
HETATM    3  C3  UNL     1     -33.235   7.496   3.600  1.00 20.00    -0.021 C 
HETATM    4  C4  UNL     1     -34.154   7.497   4.586  1.00 20.00    -0.021 C 
HETATM    5  C5  UNL     1     -35.195   6.701   2.697  1.00 20.00     0.024 C 
HETATM    6  C6  UNL     1     -33.682   6.464   2.578  1.00 20.00     0.031 C 
HETATM    7  C7  UNL     1     -35.205   6.466   4.215  1.00 20.00     0.031 C 
ENDROOT
TORSDOF 0
ENDMDL
MODEL 2
REMARK VINA RESULT:      -0.4      0.066      2.439
REMARK  0 active torsions:
REMARK  status: ('A' for Active; 'I' for Inactive)
ROOT
HETATM    1  C1  UNL     1     -34.200   7.490   4.577  1.00 20.00    -0.021 C 
HETATM    2  C2  UNL     1     -33.243   7.454   3.627  1.00 20.00    -0.021 C 
HETATM    3  C3  UNL     1     -34.612   5.079   4.252  1.00 20.00    -0.021 C 
HETATM    4  C4  UNL     1     -33.656   5.043   3.302  1.00 20.00    -0.021 C 
HETATM    5  C5  UNL     1     -35.173   6.651   2.670  1.00 20.00     0.024 C 
HETATM    6  C6  UNL     1     -35.246   6.458   4.192  1.00 20.00     0.031 C 
HETATM    7  C7  UNL     1     -33.660   6.398   2.617  1.00 20.00     0.031 C 
ENDROOT
TORSDOF 0
ENDMDL
MODEL 3
REMARK VINA RESULT:       0.4      1.636      2.682
REMARK  0 active torsions:
REMARK  status: ('A' for Active; 'I' for Inactive)
ROOT
HETATM    1  C1  UNL     1     -33.678   5.987   3.126  1.00 20.00    -0.021 C 
HETATM    2  C2  UNL     1     -33.478   7.310   3.295  1.00 20.00    -0.021 C 
HETATM    3  C3  UNL     1     -31.702   5.877   1.653  1.00 20.00    -0.021 C 
HETATM    4  C4  UNL     1     -31.501   7.199   1.822  1.00 20.00    -0.021 C 
HETATM    5  C5  UNL     1     -33.645   6.939   1.033  1.00 20.00     0.024 C 
HETATM    6  C6  UNL     1     -33.201   5.642   1.726  1.00 20.00     0.031 C 
HETATM    7  C7  UNL     1     -32.868   7.835   2.008  1.00 20.00     0.031 C 
ENDROOT
TORSDOF 0
ENDMDL
MODEL 4
REMARK VINA RESULT:       0.4      1.628      2.668
REMARK  0 active torsions:
REMARK  status: ('A' for Active; 'I' for Inactive)
ROOT
HETATM    1  C1  UNL     1     -31.516   7.260   1.856  1.00 20.00    -0.021 C 
HETATM    2  C2  UNL     1     -31.692   5.930   1.714  1.00 20.00    -0.021 C 
HETATM    3  C3  UNL     1     -33.528   7.373   3.280  1.00 20.00    -0.021 C 
HETATM    4  C4  UNL     1     -33.703   6.044   3.139  1.00 20.00    -0.021 C 
HETATM    5  C5  UNL     1     -33.637   6.943   1.024  1.00 20.00     0.024 C 
HETATM    6  C6  UNL     1     -32.897   7.877   1.993  1.00 20.00     0.031 C 
HETATM    7  C7  UNL     1     -33.188   5.672   1.760  1.00 20.00     0.031 C 
ENDROOT
TORSDOF 0
ENDMDL
MODEL 5
REMARK VINA RESULT:       0.6      2.295      3.653
REMARK  0 active torsions:
REMARK  status: ('A' for Active; 'I' for Inactive)
ROOT
HETATM    1  C1  UNL     1     -33.407   7.222   2.561  1.00 20.00    -0.021 C 
HETATM    2  C2  UNL     1     -32.690   6.495   1.681  1.00 20.00    -0.021 C 
HETATM    3  C3  UNL     1     -32.759   9.290   1.381  1.00 20.00    -0.021 C 
HETATM    4  C4  UNL     1     -32.042   8.563   0.500  1.00 20.00    -0.021 C 
HETATM    5  C5  UNL     1     -31.259   8.043   2.599  1.00 20.00     0.024 C 
HETATM    6  C6  UNL     1     -32.701   8.559   2.711  1.00 20.00     0.031 C 
HETATM    7  C7  UNL     1     -31.513   7.353   1.251  1.00 20.00     0.031 C 
ENDROOT
TORSDOF 0
ENDMDL
MODEL 6
REMARK VINA RESULT:       0.6      2.312      3.754
REMARK  0 active torsions:
REMARK  status: ('A' for Active; 'I' for Inactive)
ROOT
HETATM    1  C1  UNL     1     -31.978   8.547   0.491  1.00 20.00    -0.021 C 
HETATM    2  C2  UNL     1     -32.797   9.210   1.332  1.00 20.00    -0.021 C 
HETATM    3  C3  UNL     1     -32.543   6.425   1.616  1.00 20.00    -0.021 C 
HETATM    4  C4  UNL     1     -33.363   7.088   2.456  1.00 20.00    -0.021 C 
HETATM    5  C5  UNL     1     -31.287   8.063   2.631  1.00 20.00     0.024 C 
HETATM    6  C6  UNL     1     -31.407   7.371   1.265  1.00 20.00     0.031 C 
HETATM    7  C7  UNL     1     -32.767   8.470   2.657  1.00 20.00     0.031 C 
ENDROOT
TORSDOF 0
ENDMDL
MODEL 7
REMARK VINA RESULT:       0.8      0.901      2.217
REMARK  0 active torsions:
REMARK  status: ('A' for Active; 'I' for Inactive)
ROOT
HETATM    1  C1  UNL     1     -34.983   7.617   3.704  1.00 20.00    -0.021 C 
HETATM    2  C2  UNL     1     -35.295   6.305   3.678  1.00 20.00    -0.021 C 
HETATM    3  C3  UNL     1     -33.061   7.190   2.218  1.00 20.00    -0.021 C 
HETATM    4  C4  UNL     1     -33.372   5.878   2.192  1.00 20.00    -0.021 C 
HETATM    5  C5  UNL     1     -33.118   6.465   4.400  1.00 20.00     0.024 C 
HETATM    6  C6  UNL     1     -33.473   7.716   3.583  1.00 20.00     0.031 C 
HETATM    7  C7  UNL     1     -33.990   5.542   3.537  1.00 20.00     0.031 C 
ENDROOT
TORSDOF 0
ENDMDL
MODEL 8
REMARK VINA RESULT:       0.8      0.897      2.174
REMARK  0 active torsions:
REMARK  status: ('A' for Active; 'I' for Inactive)
ROOT
HETATM    1  C1  UNL     1     -33.447   5.776   2.210  1.00 20.00    -0.021 C 
HETATM    2  C2  UNL     1     -33.089   7.076   2.213  1.00 20.00    -0.021 C 
HETATM    3  C3  UNL     1     -35.328   6.290   3.722  1.00 20.00    -0.021 C 
HETATM    4  C4  UNL     1     -34.970   7.590   3.725  1.00 20.00    -0.021 C 
HETATM    5  C5  UNL     1     -33.134   6.385   4.406  1.00 20.00     0.024 C 
HETATM    6  C6  UNL     1     -34.052   5.479   3.571  1.00 20.00     0.031 C 
HETATM    7  C7  UNL     1     -33.459   7.635   3.576  1.00 20.00     0.031 C 
ENDROOT
TORSDOF 0
ENDMDL
MODEL 9
REMARK VINA RESULT:       0.9      1.846      3.304
REMARK  0 active torsions:
REMARK  status: ('A' for Active; 'I' for Inactive)
ROOT
HETATM    1  C1  UNL     1     -33.062   7.600   0.547  1.00 20.00    -0.021 C 
HETATM    2  C2  UNL     1     -32.399   8.595   1.169  1.00 20.00    -0.021 C 
HETATM    3  C3  UNL     1     -33.730   6.677   2.735  1.00 20.00    -0.021 C 
HETATM    4  C4  UNL     1     -33.067   7.672   3.358  1.00 20.00    -0.021 C 
HETATM    5  C5  UNL     1     -31.558   6.616   1.982  1.00 20.00     0.024 C 
HETATM    6  C6  UNL     1     -32.979   6.380   1.448  1.00 20.00     0.031 C 
HETATM    7  C7  UNL     1     -31.881   8.032   2.481  1.00 20.00     0.031 C 
ENDROOT
TORSDOF 0
ENDMDL
