MODEL 1
REMARK VINA RESULT:      -0.9      0.000      0.000
REMARK  1 active torsions:
REMARK  status: ('A' for Active; 'I' for Inactive)
REMARK    1  A    between atoms: C6_6  and  C9_9 
ROOT
HETATM    1  C1  UNL     1     -33.699   6.273   3.034  1.00 20.00     0.127 C 
HETATM    2  C2  UNL     1     -33.719   7.710   3.502  1.00 20.00     0.079 C 
HETATM    3  C3  UNL     1     -33.159   6.018   1.645  1.00 20.00     0.079 C 
HETATM    4  C4  UNL     1     -32.369   8.376   3.263  1.00 20.00     0.012 C 
HETATM    5  C5  UNL     1     -31.821   6.720   1.448  1.00 20.00     0.012 C 
HETATM    6  C6  UNL     1     -31.855   8.208   1.826  1.00 20.00    -0.010 C 
HETATM    7  O10 UNL     1     -34.196   5.372   3.707  1.00 20.00    -0.298 OA
ENDROOT
BRANCH   6   8
HETATM    8  C9  UNL     1     -32.668   9.035   0.827  1.00 20.00    -0.019 C 
HETATM    9  C7  UNL     1     -32.736  10.495   1.268  1.00 20.00     0.010 C 
HETATM   10  C8  UNL     1     -32.069   8.924  -0.574  1.00 20.00     0.010 C 
ENDBRANCH   6   8
TORSDOF 1
ENDMDL
MODEL 2
REMARK VINA RESULT:       0.7      1.857      3.490
REMARK  1 active torsions:
REMARK  status: ('A' for Active; 'I' for Inactive)
REMARK    1  A    between atoms: C6_6  and  C9_9 
ROOT
HETATM    1  C1  UNL     1     -33.764   3.896   3.996  1.00 20.00     0.127 C 
HETATM    2  C2  UNL     1     -32.740   4.396   3.003  1.00 20.00     0.079 C 
HETATM    3  C3  UNL     1     -34.559   4.946   4.741  1.00 20.00     0.079 C 
HETATM    4  C4  UNL     1     -33.350   5.441   2.076  1.00 20.00     0.012 C 
HETATM    5  C5  UNL     1     -35.129   5.977   3.775  1.00 20.00     0.012 C 
HETATM    6  C6  UNL     1     -34.076   6.568   2.826  1.00 20.00    -0.010 C 
HETATM    7  O10 UNL     1     -33.870   2.701   4.263  1.00 20.00    -0.298 OA
ENDROOT
BRANCH   6   8
HETATM    8  C9  UNL     1     -33.100   7.492   3.557  1.00 20.00    -0.019 C 
HETATM    9  C7  UNL     1     -32.325   8.351   2.560  1.00 20.00     0.010 C 
HETATM   10  C8  UNL     1     -33.842   8.371   4.561  1.00 20.00     0.010 C 
ENDBRANCH   6   8
TORSDOF 1
ENDMDL
MODEL 3
REMARK VINA RESULT:       0.9      2.209      4.222
REMARK  1 active torsions:
REMARK  status: ('A' for Active; 'I' for Inactive)
REMARK    1  A    between atoms: C6_6  and  C9_9 
ROOT
HETATM    1  C1  UNL     1     -32.098   7.545   2.212  1.00 20.00     0.127 C 
HETATM    2  C2  UNL     1     -33.040   7.936   3.328  1.00 20.00     0.079 C 
HETATM    3  C3  UNL     1     -32.055   6.079   1.841  1.00 20.00     0.079 C 
HETATM    4  C4  UNL     1     -34.426   7.346   3.097  1.00 20.00     0.012 C 
HETATM    5  C5  UNL     1     -33.463   5.531   1.642  1.00 20.00     0.012 C 
HETATM    6  C6  UNL     1     -34.405   5.837   2.816  1.00 20.00    -0.010 C 
HETATM    7  O10 UNL     1     -31.327   8.359   1.708  1.00 20.00    -0.298 OA
ENDROOT
BRANCH   6   8
HETATM    8  C9  UNL     1     -34.046   5.027   4.063  1.00 20.00    -0.019 C 
HETATM    9  C7  UNL     1     -35.240   4.941   5.010  1.00 20.00     0.010 C 
HETATM   10  C8  UNL     1     -33.566   3.629   3.677  1.00 20.00     0.010 C 
ENDBRANCH   6   8
TORSDOF 1
ENDMDL
MODEL 4
REMARK VINA RESULT:       1.1      1.333      2.787
REMARK  1 active torsions:
REMARK  status: ('A' for Active; 'I' for Inactive)
REMARK    1  A    between atoms: C6_6  and  C9_9 
ROOT
HETATM    1  C1  UNL     1     -33.795   4.690   3.733  1.00 20.00     0.127 C 
HETATM    2  C2  UNL     1     -32.745   4.605   2.649  1.00 20.00     0.079 C 
HETATM    3  C3  UNL     1     -34.221   6.077   4.159  1.00 20.00     0.079 C 
HETATM    4  C4  UNL     1     -33.112   5.497   1.469  1.00 20.00     0.012 C 
HETATM    5  C5  UNL     1     -34.556   6.936   2.946  1.00 20.00     0.012 C 
HETATM    6  C6  UNL     1     -33.452   6.937   1.879  1.00 20.00    -0.010 C 
HETATM    7  O10 UNL     1     -34.201   3.686   4.314  1.00 20.00    -0.298 OA
ENDROOT
BRANCH   6   8
HETATM    8  C9  UNL     1     -32.213   7.709   2.338  1.00 20.00    -0.019 C 
HETATM    9  C7  UNL     1     -31.767   8.697   1.263  1.00 20.00     0.010 C 
HETATM   10  C8  UNL     1     -32.489   8.435   3.653  1.00 20.00     0.010 C 
ENDBRANCH   6   8
TORSDOF 1
ENDMDL
MODEL 5
REMARK VINA RESULT:       1.2      1.502      2.444
REMARK  1 active torsions:
REMARK  status: ('A' for Active; 'I' for Inactive)
REMARK    1  A    between atoms: C6_6  and  C9_9 
ROOT
HETATM    1  C1  UNL     1     -35.160   5.320   4.193  1.00 20.00     0.127 C 
HETATM    2  C2  UNL     1     -35.287   6.788   3.859  1.00 20.00     0.079 C 
HETATM    3  C3  UNL     1     -34.045   4.561   3.511  1.00 20.00     0.079 C 
HETATM    4  C4  UNL     1     -33.939   7.489   3.980  1.00 20.00     0.012 C 
HETATM    5  C5  UNL     1     -32.724   5.309   3.641  1.00 20.00     0.012 C 
HETATM    6  C6  UNL     1     -32.816   6.781   3.209  1.00 20.00    -0.010 C 
HETATM    7  O10 UNL     1     -35.989   4.748   4.899  1.00 20.00    -0.298 OA
ENDROOT
BRANCH   6   8
HETATM    8  C9  UNL     1     -32.982   6.923   1.694  1.00 20.00    -0.019 C 
HETATM    9  C7  UNL     1     -32.240   8.157   1.187  1.00 20.00     0.010 C 
HETATM   10  C8  UNL     1     -32.489   5.668   0.979  1.00 20.00     0.010 C 
ENDBRANCH   6   8
TORSDOF 1
ENDMDL
MODEL 6
REMARK VINA RESULT:       1.3      2.401      4.231
REMARK  1 active torsions:
REMARK  status: ('A' for Active; 'I' for Inactive)
REMARK    1  A    between atoms: C6_6  and  C9_9 
ROOT
HETATM    1  C1  UNL     1     -32.438   9.957   0.333  1.00 20.00     0.127 C 
HETATM    2  C2  UNL     1     -32.009   8.655  -0.304  1.00 20.00     0.079 C 
HETATM    3  C3  UNL     1     -33.115   9.863   1.682  1.00 20.00     0.079 C 
HETATM    4  C4  UNL     1     -31.231   7.798   0.687  1.00 20.00     0.012 C 
HETATM    5  C5  UNL     1     -32.311   8.981   2.630  1.00 20.00     0.012 C 
HETATM    6  C6  UNL     1     -31.954   7.613   2.029  1.00 20.00    -0.010 C 
HETATM    7  O10 UNL     1     -32.340  11.027  -0.264  1.00 20.00    -0.298 OA
ENDROOT
BRANCH   6   8
HETATM    8  C9  UNL     1     -33.180   6.707   1.899  1.00 20.00    -0.019 C 
HETATM    9  C7  UNL     1     -32.782   5.341   1.345  1.00 20.00     0.010 C 
HETATM   10  C8  UNL     1     -33.882   6.557   3.246  1.00 20.00     0.010 C 
ENDBRANCH   6   8
TORSDOF 1
ENDMDL
MODEL 7
REMARK VINA RESULT:       1.6      2.220      4.070
REMARK  1 active torsions:
REMARK  status: ('A' for Active; 'I' for Inactive)
REMARK    1  A    between atoms: C6_6  and  C9_9 
ROOT
HETATM    1  C1  UNL     1     -32.424   8.866   0.563  1.00 20.00     0.127 C 
HETATM    2  C2  UNL     1     -33.153   7.544   0.474  1.00 20.00     0.079 C 
HETATM    3  C3  UNL     1     -32.296   9.481   1.939  1.00 20.00     0.079 C 
HETATM    4  C4  UNL     1     -32.620   6.562   1.511  1.00 20.00     0.012 C 
HETATM    5  C5  UNL     1     -31.781   8.456   2.942  1.00 20.00     0.012 C 
HETATM    6  C6  UNL     1     -32.578   7.143   2.932  1.00 20.00    -0.010 C 
HETATM    7  O10 UNL     1     -32.051   9.462  -0.445  1.00 20.00    -0.298 OA
ENDROOT
BRANCH   6   8
HETATM    8  C9  UNL     1     -33.979   7.318   3.521  1.00 20.00    -0.019 C 
HETATM    9  C7  UNL     1     -34.678   5.968   3.655  1.00 20.00     0.010 C 
HETATM   10  C8  UNL     1     -33.908   8.023   4.874  1.00 20.00     0.010 C 
ENDBRANCH   6   8
TORSDOF 1
ENDMDL
