MODEL 1
REMARK VINA RESULT:      -0.8      0.000      0.000
REMARK  0 active torsions:
REMARK  status: ('A' for Active; 'I' for Inactive)
ROOT
HETATM    1  C1  UNL     1     -33.306   7.949   4.300  1.00 20.00    -0.029 C 
HETATM    2  C2  UNL     1     -32.688   7.784   3.127  1.00 20.00    -0.023 C 
HETATM    3  C3  UNL     1     -33.926   4.926   3.450  1.00 20.00     0.264 C 
HETATM    4  C4  UNL     1     -34.589   7.187   4.363  1.00 20.00     0.042 C 
HETATM    5  C5  UNL     1     -32.709   5.714   1.667  1.00 20.00     0.188 C 
HETATM    6  C6  UNL     1     -33.473   6.900   2.205  1.00 20.00     0.046 C 
HETATM    7  C7  UNL     1     -34.511   6.283   3.133  1.00 20.00     0.098 C 
HETATM    8  O8  UNL     1     -34.331   4.162   4.313  1.00 20.00    -0.265 OA
HETATM    9  O9  UNL     1     -32.874   4.661   2.622  1.00 20.00    -0.320 OA
ENDROOT
TORSDOF 0
ENDMDL
MODEL 2
REMARK VINA RESULT:      -0.7      1.850      2.818
REMARK  0 active torsions:
REMARK  status: ('A' for Active; 'I' for Inactive)
ROOT
HETATM    1  C1  UNL     1     -34.988   7.137   3.937  1.00 20.00    -0.029 C 
HETATM    2  C2  UNL     1     -34.672   5.954   3.403  1.00 20.00    -0.023 C 
HETATM    3  C3  UNL     1     -32.587   7.752   1.911  1.00 20.00     0.264 C 
HETATM    4  C4  UNL     1     -33.784   8.001   4.124  1.00 20.00     0.042 C 
HETATM    5  C5  UNL     1     -32.815   5.471   1.750  1.00 20.00     0.188 C 
HETATM    6  C6  UNL     1     -33.197   5.827   3.166  1.00 20.00     0.046 C 
HETATM    7  C7  UNL     1     -32.705   7.258   3.335  1.00 20.00     0.098 C 
HETATM    8  O8  UNL     1     -32.408   8.912   1.575  1.00 20.00    -0.265 OA
HETATM    9  O9  UNL     1     -32.701   6.708   1.039  1.00 20.00    -0.320 OA
ENDROOT
TORSDOF 0
ENDMDL
MODEL 3
REMARK VINA RESULT:      -0.3      1.940      3.399
REMARK  0 active torsions:
REMARK  status: ('A' for Active; 'I' for Inactive)
ROOT
HETATM    1  C1  UNL     1     -33.335   4.645   2.862  1.00 20.00    -0.029 C 
HETATM    2  C2  UNL     1     -34.043   5.238   3.829  1.00 20.00    -0.023 C 
HETATM    3  C3  UNL     1     -32.491   7.731   2.741  1.00 20.00     0.264 C 
HETATM    4  C4  UNL     1     -33.159   5.537   1.677  1.00 20.00     0.042 C 
HETATM    5  C5  UNL     1     -34.076   7.704   4.405  1.00 20.00     0.188 C 
HETATM    6  C6  UNL     1     -34.475   6.618   3.434  1.00 20.00     0.046 C 
HETATM    7  C7  UNL     1     -33.629   6.896   2.199  1.00 20.00     0.098 C 
HETATM    8  O8  UNL     1     -31.471   8.019   2.135  1.00 20.00    -0.265 OA
HETATM    9  O9  UNL     1     -32.767   8.132   4.016  1.00 20.00    -0.320 OA
ENDROOT
TORSDOF 0
ENDMDL
MODEL 4
REMARK VINA RESULT:      -0.2      1.941      3.249
REMARK  0 active torsions:
REMARK  status: ('A' for Active; 'I' for Inactive)
ROOT
HETATM    1  C1  UNL     1     -32.381   9.244   0.533  1.00 20.00    -0.029 C 
HETATM    2  C2  UNL     1     -32.897   9.421   1.753  1.00 20.00    -0.023 C 
HETATM    3  C3  UNL     1     -32.714   6.295   1.733  1.00 20.00     0.264 C 
HETATM    4  C4  UNL     1     -31.435   8.088   0.493  1.00 20.00     0.042 C 
HETATM    5  C5  UNL     1     -33.414   7.629   3.467  1.00 20.00     0.188 C 
HETATM    6  C6  UNL     1     -32.359   8.421   2.734  1.00 20.00     0.046 C 
HETATM    7  C7  UNL     1     -31.684   7.396   1.833  1.00 20.00     0.098 C 
HETATM    8  O8  UNL     1     -32.674   5.354   0.954  1.00 20.00    -0.265 OA
HETATM    9  O9  UNL     1     -33.705   6.491   2.650  1.00 20.00    -0.320 OA
ENDROOT
TORSDOF 0
ENDMDL
MODEL 5
REMARK VINA RESULT:      -0.1      1.360      2.111
REMARK  0 active torsions:
REMARK  status: ('A' for Active; 'I' for Inactive)
ROOT
HETATM    1  C1  UNL     1     -33.923   7.051   4.492  1.00 20.00    -0.029 C 
HETATM    2  C2  UNL     1     -33.239   8.105   4.037  1.00 20.00    -0.023 C 
HETATM    3  C3  UNL     1     -32.610   6.069   1.743  1.00 20.00     0.264 C 
HETATM    4  C4  UNL     1     -34.527   6.259   3.380  1.00 20.00     0.042 C 
HETATM    5  C5  UNL     1     -31.949   8.266   1.864  1.00 20.00     0.188 C 
HETATM    6  C6  UNL     1     -33.296   8.200   2.542  1.00 20.00     0.046 C 
HETATM    7  C7  UNL     1     -33.848   6.840   2.139  1.00 20.00     0.098 C 
HETATM    8  O8  UNL     1     -32.559   4.866   1.533  1.00 20.00    -0.265 OA
HETATM    9  O9  UNL     1     -31.542   6.912   1.642  1.00 20.00    -0.320 OA
ENDROOT
TORSDOF 0
ENDMDL
MODEL 6
REMARK VINA RESULT:       0.2      1.873      3.024
REMARK  0 active torsions:
REMARK  status: ('A' for Active; 'I' for Inactive)
ROOT
HETATM    1  C1  UNL     1     -31.812   6.530   1.687  1.00 20.00    -0.029 C 
HETATM    2  C2  UNL     1     -32.924   5.801   1.815  1.00 20.00    -0.023 C 
HETATM    3  C3  UNL     1     -33.341   7.781   4.205  1.00 20.00     0.264 C 
HETATM    4  C4  UNL     1     -32.041   7.962   2.044  1.00 20.00     0.042 C 
HETATM    5  C5  UNL     1     -34.784   6.137   3.501  1.00 20.00     0.188 C 
HETATM    6  C6  UNL     1     -34.087   6.637   2.259  1.00 20.00     0.046 C 
HETATM    7  C7  UNL     1     -33.421   7.932   2.703  1.00 20.00     0.098 C 
HETATM    8  O8  UNL     1     -32.705   8.503   4.958  1.00 20.00    -0.265 OA
HETATM    9  O9  UNL     1     -34.095   6.720   4.613  1.00 20.00    -0.320 OA
ENDROOT
TORSDOF 0
ENDMDL
MODEL 7
REMARK VINA RESULT:       0.2      1.713      2.745
REMARK  0 active torsions:
REMARK  status: ('A' for Active; 'I' for Inactive)
ROOT
HETATM    1  C1  UNL     1     -32.756   7.107   1.190  1.00 20.00    -0.029 C 
HETATM    2  C2  UNL     1     -32.294   7.973   2.097  1.00 20.00    -0.023 C 
HETATM    3  C3  UNL     1     -34.641   6.720   3.747  1.00 20.00     0.264 C 
HETATM    4  C4  UNL     1     -33.249   5.848   1.826  1.00 20.00     0.042 C 
HETATM    5  C5  UNL     1     -33.133   8.298   4.464  1.00 20.00     0.188 C 
HETATM    6  C6  UNL     1     -32.385   7.422   3.488  1.00 20.00     0.046 C 
HETATM    7  C7  UNL     1     -33.287   6.209   3.312  1.00 20.00     0.098 C 
HETATM    8  O8  UNL     1     -35.704   6.139   3.590  1.00 20.00    -0.265 OA
HETATM    9  O9  UNL     1     -34.513   7.933   4.359  1.00 20.00    -0.320 OA
ENDROOT
TORSDOF 0
ENDMDL
MODEL 8
REMARK VINA RESULT:       0.5      1.297      2.554
REMARK  0 active torsions:
REMARK  status: ('A' for Active; 'I' for Inactive)
ROOT
HETATM    1  C1  UNL     1     -32.990   5.831   1.314  1.00 20.00    -0.029 C 
HETATM    2  C2  UNL     1     -33.088   7.090   1.749  1.00 20.00    -0.023 C 
HETATM    3  C3  UNL     1     -34.644   5.641   4.048  1.00 20.00     0.264 C 
HETATM    4  C4  UNL     1     -32.852   4.862   2.443  1.00 20.00     0.042 C 
HETATM    5  C5  UNL     1     -34.168   7.884   3.898  1.00 20.00     0.188 C 
HETATM    6  C6  UNL     1     -33.010   7.169   3.244  1.00 20.00     0.046 C 
HETATM    7  C7  UNL     1     -33.183   5.717   3.668  1.00 20.00     0.098 C 
HETATM    8  O8  UNL     1     -35.269   4.614   4.266  1.00 20.00    -0.265 OA
HETATM    9  O9  UNL     1     -35.178   6.895   4.123  1.00 20.00    -0.320 OA
ENDROOT
TORSDOF 0
ENDMDL
MODEL 9
REMARK VINA RESULT:       1.7      2.007      3.000
REMARK  0 active torsions:
REMARK  status: ('A' for Active; 'I' for Inactive)
ROOT
HETATM    1  C1  UNL     1     -33.619   5.102   1.180  1.00 20.00    -0.029 C 
HETATM    2  C2  UNL     1     -32.699   5.954   0.720  1.00 20.00    -0.023 C 
HETATM    3  C3  UNL     1     -33.560   7.491   3.309  1.00 20.00     0.264 C 
HETATM    4  C4  UNL     1     -33.628   5.046   2.673  1.00 20.00     0.042 C 
HETATM    5  C5  UNL     1     -31.922   8.101   1.817  1.00 20.00     0.188 C 
HETATM    6  C6  UNL     1     -31.926   6.591   1.836  1.00 20.00     0.046 C 
HETATM    7  C7  UNL     1     -32.753   6.237   3.064  1.00 20.00     0.098 C 
HETATM    8  O8  UNL     1     -34.502   7.590   4.082  1.00 20.00    -0.265 OA
HETATM    9  O9  UNL     1     -33.082   8.516   2.545  1.00 20.00    -0.320 OA
ENDROOT
TORSDOF 0
ENDMDL
