MODEL 1
REMARK VINA RESULT:       1.6      0.000      0.000
REMARK  0 active torsions:
REMARK  status: ('A' for Active; 'I' for Inactive)
ROOT
HETATM    1  C1  UNL     1     -33.989   6.692   3.200  1.00 20.00     0.128 C 
HETATM    2  C2  UNL     1     -33.815   8.000   2.463  1.00 20.00     0.087 C 
HETATM    3  C3  UNL     1     -33.062   5.548   2.853  1.00 20.00     0.087 C 
HETATM    4  C4  UNL     1     -31.871   7.011   1.117  1.00 20.00     0.018 C 
HETATM    5  C5  UNL     1     -32.380   8.214   1.959  1.00 20.00    -0.041 C 
HETATM    6  C6  UNL     1     -32.522   5.632   1.417  1.00 20.00    -0.041 C 
HETATM    7  C7  UNL     1     -32.353   9.483   1.080  1.00 20.00     0.015 C 
HETATM    8  C8  UNL     1     -31.432   8.468   3.152  1.00 20.00     0.015 C 
HETATM    9  C9  UNL     1     -33.659   5.350   0.409  1.00 20.00     0.015 C 
HETATM   10  C10 UNL     1     -31.462   4.528   1.227  1.00 20.00     0.015 C 
HETATM   11  O11 UNL     1     -34.861   6.560   4.059  1.00 20.00    -0.298 OA
ENDROOT
TORSDOF 0
ENDMDL
MODEL 2
REMARK VINA RESULT:       1.6      0.095      3.338
REMARK  0 active torsions:
REMARK  status: ('A' for Active; 'I' for Inactive)
ROOT
HETATM    1  C1  UNL     1     -33.997   6.666   3.207  1.00 20.00     0.128 C 
HETATM    2  C2  UNL     1     -33.105   5.519   2.791  1.00 20.00     0.087 C 
HETATM    3  C3  UNL     1     -33.813   8.001   2.519  1.00 20.00     0.087 C 
HETATM    4  C4  UNL     1     -31.928   7.023   1.082  1.00 20.00     0.018 C 
HETATM    5  C5  UNL     1     -32.603   5.648   1.345  1.00 20.00    -0.041 C 
HETATM    6  C6  UNL     1     -32.387   8.203   1.983  1.00 20.00    -0.041 C 
HETATM    7  C7  UNL     1     -31.572   4.530   1.082  1.00 20.00     0.015 C 
HETATM    8  C8  UNL     1     -33.771   5.431   0.358  1.00 20.00     0.015 C 
HETATM    9  C9  UNL     1     -31.402   8.389   3.160  1.00 20.00     0.015 C 
HETATM   10  C10 UNL     1     -32.355   9.504   1.156  1.00 20.00     0.015 C 
HETATM   11  O11 UNL     1     -34.851   6.520   4.082  1.00 20.00    -0.298 OA
ENDROOT
TORSDOF 0
ENDMDL
MODEL 3
REMARK VINA RESULT:       2.0      1.512      3.593
REMARK  0 active torsions:
REMARK  status: ('A' for Active; 'I' for Inactive)
ROOT
HETATM    1  C1  UNL     1     -34.420   5.152   3.900  1.00 20.00     0.128 C 
HETATM    2  C2  UNL     1     -33.117   4.892   3.180  1.00 20.00     0.087 C 
HETATM    3  C3  UNL     1     -35.013   6.542   3.827  1.00 20.00     0.087 C 
HETATM    4  C4  UNL     1     -33.052   7.324   2.372  1.00 20.00     0.018 C 
HETATM    5  C5  UNL     1     -32.902   5.828   1.980  1.00 20.00    -0.041 C 
HETATM    6  C6  UNL     1     -33.952   7.631   3.601  1.00 20.00    -0.041 C 
HETATM    7  C7  UNL     1     -31.479   5.598   1.428  1.00 20.00     0.015 C 
HETATM    8  C8  UNL     1     -33.891   5.472   0.848  1.00 20.00     0.015 C 
HETATM    9  C9  UNL     1     -33.084   7.793   4.870  1.00 20.00     0.015 C 
HETATM   10  C10 UNL     1     -34.672   8.975   3.369  1.00 20.00     0.015 C 
HETATM   11  O11 UNL     1     -34.986   4.257   4.529  1.00 20.00    -0.298 OA
ENDROOT
TORSDOF 0
ENDMDL
MODEL 4
REMARK VINA RESULT:       2.0      1.518      1.959
REMARK  0 active torsions:
REMARK  status: ('A' for Active; 'I' for Inactive)
ROOT
HETATM    1  C1  UNL     1     -34.444   5.154   3.909  1.00 20.00     0.128 C 
HETATM    2  C2  UNL     1     -35.028   6.545   3.824  1.00 20.00     0.087 C 
HETATM    3  C3  UNL     1     -33.136   4.883   3.198  1.00 20.00     0.087 C 
HETATM    4  C4  UNL     1     -33.054   7.313   2.382  1.00 20.00     0.018 C 
HETATM    5  C5  UNL     1     -33.961   7.628   3.603  1.00 20.00    -0.041 C 
HETATM    6  C6  UNL     1     -32.907   5.814   1.997  1.00 20.00    -0.041 C 
HETATM    7  C7  UNL     1     -34.673   8.976   3.359  1.00 20.00     0.015 C 
HETATM    8  C8  UNL     1     -33.102   7.792   4.876  1.00 20.00     0.015 C 
HETATM    9  C9  UNL     1     -33.891   5.458   0.859  1.00 20.00     0.015 C 
HETATM   10  C10 UNL     1     -31.483   5.574   1.456  1.00 20.00     0.015 C 
HETATM   11  O11 UNL     1     -35.016   4.264   4.539  1.00 20.00    -0.298 OA
ENDROOT
TORSDOF 0
ENDMDL
MODEL 5
REMARK VINA RESULT:       2.2      1.740      3.107
REMARK  0 active torsions:
REMARK  status: ('A' for Active; 'I' for Inactive)
ROOT
HETATM    1  C1  UNL     1     -32.752   5.615   1.205  1.00 20.00     0.128 C 
HETATM    2  C2  UNL     1     -31.656   6.511   1.734  1.00 20.00     0.087 C 
HETATM    3  C3  UNL     1     -34.133   5.742   1.808  1.00 20.00     0.087 C 
HETATM    4  C4  UNL     1     -33.298   7.585   3.383  1.00 20.00     0.018 C 
HETATM    5  C5  UNL     1     -32.191   7.827   2.319  1.00 20.00    -0.041 C 
HETATM    6  C6  UNL     1     -34.106   6.264   3.253  1.00 20.00    -0.041 C 
HETATM    7  C7  UNL     1     -31.020   8.581   2.983  1.00 20.00     0.015 C 
HETATM    8  C8  UNL     1     -32.729   8.729   1.186  1.00 20.00     0.015 C 
HETATM    9  C9  UNL     1     -33.519   5.186   4.193  1.00 20.00     0.015 C 
HETATM   10  C10 UNL     1     -35.558   6.521   3.708  1.00 20.00     0.015 C 
HETATM   11  O11 UNL     1     -32.527   4.803   0.306  1.00 20.00    -0.298 OA
ENDROOT
TORSDOF 0
ENDMDL
MODEL 6
REMARK VINA RESULT:       2.2      1.740      3.511
REMARK  0 active torsions:
REMARK  status: ('A' for Active; 'I' for Inactive)
ROOT
HETATM    1  C1  UNL     1     -32.757   5.618   1.199  1.00 20.00     0.128 C 
HETATM    2  C2  UNL     1     -34.135   5.746   1.805  1.00 20.00     0.087 C 
HETATM    3  C3  UNL     1     -31.657   6.512   1.729  1.00 20.00     0.087 C 
HETATM    4  C4  UNL     1     -33.296   7.580   3.386  1.00 20.00     0.018 C 
HETATM    5  C5  UNL     1     -34.105   6.260   3.253  1.00 20.00    -0.041 C 
HETATM    6  C6  UNL     1     -32.190   7.825   2.321  1.00 20.00    -0.041 C 
HETATM    7  C7  UNL     1     -35.556   6.517   3.712  1.00 20.00     0.015 C 
HETATM    8  C8  UNL     1     -33.517   5.179   4.186  1.00 20.00     0.015 C 
HETATM    9  C9  UNL     1     -32.730   8.733   1.193  1.00 20.00     0.015 C 
HETATM   10  C10 UNL     1     -31.017   8.575   2.984  1.00 20.00     0.015 C 
HETATM   11  O11 UNL     1     -32.533   4.809   0.298  1.00 20.00    -0.298 OA
ENDROOT
TORSDOF 0
ENDMDL
MODEL 7
REMARK VINA RESULT:       3.5      1.906      3.697
REMARK  0 active torsions:
REMARK  status: ('A' for Active; 'I' for Inactive)
ROOT
HETATM    1  C1  UNL     1     -32.357   8.411   1.344  1.00 20.00     0.128 C 
HETATM    2  C2  UNL     1     -32.946   7.205   0.649  1.00 20.00     0.087 C 
HETATM    3  C3  UNL     1     -32.335   8.425   2.856  1.00 20.00     0.087 C 
HETATM    4  C4  UNL     1     -33.445   6.114   2.914  1.00 20.00     0.018 C 
HETATM    5  C5  UNL     1     -32.848   5.924   1.492  1.00 20.00    -0.041 C 
HETATM    6  C6  UNL     1     -33.446   7.564   3.476  1.00 20.00    -0.041 C 
HETATM    7  C7  UNL     1     -33.626   4.803   0.771  1.00 20.00     0.015 C 
HETATM    8  C8  UNL     1     -31.376   5.466   1.590  1.00 20.00     0.015 C 
HETATM    9  C9  UNL     1     -34.822   8.226   3.239  1.00 20.00     0.015 C 
HETATM   10  C10 UNL     1     -33.227   7.506   5.002  1.00 20.00     0.015 C 
HETATM   11  O11 UNL     1     -31.907   9.358   0.697  1.00 20.00    -0.298 OA
ENDROOT
TORSDOF 0
ENDMDL
MODEL 8
REMARK VINA RESULT:       3.5      1.906      3.028
REMARK  0 active torsions:
REMARK  status: ('A' for Active; 'I' for Inactive)
ROOT
HETATM    1  C1  UNL     1     -32.356   8.411   1.344  1.00 20.00     0.128 C 
HETATM    2  C2  UNL     1     -32.333   8.424   2.855  1.00 20.00     0.087 C 
HETATM    3  C3  UNL     1     -32.944   7.204   0.648  1.00 20.00     0.087 C 
HETATM    4  C4  UNL     1     -33.446   6.116   2.915  1.00 20.00     0.018 C 
HETATM    5  C5  UNL     1     -33.445   7.565   3.476  1.00 20.00    -0.041 C 
HETATM    6  C6  UNL     1     -32.849   5.924   1.492  1.00 20.00    -0.041 C 
HETATM    7  C7  UNL     1     -33.227   7.507   5.003  1.00 20.00     0.015 C 
HETATM    8  C8  UNL     1     -34.820   8.227   3.239  1.00 20.00     0.015 C 
HETATM    9  C9  UNL     1     -31.376   5.465   1.590  1.00 20.00     0.015 C 
HETATM   10  C10 UNL     1     -33.626   4.804   0.772  1.00 20.00     0.015 C 
HETATM   11  O11 UNL     1     -31.908   9.358   0.696  1.00 20.00    -0.298 OA
ENDROOT
TORSDOF 0
ENDMDL
MODEL 9
REMARK VINA RESULT:       3.7      1.627      3.222
REMARK  0 active torsions:
REMARK  status: ('A' for Active; 'I' for Inactive)
ROOT
HETATM    1  C1  UNL     1     -32.567   7.781   2.845  1.00 20.00     0.128 C 
HETATM    2  C2  UNL     1     -33.266   7.094   3.995  1.00 20.00     0.087 C 
HETATM    3  C3  UNL     1     -32.646   7.142   1.476  1.00 20.00     0.087 C 
HETATM    4  C4  UNL     1     -34.066   5.231   2.427  1.00 20.00     0.018 C 
HETATM    5  C5  UNL     1     -34.459   6.238   3.543  1.00 20.00    -0.041 C 
HETATM    6  C6  UNL     1     -32.851   5.621   1.540  1.00 20.00    -0.041 C 
HETATM    7  C7  UNL     1     -34.988   5.451   4.760  1.00 20.00     0.015 C 
HETATM    8  C8  UNL     1     -35.609   7.149   3.056  1.00 20.00     0.015 C 
HETATM    9  C9  UNL     1     -31.568   4.937   2.063  1.00 20.00     0.015 C 
HETATM   10  C10 UNL     1     -33.091   5.099   0.108  1.00 20.00     0.015 C 
HETATM   11  O11 UNL     1     -31.950   8.833   3.016  1.00 20.00    -0.298 OA
ENDROOT
TORSDOF 0
ENDMDL
