MODEL 1
REMARK VINA RESULT:       0.3      0.000      0.000
REMARK  1 active torsions:
REMARK  status: ('A' for Active; 'I' for Inactive)
REMARK    1  A    between atoms: C3_3  and  C8_8 
ROOT
HETATM    1  C1  UNL     1     -31.511   6.444   1.832  1.00 20.00    -0.026 C 
HETATM    2  C2  UNL     1     -32.730   6.005   1.488  1.00 20.00    -0.025 C 
HETATM    3  C4  UNL     1     -32.730   8.290   1.163  1.00 20.00     0.017 C 
HETATM    4  C5  UNL     1     -32.422   8.013   3.508  1.00 20.00     0.021 C 
HETATM    5  C6  UNL     1     -31.645   7.907   2.175  1.00 20.00     0.009 C 
HETATM    6  C7  UNL     1     -33.682   7.176   1.614  1.00 20.00     0.019 C 
HETATM    7  C8  UNL     1     -33.850   7.541   3.108  1.00 20.00     0.055 C 
ENDROOT
BRANCH   7   8
HETATM    8  C3  UNL     1     -34.350   6.406   3.946  1.00 20.00     0.236 C 
HETATM    9  O9  UNL     1     -35.539   6.138   4.082  1.00 20.00    -0.306 OA
ENDBRANCH   7   8
TORSDOF 1
ENDMDL
MODEL 2
REMARK VINA RESULT:       0.6      2.273      3.350
REMARK  1 active torsions:
REMARK  status: ('A' for Active; 'I' for Inactive)
REMARK    1  A    between atoms: C3_3  and  C8_8 
ROOT
HETATM    1  C1  UNL     1     -34.065   7.429   4.415  1.00 20.00    -0.026 C 
HETATM    2  C2  UNL     1     -33.080   6.893   3.680  1.00 20.00    -0.025 C 
HETATM    3  C4  UNL     1     -35.039   6.578   2.500  1.00 20.00     0.017 C 
HETATM    4  C5  UNL     1     -35.323   5.305   4.492  1.00 20.00     0.021 C 
HETATM    5  C6  UNL     1     -35.352   6.767   3.988  1.00 20.00     0.009 C 
HETATM    6  C7  UNL     1     -33.711   5.861   2.769  1.00 20.00     0.019 C 
HETATM    7  C8  UNL     1     -34.207   4.664   3.616  1.00 20.00     0.055 C 
ENDROOT
BRANCH   7   8
HETATM    8  C3  UNL     1     -33.126   4.016   4.423  1.00 20.00     0.236 C 
HETATM    9  O9  UNL     1     -33.181   2.858   4.823  1.00 20.00    -0.306 OA
ENDBRANCH   7   8
TORSDOF 1
ENDMDL
MODEL 3
REMARK VINA RESULT:       0.7      1.955      3.446
REMARK  1 active torsions:
REMARK  status: ('A' for Active; 'I' for Inactive)
REMARK    1  A    between atoms: C3_3  and  C8_8 
ROOT
HETATM    1  C1  UNL     1     -33.922   7.080   4.944  1.00 20.00    -0.026 C 
HETATM    2  C2  UNL     1     -33.845   8.092   4.068  1.00 20.00    -0.025 C 
HETATM    3  C4  UNL     1     -35.524   6.693   3.324  1.00 20.00     0.017 C 
HETATM    4  C5  UNL     1     -33.542   5.380   3.193  1.00 20.00     0.021 C 
HETATM    5  C6  UNL     1     -34.560   5.916   4.226  1.00 20.00     0.009 C 
HETATM    6  C7  UNL     1     -34.422   7.596   2.758  1.00 20.00     0.019 C 
HETATM    7  C8  UNL     1     -33.476   6.533   2.150  1.00 20.00     0.055 C 
ENDROOT
BRANCH   7   8
HETATM    8  C3  UNL     1     -32.085   7.037   1.919  1.00 20.00     0.236 C 
HETATM    9  O9  UNL     1     -31.834   8.104   1.369  1.00 20.00    -0.306 OA
ENDBRANCH   7   8
TORSDOF 1
ENDMDL
MODEL 4
REMARK VINA RESULT:       0.7      0.823      2.035
REMARK  1 active torsions:
REMARK  status: ('A' for Active; 'I' for Inactive)
REMARK    1  A    between atoms: C3_3  and  C8_8 
ROOT
HETATM    1  C1  UNL     1     -32.658   8.605   0.756  1.00 20.00    -0.026 C 
HETATM    2  C2  UNL     1     -32.807   9.203   1.946  1.00 20.00    -0.025 C 
HETATM    3  C4  UNL     1     -31.020   7.756   2.148  1.00 20.00     0.017 C 
HETATM    4  C5  UNL     1     -32.894   6.347   1.732  1.00 20.00     0.021 C 
HETATM    5  C6  UNL     1     -31.928   7.306   0.998  1.00 20.00     0.009 C 
HETATM    6  C7  UNL     1     -32.184   8.296   2.987  1.00 20.00     0.019 C 
HETATM    7  C8  UNL     1     -33.041   7.015   3.130  1.00 20.00     0.055 C 
ENDROOT
BRANCH   7   8
HETATM    8  C3  UNL     1     -34.464   7.290   3.503  1.00 20.00     0.236 C 
HETATM    9  O9  UNL     1     -35.216   6.444   3.975  1.00 20.00    -0.306 OA
ENDBRANCH   7   8
TORSDOF 1
ENDMDL
MODEL 5
REMARK VINA RESULT:       0.9      2.084      3.445
REMARK  1 active torsions:
REMARK  status: ('A' for Active; 'I' for Inactive)
REMARK    1  A    between atoms: C3_3  and  C8_8 
ROOT
HETATM    1  C1  UNL     1     -33.899   7.257   4.770  1.00 20.00    -0.026 C 
HETATM    2  C2  UNL     1     -33.703   7.955   3.643  1.00 20.00    -0.025 C 
HETATM    3  C4  UNL     1     -35.637   6.731   3.340  1.00 20.00     0.017 C 
HETATM    4  C5  UNL     1     -33.918   5.099   3.568  1.00 20.00     0.021 C 
HETATM    5  C6  UNL     1     -34.766   6.074   4.417  1.00 20.00     0.009 C 
HETATM    6  C7  UNL     1     -34.433   7.229   2.532  1.00 20.00     0.019 C 
HETATM    7  C8  UNL     1     -33.719   5.887   2.241  1.00 20.00     0.055 C 
ENDROOT
BRANCH   7   8
HETATM    8  C3  UNL     1     -32.280   6.049   1.863  1.00 20.00     0.236 C 
HETATM    9  O9  UNL     1     -31.666   5.240   1.175  1.00 20.00    -0.306 OA
ENDBRANCH   7   8
TORSDOF 1
ENDMDL
MODEL 6
REMARK VINA RESULT:       1.2      2.479      3.449
REMARK  1 active torsions:
REMARK  status: ('A' for Active; 'I' for Inactive)
REMARK    1  A    between atoms: C3_3  and  C8_8 
ROOT
HETATM    1  C1  UNL     1     -33.167   6.589   1.960  1.00 20.00    -0.026 C 
HETATM    2  C2  UNL     1     -32.054   6.655   1.215  1.00 20.00    -0.025 C 
HETATM    3  C4  UNL     1     -31.660   7.910   3.112  1.00 20.00     0.017 C 
HETATM    4  C5  UNL     1     -33.430   9.044   1.994  1.00 20.00     0.021 C 
HETATM    5  C6  UNL     1     -33.169   7.795   2.866  1.00 20.00     0.009 C 
HETATM    6  C7  UNL     1     -31.318   7.916   1.617  1.00 20.00     0.019 C 
HETATM    7  C8  UNL     1     -32.125   9.152   1.152  1.00 20.00     0.055 C 
ENDROOT
BRANCH   7   8
HETATM    8  C3  UNL     1     -32.378   9.177  -0.323  1.00 20.00     0.236 C 
HETATM    9  O9  UNL     1     -33.073  10.022  -0.876  1.00 20.00    -0.306 OA
ENDBRANCH   7   8
TORSDOF 1
ENDMDL
MODEL 7
REMARK VINA RESULT:       1.3      1.922      3.069
REMARK  1 active torsions:
REMARK  status: ('A' for Active; 'I' for Inactive)
REMARK    1  A    between atoms: C3_3  and  C8_8 
ROOT
HETATM    1  C1  UNL     1     -32.933   7.790   4.582  1.00 20.00    -0.026 C 
HETATM    2  C2  UNL     1     -32.289   8.209   3.484  1.00 20.00    -0.025 C 
HETATM    3  C4  UNL     1     -34.543   8.239   2.985  1.00 20.00     0.017 C 
HETATM    4  C5  UNL     1     -34.040   5.944   3.371  1.00 20.00     0.021 C 
HETATM    5  C6  UNL     1     -34.277   7.265   4.138  1.00 20.00     0.009 C 
HETATM    6  C7  UNL     1     -33.200   7.951   2.303  1.00 20.00     0.019 C 
HETATM    7  C8  UNL     1     -33.326   6.426   2.074  1.00 20.00     0.055 C 
ENDROOT
BRANCH   7   8
HETATM    8  C3  UNL     1     -32.011   5.749   1.841  1.00 20.00     0.236 C 
HETATM    9  O9  UNL     1     -31.804   4.976   0.912  1.00 20.00    -0.306 OA
ENDBRANCH   7   8
TORSDOF 1
ENDMDL
MODEL 8
REMARK VINA RESULT:       1.3      2.017      3.302
REMARK  1 active torsions:
REMARK  status: ('A' for Active; 'I' for Inactive)
REMARK    1  A    between atoms: C3_3  and  C8_8 
ROOT
HETATM    1  C1  UNL     1     -35.456   6.571   3.724  1.00 20.00    -0.026 C 
HETATM    2  C2  UNL     1     -34.581   5.564   3.857  1.00 20.00    -0.025 C 
HETATM    3  C4  UNL     1     -33.568   7.445   4.732  1.00 20.00     0.017 C 
HETATM    4  C5  UNL     1     -33.864   7.938   2.421  1.00 20.00     0.021 C 
HETATM    5  C6  UNL     1     -34.664   7.855   3.742  1.00 20.00     0.009 C 
HETATM    6  C7  UNL     1     -33.200   6.179   3.951  1.00 20.00     0.019 C 
HETATM    7  C8  UNL     1     -32.819   6.796   2.584  1.00 20.00     0.055 C 
ENDROOT
BRANCH   7   8
HETATM    8  C3  UNL     1     -32.845   5.810   1.458  1.00 20.00     0.236 C 
HETATM    9  O9  UNL     1     -31.866   5.162   1.103  1.00 20.00    -0.306 OA
ENDBRANCH   7   8
TORSDOF 1
ENDMDL
MODEL 9
REMARK VINA RESULT:       1.3      1.934      3.163
REMARK  1 active torsions:
REMARK  status: ('A' for Active; 'I' for Inactive)
REMARK    1  A    between atoms: C3_3  and  C8_8 
ROOT
HETATM    1  C1  UNL     1     -35.442   6.803   2.828  1.00 20.00    -0.026 C 
HETATM    2  C2  UNL     1     -35.424   6.321   4.079  1.00 20.00    -0.025 C 
HETATM    3  C4  UNL     1     -33.471   7.520   3.799  1.00 20.00     0.017 C 
HETATM    4  C5  UNL     1     -33.299   5.716   2.253  1.00 20.00     0.021 C 
HETATM    5  C6  UNL     1     -34.011   7.077   2.435  1.00 20.00     0.009 C 
HETATM    6  C7  UNL     1     -33.975   6.262   4.516  1.00 20.00     0.019 C 
HETATM    7  C8  UNL     1     -33.239   5.167   3.708  1.00 20.00     0.055 C 
ENDROOT
BRANCH   7   8
HETATM    8  C3  UNL     1     -33.853   3.809   3.849  1.00 20.00     0.236 C 
HETATM    9  O9  UNL     1     -33.476   2.977   4.668  1.00 20.00    -0.306 OA
ENDBRANCH   7   8
TORSDOF 1
ENDMDL
