MODEL 1
REMARK VINA RESULT:       0.3      0.000      0.000
REMARK  1 active torsions:
REMARK  status: ('A' for Active; 'I' for Inactive)
REMARK    1  A    between atoms: C4_4  and  C12_12 
ROOT
HETATM    1  C1  UNL     1     -33.343   5.692   2.340  1.00 20.00     0.005 C 
HETATM    2  C2  UNL     1     -32.346   5.969   1.490  1.00 20.00     0.001 C 
HETATM    3  C3  UNL     1     -33.201   7.848   3.438  1.00 20.00    -0.012 C 
HETATM    4  C4  UNL     1     -33.848   6.681   3.272  1.00 20.00    -0.058 C 
HETATM    5  C5  UNL     1     -32.331   9.290   0.677  1.00 20.00     0.004 C 
HETATM    6  C6  UNL     1     -31.974   9.598   2.096  1.00 20.00     0.065 C 
HETATM    7  C7  UNL     1     -31.939   8.198   2.686  1.00 20.00     0.042 C 
HETATM    8  C8  UNL     1     -31.673   7.311   1.451  1.00 20.00     0.138 C 
HETATM    9  C9  UNL     1     -32.800  10.371  -0.240  1.00 20.00     0.065 C 
HETATM   10  N13 UNL     1     -32.180   8.065   0.280  1.00 20.00    -0.289 NA
ENDROOT
BRANCH   4  11
HETATM   11  C12 UNL     1     -35.085   6.323   4.037  1.00 20.00     0.010 C 
HETATM   12  C10 UNL     1     -36.328   6.612   3.199  1.00 20.00     0.015 C 
HETATM   13  C11 UNL     1     -35.051   4.860   4.470  1.00 20.00     0.015 C 
ENDBRANCH   4  11
TORSDOF 1
ENDMDL
MODEL 2
REMARK VINA RESULT:       0.5      0.656      1.163
REMARK  1 active torsions:
REMARK  status: ('A' for Active; 'I' for Inactive)
REMARK    1  A    between atoms: C4_4  and  C12_12 
ROOT
HETATM    1  C1  UNL     1     -32.664   5.529   1.814  1.00 20.00     0.005 C 
HETATM    2  C2  UNL     1     -31.695   6.125   1.107  1.00 20.00     0.001 C 
HETATM    3  C3  UNL     1     -33.140   7.520   3.112  1.00 20.00    -0.012 C 
HETATM    4  C4  UNL     1     -33.470   6.261   2.771  1.00 20.00    -0.058 C 
HETATM    5  C5  UNL     1     -32.414   9.429   0.604  1.00 20.00     0.004 C 
HETATM    6  C6  UNL     1     -32.263   9.647   2.076  1.00 20.00     0.065 C 
HETATM    7  C7  UNL     1     -31.941   8.236   2.537  1.00 20.00     0.042 C 
HETATM    8  C8  UNL     1     -31.365   7.581   1.263  1.00 20.00     0.138 C 
HETATM    9  C9  UNL     1     -33.050  10.470  -0.256  1.00 20.00     0.065 C 
HETATM   10  N13 UNL     1     -31.938   8.326   0.117  1.00 20.00    -0.289 NA
ENDROOT
BRANCH   4  11
HETATM   11  C12 UNL     1     -34.644   5.542   3.360  1.00 20.00     0.010 C 
HETATM   12  C10 UNL     1     -34.177   4.308   4.127  1.00 20.00     0.015 C 
HETATM   13  C11 UNL     1     -35.451   6.470   4.264  1.00 20.00     0.015 C 
ENDBRANCH   4  11
TORSDOF 1
ENDMDL
MODEL 3
REMARK VINA RESULT:       1.7      1.877      3.514
REMARK  1 active torsions:
REMARK  status: ('A' for Active; 'I' for Inactive)
REMARK    1  A    between atoms: C4_4  and  C12_12 
ROOT
HETATM    1  C1  UNL     1     -34.973   5.124   4.597  1.00 20.00     0.005 C 
HETATM    2  C2  UNL     1     -35.253   6.266   3.956  1.00 20.00     0.001 C 
HETATM    3  C3  UNL     1     -33.243   4.493   3.021  1.00 20.00    -0.012 C 
HETATM    4  C4  UNL     1     -33.884   4.262   4.180  1.00 20.00    -0.058 C 
HETATM    5  C5  UNL     1     -32.435   7.588   2.543  1.00 20.00     0.004 C 
HETATM    6  C6  UNL     1     -32.390   6.412   1.620  1.00 20.00     0.065 C 
HETATM    7  C7  UNL     1     -33.604   5.634   2.099  1.00 20.00     0.042 C 
HETATM    8  C8  UNL     1     -34.474   6.727   2.757  1.00 20.00     0.138 C 
HETATM    9  C9  UNL     1     -31.253   8.490   2.680  1.00 20.00     0.065 C 
HETATM   10  N13 UNL     1     -33.545   7.802   3.177  1.00 20.00    -0.289 NA
ENDROOT
BRANCH   4  11
HETATM   11  C12 UNL     1     -33.543   3.115   5.081  1.00 20.00     0.010 C 
HETATM   12  C10 UNL     1     -33.222   1.872   4.256  1.00 20.00     0.015 C 
HETATM   13  C11 UNL     1     -32.378   3.474   6.000  1.00 20.00     0.015 C 
ENDBRANCH   4  11
TORSDOF 1
ENDMDL
