MODEL 1
REMARK VINA RESULT:      -1.7      0.000      0.000
REMARK  1 active torsions:
REMARK  status: ('A' for Active; 'I' for Inactive)
REMARK    1  A    between atoms: C3_3  and  C6_6 
ROOT
HETATM    1  C1  UNL     1     -32.725   6.332   1.786  1.00 20.00     0.100 C 
HETATM    2  C2  UNL     1     -32.509   8.883   1.774  1.00 20.00     0.169 A 
HETATM    3  C3  UNL     1     -32.820   7.580   2.484  1.00 20.00     0.174 A 
HETATM    4  C4  UNL     1     -32.105   8.961   0.344  1.00 20.00     0.044 C 
HETATM    5  N7  UNL     1     -32.647   5.322   1.220  1.00 20.00    -0.194 NA
HETATM    6  O8  UNL     1     -31.552   8.243   2.626  1.00 20.00    -0.354 OA
ENDROOT
BRANCH   3   7
HETATM    7  C6  UNL     1     -33.648   7.608   3.727  1.00 20.00     0.052 C 
HETATM    8  C5  UNL     1     -34.734   6.565   3.729  1.00 20.00     0.009 C 
ENDBRANCH   3   7
TORSDOF 1
ENDMDL
MODEL 2
REMARK VINA RESULT:      -0.7      2.349      2.827
REMARK  1 active torsions:
REMARK  status: ('A' for Active; 'I' for Inactive)
REMARK    1  A    between atoms: C3_3  and  C6_6 
ROOT
HETATM    1  C1  UNL     1     -34.115   6.643   3.499  1.00 20.00     0.100 C 
HETATM    2  C2  UNL     1     -32.215   6.416   1.801  1.00 20.00     0.169 A 
HETATM    3  C3  UNL     1     -33.292   5.808   2.676  1.00 20.00     0.174 A 
HETATM    4  C4  UNL     1     -31.935   7.876   1.740  1.00 20.00     0.044 C 
HETATM    5  N7  UNL     1     -34.782   7.319   4.166  1.00 20.00    -0.194 NA
HETATM    6  O8  UNL     1     -33.489   6.034   1.271  1.00 20.00    -0.354 OA
ENDROOT
BRANCH   3   7
HETATM    7  C6  UNL     1     -33.204   4.361   3.040  1.00 20.00     0.052 C 
HETATM    8  C5  UNL     1     -33.990   4.021   4.278  1.00 20.00     0.009 C 
ENDBRANCH   3   7
TORSDOF 1
ENDMDL
MODEL 3
REMARK VINA RESULT:      -0.7      2.473      3.647
REMARK  1 active torsions:
REMARK  status: ('A' for Active; 'I' for Inactive)
REMARK    1  A    between atoms: C3_3  and  C6_6 
ROOT
HETATM    1  C1  UNL     1     -33.384   6.221   2.429  1.00 20.00     0.100 C 
HETATM    2  C2  UNL     1     -34.463   5.158   4.493  1.00 20.00     0.169 A 
HETATM    3  C3  UNL     1     -34.159   6.364   3.626  1.00 20.00     0.174 A 
HETATM    4  C4  UNL     1     -33.984   3.784   4.182  1.00 20.00     0.044 C 
HETATM    5  N7  UNL     1     -32.756   6.105   1.461  1.00 20.00    -0.194 NA
HETATM    6  O8  UNL     1     -35.420   5.677   3.563  1.00 20.00    -0.354 OA
ENDROOT
BRANCH   3   7
HETATM    7  C6  UNL     1     -34.256   7.731   4.221  1.00 20.00     0.052 C 
HETATM    8  C5  UNL     1     -32.926   8.259   4.690  1.00 20.00     0.009 C 
ENDBRANCH   3   7
TORSDOF 1
ENDMDL
MODEL 4
REMARK VINA RESULT:      -0.6      1.922      2.604
REMARK  1 active torsions:
REMARK  status: ('A' for Active; 'I' for Inactive)
REMARK    1  A    between atoms: C3_3  and  C6_6 
ROOT
HETATM    1  C1  UNL     1     -32.405   8.084   1.650  1.00 20.00     0.100 C 
HETATM    2  C2  UNL     1     -32.650   5.565   2.029  1.00 20.00     0.169 A 
HETATM    3  C3  UNL     1     -33.018   6.998   2.356  1.00 20.00     0.174 A 
HETATM    4  C4  UNL     1     -31.649   5.191   0.992  1.00 20.00     0.044 C 
HETATM    5  N7  UNL     1     -31.909   8.964   1.078  1.00 20.00    -0.194 NA
HETATM    6  O8  UNL     1     -33.839   6.172   1.513  1.00 20.00    -0.354 OA
ENDROOT
BRANCH   3   7
HETATM    7  C6  UNL     1     -33.643   7.306   3.678  1.00 20.00     0.052 C 
HETATM    8  C5  UNL     1     -34.972   6.624   3.869  1.00 20.00     0.009 C 
ENDBRANCH   3   7
TORSDOF 1
ENDMDL
MODEL 5
REMARK VINA RESULT:      -0.5      1.675      3.317
REMARK  1 active torsions:
REMARK  status: ('A' for Active; 'I' for Inactive)
REMARK    1  A    between atoms: C3_3  and  C6_6 
ROOT
HETATM    1  C1  UNL     1     -32.992   5.733   1.752  1.00 20.00     0.100 C 
HETATM    2  C2  UNL     1     -34.151   5.960   4.023  1.00 20.00     0.169 A 
HETATM    3  C3  UNL     1     -33.446   6.566   2.826  1.00 20.00     0.174 A 
HETATM    4  C4  UNL     1     -34.406   4.501   4.172  1.00 20.00     0.044 C 
HETATM    5  N7  UNL     1     -32.624   5.058   0.883  1.00 20.00    -0.194 NA
HETATM    6  O8  UNL     1     -34.877   6.582   2.957  1.00 20.00    -0.354 OA
ENDROOT
BRANCH   3   7
HETATM    7  C6  UNL     1     -32.821   7.917   2.957  1.00 20.00     0.052 C 
HETATM    8  C5  UNL     1     -31.962   8.280   1.774  1.00 20.00     0.009 C 
ENDBRANCH   3   7
TORSDOF 1
ENDMDL
MODEL 6
REMARK VINA RESULT:      -0.4      2.296      2.728
REMARK  1 active torsions:
REMARK  status: ('A' for Active; 'I' for Inactive)
REMARK    1  A    between atoms: C3_3  and  C6_6 
ROOT
HETATM    1  C1  UNL     1     -33.810   4.567   3.715  1.00 20.00     0.100 C 
HETATM    2  C2  UNL     1     -33.296   6.095   1.727  1.00 20.00     0.169 A 
HETATM    3  C3  UNL     1     -33.847   5.870   3.120  1.00 20.00     0.174 A 
HETATM    4  C4  UNL     1     -32.704   5.012   0.895  1.00 20.00     0.044 C 
HETATM    5  N7  UNL     1     -33.779   3.512   4.196  1.00 20.00    -0.194 NA
HETATM    6  O8  UNL     1     -32.540   6.424   2.897  1.00 20.00    -0.354 OA
ENDROOT
BRANCH   3   7
HETATM    7  C6  UNL     1     -34.821   6.853   3.685  1.00 20.00     0.052 C 
HETATM    8  C5  UNL     1     -34.160   7.913   4.526  1.00 20.00     0.009 C 
ENDBRANCH   3   7
TORSDOF 1
ENDMDL
MODEL 7
REMARK VINA RESULT:      -0.3      1.956      3.393
REMARK  1 active torsions:
REMARK  status: ('A' for Active; 'I' for Inactive)
REMARK    1  A    between atoms: C3_3  and  C6_6 
ROOT
HETATM    1  C1  UNL     1     -32.286   7.417   2.032  1.00 20.00     0.100 C 
HETATM    2  C2  UNL     1     -34.286   6.275   3.147  1.00 20.00     0.169 A 
HETATM    3  C3  UNL     1     -33.180   6.301   2.111  1.00 20.00     0.174 A 
HETATM    4  C4  UNL     1     -34.525   7.377   4.118  1.00 20.00     0.044 C 
HETATM    5  N7  UNL     1     -31.561   8.322   1.967  1.00 20.00    -0.194 NA
HETATM    6  O8  UNL     1     -33.056   5.569   3.342  1.00 20.00    -0.354 OA
ENDROOT
BRANCH   3   7
HETATM    7  C6  UNL     1     -33.290   5.424   0.906  1.00 20.00     0.052 C 
HETATM    8  C5  UNL     1     -32.002   4.716   0.579  1.00 20.00     0.009 C 
ENDBRANCH   3   7
TORSDOF 1
ENDMDL
MODEL 8
REMARK VINA RESULT:      -0.2      2.531      3.438
REMARK  1 active torsions:
REMARK  status: ('A' for Active; 'I' for Inactive)
REMARK    1  A    between atoms: C3_3  and  C6_6 
ROOT
HETATM    1  C1  UNL     1     -33.929   4.880   3.728  1.00 20.00     0.100 C 
HETATM    2  C2  UNL     1     -33.780   7.432   3.590  1.00 20.00     0.169 A 
HETATM    3  C3  UNL     1     -33.831   6.068   2.932  1.00 20.00     0.174 A 
HETATM    4  C4  UNL     1     -33.813   7.632   5.065  1.00 20.00     0.044 C 
HETATM    5  N7  UNL     1     -34.008   3.919   4.373  1.00 20.00    -0.194 NA
HETATM    6  O8  UNL     1     -34.992   6.910   3.035  1.00 20.00    -0.354 OA
ENDROOT
BRANCH   3   7
HETATM    7  C6  UNL     1     -33.329   5.915   1.532  1.00 20.00     0.052 C 
HETATM    8  C5  UNL     1     -31.942   5.332   1.470  1.00 20.00     0.009 C 
ENDBRANCH   3   7
TORSDOF 1
ENDMDL
MODEL 9
REMARK VINA RESULT:      -0.2      1.681      3.078
REMARK  1 active torsions:
REMARK  status: ('A' for Active; 'I' for Inactive)
REMARK    1  A    between atoms: C3_3  and  C6_6 
ROOT
HETATM    1  C1  UNL     1     -33.340   7.775   3.117  1.00 20.00     0.100 C 
HETATM    2  C2  UNL     1     -32.039   6.941   1.078  1.00 20.00     0.169 A 
HETATM    3  C3  UNL     1     -32.509   8.059   1.985  1.00 20.00     0.174 A 
HETATM    4  C4  UNL     1     -32.403   5.512   1.281  1.00 20.00     0.044 C 
HETATM    5  N7  UNL     1     -34.013   7.545   4.034  1.00 20.00    -0.194 NA
HETATM    6  O8  UNL     1     -31.194   7.488   2.096  1.00 20.00    -0.354 OA
ENDROOT
BRANCH   3   7
HETATM    7  C6  UNL     1     -32.506   9.463   1.473  1.00 20.00     0.052 C 
HETATM    8  C5  UNL     1     -32.459   9.536  -0.031  1.00 20.00     0.009 C 
ENDBRANCH   3   7
TORSDOF 1
ENDMDL
