MODEL 1
REMARK VINA RESULT:       0.2      0.000      0.000
REMARK  0 active torsions:
REMARK  status: ('A' for Active; 'I' for Inactive)
ROOT
HETATM    1  C1  UNL     1     -33.345   7.314   2.859  1.00 20.00    -0.017 C 
HETATM    2  C2  UNL     1     -32.608   6.553   1.803  1.00 20.00     0.159 C 
HETATM    3  C3  UNL     1     -34.368   6.859   3.577  1.00 20.00     0.023 C 
HETATM    4  C4  UNL     1     -32.905   9.403   1.596  1.00 20.00     0.010 C 
HETATM    5  C5  UNL     1     -32.154   8.583   0.516  1.00 20.00     0.013 C 
HETATM    6  C6  UNL     1     -31.176   8.168   2.654  1.00 20.00     0.022 C 
HETATM    7  C7  UNL     1     -32.615   8.638   2.904  1.00 20.00     0.022 C 
HETATM    8  C8  UNL     1     -31.492   7.461   1.330  1.00 20.00     0.061 C 
HETATM    9  O9  UNL     1     -32.887   5.447   1.380  1.00 20.00    -0.292 OA
ENDROOT
TORSDOF 0
ENDMDL
MODEL 2
REMARK VINA RESULT:       0.2      2.000      3.295
REMARK  0 active torsions:
REMARK  status: ('A' for Active; 'I' for Inactive)
ROOT
HETATM    1  C1  UNL     1     -33.232   5.932   2.401  1.00 20.00    -0.017 C 
HETATM    2  C2  UNL     1     -33.982   5.312   3.538  1.00 20.00     0.159 C 
HETATM    3  C3  UNL     1     -32.395   5.300   1.583  1.00 20.00     0.023 C 
HETATM    4  C4  UNL     1     -33.138   8.054   3.681  1.00 20.00     0.010 C 
HETATM    5  C5  UNL     1     -33.910   7.378   4.844  1.00 20.00     0.013 C 
HETATM    6  C6  UNL     1     -35.170   7.174   2.827  1.00 20.00     0.022 C 
HETATM    7  C7  UNL     1     -33.703   7.369   2.420  1.00 20.00     0.022 C 
HETATM    8  C8  UNL     1     -34.852   6.407   4.117  1.00 20.00     0.061 C 
HETATM    9  O9  UNL     1     -33.871   4.169   3.940  1.00 20.00    -0.292 OA
ENDROOT
TORSDOF 0
ENDMDL
MODEL 3
REMARK VINA RESULT:       0.3      1.771      2.794
REMARK  0 active torsions:
REMARK  status: ('A' for Active; 'I' for Inactive)
ROOT
HETATM    1  C1  UNL     1     -33.686   5.619   3.026  1.00 20.00    -0.017 C 
HETATM    2  C2  UNL     1     -33.666   7.097   3.261  1.00 20.00     0.159 C 
HETATM    3  C3  UNL     1     -34.142   4.702   3.875  1.00 20.00     0.023 C 
HETATM    4  C4  UNL     1     -31.626   5.854   1.666  1.00 20.00     0.010 C 
HETATM    5  C5  UNL     1     -31.632   7.381   1.934  1.00 20.00     0.013 C 
HETATM    6  C6  UNL     1     -33.718   6.735   0.969  1.00 20.00     0.022 C 
HETATM    7  C7  UNL     1     -33.123   5.484   1.629  1.00 20.00     0.022 C 
HETATM    8  C8  UNL     1     -33.129   7.719   1.989  1.00 20.00     0.061 C 
HETATM    9  O9  UNL     1     -33.975   7.671   4.288  1.00 20.00    -0.292 OA
ENDROOT
TORSDOF 0
ENDMDL
MODEL 4
REMARK VINA RESULT:       0.7      1.939      3.316
REMARK  0 active torsions:
REMARK  status: ('A' for Active; 'I' for Inactive)
ROOT
HETATM    1  C1  UNL     1     -33.646   7.564   4.208  1.00 20.00    -0.017 C 
HETATM    2  C2  UNL     1     -32.979   7.463   2.873  1.00 20.00     0.159 C 
HETATM    3  C3  UNL     1     -33.297   8.387   5.193  1.00 20.00     0.023 C 
HETATM    4  C4  UNL     1     -34.179   5.146   4.074  1.00 20.00     0.010 C 
HETATM    5  C5  UNL     1     -33.474   5.074   2.695  1.00 20.00     0.013 C 
HETATM    6  C6  UNL     1     -35.174   6.749   2.633  1.00 20.00     0.022 C 
HETATM    7  C7  UNL     1     -34.778   6.567   4.105  1.00 20.00     0.022 C 
HETATM    8  C8  UNL     1     -33.775   6.448   2.079  1.00 20.00     0.061 C 
HETATM    9  O9  UNL     1     -31.971   8.045   2.521  1.00 20.00    -0.292 OA
ENDROOT
TORSDOF 0
ENDMDL
MODEL 5
REMARK VINA RESULT:       0.8      1.748      3.124
REMARK  0 active torsions:
REMARK  status: ('A' for Active; 'I' for Inactive)
ROOT
HETATM    1  C1  UNL     1     -33.099   6.161   2.242  1.00 20.00    -0.017 C 
HETATM    2  C2  UNL     1     -32.800   7.610   2.460  1.00 20.00     0.159 C 
HETATM    3  C3  UNL     1     -32.697   5.430   1.205  1.00 20.00     0.023 C 
HETATM    4  C4  UNL     1     -35.266   6.480   3.404  1.00 20.00     0.010 C 
HETATM    5  C5  UNL     1     -34.928   7.979   3.607  1.00 20.00     0.013 C 
HETATM    6  C6  UNL     1     -33.183   6.637   4.531  1.00 20.00     0.022 C 
HETATM    7  C7  UNL     1     -33.892   5.783   3.472  1.00 20.00     0.022 C 
HETATM    8  C8  UNL     1     -33.404   7.968   3.801  1.00 20.00     0.061 C 
HETATM    9  O9  UNL     1     -32.229   8.356   1.687  1.00 20.00    -0.292 OA
ENDROOT
TORSDOF 0
ENDMDL
MODEL 6
REMARK VINA RESULT:       0.9      2.688      3.768
REMARK  0 active torsions:
REMARK  status: ('A' for Active; 'I' for Inactive)
ROOT
HETATM    1  C1  UNL     1     -33.831   4.836   3.716  1.00 20.00    -0.017 C 
HETATM    2  C2  UNL     1     -35.121   5.369   4.255  1.00 20.00     0.159 C 
HETATM    3  C3  UNL     1     -33.315   3.637   3.974  1.00 20.00     0.023 C 
HETATM    4  C4  UNL     1     -32.933   7.148   3.710  1.00 20.00     0.010 C 
HETATM    5  C5  UNL     1     -34.280   7.665   4.275  1.00 20.00     0.013 C 
HETATM    6  C6  UNL     1     -34.676   6.457   2.255  1.00 20.00     0.022 C 
HETATM    7  C7  UNL     1     -33.343   5.954   2.823  1.00 20.00     0.022 C 
HETATM    8  C8  UNL     1     -35.312   6.732   3.624  1.00 20.00     0.061 C 
HETATM    9  O9  UNL     1     -35.841   4.830   5.074  1.00 20.00    -0.292 OA
ENDROOT
TORSDOF 0
ENDMDL
MODEL 7
REMARK VINA RESULT:       1.1      1.757      2.950
REMARK  0 active torsions:
REMARK  status: ('A' for Active; 'I' for Inactive)
ROOT
HETATM    1  C1  UNL     1     -33.489   7.299   3.466  1.00 20.00    -0.017 C 
HETATM    2  C2  UNL     1     -32.462   7.553   2.408  1.00 20.00     0.159 C 
HETATM    3  C3  UNL     1     -33.703   8.055   4.540  1.00 20.00     0.023 C 
HETATM    4  C4  UNL     1     -33.217   4.865   3.082  1.00 20.00     0.010 C 
HETATM    5  C5  UNL     1     -32.152   5.162   1.996  1.00 20.00     0.013 C 
HETATM    6  C6  UNL     1     -34.176   6.309   1.460  1.00 20.00     0.022 C 
HETATM    7  C7  UNL     1     -34.192   6.055   2.973  1.00 20.00     0.022 C 
HETATM    8  C8  UNL     1     -32.653   6.471   1.366  1.00 20.00     0.061 C 
HETATM    9  O9  UNL     1     -31.615   8.426   2.415  1.00 20.00    -0.292 OA
ENDROOT
TORSDOF 0
ENDMDL
MODEL 8
REMARK VINA RESULT:       1.2      1.062      3.082
REMARK  0 active torsions:
REMARK  status: ('A' for Active; 'I' for Inactive)
ROOT
HETATM    1  C1  UNL     1     -32.868   7.590   2.342  1.00 20.00    -0.017 C 
HETATM    2  C2  UNL     1     -33.169   6.135   2.164  1.00 20.00     0.159 C 
HETATM    3  C3  UNL     1     -31.925   8.275   1.701  1.00 20.00     0.023 C 
HETATM    4  C4  UNL     1     -33.563   7.397   4.714  1.00 20.00     0.010 C 
HETATM    5  C5  UNL     1     -33.858   5.891   4.498  1.00 20.00     0.013 C 
HETATM    6  C6  UNL     1     -35.099   7.179   2.917  1.00 20.00     0.022 C 
HETATM    7  C7  UNL     1     -33.902   8.035   3.352  1.00 20.00     0.022 C 
HETATM    8  C8  UNL     1     -34.362   5.840   3.048  1.00 20.00     0.061 C 
HETATM    9  O9  UNL     1     -32.543   5.345   1.483  1.00 20.00    -0.292 OA
ENDROOT
TORSDOF 0
ENDMDL
MODEL 9
REMARK VINA RESULT:       1.2      1.685      2.238
REMARK  0 active torsions:
REMARK  status: ('A' for Active; 'I' for Inactive)
ROOT
HETATM    1  C1  UNL     1     -33.635   6.785   3.079  1.00 20.00    -0.017 C 
HETATM    2  C2  UNL     1     -33.372   5.314   3.002  1.00 20.00     0.159 C 
HETATM    3  C3  UNL     1     -34.339   7.403   4.024  1.00 20.00     0.023 C 
HETATM    4  C4  UNL     1     -33.602   6.873   0.601  1.00 20.00     0.010 C 
HETATM    5  C5  UNL     1     -33.337   5.346   0.558  1.00 20.00     0.013 C 
HETATM    6  C6  UNL     1     -31.659   6.407   1.883  1.00 20.00     0.022 C 
HETATM    7  C7  UNL     1     -32.883   7.332   1.886  1.00 20.00     0.022 C 
HETATM    8  C8  UNL     1     -32.471   5.108   1.803  1.00 20.00     0.061 C 
HETATM    9  O9  UNL     1     -33.835   4.457   3.732  1.00 20.00    -0.292 OA
ENDROOT
TORSDOF 0
ENDMDL
