MODEL 1
REMARK VINA RESULT:      -1.6      0.000      0.000
REMARK  3 active torsions:
REMARK  status: ('A' for Active; 'I' for Inactive)
REMARK    1  A    between atoms: C3_3  and  C4_4 
REMARK    2  A    between atoms: C3_3  and  S7_7 
REMARK    3  A    between atoms: C4_4  and  S8_8 
ROOT
HETATM    1  C1  UNL     1     -34.451   4.758   4.116  1.00 20.00     0.133 C 
HETATM    2  N5  UNL     1     -33.946   3.721   4.231  1.00 20.00    -0.184 NA
HETATM    3  S7  UNL     1     -35.200   6.264   3.950  1.00 20.00    -0.050 SA
ENDROOT
BRANCH   3   4
HETATM    4  C3  UNL     1     -33.716   7.261   3.622  1.00 20.00     0.101 C 
BRANCH   4   5
HETATM    5  C4  UNL     1     -33.258   7.063   2.184  1.00 20.00     0.101 C 
BRANCH   5   6
HETATM    6  S8  UNL     1     -31.691   7.941   1.899  1.00 20.00    -0.050 SA
HETATM    7  C2  UNL     1     -32.257   9.105   0.811  1.00 20.00     0.133 C 
HETATM    8  N6  UNL     1     -32.638   9.906   0.065  1.00 20.00    -0.184 NA
ENDBRANCH   5   6
ENDBRANCH   4   5
ENDBRANCH   3   4
TORSDOF 3
ENDMDL
MODEL 2
REMARK VINA RESULT:      -1.5      0.049      5.331
REMARK  3 active torsions:
REMARK  status: ('A' for Active; 'I' for Inactive)
REMARK    1  A    between atoms: C3_3  and  C4_4 
REMARK    2  A    between atoms: C3_3  and  S7_7 
REMARK    3  A    between atoms: C4_4  and  S8_8 
ROOT
HETATM    1  C1  UNL     1     -32.274   9.105   0.753  1.00 20.00     0.133 C 
HETATM    2  N5  UNL     1     -32.668   9.879  -0.015  1.00 20.00    -0.184 NA
HETATM    3  S7  UNL     1     -31.687   7.982   1.871  1.00 20.00    -0.050 SA
ENDROOT
BRANCH   3   4
HETATM    4  C3  UNL     1     -33.231   7.068   2.162  1.00 20.00     0.101 C 
BRANCH   4   5
HETATM    5  C4  UNL     1     -33.693   7.262   3.599  1.00 20.00     0.101 C 
BRANCH   5   6
HETATM    6  S8  UNL     1     -35.179   6.266   3.920  1.00 20.00    -0.050 SA
HETATM    7  C2  UNL     1     -34.432   4.759   4.093  1.00 20.00     0.133 C 
HETATM    8  N6  UNL     1     -33.926   3.723   4.213  1.00 20.00    -0.184 NA
ENDBRANCH   5   6
ENDBRANCH   4   5
ENDBRANCH   3   4
TORSDOF 3
ENDMDL
MODEL 3
REMARK VINA RESULT:      -1.1      1.290      1.393
REMARK  3 active torsions:
REMARK  status: ('A' for Active; 'I' for Inactive)
REMARK    1  A    between atoms: C3_3  and  C4_4 
REMARK    2  A    between atoms: C3_3  and  S7_7 
REMARK    3  A    between atoms: C4_4  and  S8_8 
ROOT
HETATM    1  C1  UNL     1     -34.840   5.822   4.055  1.00 20.00     0.133 C 
HETATM    2  N5  UNL     1     -35.497   5.012   4.563  1.00 20.00    -0.184 NA
HETATM    3  S7  UNL     1     -33.887   7.011   3.324  1.00 20.00    -0.050 SA
ENDROOT
BRANCH   3   4
HETATM    4  C3  UNL     1     -33.202   6.005   1.973  1.00 20.00     0.101 C 
BRANCH   4   5
HETATM    5  C4  UNL     1     -32.059   6.746   1.294  1.00 20.00     0.101 C 
BRANCH   5   6
HETATM    6  S8  UNL     1     -31.884   8.411   2.002  1.00 20.00    -0.050 SA
HETATM    7  C2  UNL     1     -32.312   9.305   0.633  1.00 20.00     0.133 C 
HETATM    8  N6  UNL     1     -32.604   9.926  -0.303  1.00 20.00    -0.184 NA
ENDBRANCH   5   6
ENDBRANCH   4   5
ENDBRANCH   3   4
TORSDOF 3
ENDMDL
MODEL 4
REMARK VINA RESULT:      -1.0      1.235      1.257
REMARK  3 active torsions:
REMARK  status: ('A' for Active; 'I' for Inactive)
REMARK    1  A    between atoms: C3_3  and  C4_4 
REMARK    2  A    between atoms: C3_3  and  S7_7 
REMARK    3  A    between atoms: C4_4  and  S8_8 
ROOT
HETATM    1  C1  UNL     1     -33.910   4.576   3.891  1.00 20.00     0.133 C 
HETATM    2  N5  UNL     1     -33.922   3.520   4.370  1.00 20.00    -0.184 NA
HETATM    3  S7  UNL     1     -33.899   6.120   3.204  1.00 20.00    -0.050 SA
ENDROOT
BRANCH   3   4
HETATM    4  C3  UNL     1     -33.092   5.702   1.630  1.00 20.00     0.101 C 
BRANCH   4   5
HETATM    5  C4  UNL     1     -31.924   6.643   1.374  1.00 20.00     0.101 C 
BRANCH   5   6
HETATM    6  S8  UNL     1     -32.205   8.233   2.208  1.00 20.00    -0.050 SA
HETATM    7  C2  UNL     1     -32.350   9.208   0.834  1.00 20.00     0.133 C 
HETATM    8  N6  UNL     1     -32.451   9.883  -0.103  1.00 20.00    -0.184 NA
ENDBRANCH   5   6
ENDBRANCH   4   5
ENDBRANCH   3   4
TORSDOF 3
ENDMDL
MODEL 5
REMARK VINA RESULT:      -1.0      1.230      5.301
REMARK  3 active torsions:
REMARK  status: ('A' for Active; 'I' for Inactive)
REMARK    1  A    between atoms: C3_3  and  C4_4 
REMARK    2  A    between atoms: C3_3  and  S7_7 
REMARK    3  A    between atoms: C4_4  and  S8_8 
ROOT
HETATM    1  C1  UNL     1     -32.354   9.240   0.804  1.00 20.00     0.133 C 
HETATM    2  N5  UNL     1     -32.415   9.894  -0.152  1.00 20.00    -0.184 NA
HETATM    3  S7  UNL     1     -32.266   8.297   2.204  1.00 20.00    -0.050 SA
ENDROOT
BRANCH   3   4
HETATM    4  C3  UNL     1     -31.907   6.697   1.421  1.00 20.00     0.101 C 
BRANCH   4   5
HETATM    5  C4  UNL     1     -33.063   5.732   1.644  1.00 20.00     0.101 C 
BRANCH   5   6
HETATM    6  S8  UNL     1     -33.918   6.128   3.198  1.00 20.00    -0.050 SA
HETATM    7  C2  UNL     1     -33.918   4.581   3.879  1.00 20.00     0.133 C 
HETATM    8  N6  UNL     1     -33.921   3.523   4.353  1.00 20.00    -0.184 NA
ENDBRANCH   5   6
ENDBRANCH   4   5
ENDBRANCH   3   4
TORSDOF 3
ENDMDL
MODEL 6
REMARK VINA RESULT:      -0.8      1.046      5.211
REMARK  3 active torsions:
REMARK  status: ('A' for Active; 'I' for Inactive)
REMARK    1  A    between atoms: C3_3  and  C4_4 
REMARK    2  A    between atoms: C3_3  and  S7_7 
REMARK    3  A    between atoms: C4_4  and  S8_8 
ROOT
HETATM    1  C1  UNL     1     -32.278   9.090   0.900  1.00 20.00     0.133 C 
HETATM    2  N5  UNL     1     -32.485  10.042   0.270  1.00 20.00    -0.184 NA
HETATM    3  S7  UNL     1     -31.968   7.699   1.807  1.00 20.00    -0.050 SA
ENDROOT
BRANCH   3   4
HETATM    4  C3  UNL     1     -32.974   8.107   3.265  1.00 20.00     0.101 C 
BRANCH   4   5
HETATM    5  C4  UNL     1     -33.981   6.998   3.535  1.00 20.00     0.101 C 
BRANCH   5   6
HETATM    6  S8  UNL     1     -33.613   5.551   2.498  1.00 20.00    -0.050 SA
HETATM    7  C2  UNL     1     -33.792   4.353   3.677  1.00 20.00     0.133 C 
HETATM    8  N6  UNL     1     -33.912   3.526   4.481  1.00 20.00    -0.184 NA
ENDBRANCH   5   6
ENDBRANCH   4   5
ENDBRANCH   3   4
TORSDOF 3
ENDMDL
MODEL 7
REMARK VINA RESULT:      -0.6      2.029      2.081
REMARK  3 active torsions:
REMARK  status: ('A' for Active; 'I' for Inactive)
REMARK    1  A    between atoms: C3_3  and  C4_4 
REMARK    2  A    between atoms: C3_3  and  S7_7 
REMARK    3  A    between atoms: C4_4  and  S8_8 
ROOT
HETATM    1  C1  UNL     1     -34.460   4.710   4.176  1.00 20.00     0.133 C 
HETATM    2  N5  UNL     1     -33.926   3.687   4.291  1.00 20.00    -0.184 NA
HETATM    3  S7  UNL     1     -35.248   6.195   4.007  1.00 20.00    -0.050 SA
ENDROOT
BRANCH   3   4
HETATM    4  C3  UNL     1     -33.790   7.278   4.089  1.00 20.00     0.101 C 
BRANCH   4   5
HETATM    5  C4  UNL     1     -33.673   8.098   2.813  1.00 20.00     0.101 C 
BRANCH   5   6
HETATM    6  S8  UNL     1     -32.052   7.822   2.037  1.00 20.00    -0.050 SA
HETATM    7  C2  UNL     1     -32.299   6.235   1.511  1.00 20.00     0.133 C 
HETATM    8  N6  UNL     1     -32.461   5.146   1.147  1.00 20.00    -0.184 NA
ENDBRANCH   5   6
ENDBRANCH   4   5
ENDBRANCH   3   4
TORSDOF 3
ENDMDL
MODEL 8
REMARK VINA RESULT:      -0.4      1.914      2.112
REMARK  3 active torsions:
REMARK  status: ('A' for Active; 'I' for Inactive)
REMARK    1  A    between atoms: C3_3  and  C4_4 
REMARK    2  A    between atoms: C3_3  and  S7_7 
REMARK    3  A    between atoms: C4_4  and  S8_8 
ROOT
HETATM    1  C1  UNL     1     -33.923   7.602   4.531  1.00 20.00     0.133 C 
HETATM    2  N5  UNL     1     -33.342   8.358   5.193  1.00 20.00    -0.184 NA
HETATM    3  S7  UNL     1     -34.780   6.505   3.574  1.00 20.00    -0.050 SA
ENDROOT
BRANCH   3   4
HETATM    4  C3  UNL     1     -33.376   5.801   2.659  1.00 20.00     0.101 C 
BRANCH   4   5
HETATM    5  C4  UNL     1     -33.062   6.656   1.441  1.00 20.00     0.101 C 
BRANCH   5   6
HETATM    6  S8  UNL     1     -31.759   7.860   1.839  1.00 20.00    -0.050 SA
HETATM    7  C2  UNL     1     -32.217   9.081   0.764  1.00 20.00     0.133 C 
HETATM    8  N6  UNL     1     -32.525   9.924   0.029  1.00 20.00    -0.184 NA
ENDBRANCH   5   6
ENDBRANCH   4   5
ENDBRANCH   3   4
TORSDOF 3
ENDMDL
MODEL 9
REMARK VINA RESULT:      -0.4      1.915      4.780
REMARK  3 active torsions:
REMARK  status: ('A' for Active; 'I' for Inactive)
REMARK    1  A    between atoms: C3_3  and  C4_4 
REMARK    2  A    between atoms: C3_3  and  S7_7 
REMARK    3  A    between atoms: C4_4  and  S8_8 
ROOT
HETATM    1  C1  UNL     1     -32.259   9.109   0.716  1.00 20.00     0.133 C 
HETATM    2  N5  UNL     1     -32.572   9.915  -0.056  1.00 20.00    -0.184 NA
HETATM    3  S7  UNL     1     -31.792   7.942   1.846  1.00 20.00    -0.050 SA
ENDROOT
BRANCH   3   4
HETATM    4  C3  UNL     1     -33.021   6.668   1.432  1.00 20.00     0.101 C 
BRANCH   4   5
HETATM    5  C4  UNL     1     -33.298   5.792   2.645  1.00 20.00     0.101 C 
BRANCH   5   6
HETATM    6  S8  UNL     1     -34.765   6.396   3.533  1.00 20.00    -0.050 SA
HETATM    7  C2  UNL     1     -34.007   7.563   4.494  1.00 20.00     0.133 C 
HETATM    8  N6  UNL     1     -33.494   8.365   5.156  1.00 20.00    -0.184 NA
ENDBRANCH   5   6
ENDBRANCH   4   5
ENDBRANCH   3   4
TORSDOF 3
ENDMDL
