MODEL 1
REMARK VINA RESULT:      -1.4      0.000      0.000
REMARK  0 active torsions:
REMARK  status: ('A' for Active; 'I' for Inactive)
ROOT
HETATM    1  C1  UNL     1     -33.939   6.562   3.255  1.00 20.00     0.282 C 
HETATM    2  C2  UNL     1     -33.312   5.873   2.062  1.00 20.00     0.278 C 
HETATM    3  C3  UNL     1     -32.223   8.260   3.004  1.00 20.00     0.205 C 
HETATM    4  C4  UNL     1     -32.059   7.775   1.586  1.00 20.00     0.195 C 
HETATM    5  O5  UNL     1     -34.887   6.063   3.858  1.00 20.00    -0.263 OA
HETATM    6  O6  UNL     1     -33.455   7.785   3.580  1.00 20.00    -0.318 OA
HETATM    7  O7  UNL     1     -32.059   6.356   1.633  1.00 20.00    -0.379 OA
ENDROOT
TORSDOF 0
ENDMDL
MODEL 2
REMARK VINA RESULT:      -1.3      1.185      1.881
REMARK  0 active torsions:
REMARK  status: ('A' for Active; 'I' for Inactive)
ROOT
HETATM    1  C1  UNL     1     -34.164   6.472   3.391  1.00 20.00     0.282 C 
HETATM    2  C2  UNL     1     -33.464   7.812   3.448  1.00 20.00     0.278 C 
HETATM    3  C3  UNL     1     -32.782   5.983   1.457  1.00 20.00     0.205 C 
HETATM    4  C4  UNL     1     -31.852   7.064   1.946  1.00 20.00     0.195 C 
HETATM    5  O5  UNL     1     -35.073   6.191   4.170  1.00 20.00    -0.263 OA
HETATM    6  O6  UNL     1     -33.696   5.573   2.492  1.00 20.00    -0.318 OA
HETATM    7  O7  UNL     1     -32.663   8.160   2.341  1.00 20.00    -0.379 OA
ENDROOT
TORSDOF 0
ENDMDL
MODEL 3
REMARK VINA RESULT:      -1.2      1.309      3.194
REMARK  0 active torsions:
REMARK  status: ('A' for Active; 'I' for Inactive)
ROOT
HETATM    1  C1  UNL     1     -32.691   7.276   2.372  1.00 20.00     0.282 C 
HETATM    2  C2  UNL     1     -33.325   8.156   3.428  1.00 20.00     0.278 C 
HETATM    3  C3  UNL     1     -34.056   5.472   3.249  1.00 20.00     0.205 C 
HETATM    4  C4  UNL     1     -34.941   6.535   3.847  1.00 20.00     0.195 C 
HETATM    5  O5  UNL     1     -31.814   7.704   1.625  1.00 20.00    -0.263 OA
HETATM    6  O6  UNL     1     -33.185   6.021   2.243  1.00 20.00    -0.318 OA
HETATM    7  O7  UNL     1     -34.084   7.509   4.424  1.00 20.00    -0.379 OA
ENDROOT
TORSDOF 0
ENDMDL
MODEL 4
REMARK VINA RESULT:      -1.2      1.928      3.047
REMARK  0 active torsions:
REMARK  status: ('A' for Active; 'I' for Inactive)
ROOT
HETATM    1  C1  UNL     1     -34.058   4.375   3.973  1.00 20.00     0.282 C 
HETATM    2  C2  UNL     1     -35.206   5.179   4.547  1.00 20.00     0.278 C 
HETATM    3  C3  UNL     1     -33.498   6.352   2.682  1.00 20.00     0.205 C 
HETATM    4  C4  UNL     1     -34.298   7.141   3.687  1.00 20.00     0.195 C 
HETATM    5  O5  UNL     1     -33.895   3.193   4.267  1.00 20.00    -0.263 OA
HETATM    6  O6  UNL     1     -33.183   5.039   3.180  1.00 20.00    -0.318 OA
HETATM    7  O7  UNL     1     -35.492   6.413   3.928  1.00 20.00    -0.379 OA
ENDROOT
TORSDOF 0
ENDMDL
MODEL 5
REMARK VINA RESULT:      -1.0      1.278      2.622
REMARK  0 active torsions:
REMARK  status: ('A' for Active; 'I' for Inactive)
ROOT
HETATM    1  C1  UNL     1     -32.387   7.533   2.026  1.00 20.00     0.282 C 
HETATM    2  C2  UNL     1     -32.658   6.086   1.676  1.00 20.00     0.278 C 
HETATM    3  C3  UNL     1     -34.125   7.311   3.705  1.00 20.00     0.205 C 
HETATM    4  C4  UNL     1     -33.911   5.821   3.619  1.00 20.00     0.195 C 
HETATM    5  O5  UNL     1     -31.572   8.203   1.395  1.00 20.00    -0.263 OA
HETATM    6  O6  UNL     1     -33.030   8.032   3.109  1.00 20.00    -0.318 OA
HETATM    7  O7  UNL     1     -33.809   5.498   2.240  1.00 20.00    -0.379 OA
ENDROOT
TORSDOF 0
ENDMDL
MODEL 6
REMARK VINA RESULT:      -0.9      1.059      2.836
REMARK  0 active torsions:
REMARK  status: ('A' for Active; 'I' for Inactive)
ROOT
HETATM    1  C1  UNL     1     -32.749   6.044   1.911  1.00 20.00     0.282 C 
HETATM    2  C2  UNL     1     -32.493   7.490   2.277  1.00 20.00     0.278 C 
HETATM    3  C3  UNL     1     -34.265   5.973   3.805  1.00 20.00     0.205 C 
HETATM    4  C4  UNL     1     -34.321   7.477   3.718  1.00 20.00     0.195 C 
HETATM    5  O5  UNL     1     -32.148   5.502   0.986  1.00 20.00    -0.263 OA
HETATM    6  O6  UNL     1     -33.721   5.400   2.601  1.00 20.00    -0.318 OA
HETATM    7  O7  UNL     1     -32.989   7.929   3.522  1.00 20.00    -0.379 OA
ENDROOT
TORSDOF 0
ENDMDL
MODEL 7
REMARK VINA RESULT:      -0.8      0.949      2.367
REMARK  0 active torsions:
REMARK  status: ('A' for Active; 'I' for Inactive)
ROOT
HETATM    1  C1  UNL     1     -32.858   6.049   1.802  1.00 20.00     0.282 C 
HETATM    2  C2  UNL     1     -33.802   5.950   2.981  1.00 20.00     0.278 C 
HETATM    3  C3  UNL     1     -32.411   8.322   2.523  1.00 20.00     0.205 C 
HETATM    4  C4  UNL     1     -32.932   7.913   3.877  1.00 20.00     0.195 C 
HETATM    5  O5  UNL     1     -32.733   5.123   1.003  1.00 20.00    -0.263 OA
HETATM    6  O6  UNL     1     -32.107   7.173   1.711  1.00 20.00    -0.318 OA
HETATM    7  O7  UNL     1     -34.108   7.151   3.654  1.00 20.00    -0.379 OA
ENDROOT
TORSDOF 0
ENDMDL
MODEL 8
REMARK VINA RESULT:       0.2      1.675      2.977
REMARK  0 active torsions:
REMARK  status: ('A' for Active; 'I' for Inactive)
ROOT
HETATM    1  C1  UNL     1     -34.237   7.088   3.704  1.00 20.00     0.282 C 
HETATM    2  C2  UNL     1     -33.267   6.229   2.923  1.00 20.00     0.278 C 
HETATM    3  C3  UNL     1     -35.310   5.021   4.385  1.00 20.00     0.205 C 
HETATM    4  C4  UNL     1     -34.022   4.324   4.026  1.00 20.00     0.195 C 
HETATM    5  O5  UNL     1     -34.182   8.315   3.663  1.00 20.00    -0.263 OA
HETATM    6  O6  UNL     1     -35.120   6.443   4.504  1.00 20.00    -0.318 OA
HETATM    7  O7  UNL     1     -33.592   4.864   2.785  1.00 20.00    -0.379 OA
ENDROOT
TORSDOF 0
ENDMDL
MODEL 9
REMARK VINA RESULT:       0.3      1.249      1.346
REMARK  0 active torsions:
REMARK  status: ('A' for Active; 'I' for Inactive)
ROOT
HETATM    1  C1  UNL     1     -33.195   5.664   2.466  1.00 20.00     0.282 C 
HETATM    2  C2  UNL     1     -32.101   5.947   1.459  1.00 20.00     0.278 C 
HETATM    3  C3  UNL     1     -32.986   7.984   3.144  1.00 20.00     0.205 C 
HETATM    4  C4  UNL     1     -32.336   8.236   1.808  1.00 20.00     0.195 C 
HETATM    5  O5  UNL     1     -33.665   4.536   2.600  1.00 20.00    -0.263 OA
HETATM    6  O6  UNL     1     -33.679   6.723   3.159  1.00 20.00    -0.318 OA
HETATM    7  O7  UNL     1     -31.419   7.175   1.588  1.00 20.00    -0.379 OA
ENDROOT
TORSDOF 0
ENDMDL
