MODEL 1
REMARK VINA RESULT:      -2.9      0.000      0.000
REMARK  3 active torsions:
REMARK  status: ('A' for Active; 'I' for Inactive)
REMARK    1  A    between atoms: C2_2  and  C8_8 
REMARK    2  A    between atoms: C4_4  and  C7_7 
REMARK    3  A    between atoms: C7_7  and  C8_8 
ROOT
HETATM    1  C7  UNL     1     -34.999   6.142   3.930  1.00 20.00     0.034 C 
ENDROOT
BRANCH   1   2
HETATM    2  C4  UNL     1     -34.262   4.848   3.722  1.00 20.00    -0.030 C 
HETATM    3  C3  UNL     1     -33.966   3.991   4.710  1.00 20.00    -0.035 C 
HETATM    4  C5  UNL     1     -33.234   2.706   4.503  1.00 20.00     0.035 C 
ENDBRANCH   1   2
BRANCH   1   5
HETATM    5  C8  UNL     1     -34.171   7.373   3.512  1.00 20.00     0.007 C 
HETATM    6  C6  UNL     1     -33.567   8.045   4.747  1.00 20.00     0.014 C 
BRANCH   5   7
HETATM    7  C2  UNL     1     -33.064   6.995   2.557  1.00 20.00    -0.032 C 
HETATM    8  C1  UNL     1     -32.187   7.867   2.046  1.00 20.00     0.007 C 
ENDBRANCH   5   7
ENDBRANCH   1   5
TORSDOF 3
ENDMDL
MODEL 2
REMARK VINA RESULT:      -2.9      1.966      5.162
REMARK  3 active torsions:
REMARK  status: ('A' for Active; 'I' for Inactive)
REMARK    1  A    between atoms: C2_2  and  C8_8 
REMARK    2  A    between atoms: C4_4  and  C7_7 
REMARK    3  A    between atoms: C7_7  and  C8_8 
ROOT
HETATM    1  C7  UNL     1     -32.027   7.740   2.163  1.00 20.00     0.034 C 
ENDROOT
BRANCH   1   2
HETATM    2  C4  UNL     1     -31.848   8.653   0.981  1.00 20.00    -0.030 C 
HETATM    3  C3  UNL     1     -32.671   9.673   0.696  1.00 20.00    -0.035 C 
HETATM    4  C5  UNL     1     -32.493  10.580  -0.476  1.00 20.00     0.035 C 
ENDBRANCH   1   2
BRANCH   1   5
HETATM    5  C8  UNL     1     -33.114   6.672   1.931  1.00 20.00     0.007 C 
HETATM    6  C6  UNL     1     -32.476   5.369   1.445  1.00 20.00     0.014 C 
BRANCH   5   7
HETATM    7  C2  UNL     1     -33.902   6.403   3.191  1.00 20.00    -0.032 C 
HETATM    8  C1  UNL     1     -34.261   7.351   4.065  1.00 20.00     0.007 C 
ENDBRANCH   5   7
ENDBRANCH   1   5
TORSDOF 3
ENDMDL
MODEL 3
REMARK VINA RESULT:      -2.7      1.785      3.160
REMARK  3 active torsions:
REMARK  status: ('A' for Active; 'I' for Inactive)
REMARK    1  A    between atoms: C2_2  and  C8_8 
REMARK    2  A    between atoms: C4_4  and  C7_7 
REMARK    3  A    between atoms: C7_7  and  C8_8 
ROOT
HETATM    1  C7  UNL     1     -32.903   8.287   2.820  1.00 20.00     0.034 C 
ENDROOT
BRANCH   1   2
HETATM    2  C4  UNL     1     -33.483   7.113   3.559  1.00 20.00    -0.030 C 
HETATM    3  C3  UNL     1     -34.796   6.850   3.629  1.00 20.00    -0.035 C 
HETATM    4  C5  UNL     1     -35.372   5.684   4.361  1.00 20.00     0.035 C 
ENDBRANCH   1   2
BRANCH   1   5
HETATM    5  C8  UNL     1     -31.895   7.867   1.732  1.00 20.00     0.007 C 
HETATM    6  C6  UNL     1     -32.149   6.418   1.311  1.00 20.00     0.014 C 
BRANCH   5   7
HETATM    7  C2  UNL     1     -31.986   8.762   0.519  1.00 20.00    -0.032 C 
HETATM    8  C1  UNL     1     -32.527   9.986   0.533  1.00 20.00     0.007 C 
ENDBRANCH   5   7
ENDBRANCH   1   5
TORSDOF 3
ENDMDL
MODEL 4
REMARK VINA RESULT:      -2.5      1.085      4.273
REMARK  3 active torsions:
REMARK  status: ('A' for Active; 'I' for Inactive)
REMARK    1  A    between atoms: C2_2  and  C8_8 
REMARK    2  A    between atoms: C4_4  and  C7_7 
REMARK    3  A    between atoms: C7_7  and  C8_8 
ROOT
HETATM    1  C7  UNL     1     -33.129   5.509   2.356  1.00 20.00     0.034 C 
ENDROOT
BRANCH   1   2
HETATM    2  C4  UNL     1     -33.105   6.859   1.692  1.00 20.00    -0.030 C 
HETATM    3  C3  UNL     1     -32.040   7.674   1.699  1.00 20.00    -0.035 C 
HETATM    4  C5  UNL     1     -32.015   9.012   1.039  1.00 20.00     0.035 C 
ENDBRANCH   1   2
BRANCH   1   5
HETATM    5  C8  UNL     1     -33.782   5.545   3.752  1.00 20.00     0.007 C 
HETATM    6  C6  UNL     1     -34.992   6.481   3.743  1.00 20.00     0.014 C 
BRANCH   5   7
HETATM    7  C2  UNL     1     -34.219   4.168   4.193  1.00 20.00    -0.032 C 
HETATM    8  C1  UNL     1     -33.375   3.202   4.574  1.00 20.00     0.007 C 
ENDBRANCH   5   7
ENDBRANCH   1   5
TORSDOF 3
ENDMDL
MODEL 5
REMARK VINA RESULT:      -2.2      2.204      4.852
REMARK  3 active torsions:
REMARK  status: ('A' for Active; 'I' for Inactive)
REMARK    1  A    between atoms: C2_2  and  C8_8 
REMARK    2  A    between atoms: C4_4  and  C7_7 
REMARK    3  A    between atoms: C7_7  and  C8_8 
ROOT
HETATM    1  C7  UNL     1     -32.175   8.197   2.618  1.00 20.00     0.034 C 
ENDROOT
BRANCH   1   2
HETATM    2  C4  UNL     1     -32.205   8.581   1.164  1.00 20.00    -0.030 C 
HETATM    3  C3  UNL     1     -32.599   9.783   0.718  1.00 20.00    -0.035 C 
HETATM    4  C5  UNL     1     -32.628  10.165  -0.724  1.00 20.00     0.035 C 
ENDBRANCH   1   2
BRANCH   1   5
HETATM    5  C8  UNL     1     -32.882   6.855   2.894  1.00 20.00     0.007 C 
HETATM    6  C6  UNL     1     -34.227   7.101   3.579  1.00 20.00     0.014 C 
BRANCH   5   7
HETATM    7  C2  UNL     1     -33.105   6.077   1.620  1.00 20.00    -0.032 C 
HETATM    8  C1  UNL     1     -32.287   5.113   1.179  1.00 20.00     0.007 C 
ENDBRANCH   5   7
ENDBRANCH   1   5
TORSDOF 3
ENDMDL
MODEL 6
REMARK VINA RESULT:      -2.2      1.872      3.061
REMARK  3 active torsions:
REMARK  status: ('A' for Active; 'I' for Inactive)
REMARK    1  A    between atoms: C2_2  and  C8_8 
REMARK    2  A    between atoms: C4_4  and  C7_7 
REMARK    3  A    between atoms: C7_7  and  C8_8 
ROOT
HETATM    1  C7  UNL     1     -32.623   8.203   3.217  1.00 20.00     0.034 C 
ENDROOT
BRANCH   1   2
HETATM    2  C4  UNL     1     -33.835   7.638   3.906  1.00 20.00    -0.030 C 
HETATM    3  C3  UNL     1     -34.357   6.435   3.628  1.00 20.00    -0.035 C 
HETATM    4  C5  UNL     1     -35.558   5.873   4.313  1.00 20.00     0.035 C 
ENDBRANCH   1   2
BRANCH   1   5
HETATM    5  C8  UNL     1     -32.587   7.873   1.711  1.00 20.00     0.007 C 
HETATM    6  C6  UNL     1     -32.064   9.075   0.922  1.00 20.00     0.014 C 
BRANCH   5   7
HETATM    7  C2  UNL     1     -31.714   6.673   1.430  1.00 20.00    -0.032 C 
HETATM    8  C1  UNL     1     -32.188   5.457   1.134  1.00 20.00     0.007 C 
ENDBRANCH   5   7
ENDBRANCH   1   5
TORSDOF 3
ENDMDL
MODEL 7
REMARK VINA RESULT:      -2.1      1.038      4.146
REMARK  3 active torsions:
REMARK  status: ('A' for Active; 'I' for Inactive)
REMARK    1  A    between atoms: C2_2  and  C8_8 
REMARK    2  A    between atoms: C4_4  and  C7_7 
REMARK    3  A    between atoms: C7_7  and  C8_8 
ROOT
HETATM    1  C7  UNL     1     -32.819   5.804   2.504  1.00 20.00     0.034 C 
ENDROOT
BRANCH   1   2
HETATM    2  C4  UNL     1     -32.821   6.946   1.524  1.00 20.00    -0.030 C 
HETATM    3  C3  UNL     1     -32.018   8.015   1.623  1.00 20.00    -0.035 C 
HETATM    4  C5  UNL     1     -32.018   9.147   0.651  1.00 20.00     0.035 C 
ENDBRANCH   1   2
BRANCH   1   5
HETATM    5  C8  UNL     1     -34.211   5.541   3.114  1.00 20.00     0.007 C 
HETATM    6  C6  UNL     1     -34.135   4.390   4.118  1.00 20.00     0.014 C 
BRANCH   5   7
HETATM    7  C2  UNL     1     -34.753   6.771   3.803  1.00 20.00    -0.032 C 
HETATM    8  C1  UNL     1     -34.023   7.569   4.592  1.00 20.00     0.007 C 
ENDBRANCH   5   7
ENDBRANCH   1   5
TORSDOF 3
ENDMDL
MODEL 8
REMARK VINA RESULT:      -2.0      1.146      1.764
REMARK  3 active torsions:
REMARK  status: ('A' for Active; 'I' for Inactive)
REMARK    1  A    between atoms: C2_2  and  C8_8 
REMARK    2  A    between atoms: C4_4  and  C7_7 
REMARK    3  A    between atoms: C7_7  and  C8_8 
ROOT
HETATM    1  C7  UNL     1     -34.336   6.087   3.333  1.00 20.00     0.034 C 
ENDROOT
BRANCH   1   2
HETATM    2  C4  UNL     1     -34.354   4.794   4.101  1.00 20.00    -0.030 C 
HETATM    3  C3  UNL     1     -33.364   3.891   4.064  1.00 20.00    -0.035 C 
HETATM    4  C5  UNL     1     -33.381   2.608   4.827  1.00 20.00     0.035 C 
ENDBRANCH   1   2
BRANCH   1   5
HETATM    5  C8  UNL     1     -33.001   6.325   2.600  1.00 20.00     0.007 C 
HETATM    6  C6  UNL     1     -33.043   5.688   1.210  1.00 20.00     0.014 C 
BRANCH   5   7
HETATM    7  C2  UNL     1     -32.700   7.799   2.466  1.00 20.00    -0.032 C 
HETATM    8  C1  UNL     1     -31.960   8.324   1.482  1.00 20.00     0.007 C 
ENDBRANCH   5   7
ENDBRANCH   1   5
TORSDOF 3
ENDMDL
MODEL 9
REMARK VINA RESULT:      -1.9      1.727      3.244
REMARK  3 active torsions:
REMARK  status: ('A' for Active; 'I' for Inactive)
REMARK    1  A    between atoms: C2_2  and  C8_8 
REMARK    2  A    between atoms: C4_4  and  C7_7 
REMARK    3  A    between atoms: C7_7  and  C8_8 
ROOT
HETATM    1  C7  UNL     1     -32.986   7.928   2.521  1.00 20.00     0.034 C 
ENDROOT
BRANCH   1   2
HETATM    2  C4  UNL     1     -32.206   6.963   1.671  1.00 20.00    -0.030 C 
HETATM    3  C3  UNL     1     -32.585   5.698   1.441  1.00 20.00    -0.035 C 
HETATM    4  C5  UNL     1     -31.812   4.740   0.597  1.00 20.00     0.035 C 
ENDBRANCH   1   2
BRANCH   1   5
HETATM    5  C8  UNL     1     -33.448   7.308   3.854  1.00 20.00     0.007 C 
HETATM    6  C6  UNL     1     -33.249   8.307   4.996  1.00 20.00     0.014 C 
BRANCH   5   7
HETATM    7  C2  UNL     1     -34.900   6.897   3.798  1.00 20.00    -0.032 C 
HETATM    8  C1  UNL     1     -35.355   5.703   4.196  1.00 20.00     0.007 C 
ENDBRANCH   5   7
ENDBRANCH   1   5
TORSDOF 3
ENDMDL
