MODEL 1
REMARK VINA RESULT:      -1.3      0.000      0.000
REMARK  1 active torsions:
REMARK  status: ('A' for Active; 'I' for Inactive)
REMARK    1  A    between atoms: C1_1  and  N7_7 
ROOT
HETATM    1  C2  UNL     1     -33.882   6.087   3.271  1.00 20.00     0.003 C 
HETATM    2  C3  UNL     1     -33.886   7.602   3.481  1.00 20.00     0.020 C 
HETATM    3  C4  UNL     1     -33.406   5.732   1.861  1.00 20.00     0.020 C 
HETATM    4  C5  UNL     1     -32.525   8.210   3.154  1.00 20.00     0.123 C 
HETATM    5  C6  UNL     1     -32.053   6.367   1.557  1.00 20.00     0.123 C 
HETATM    6  N7  UNL     1     -32.076   7.799   1.829  1.00 20.00    -0.381 N 
ENDROOT
BRANCH   6   7
HETATM    7  C1  UNL     1     -31.635   8.702   0.918  1.00 20.00     0.168 C 
HETATM    8  S8  UNL     1     -32.597   9.905   0.287  1.00 20.00    -0.074 SA
ENDBRANCH   6   7
TORSDOF 1
ENDMDL
MODEL 2
REMARK VINA RESULT:      -1.0      3.040      3.850
REMARK  1 active torsions:
REMARK  status: ('A' for Active; 'I' for Inactive)
REMARK    1  A    between atoms: C1_1  and  N7_7 
ROOT
HETATM    1  C2  UNL     1     -32.329   7.863   2.177  1.00 20.00     0.003 C 
HETATM    2  C3  UNL     1     -32.881   7.994   3.597  1.00 20.00     0.020 C 
HETATM    3  C4  UNL     1     -32.190   6.393   1.778  1.00 20.00     0.020 C 
HETATM    4  C5  UNL     1     -34.187   7.219   3.757  1.00 20.00     0.123 C 
HETATM    5  C6  UNL     1     -33.504   5.642   1.965  1.00 20.00     0.123 C 
HETATM    6  N7  UNL     1     -34.032   5.840   3.309  1.00 20.00    -0.381 N 
ENDROOT
BRANCH   6   7
HETATM    7  C1  UNL     1     -34.427   4.796   4.079  1.00 20.00     0.168 C 
HETATM    8  S8  UNL     1     -33.483   3.451   4.345  1.00 20.00    -0.074 SA
ENDBRANCH   6   7
TORSDOF 1
ENDMDL
MODEL 3
REMARK VINA RESULT:      -0.6      1.075      2.128
REMARK  1 active torsions:
REMARK  status: ('A' for Active; 'I' for Inactive)
REMARK    1  A    between atoms: C1_1  and  N7_7 
ROOT
HETATM    1  C2  UNL     1     -34.658   5.773   4.002  1.00 20.00     0.003 C 
HETATM    2  C3  UNL     1     -33.539   5.098   3.209  1.00 20.00     0.020 C 
HETATM    3  C4  UNL     1     -34.326   7.240   4.277  1.00 20.00     0.020 C 
HETATM    4  C5  UNL     1     -33.220   5.872   1.933  1.00 20.00     0.123 C 
HETATM    5  C6  UNL     1     -33.996   7.983   2.986  1.00 20.00     0.123 C 
HETATM    6  N7  UNL     1     -32.970   7.279   2.226  1.00 20.00    -0.381 N 
ENDROOT
BRANCH   6   7
HETATM    7  C1  UNL     1     -31.870   7.917   1.755  1.00 20.00     0.168 C 
HETATM    8  S8  UNL     1     -31.945   9.214   0.714  1.00 20.00    -0.074 SA
ENDBRANCH   6   7
TORSDOF 1
ENDMDL
MODEL 4
REMARK VINA RESULT:      -0.4      1.792      2.334
REMARK  1 active torsions:
REMARK  status: ('A' for Active; 'I' for Inactive)
REMARK    1  A    between atoms: C1_1  and  N7_7 
ROOT
HETATM    1  C2  UNL     1     -35.198   5.024   4.673  1.00 20.00     0.003 C 
HETATM    2  C3  UNL     1     -35.491   6.362   3.993  1.00 20.00     0.020 C 
HETATM    3  C4  UNL     1     -34.258   4.171   3.819  1.00 20.00     0.020 C 
HETATM    4  C5  UNL     1     -34.202   7.095   3.634  1.00 20.00     0.123 C 
HETATM    5  C6  UNL     1     -32.987   4.935   3.463  1.00 20.00     0.123 C 
HETATM    6  N7  UNL     1     -33.305   6.231   2.875  1.00 20.00    -0.381 N 
ENDROOT
BRANCH   6   7
HETATM    7  C1  UNL     1     -32.740   6.642   1.712  1.00 20.00     0.168 C 
HETATM    8  S8  UNL     1     -31.924   8.084   1.554  1.00 20.00    -0.074 SA
ENDBRANCH   6   7
TORSDOF 1
ENDMDL
MODEL 5
REMARK VINA RESULT:      -0.1      2.728      3.850
REMARK  1 active torsions:
REMARK  status: ('A' for Active; 'I' for Inactive)
REMARK    1  A    between atoms: C1_1  and  N7_7 
ROOT
HETATM    1  C2  UNL     1     -31.685   7.145   1.190  1.00 20.00     0.003 C 
HETATM    2  C3  UNL     1     -32.597   5.917   1.171  1.00 20.00     0.020 C 
HETATM    3  C4  UNL     1     -32.359   8.316   1.908  1.00 20.00     0.020 C 
HETATM    4  C5  UNL     1     -33.060   5.550   2.578  1.00 20.00     0.123 C 
HETATM    5  C6  UNL     1     -32.825   7.914   3.304  1.00 20.00     0.123 C 
HETATM    6  N7  UNL     1     -33.639   6.705   3.254  1.00 20.00    -0.381 N 
ENDROOT
BRANCH   6   7
HETATM    7  C1  UNL     1     -34.847   6.636   3.867  1.00 20.00     0.168 C 
HETATM    8  S8  UNL     1     -35.449   5.238   4.541  1.00 20.00    -0.074 SA
ENDBRANCH   6   7
TORSDOF 1
ENDMDL
MODEL 6
REMARK VINA RESULT:       0.6      2.609      3.423
REMARK  1 active torsions:
REMARK  status: ('A' for Active; 'I' for Inactive)
REMARK    1  A    between atoms: C1_1  and  N7_7 
ROOT
HETATM    1  C2  UNL     1     -31.465   6.845   1.037  1.00 20.00     0.003 C 
HETATM    2  C3  UNL     1     -31.671   8.001   2.017  1.00 20.00     0.020 C 
HETATM    3  C4  UNL     1     -32.051   5.546   1.593  1.00 20.00     0.020 C 
HETATM    4  C5  UNL     1     -33.140   8.143   2.404  1.00 20.00     0.123 C 
HETATM    5  C6  UNL     1     -33.514   5.723   1.986  1.00 20.00     0.123 C 
HETATM    6  N7  UNL     1     -33.681   6.871   2.869  1.00 20.00    -0.381 N 
ENDROOT
BRANCH   6   7
HETATM    7  C1  UNL     1     -34.368   6.777   4.035  1.00 20.00     0.168 C 
HETATM    8  S8  UNL     1     -35.359   5.493   4.409  1.00 20.00    -0.074 SA
ENDBRANCH   6   7
TORSDOF 1
ENDMDL
MODEL 7
REMARK VINA RESULT:       0.7      2.322      2.829
REMARK  1 active torsions:
REMARK  status: ('A' for Active; 'I' for Inactive)
REMARK    1  A    between atoms: C1_1  and  N7_7 
ROOT
HETATM    1  C2  UNL     1     -34.346   7.612   4.431  1.00 20.00     0.003 C 
HETATM    2  C3  UNL     1     -33.584   8.320   3.310  1.00 20.00     0.020 C 
HETATM    3  C4  UNL     1     -34.960   6.302   3.933  1.00 20.00     0.020 C 
HETATM    4  C5  UNL     1     -32.550   7.396   2.674  1.00 20.00     0.123 C 
HETATM    5  C6  UNL     1     -33.906   5.408   3.288  1.00 20.00     0.123 C 
HETATM    6  N7  UNL     1     -33.159   6.134   2.269  1.00 20.00    -0.381 N 
ENDROOT
BRANCH   6   7
HETATM    7  C1  UNL     1     -32.978   5.627   1.023  1.00 20.00     0.168 C 
HETATM    8  S8  UNL     1     -31.714   4.622   0.622  1.00 20.00    -0.074 SA
ENDBRANCH   6   7
TORSDOF 1
ENDMDL
MODEL 8
REMARK VINA RESULT:       1.0      2.167      2.899
REMARK  1 active torsions:
REMARK  status: ('A' for Active; 'I' for Inactive)
REMARK    1  A    between atoms: C1_1  and  N7_7 
ROOT
HETATM    1  C2  UNL     1     -34.249   7.733   4.256  1.00 20.00     0.003 C 
HETATM    2  C3  UNL     1     -34.444   6.278   3.826  1.00 20.00     0.020 C 
HETATM    3  C4  UNL     1     -32.829   8.210   3.947  1.00 20.00     0.020 C 
HETATM    4  C5  UNL     1     -34.066   6.079   2.361  1.00 20.00     0.123 C 
HETATM    5  C6  UNL     1     -32.475   7.982   2.481  1.00 20.00     0.123 C 
HETATM    6  N7  UNL     1     -32.731   6.601   2.091  1.00 20.00    -0.381 N 
ENDROOT
BRANCH   6   7
HETATM    7  C1  UNL     1     -31.797   5.860   1.445  1.00 20.00     0.168 C 
HETATM    8  S8  UNL     1     -32.173   4.548   0.492  1.00 20.00    -0.074 SA
ENDBRANCH   6   7
TORSDOF 1
ENDMDL
MODEL 9
REMARK VINA RESULT:       1.2      3.160      4.215
REMARK  1 active torsions:
REMARK  status: ('A' for Active; 'I' for Inactive)
REMARK    1  A    between atoms: C1_1  and  N7_7 
ROOT
HETATM    1  C2  UNL     1     -32.617   7.918   1.836  1.00 20.00     0.003 C 
HETATM    2  C3  UNL     1     -32.564   6.518   1.223  1.00 20.00     0.020 C 
HETATM    3  C4  UNL     1     -33.709   8.006   2.903  1.00 20.00     0.020 C 
HETATM    4  C5  UNL     1     -32.415   5.447   2.300  1.00 20.00     0.123 C 
HETATM    5  C6  UNL     1     -33.543   6.915   3.956  1.00 20.00     0.123 C 
HETATM    6  N7  UNL     1     -33.434   5.602   3.332  1.00 20.00    -0.381 N 
ENDROOT
BRANCH   6   7
HETATM    7  C1  UNL     1     -34.194   4.555   3.741  1.00 20.00     0.168 C 
HETATM    8  S8  UNL     1     -33.567   3.213   4.500  1.00 20.00    -0.074 SA
ENDBRANCH   6   7
TORSDOF 1
ENDMDL
