MODEL 1
REMARK VINA RESULT:      -1.4      0.000      0.000
REMARK  4 active torsions:
REMARK  status: ('A' for Active; 'I' for Inactive)
REMARK    1  A    between atoms: C1_1  and  C9_9 
REMARK    2  A    between atoms: C2_2  and  C7_7 
REMARK    3  A    between atoms: C2_2  and  C9_9 
REMARK    4  A    between atoms: C7_7  and  C8_8 
ROOT
HETATM    1  C5  UNL     1     -35.719   7.058   2.974  1.00 20.00     0.031 C 
HETATM    2  C6  UNL     1     -33.972   7.481   4.712  1.00 20.00     0.031 C 
HETATM    3  C9  UNL     1     -34.393   6.555   3.558  1.00 20.00     0.073 C 
ENDROOT
BRANCH   3   4
HETATM    4  C1  UNL     1     -34.519   5.134   4.135  1.00 20.00     0.138 C 
HETATM    5  C3  UNL     1     -33.370   4.172   3.953  1.00 20.00     0.092 C 
HETATM    6  O10 UNL     1     -35.548   4.762   4.706  1.00 20.00    -0.297 OA
ENDBRANCH   3   4
BRANCH   3   7
HETATM    7  C2  UNL     1     -33.319   6.606   2.445  1.00 20.00     0.142 C 
HETATM    8  O11 UNL     1     -33.235   5.725   1.587  1.00 20.00    -0.297 OA
BRANCH   7   9
HETATM    9  C7  UNL     1     -32.351   7.785   2.459  1.00 20.00     0.079 C 
BRANCH   9  10
HETATM   10  C8  UNL     1     -31.836   8.165   1.073  1.00 20.00     0.003 C 
HETATM   11  C4  UNL     1     -32.384   9.502   0.593  1.00 20.00     0.005 C 
ENDBRANCH   9  10
ENDBRANCH   7   9
ENDBRANCH   3   7
TORSDOF 4
ENDMDL
MODEL 2
REMARK VINA RESULT:      -1.2      1.585      2.699
REMARK  4 active torsions:
REMARK  status: ('A' for Active; 'I' for Inactive)
REMARK    1  A    between atoms: C1_1  and  C9_9 
REMARK    2  A    between atoms: C2_2  and  C7_7 
REMARK    3  A    between atoms: C2_2  and  C9_9 
REMARK    4  A    between atoms: C7_7  and  C8_8 
ROOT
HETATM    1  C5  UNL     1     -31.780   5.203   1.580  1.00 20.00     0.031 C 
HETATM    2  C6  UNL     1     -33.845   6.258   0.644  1.00 20.00     0.031 C 
HETATM    3  C9  UNL     1     -32.904   6.209   1.860  1.00 20.00     0.073 C 
ENDROOT
BRANCH   3   4
HETATM    4  C1  UNL     1     -33.753   5.800   3.077  1.00 20.00     0.138 C 
HETATM    5  C3  UNL     1     -34.728   6.800   3.650  1.00 20.00     0.092 C 
HETATM    6  O10 UNL     1     -33.623   4.694   3.607  1.00 20.00    -0.297 OA
ENDBRANCH   3   4
BRANCH   3   7
HETATM    7  C2  UNL     1     -32.270   7.604   2.072  1.00 20.00     0.142 C 
HETATM    8  O11 UNL     1     -32.161   8.101   3.195  1.00 20.00    -0.297 OA
BRANCH   7   9
HETATM    9  C7  UNL     1     -31.797   8.354   0.831  1.00 20.00     0.079 C 
BRANCH   9  10
HETATM   10  C8  UNL     1     -32.339   9.779   0.738  1.00 20.00     0.003 C 
HETATM   11  C4  UNL     1     -32.836  10.124  -0.658  1.00 20.00     0.005 C 
ENDBRANCH   9  10
ENDBRANCH   7   9
ENDBRANCH   3   7
TORSDOF 4
ENDMDL
MODEL 3
REMARK VINA RESULT:      -1.0      0.864      4.300
REMARK  4 active torsions:
REMARK  status: ('A' for Active; 'I' for Inactive)
REMARK    1  A    between atoms: C1_1  and  C9_9 
REMARK    2  A    between atoms: C2_2  and  C7_7 
REMARK    3  A    between atoms: C2_2  and  C9_9 
REMARK    4  A    between atoms: C7_7  and  C8_8 
ROOT
HETATM    1  C5  UNL     1     -33.801   7.442   4.662  1.00 20.00     0.031 C 
HETATM    2  C6  UNL     1     -35.600   7.072   2.965  1.00 20.00     0.031 C 
HETATM    3  C9  UNL     1     -34.250   6.556   3.493  1.00 20.00     0.073 C 
ENDROOT
BRANCH   3   4
HETATM    4  C1  UNL     1     -33.254   6.599   2.321  1.00 20.00     0.138 C 
HETATM    5  C3  UNL     1     -32.330   7.785   2.199  1.00 20.00     0.092 C 
HETATM    6  O10 UNL     1     -33.226   5.706   1.470  1.00 20.00    -0.297 OA
ENDBRANCH   3   4
BRANCH   3   7
HETATM    7  C2  UNL     1     -34.427   5.110   4.016  1.00 20.00     0.142 C 
HETATM    8  O11 UNL     1     -35.438   4.764   4.629  1.00 20.00    -0.297 OA
BRANCH   7   9
HETATM    9  C7  UNL     1     -33.288   4.129   3.759  1.00 20.00     0.079 C 
BRANCH   9  10
HETATM   10  C8  UNL     1     -33.337   2.892   4.655  1.00 20.00     0.003 C 
HETATM   11  C4  UNL     1     -32.616   3.102   5.979  1.00 20.00     0.005 C 
ENDBRANCH   9  10
ENDBRANCH   7   9
ENDBRANCH   3   7
TORSDOF 4
ENDMDL
MODEL 4
REMARK VINA RESULT:      -0.9      0.896      1.064
REMARK  4 active torsions:
REMARK  status: ('A' for Active; 'I' for Inactive)
REMARK    1  A    between atoms: C1_1  and  C9_9 
REMARK    2  A    between atoms: C2_2  and  C7_7 
REMARK    3  A    between atoms: C2_2  and  C9_9 
REMARK    4  A    between atoms: C7_7  and  C8_8 
ROOT
HETATM    1  C5  UNL     1     -35.486   7.255   2.939  1.00 20.00     0.031 C 
HETATM    2  C6  UNL     1     -33.651   7.598   4.603  1.00 20.00     0.031 C 
HETATM    3  C9  UNL     1     -34.138   6.719   3.439  1.00 20.00     0.073 C 
ENDROOT
BRANCH   3   4
HETATM    4  C1  UNL     1     -34.252   5.279   3.971  1.00 20.00     0.138 C 
HETATM    5  C3  UNL     1     -35.468   4.900   4.781  1.00 20.00     0.092 C 
HETATM    6  O10 UNL     1     -33.358   4.451   3.777  1.00 20.00    -0.297 OA
ENDBRANCH   3   4
BRANCH   3   7
HETATM    7  C2  UNL     1     -33.120   6.800   2.277  1.00 20.00     0.142 C 
HETATM    8  O11 UNL     1     -33.022   5.902   1.439  1.00 20.00    -0.297 OA
BRANCH   7   9
HETATM    9  C7  UNL     1     -32.223   8.033   2.217  1.00 20.00     0.079 C 
BRANCH   9  10
HETATM   10  C8  UNL     1     -31.860   8.452   0.794  1.00 20.00     0.003 C 
HETATM   11  C4  UNL     1     -32.454   9.801   0.414  1.00 20.00     0.005 C 
ENDBRANCH   9  10
ENDBRANCH   7   9
ENDBRANCH   3   7
TORSDOF 4
ENDMDL
MODEL 5
REMARK VINA RESULT:      -0.8      1.727      4.604
REMARK  4 active torsions:
REMARK  status: ('A' for Active; 'I' for Inactive)
REMARK    1  A    between atoms: C1_1  and  C9_9 
REMARK    2  A    between atoms: C2_2  and  C7_7 
REMARK    3  A    between atoms: C2_2  and  C9_9 
REMARK    4  A    between atoms: C7_7  and  C8_8 
ROOT
HETATM    1  C5  UNL     1     -33.668   6.373   0.435  1.00 20.00     0.031 C 
HETATM    2  C6  UNL     1     -31.639   5.472   1.586  1.00 20.00     0.031 C 
HETATM    3  C9  UNL     1     -32.814   6.457   1.707  1.00 20.00     0.073 C 
ENDROOT
BRANCH   3   4
HETATM    4  C1  UNL     1     -32.215   7.861   1.908  1.00 20.00     0.138 C 
HETATM    5  C3  UNL     1     -32.307   8.856   0.777  1.00 20.00     0.092 C 
HETATM    6  O10 UNL     1     -31.635   8.167   2.952  1.00 20.00    -0.297 OA
ENDBRANCH   3   4
BRANCH   3   7
HETATM    7  C2  UNL     1     -33.695   6.055   2.914  1.00 20.00     0.142 C 
HETATM    8  O11 UNL     1     -34.153   6.896   3.689  1.00 20.00    -0.297 OA
BRANCH   7   9
HETATM    9  C7  UNL     1     -33.964   4.567   3.120  1.00 20.00     0.079 C 
BRANCH   9  10
HETATM   10  C8  UNL     1     -33.977   4.150   4.589  1.00 20.00     0.003 C 
HETATM   11  C4  UNL     1     -33.145   2.903   4.849  1.00 20.00     0.005 C 
ENDBRANCH   9  10
ENDBRANCH   7   9
ENDBRANCH   3   7
TORSDOF 4
ENDMDL
MODEL 6
REMARK VINA RESULT:      -0.5      1.638      4.249
REMARK  4 active torsions:
REMARK  status: ('A' for Active; 'I' for Inactive)
REMARK    1  A    between atoms: C1_1  and  C9_9 
REMARK    2  A    between atoms: C2_2  and  C7_7 
REMARK    3  A    between atoms: C2_2  and  C9_9 
REMARK    4  A    between atoms: C7_7  and  C8_8 
ROOT
HETATM    1  C5  UNL     1     -33.014   7.885   4.885  1.00 20.00     0.031 C 
HETATM    2  C6  UNL     1     -34.718   8.591   3.197  1.00 20.00     0.031 C 
HETATM    3  C9  UNL     1     -33.693   7.504   3.563  1.00 20.00     0.073 C 
ENDROOT
BRANCH   3   4
HETATM    4  C1  UNL     1     -32.687   7.415   2.402  1.00 20.00     0.138 C 
HETATM    5  C3  UNL     1     -32.845   6.308   1.388  1.00 20.00     0.092 C 
HETATM    6  O10 UNL     1     -31.744   8.205   2.310  1.00 20.00    -0.297 OA
ENDBRANCH   3   4
BRANCH   3   7
HETATM    7  C2  UNL     1     -34.427   6.157   3.762  1.00 20.00     0.142 C 
HETATM    8  O11 UNL     1     -35.625   6.109   4.051  1.00 20.00    -0.297 OA
BRANCH   7   9
HETATM    9  C7  UNL     1     -33.605   4.881   3.605  1.00 20.00     0.079 C 
BRANCH   9  10
HETATM   10  C8  UNL     1     -34.054   3.751   4.529  1.00 20.00     0.003 C 
HETATM   11  C4  UNL     1     -32.929   2.776   4.847  1.00 20.00     0.005 C 
ENDBRANCH   9  10
ENDBRANCH   7   9
ENDBRANCH   3   7
TORSDOF 4
ENDMDL
MODEL 7
REMARK VINA RESULT:      -0.1      1.606      4.601
REMARK  4 active torsions:
REMARK  status: ('A' for Active; 'I' for Inactive)
REMARK    1  A    between atoms: C1_1  and  C9_9 
REMARK    2  A    between atoms: C2_2  and  C7_7 
REMARK    3  A    between atoms: C2_2  and  C9_9 
REMARK    4  A    between atoms: C7_7  and  C8_8 
ROOT
HETATM    1  C5  UNL     1     -30.904   7.351   1.368  1.00 20.00     0.031 C 
HETATM    2  C6  UNL     1     -31.602   8.812   3.274  1.00 20.00     0.031 C 
HETATM    3  C9  UNL     1     -32.076   8.131   1.979  1.00 20.00     0.073 C 
ENDROOT
BRANCH   3   4
HETATM    4  C1  UNL     1     -32.583   9.239   1.039  1.00 20.00     0.138 C 
HETATM    5  C3  UNL     1     -32.281   9.133  -0.436  1.00 20.00     0.092 C 
HETATM    6  O10 UNL     1     -33.194  10.219   1.474  1.00 20.00    -0.297 OA
ENDBRANCH   3   4
BRANCH   3   7
HETATM    7  C2  UNL     1     -33.207   7.130   2.313  1.00 20.00     0.142 C 
HETATM    8  O11 UNL     1     -33.507   6.213   1.546  1.00 20.00    -0.297 OA
BRANCH   7   9
HETATM    9  C7  UNL     1     -33.954   7.331   3.628  1.00 20.00     0.079 C 
BRANCH   9  10
HETATM   10  C8  UNL     1     -35.203   6.460   3.757  1.00 20.00     0.003 C 
HETATM   11  C4  UNL     1     -34.904   5.098   4.367  1.00 20.00     0.005 C 
ENDBRANCH   9  10
ENDBRANCH   7   9
ENDBRANCH   3   7
TORSDOF 4
ENDMDL
MODEL 8
REMARK VINA RESULT:      -0.0      1.629      4.031
REMARK  4 active torsions:
REMARK  status: ('A' for Active; 'I' for Inactive)
REMARK    1  A    between atoms: C1_1  and  C9_9 
REMARK    2  A    between atoms: C2_2  and  C7_7 
REMARK    3  A    between atoms: C2_2  and  C9_9 
REMARK    4  A    between atoms: C7_7  and  C8_8 
ROOT
HETATM    1  C5  UNL     1     -33.682   6.225   0.290  1.00 20.00     0.031 C 
HETATM    2  C6  UNL     1     -31.633   5.275   1.362  1.00 20.00     0.031 C 
HETATM    3  C9  UNL     1     -32.753   6.319   1.507  1.00 20.00     0.073 C 
ENDROOT
BRANCH   3   4
HETATM    4  C1  UNL     1     -32.080   7.699   1.614  1.00 20.00     0.138 C 
HETATM    5  C3  UNL     1     -32.512   8.791   0.666  1.00 20.00     0.092 C 
HETATM    6  O10 UNL     1     -31.179   7.911   2.429  1.00 20.00    -0.297 OA
ENDBRANCH   3   4
BRANCH   3   7
HETATM    7  C2  UNL     1     -33.580   6.007   2.777  1.00 20.00     0.142 C 
HETATM    8  O11 UNL     1     -33.506   4.916   3.345  1.00 20.00    -0.297 OA
BRANCH   7   9
HETATM    9  C7  UNL     1     -34.510   7.101   3.293  1.00 20.00     0.079 C 
BRANCH   9  10
HETATM   10  C8  UNL     1     -34.319   7.411   4.776  1.00 20.00     0.003 C 
HETATM   11  C4  UNL     1     -33.145   8.347   5.029  1.00 20.00     0.005 C 
ENDBRANCH   9  10
ENDBRANCH   7   9
ENDBRANCH   3   7
TORSDOF 4
ENDMDL
MODEL 9
REMARK VINA RESULT:       0.1      1.964      4.627
REMARK  4 active torsions:
REMARK  status: ('A' for Active; 'I' for Inactive)
REMARK    1  A    between atoms: C1_1  and  C9_9 
REMARK    2  A    between atoms: C2_2  and  C7_7 
REMARK    3  A    between atoms: C2_2  and  C9_9 
REMARK    4  A    between atoms: C7_7  and  C8_8 
ROOT
HETATM    1  C5  UNL     1     -32.090   6.580   1.423  1.00 20.00     0.031 C 
HETATM    2  C6  UNL     1     -30.859   8.283   2.778  1.00 20.00     0.031 C 
HETATM    3  C9  UNL     1     -32.222   7.916   2.167  1.00 20.00     0.073 C 
ENDROOT
BRANCH   3   4
HETATM    4  C1  UNL     1     -32.624   9.064   1.224  1.00 20.00     0.138 C 
HETATM    5  C3  UNL     1     -32.096   9.059  -0.190  1.00 20.00     0.092 C 
HETATM    6  O10 UNL     1     -33.334   9.995   1.613  1.00 20.00    -0.297 OA
ENDBRANCH   3   4
BRANCH   3   7
HETATM    7  C2  UNL     1     -33.260   7.742   3.300  1.00 20.00     0.142 C 
HETATM    8  O11 UNL     1     -33.050   8.164   4.439  1.00 20.00    -0.297 OA
BRANCH   7   9
HETATM    9  C7  UNL     1     -34.554   7.009   2.959  1.00 20.00     0.079 C 
BRANCH   9  10
HETATM   10  C8  UNL     1     -35.093   6.162   4.110  1.00 20.00     0.003 C 
HETATM   11  C4  UNL     1     -34.489   4.765   4.140  1.00 20.00     0.005 C 
ENDBRANCH   9  10
ENDBRANCH   7   9
ENDBRANCH   3   7
TORSDOF 4
ENDMDL
