MODEL 1
REMARK VINA RESULT:      -2.6      0.000      0.000
REMARK  1 active torsions:
REMARK  status: ('A' for Active; 'I' for Inactive)
REMARK    1  A    between atoms: C1_1  and  C4_4 
REMARK       I    between atoms: C1_1  and  N5_5 
ROOT
HETATM    1  C1  UNL     1     -33.892   5.619   3.291  1.00 20.00     0.326 C 
HETATM    2  C2  UNL     1     -32.802   7.692   2.314  1.00 20.00     0.152 C 
HETATM    3  C3  UNL     1     -32.505   5.486   1.260  1.00 20.00     0.152 C 
HETATM    4  N5  UNL     1     -33.102   6.262   2.338  1.00 20.00    -0.353 N 
HETATM    5  O6  UNL     1     -33.733   4.445   3.637  1.00 20.00    -0.263 OA
ENDROOT
BRANCH   1   6
HETATM    6  C4  UNL     1     -34.998   6.421   3.922  1.00 20.00     0.472 C 
HETATM    7  F7  UNL     1     -34.535   7.517   4.574  1.00 20.00    -0.162 F 
HETATM    8  F8  UNL     1     -35.915   6.842   3.015  1.00 20.00    -0.162 F 
HETATM    9  F9  UNL     1     -35.681   5.689   4.842  1.00 20.00    -0.162 F 
ENDBRANCH   1   6
TORSDOF 1
ENDMDL
MODEL 2
REMARK VINA RESULT:      -2.3      2.705      3.547
REMARK  1 active torsions:
REMARK  status: ('A' for Active; 'I' for Inactive)
REMARK    1  A    between atoms: C1_1  and  C4_4 
REMARK       I    between atoms: C1_1  and  N5_5 
ROOT
HETATM    1  C1  UNL     1     -32.978   6.570   2.114  1.00 20.00     0.326 C 
HETATM    2  C2  UNL     1     -34.374   7.544   3.996  1.00 20.00     0.152 C 
HETATM    3  C3  UNL     1     -34.093   5.109   3.754  1.00 20.00     0.152 C 
HETATM    4  N5  UNL     1     -33.784   6.438   3.244  1.00 20.00    -0.353 N 
HETATM    5  O6  UNL     1     -32.921   5.733   1.208  1.00 20.00    -0.263 OA
ENDROOT
BRANCH   1   6
HETATM    6  C4  UNL     1     -32.134   7.812   2.013  1.00 20.00     0.472 C 
HETATM    7  F7  UNL     1     -32.780   8.826   1.383  1.00 20.00    -0.162 F 
HETATM    8  F8  UNL     1     -31.738   8.270   3.226  1.00 20.00    -0.162 F 
HETATM    9  F9  UNL     1     -30.997   7.584   1.302  1.00 20.00    -0.162 F 
ENDBRANCH   1   6
TORSDOF 1
ENDMDL
MODEL 3
REMARK VINA RESULT:      -1.8      2.834      3.672
REMARK  1 active torsions:
REMARK  status: ('A' for Active; 'I' for Inactive)
REMARK    1  A    between atoms: C1_1  and  C4_4 
REMARK       I    between atoms: C1_1  and  N5_5 
ROOT
HETATM    1  C1  UNL     1     -33.415   6.649   2.927  1.00 20.00     0.326 C 
HETATM    2  C2  UNL     1     -33.915   4.262   3.628  1.00 20.00     0.152 C 
HETATM    3  C3  UNL     1     -35.418   6.110   4.256  1.00 20.00     0.152 C 
HETATM    4  N5  UNL     1     -34.201   5.693   3.570  1.00 20.00    -0.353 N 
HETATM    5  O6  UNL     1     -33.329   7.826   3.289  1.00 20.00    -0.263 OA
ENDROOT
BRANCH   1   6
HETATM    6  C4  UNL     1     -32.634   6.198   1.722  1.00 20.00     0.472 C 
HETATM    7  F7  UNL     1     -31.775   5.188   2.010  1.00 20.00    -0.162 F 
HETATM    8  F8  UNL     1     -33.436   5.777   0.712  1.00 20.00    -0.162 F 
HETATM    9  F9  UNL     1     -31.878   7.207   1.212  1.00 20.00    -0.162 F 
ENDBRANCH   1   6
TORSDOF 1
ENDMDL
MODEL 4
REMARK VINA RESULT:      -1.7      2.833      3.658
REMARK  1 active torsions:
REMARK  status: ('A' for Active; 'I' for Inactive)
REMARK    1  A    between atoms: C1_1  and  C4_4 
REMARK       I    between atoms: C1_1  and  N5_5 
ROOT
HETATM    1  C1  UNL     1     -33.407   6.666   2.936  1.00 20.00     0.326 C 
HETATM    2  C2  UNL     1     -33.906   4.273   3.613  1.00 20.00     0.152 C 
HETATM    3  C3  UNL     1     -35.416   6.112   4.248  1.00 20.00     0.152 C 
HETATM    4  N5  UNL     1     -34.195   5.704   3.566  1.00 20.00    -0.353 N 
HETATM    5  O6  UNL     1     -33.325   7.841   3.309  1.00 20.00    -0.263 OA
ENDROOT
BRANCH   1   6
HETATM    6  C4  UNL     1     -32.618   6.228   1.732  1.00 20.00     0.472 C 
HETATM    7  F7  UNL     1     -31.861   7.229   1.216  1.00 20.00    -0.162 F 
HETATM    8  F8  UNL     1     -31.790   5.189   2.005  1.00 20.00    -0.162 F 
HETATM    9  F9  UNL     1     -33.434   5.810   0.727  1.00 20.00    -0.162 F 
ENDBRANCH   1   6
TORSDOF 1
ENDMDL
MODEL 5
REMARK VINA RESULT:      -1.7      2.835      3.673
REMARK  1 active torsions:
REMARK  status: ('A' for Active; 'I' for Inactive)
REMARK    1  A    between atoms: C1_1  and  C4_4 
REMARK       I    between atoms: C1_1  and  N5_5 
ROOT
HETATM    1  C1  UNL     1     -33.414   6.654   2.936  1.00 20.00     0.326 C 
HETATM    2  C2  UNL     1     -33.915   4.264   3.625  1.00 20.00     0.152 C 
HETATM    3  C3  UNL     1     -35.421   6.108   4.257  1.00 20.00     0.152 C 
HETATM    4  N5  UNL     1     -34.202   5.696   3.573  1.00 20.00    -0.353 N 
HETATM    5  O6  UNL     1     -33.330   7.830   3.303  1.00 20.00    -0.263 OA
ENDROOT
BRANCH   1   6
HETATM    6  C4  UNL     1     -32.630   6.209   1.731  1.00 20.00     0.472 C 
HETATM    7  F7  UNL     1     -33.429   5.781   0.722  1.00 20.00    -0.162 F 
HETATM    8  F8  UNL     1     -31.837   7.193   1.237  1.00 20.00    -0.162 F 
HETATM    9  F9  UNL     1     -31.804   5.170   2.031  1.00 20.00    -0.162 F 
ENDBRANCH   1   6
TORSDOF 1
ENDMDL
MODEL 6
REMARK VINA RESULT:      -1.6      1.221      1.901
REMARK  1 active torsions:
REMARK  status: ('A' for Active; 'I' for Inactive)
REMARK    1  A    between atoms: C1_1  and  C4_4 
REMARK       I    between atoms: C1_1  and  N5_5 
ROOT
HETATM    1  C1  UNL     1     -33.720   6.403   2.969  1.00 20.00     0.326 C 
HETATM    2  C2  UNL     1     -32.736   8.317   4.313  1.00 20.00     0.152 C 
HETATM    3  C3  UNL     1     -32.169   8.014   1.935  1.00 20.00     0.152 C 
HETATM    4  N5  UNL     1     -32.914   7.535   3.092  1.00 20.00    -0.353 N 
HETATM    5  O6  UNL     1     -33.490   5.476   2.186  1.00 20.00    -0.263 OA
ENDROOT
BRANCH   1   6
HETATM    6  C4  UNL     1     -34.936   6.326   3.851  1.00 20.00     0.472 C 
HETATM    7  F7  UNL     1     -35.131   5.083   4.358  1.00 20.00    -0.162 F 
HETATM    8  F8  UNL     1     -34.874   7.188   4.897  1.00 20.00    -0.162 F 
HETATM    9  F9  UNL     1     -36.069   6.641   3.166  1.00 20.00    -0.162 F 
ENDBRANCH   1   6
TORSDOF 1
ENDMDL
MODEL 7
REMARK VINA RESULT:      -1.5      1.901      2.732
REMARK  1 active torsions:
REMARK  status: ('A' for Active; 'I' for Inactive)
REMARK    1  A    between atoms: C1_1  and  C4_4 
REMARK       I    between atoms: C1_1  and  N5_5 
ROOT
HETATM    1  C1  UNL     1     -33.437   6.130   2.874  1.00 20.00     0.326 C 
HETATM    2  C2  UNL     1     -35.423   5.829   4.423  1.00 20.00     0.152 C 
HETATM    3  C3  UNL     1     -33.916   3.949   3.913  1.00 20.00     0.152 C 
HETATM    4  N5  UNL     1     -34.241   5.354   3.708  1.00 20.00    -0.353 N 
HETATM    5  O6  UNL     1     -32.816   5.682   1.905  1.00 20.00    -0.263 OA
ENDROOT
BRANCH   1   6
HETATM    6  C4  UNL     1     -33.333   7.598   3.190  1.00 20.00     0.472 C 
HETATM    7  F7  UNL     1     -32.517   8.257   2.329  1.00 20.00    -0.162 F 
HETATM    8  F8  UNL     1     -34.538   8.220   3.170  1.00 20.00    -0.162 F 
HETATM    9  F9  UNL     1     -32.820   7.804   4.434  1.00 20.00    -0.162 F 
ENDBRANCH   1   6
TORSDOF 1
ENDMDL
MODEL 8
REMARK VINA RESULT:      -1.3      2.958      3.676
REMARK  1 active torsions:
REMARK  status: ('A' for Active; 'I' for Inactive)
REMARK    1  A    between atoms: C1_1  and  C4_4 
REMARK       I    between atoms: C1_1  and  N5_5 
ROOT
HETATM    1  C1  UNL     1     -33.088   7.533   3.468  1.00 20.00     0.326 C 
HETATM    2  C2  UNL     1     -33.589   5.341   2.293  1.00 20.00     0.152 C 
HETATM    3  C3  UNL     1     -35.213   6.347   3.848  1.00 20.00     0.152 C 
HETATM    4  N5  UNL     1     -33.913   6.442   3.197  1.00 20.00    -0.353 N 
HETATM    5  O6  UNL     1     -33.082   8.141   4.543  1.00 20.00    -0.263 OA
ENDROOT
BRANCH   1   6
HETATM    6  C4  UNL     1     -32.158   7.981   2.373  1.00 20.00     0.472 C 
HETATM    7  F7  UNL     1     -31.678   6.941   1.645  1.00 20.00    -0.162 F 
HETATM    8  F8  UNL     1     -32.751   8.844   1.510  1.00 20.00    -0.162 F 
HETATM    9  F9  UNL     1     -31.073   8.629   2.874  1.00 20.00    -0.162 F 
ENDBRANCH   1   6
TORSDOF 1
ENDMDL
MODEL 9
REMARK VINA RESULT:      -1.1      1.713      2.248
REMARK  1 active torsions:
REMARK  status: ('A' for Active; 'I' for Inactive)
REMARK    1  A    between atoms: C1_1  and  C4_4 
REMARK       I    between atoms: C1_1  and  N5_5 
ROOT
HETATM    1  C1  UNL     1     -33.844   7.413   3.138  1.00 20.00     0.326 C 
HETATM    2  C2  UNL     1     -33.181   5.685   1.403  1.00 20.00     0.152 C 
HETATM    3  C3  UNL     1     -31.696   7.575   1.941  1.00 20.00     0.152 C 
HETATM    4  N5  UNL     1     -32.959   6.892   2.194  1.00 20.00    -0.353 N 
HETATM    5  O6  UNL     1     -33.939   8.616   3.401  1.00 20.00    -0.263 OA
ENDROOT
BRANCH   1   6
HETATM    6  C4  UNL     1     -34.724   6.436   3.867  1.00 20.00     0.472 C 
HETATM    7  F7  UNL     1     -35.935   6.287   3.275  1.00 20.00    -0.162 F 
HETATM    8  F8  UNL     1     -34.163   5.205   3.964  1.00 20.00    -0.162 F 
HETATM    9  F9  UNL     1     -34.970   6.842   5.142  1.00 20.00    -0.162 F 
ENDBRANCH   1   6
TORSDOF 1
ENDMDL
