MODEL 1
REMARK VINA RESULT:       1.7      0.000      0.000
REMARK  0 active torsions:
REMARK  status: ('A' for Active; 'I' for Inactive)
ROOT
HETATM    1  C1  UNL     1     -33.161   7.482   3.623  1.00 20.00    -0.077 C 
HETATM    2  C2  UNL     1     -33.052   8.042   4.833  1.00 20.00     0.015 C 
HETATM    3  C3  UNL     1     -31.383   6.944   1.996  1.00 20.00     0.009 C 
HETATM    4  C4  UNL     1     -32.207   5.752   1.475  1.00 20.00     0.006 C 
HETATM    5  C5  UNL     1     -33.540   7.689   1.322  1.00 20.00     0.014 C 
HETATM    6  C6  UNL     1     -32.464   7.973   2.368  1.00 20.00     0.015 C 
HETATM    7  C7  UNL     1     -33.665   6.207   1.710  1.00 20.00    -0.002 C 
HETATM    8  C8  UNL     1     -34.023   6.285   3.232  1.00 20.00    -0.021 C 
HETATM    9  C9  UNL     1     -35.524   6.567   3.431  1.00 20.00     0.020 C 
HETATM   10  C10 UNL     1     -33.658   5.013   4.010  1.00 20.00     0.020 C 
ENDROOT
TORSDOF 0
ENDMDL
MODEL 2
REMARK VINA RESULT:       2.0      0.902      3.024
REMARK  0 active torsions:
REMARK  status: ('A' for Active; 'I' for Inactive)
ROOT
HETATM    1  C1  UNL     1     -32.739   7.495   2.274  1.00 20.00    -0.077 C 
HETATM    2  C2  UNL     1     -32.062   8.399   1.557  1.00 20.00     0.015 C 
HETATM    3  C3  UNL     1     -34.754   7.812   3.665  1.00 20.00     0.009 C 
HETATM    4  C4  UNL     1     -35.203   6.370   3.361  1.00 20.00     0.006 C 
HETATM    5  C5  UNL     1     -33.026   6.288   4.260  1.00 20.00     0.014 C 
HETATM    6  C6  UNL     1     -33.221   7.695   3.698  1.00 20.00     0.015 C 
HETATM    7  C7  UNL     1     -33.864   5.625   3.156  1.00 20.00    -0.002 C 
HETATM    8  C8  UNL     1     -33.127   6.081   1.851  1.00 20.00    -0.021 C 
HETATM    9  C9  UNL     1     -31.892   5.202   1.582  1.00 20.00     0.020 C 
HETATM   10  C10 UNL     1     -34.024   6.061   0.606  1.00 20.00     0.020 C 
ENDROOT
TORSDOF 0
ENDMDL
MODEL 3
REMARK VINA RESULT:       2.1      0.936      2.634
REMARK  0 active torsions:
REMARK  status: ('A' for Active; 'I' for Inactive)
ROOT
HETATM    1  C1  UNL     1     -33.687   5.643   3.199  1.00 20.00    -0.077 C 
HETATM    2  C2  UNL     1     -33.907   4.439   3.739  1.00 20.00     0.015 C 
HETATM    3  C3  UNL     1     -32.861   7.701   4.284  1.00 20.00     0.009 C 
HETATM    4  C4  UNL     1     -32.199   8.142   2.965  1.00 20.00     0.006 C 
HETATM    5  C5  UNL     1     -34.483   7.744   2.543  1.00 20.00     0.014 C 
HETATM    6  C6  UNL     1     -34.123   6.963   3.805  1.00 20.00     0.015 C 
HETATM    7  C7  UNL     1     -33.112   7.511   1.889  1.00 20.00    -0.002 C 
HETATM    8  C8  UNL     1     -33.008   5.949   1.868  1.00 20.00    -0.021 C 
HETATM    9  C9  UNL     1     -33.788   5.363   0.676  1.00 20.00     0.020 C 
HETATM   10  C10 UNL     1     -31.563   5.435   1.807  1.00 20.00     0.020 C 
ENDROOT
TORSDOF 0
ENDMDL
MODEL 4
REMARK VINA RESULT:       2.3      0.848      2.418
REMARK  0 active torsions:
REMARK  status: ('A' for Active; 'I' for Inactive)
ROOT
HETATM    1  C1  UNL     1     -33.480   5.330   3.242  1.00 20.00    -0.077 C 
HETATM    2  C2  UNL     1     -33.753   4.320   4.075  1.00 20.00     0.015 C 
HETATM    3  C3  UNL     1     -33.299   5.303   0.779  1.00 20.00     0.009 C 
HETATM    4  C4  UNL     1     -33.793   6.760   0.717  1.00 20.00     0.006 C 
HETATM    5  C5  UNL     1     -31.916   6.680   2.140  1.00 20.00     0.014 C 
HETATM    6  C6  UNL     1     -32.495   5.268   2.090  1.00 20.00     0.015 C 
HETATM    7  C7  UNL     1     -33.295   7.353   2.055  1.00 20.00    -0.002 C 
HETATM    8  C8  UNL     1     -34.046   6.746   3.287  1.00 20.00    -0.021 C 
HETATM    9  C9  UNL     1     -33.657   7.479   4.584  1.00 20.00     0.020 C 
HETATM   10  C10 UNL     1     -35.574   6.778   3.147  1.00 20.00     0.020 C 
ENDROOT
TORSDOF 0
ENDMDL
MODEL 5
REMARK VINA RESULT:       2.5      0.992      3.285
REMARK  0 active torsions:
REMARK  status: ('A' for Active; 'I' for Inactive)
ROOT
HETATM    1  C1  UNL     1     -32.833   6.406   2.035  1.00 20.00    -0.077 C 
HETATM    2  C2  UNL     1     -32.099   5.590   1.270  1.00 20.00     0.015 C 
HETATM    3  C3  UNL     1     -33.776   5.997   4.280  1.00 20.00     0.009 C 
HETATM    4  C4  UNL     1     -33.652   7.494   4.617  1.00 20.00     0.006 C 
HETATM    5  C5  UNL     1     -34.917   7.288   2.638  1.00 20.00     0.014 C 
HETATM    6  C6  UNL     1     -34.095   6.007   2.775  1.00 20.00     0.015 C 
HETATM    7  C7  UNL     1     -33.815   8.175   3.238  1.00 20.00    -0.002 C 
HETATM    8  C8  UNL     1     -32.600   7.892   2.292  1.00 20.00    -0.021 C 
HETATM    9  C9  UNL     1     -32.704   8.723   0.999  1.00 20.00     0.020 C 
HETATM   10  C10 UNL     1     -31.239   8.174   2.945  1.00 20.00     0.020 C 
ENDROOT
TORSDOF 0
ENDMDL
MODEL 6
REMARK VINA RESULT:       3.1      1.021      2.586
REMARK  0 active torsions:
REMARK  status: ('A' for Active; 'I' for Inactive)
ROOT
HETATM    1  C1  UNL     1     -33.000   7.302   2.689  1.00 20.00    -0.077 C 
HETATM    2  C2  UNL     1     -31.932   7.951   2.213  1.00 20.00     0.015 C 
HETATM    3  C3  UNL     1     -33.253   4.900   3.201  1.00 20.00     0.009 C 
HETATM    4  C4  UNL     1     -34.258   5.233   4.319  1.00 20.00     0.006 C 
HETATM    5  C5  UNL     1     -35.035   6.206   2.317  1.00 20.00     0.014 C 
HETATM    6  C6  UNL     1     -33.533   5.988   2.151  1.00 20.00     0.015 C 
HETATM    7  C7  UNL     1     -34.920   6.536   3.814  1.00 20.00    -0.002 C 
HETATM    8  C8  UNL     1     -33.925   7.745   3.819  1.00 20.00    -0.021 C 
HETATM    9  C9  UNL     1     -34.655   9.059   3.482  1.00 20.00     0.020 C 
HETATM   10  C10 UNL     1     -33.188   7.923   5.153  1.00 20.00     0.020 C 
ENDROOT
TORSDOF 0
ENDMDL
MODEL 7
REMARK VINA RESULT:       3.2      1.230      2.963
REMARK  0 active torsions:
REMARK  status: ('A' for Active; 'I' for Inactive)
ROOT
HETATM    1  C1  UNL     1     -33.258   7.235   2.958  1.00 20.00    -0.077 C 
HETATM    2  C2  UNL     1     -33.950   7.846   3.927  1.00 20.00     0.015 C 
HETATM    3  C3  UNL     1     -34.054   5.627   1.262  1.00 20.00     0.009 C 
HETATM    4  C4  UNL     1     -32.990   6.132   0.269  1.00 20.00     0.006 C 
HETATM    5  C5  UNL     1     -31.894   5.471   2.248  1.00 20.00     0.014 C 
HETATM    6  C6  UNL     1     -33.346   5.759   2.621  1.00 20.00     0.015 C 
HETATM    7  C7  UNL     1     -31.840   6.589   1.195  1.00 20.00    -0.002 C 
HETATM    8  C8  UNL     1     -32.220   7.858   2.029  1.00 20.00    -0.021 C 
HETATM    9  C9  UNL     1     -31.001   8.391   2.805  1.00 20.00     0.020 C 
HETATM   10  C10 UNL     1     -32.794   8.998   1.178  1.00 20.00     0.020 C 
ENDROOT
TORSDOF 0
ENDMDL
MODEL 8
REMARK VINA RESULT:       3.7      1.018      2.745
REMARK  0 active torsions:
REMARK  status: ('A' for Active; 'I' for Inactive)
ROOT
HETATM    1  C1  UNL     1     -32.912   6.397   1.691  1.00 20.00    -0.077 C 
HETATM    2  C2  UNL     1     -33.058   5.322   0.908  1.00 20.00     0.015 C 
HETATM    3  C3  UNL     1     -32.596   8.758   1.042  1.00 20.00     0.009 C 
HETATM    4  C4  UNL     1     -33.323   9.217   2.319  1.00 20.00     0.006 C 
HETATM    5  C5  UNL     1     -31.540   7.812   2.953  1.00 20.00     0.014 C 
HETATM    6  C6  UNL     1     -31.870   7.481   1.499  1.00 20.00     0.015 C 
HETATM    7  C7  UNL     1     -33.005   8.087   3.325  1.00 20.00    -0.002 C 
HETATM    8  C8  UNL     1     -33.710   6.742   2.945  1.00 20.00    -0.021 C 
HETATM    9  C9  UNL     1     -33.520   5.690   4.054  1.00 20.00     0.020 C 
HETATM   10  C10 UNL     1     -35.212   6.896   2.669  1.00 20.00     0.020 C 
ENDROOT
TORSDOF 0
ENDMDL
MODEL 9
REMARK VINA RESULT:       3.8      0.980      2.779
REMARK  0 active torsions:
REMARK  status: ('A' for Active; 'I' for Inactive)
ROOT
HETATM    1  C1  UNL     1     -33.351   6.391   2.359  1.00 20.00    -0.077 C 
HETATM    2  C2  UNL     1     -33.179   5.492   1.384  1.00 20.00     0.015 C 
HETATM    3  C3  UNL     1     -33.315   8.856   2.221  1.00 20.00     0.009 C 
HETATM    4  C4  UNL     1     -34.321   8.946   3.384  1.00 20.00     0.006 C 
HETATM    5  C5  UNL     1     -32.473   7.675   4.108  1.00 20.00     0.014 C 
HETATM    6  C6  UNL     1     -32.483   7.614   2.582  1.00 20.00     0.015 C 
HETATM    7  C7  UNL     1     -34.006   7.681   4.215  1.00 20.00    -0.002 C 
HETATM    8  C8  UNL     1     -34.403   6.366   3.465  1.00 20.00    -0.021 C 
HETATM    9  C9  UNL     1     -34.243   5.139   4.382  1.00 20.00     0.020 C 
HETATM   10  C10 UNL     1     -35.837   6.384   2.919  1.00 20.00     0.020 C 
ENDROOT
TORSDOF 0
ENDMDL
