MODEL 1
REMARK VINA RESULT:      -0.5      0.000      0.000
REMARK  3 active torsions:
REMARK  status: ('A' for Active; 'I' for Inactive)
REMARK    1  A    between atoms: C6_6  and  C7_7 
REMARK    2  A    between atoms: C6_6  and  C8_8 
REMARK    3  A    between atoms: C7_7  and  C9_9 
ROOT
HETATM    1  C7  UNL     1     -33.713   8.015   2.649  1.00 20.00     0.008 C 
ENDROOT
BRANCH   1   2
HETATM    2  C6  UNL     1     -33.758   7.382   4.049  1.00 20.00     0.004 C 
BRANCH   2   3
HETATM    3  C8  UNL     1     -34.860   6.314   4.199  1.00 20.00    -0.023 C 
HETATM    4  C1  UNL     1     -34.341   4.897   3.955  1.00 20.00     0.009 C 
HETATM    5  C2  UNL     1     -36.008   6.616   3.230  1.00 20.00     0.009 C 
ENDBRANCH   2   3
ENDBRANCH   1   2
BRANCH   1   6
HETATM    6  C9  UNL     1     -32.340   7.951   1.925  1.00 20.00    -0.051 C 
HETATM    7  C3  UNL     1     -32.040   6.529   1.425  1.00 20.00     0.014 C 
HETATM    8  C4  UNL     1     -31.248   8.356   2.935  1.00 20.00     0.014 C 
HETATM    9  C5  UNL     1     -32.289   8.928   0.739  1.00 20.00     0.014 C 
ENDBRANCH   1   6
TORSDOF 3
ENDMDL
MODEL 2
REMARK VINA RESULT:      -0.4      0.026      1.444
REMARK  3 active torsions:
REMARK  status: ('A' for Active; 'I' for Inactive)
REMARK    1  A    between atoms: C6_6  and  C7_7 
REMARK    2  A    between atoms: C6_6  and  C8_8 
REMARK    3  A    between atoms: C7_7  and  C9_9 
ROOT
HETATM    1  C7  UNL     1     -33.708   7.990   2.624  1.00 20.00     0.008 C 
ENDROOT
BRANCH   1   2
HETATM    2  C6  UNL     1     -33.755   7.380   4.033  1.00 20.00     0.004 C 
BRANCH   2   3
HETATM    3  C8  UNL     1     -34.858   6.314   4.197  1.00 20.00    -0.023 C 
HETATM    4  C1  UNL     1     -34.341   4.895   3.958  1.00 20.00     0.009 C 
HETATM    5  C2  UNL     1     -36.012   6.610   3.235  1.00 20.00     0.009 C 
ENDBRANCH   2   3
ENDBRANCH   1   2
BRANCH   1   6
HETATM    6  C9  UNL     1     -32.318   7.974   1.929  1.00 20.00    -0.051 C 
HETATM    7  C3  UNL     1     -32.287   8.928   0.724  1.00 20.00     0.014 C 
HETATM    8  C4  UNL     1     -32.053   6.541   1.426  1.00 20.00     0.014 C 
HETATM    9  C5  UNL     1     -31.199   8.358   2.910  1.00 20.00     0.014 C 
ENDBRANCH   1   6
TORSDOF 3
ENDMDL
MODEL 3
REMARK VINA RESULT:      -0.4      0.031      1.442
REMARK  3 active torsions:
REMARK  status: ('A' for Active; 'I' for Inactive)
REMARK    1  A    between atoms: C6_6  and  C7_7 
REMARK    2  A    between atoms: C6_6  and  C8_8 
REMARK    3  A    between atoms: C7_7  and  C9_9 
ROOT
HETATM    1  C7  UNL     1     -33.711   7.998   2.645  1.00 20.00     0.008 C 
ENDROOT
BRANCH   1   2
HETATM    2  C6  UNL     1     -33.779   7.391   4.054  1.00 20.00     0.004 C 
BRANCH   2   3
HETATM    3  C8  UNL     1     -34.874   6.314   4.200  1.00 20.00    -0.023 C 
HETATM    4  C1  UNL     1     -34.342   4.901   3.957  1.00 20.00     0.009 C 
HETATM    5  C2  UNL     1     -36.020   6.607   3.228  1.00 20.00     0.009 C 
ENDBRANCH   2   3
ENDBRANCH   1   2
BRANCH   1   6
HETATM    6  C9  UNL     1     -32.319   7.943   1.955  1.00 20.00    -0.051 C 
HETATM    7  C3  UNL     1     -31.201   8.358   2.924  1.00 20.00     0.014 C 
HETATM    8  C4  UNL     1     -32.334   8.931   0.771  1.00 20.00     0.014 C 
HETATM    9  C5  UNL     1     -32.022   6.537   1.409  1.00 20.00     0.014 C 
ENDBRANCH   1   6
TORSDOF 3
ENDMDL
MODEL 4
REMARK VINA RESULT:      -0.4      0.961      4.246
REMARK  3 active torsions:
REMARK  status: ('A' for Active; 'I' for Inactive)
REMARK    1  A    between atoms: C6_6  and  C7_7 
REMARK    2  A    between atoms: C6_6  and  C8_8 
REMARK    3  A    between atoms: C7_7  and  C9_9 
ROOT
HETATM    1  C7  UNL     1     -33.336   6.857   2.113  1.00 20.00     0.008 C 
ENDROOT
BRANCH   1   2
HETATM    2  C6  UNL     1     -32.363   8.045   2.069  1.00 20.00     0.004 C 
BRANCH   2   3
HETATM    3  C8  UNL     1     -32.415   8.824   0.739  1.00 20.00    -0.023 C 
HETATM    4  C1  UNL     1     -31.102   8.745  -0.040  1.00 20.00     0.009 C 
HETATM    5  C2  UNL     1     -32.765  10.290   1.012  1.00 20.00     0.009 C 
ENDBRANCH   2   3
ENDBRANCH   1   2
BRANCH   1   6
HETATM    6  C9  UNL     1     -34.118   6.676   3.444  1.00 20.00    -0.051 C 
HETATM    7  C3  UNL     1     -33.652   7.688   4.504  1.00 20.00     0.014 C 
HETATM    8  C4  UNL     1     -33.843   5.254   3.970  1.00 20.00     0.014 C 
HETATM    9  C5  UNL     1     -35.632   6.829   3.227  1.00 20.00     0.014 C 
ENDBRANCH   1   6
TORSDOF 3
ENDMDL
MODEL 5
REMARK VINA RESULT:      -0.3      0.947      4.219
REMARK  3 active torsions:
REMARK  status: ('A' for Active; 'I' for Inactive)
REMARK    1  A    between atoms: C6_6  and  C7_7 
REMARK    2  A    between atoms: C6_6  and  C8_8 
REMARK    3  A    between atoms: C7_7  and  C9_9 
ROOT
HETATM    1  C7  UNL     1     -33.266   6.810   2.207  1.00 20.00     0.008 C 
ENDROOT
BRANCH   1   2
HETATM    2  C6  UNL     1     -32.423   8.094   2.170  1.00 20.00     0.004 C 
BRANCH   2   3
HETATM    3  C8  UNL     1     -32.458   8.805   0.802  1.00 20.00    -0.023 C 
HETATM    4  C1  UNL     1     -31.143   8.669   0.035  1.00 20.00     0.009 C 
HETATM    5  C2  UNL     1     -32.789  10.288   0.998  1.00 20.00     0.009 C 
ENDBRANCH   2   3
ENDBRANCH   1   2
BRANCH   1   6
HETATM    6  C9  UNL     1     -34.174   6.636   3.456  1.00 20.00    -0.051 C 
HETATM    7  C3  UNL     1     -35.645   6.932   3.119  1.00 20.00     0.014 C 
HETATM    8  C4  UNL     1     -33.707   7.639   4.529  1.00 20.00     0.014 C 
HETATM    9  C5  UNL     1     -34.062   5.217   4.035  1.00 20.00     0.014 C 
ENDBRANCH   1   6
TORSDOF 3
ENDMDL
MODEL 6
REMARK VINA RESULT:      -0.3      0.950      4.211
REMARK  3 active torsions:
REMARK  status: ('A' for Active; 'I' for Inactive)
REMARK    1  A    between atoms: C6_6  and  C7_7 
REMARK    2  A    between atoms: C6_6  and  C8_8 
REMARK    3  A    between atoms: C7_7  and  C9_9 
ROOT
HETATM    1  C7  UNL     1     -33.260   6.821   2.201  1.00 20.00     0.008 C 
ENDROOT
BRANCH   1   2
HETATM    2  C6  UNL     1     -32.373   8.074   2.145  1.00 20.00     0.004 C 
BRANCH   2   3
HETATM    3  C8  UNL     1     -32.432   8.800   0.786  1.00 20.00    -0.023 C 
HETATM    4  C1  UNL     1     -31.116   8.707   0.014  1.00 20.00     0.009 C 
HETATM    5  C2  UNL     1     -32.800  10.271   1.000  1.00 20.00     0.009 C 
ENDBRANCH   2   3
ENDBRANCH   1   2
BRANCH   1   6
HETATM    6  C9  UNL     1     -34.132   6.669   3.478  1.00 20.00    -0.051 C 
HETATM    7  C3  UNL     1     -34.049   5.241   4.042  1.00 20.00     0.014 C 
HETATM    8  C4  UNL     1     -35.596   6.960   3.094  1.00 20.00     0.014 C 
HETATM    9  C5  UNL     1     -33.709   7.669   4.566  1.00 20.00     0.014 C 
ENDBRANCH   1   6
TORSDOF 3
ENDMDL
MODEL 7
REMARK VINA RESULT:      -0.2      0.662      1.924
REMARK  3 active torsions:
REMARK  status: ('A' for Active; 'I' for Inactive)
REMARK    1  A    between atoms: C6_6  and  C7_7 
REMARK    2  A    between atoms: C6_6  and  C8_8 
REMARK    3  A    between atoms: C7_7  and  C9_9 
ROOT
HETATM    1  C7  UNL     1     -33.543   8.066   2.583  1.00 20.00     0.008 C 
ENDROOT
BRANCH   1   2
HETATM    2  C6  UNL     1     -33.593   7.101   3.777  1.00 20.00     0.004 C 
BRANCH   2   3
HETATM    3  C8  UNL     1     -34.477   5.863   3.522  1.00 20.00    -0.023 C 
HETATM    4  C1  UNL     1     -35.730   5.848   4.397  1.00 20.00     0.009 C 
HETATM    5  C2  UNL     1     -33.664   4.588   3.765  1.00 20.00     0.009 C 
ENDBRANCH   2   3
ENDBRANCH   1   2
BRANCH   1   6
HETATM    6  C9  UNL     1     -32.193   8.118   1.815  1.00 20.00    -0.051 C 
HETATM    7  C3  UNL     1     -32.249   9.134   0.662  1.00 20.00     0.014 C 
HETATM    8  C4  UNL     1     -31.927   6.720   1.223  1.00 20.00     0.014 C 
HETATM    9  C5  UNL     1     -31.030   8.478   2.753  1.00 20.00     0.014 C 
ENDBRANCH   1   6
TORSDOF 3
ENDMDL
MODEL 8
REMARK VINA RESULT:      -0.2      1.084      1.769
REMARK  3 active torsions:
REMARK  status: ('A' for Active; 'I' for Inactive)
REMARK    1  A    between atoms: C6_6  and  C7_7 
REMARK    2  A    between atoms: C6_6  and  C8_8 
REMARK    3  A    between atoms: C7_7  and  C9_9 
ROOT
HETATM    1  C7  UNL     1     -33.362   6.878   1.701  1.00 20.00     0.008 C 
ENDROOT
BRANCH   1   2
HETATM    2  C6  UNL     1     -33.112   5.625   2.553  1.00 20.00     0.004 C 
BRANCH   2   3
HETATM    3  C8  UNL     1     -34.353   5.175   3.352  1.00 20.00    -0.023 C 
HETATM    4  C1  UNL     1     -34.992   6.322   4.136  1.00 20.00     0.009 C 
HETATM    5  C2  UNL     1     -33.968   4.046   4.313  1.00 20.00     0.009 C 
ENDBRANCH   2   3
ENDBRANCH   1   2
BRANCH   1   6
HETATM    6  C9  UNL     1     -32.272   7.982   1.790  1.00 20.00    -0.051 C 
HETATM    7  C3  UNL     1     -30.886   7.425   1.424  1.00 20.00     0.014 C 
HETATM    8  C4  UNL     1     -32.226   8.492   3.244  1.00 20.00     0.014 C 
HETATM    9  C5  UNL     1     -32.601   9.168   0.870  1.00 20.00     0.014 C 
ENDBRANCH   1   6
TORSDOF 3
ENDMDL
MODEL 9
REMARK VINA RESULT:       0.1      1.654      4.294
REMARK  3 active torsions:
REMARK  status: ('A' for Active; 'I' for Inactive)
REMARK    1  A    between atoms: C6_6  and  C7_7 
REMARK    2  A    between atoms: C6_6  and  C8_8 
REMARK    3  A    between atoms: C7_7  and  C9_9 
ROOT
HETATM    1  C7  UNL     1     -31.777   7.261   1.349  1.00 20.00     0.008 C 
ENDROOT
BRANCH   1   2
HETATM    2  C6  UNL     1     -32.399   8.631   1.659  1.00 20.00     0.004 C 
BRANCH   2   3
HETATM    3  C8  UNL     1     -32.113   9.688   0.573  1.00 20.00    -0.023 C 
HETATM    4  C1  UNL     1     -32.845  11.006   0.831  1.00 20.00     0.009 C 
HETATM    5  C2  UNL     1     -32.511   9.138  -0.800  1.00 20.00     0.009 C 
ENDBRANCH   2   3
ENDBRANCH   1   2
BRANCH   1   6
HETATM    6  C9  UNL     1     -32.715   6.037   1.543  1.00 20.00    -0.051 C 
HETATM    7  C3  UNL     1     -33.513   6.149   2.853  1.00 20.00     0.014 C 
HETATM    8  C4  UNL     1     -31.839   4.770   1.611  1.00 20.00     0.014 C 
HETATM    9  C5  UNL     1     -33.691   5.888   0.365  1.00 20.00     0.014 C 
ENDBRANCH   1   6
TORSDOF 3
ENDMDL
