MODEL 1
REMARK VINA RESULT:       0.1      0.000      0.000
REMARK  0 active torsions:
REMARK  status: ('A' for Active; 'I' for Inactive)
ROOT
HETATM    1  C1  UNL     1     -31.828   5.341   1.152  1.00 20.00     0.002 A 
HETATM    2  C2  UNL     1     -32.705   4.816   2.101  1.00 20.00     0.016 A 
HETATM    3  C3  UNL     1     -31.722   6.730   0.968  1.00 20.00     0.019 A 
HETATM    4  C4  UNL     1     -33.451   5.714   2.841  1.00 20.00     0.017 A 
HETATM    5  C5  UNL     1     -33.361   7.091   2.674  1.00 20.00    -0.026 A 
HETATM    6  C6  UNL     1     -32.491   7.614   1.732  1.00 20.00     0.018 A 
HETATM    7  C7  UNL     1     -34.429   5.445   3.882  1.00 20.00     0.160 A 
HETATM    8  C8  UNL     1     -34.269   7.847   3.591  1.00 20.00     0.048 A 
HETATM    9  C9  UNL     1     -34.984   6.751   4.400  1.00 20.00     0.088 A 
HETATM   10  O10 UNL     1     -34.738   4.330   4.262  1.00 20.00    -0.292 OA
HETATM   11 BR11 UNL     1     -32.317   9.474   1.453  1.00 20.00    -0.051 Br
ENDROOT
TORSDOF 0
ENDMDL
MODEL 2
REMARK VINA RESULT:       0.2      2.796      4.359
REMARK  0 active torsions:
REMARK  status: ('A' for Active; 'I' for Inactive)
ROOT
HETATM    1  C1  UNL     1     -35.295   6.533   4.247  1.00 20.00     0.002 A 
HETATM    2  C2  UNL     1     -34.578   7.334   3.358  1.00 20.00     0.016 A 
HETATM    3  C3  UNL     1     -34.927   5.193   4.459  1.00 20.00     0.019 A 
HETATM    4  C4  UNL     1     -33.505   6.755   2.707  1.00 20.00     0.017 A 
HETATM    5  C5  UNL     1     -33.124   5.433   2.901  1.00 20.00    -0.026 A 
HETATM    6  C6  UNL     1     -33.835   4.636   3.784  1.00 20.00     0.018 A 
HETATM    7  C7  UNL     1     -32.597   7.352   1.740  1.00 20.00     0.160 A 
HETATM    8  C8  UNL     1     -31.935   5.045   2.084  1.00 20.00     0.048 A 
HETATM    9  C9  UNL     1     -31.579   6.324   1.306  1.00 20.00     0.088 A 
HETATM   10  O10 UNL     1     -32.667   8.504   1.355  1.00 20.00    -0.292 OA
HETATM   11 BR11 UNL     1     -33.373   2.831   4.098  1.00 20.00    -0.051 Br
ENDROOT
TORSDOF 0
ENDMDL
MODEL 3
REMARK VINA RESULT:       0.7      2.146      2.770
REMARK  0 active torsions:
REMARK  status: ('A' for Active; 'I' for Inactive)
ROOT
HETATM    1  C1  UNL     1     -31.573   8.285   1.724  1.00 20.00     0.002 A 
HETATM    2  C2  UNL     1     -32.357   8.500   2.857  1.00 20.00     0.016 A 
HETATM    3  C3  UNL     1     -31.672   7.083   1.004  1.00 20.00     0.019 A 
HETATM    4  C4  UNL     1     -33.224   7.490   3.230  1.00 20.00     0.017 A 
HETATM    5  C5  UNL     1     -33.338   6.294   2.532  1.00 20.00    -0.026 A 
HETATM    6  C6  UNL     1     -32.560   6.079   1.406  1.00 20.00     0.018 A 
HETATM    7  C7  UNL     1     -34.145   7.449   4.354  1.00 20.00     0.160 A 
HETATM    8  C8  UNL     1     -34.342   5.364   3.132  1.00 20.00     0.048 A 
HETATM    9  C9  UNL     1     -34.885   6.132   4.350  1.00 20.00     0.088 A 
HETATM   10  O10 UNL     1     -34.282   8.350   5.161  1.00 20.00    -0.292 OA
HETATM   11 BR11 UNL     1     -32.662   4.477   0.408  1.00 20.00    -0.051 Br
ENDROOT
TORSDOF 0
ENDMDL
MODEL 4
REMARK VINA RESULT:       2.0      0.855      2.726
REMARK  0 active torsions:
REMARK  status: ('A' for Active; 'I' for Inactive)
ROOT
HETATM    1  C1  UNL     1     -34.208   8.244   4.181  1.00 20.00     0.002 A 
HETATM    2  C2  UNL     1     -34.340   6.861   4.300  1.00 20.00     0.016 A 
HETATM    3  C3  UNL     1     -33.450   8.804   3.138  1.00 20.00     0.019 A 
HETATM    4  C4  UNL     1     -33.700   6.080   3.356  1.00 20.00     0.017 A 
HETATM    5  C5  UNL     1     -32.945   6.612   2.318  1.00 20.00    -0.026 A 
HETATM    6  C6  UNL     1     -32.814   7.986   2.198  1.00 20.00     0.018 A 
HETATM    7  C7  UNL     1     -33.670   4.630   3.243  1.00 20.00     0.160 A 
HETATM    8  C8  UNL     1     -32.356   5.563   1.432  1.00 20.00     0.048 A 
HETATM    9  C9  UNL     1     -32.838   4.237   2.046  1.00 20.00     0.088 A 
HETATM   10  O10 UNL     1     -34.236   3.871   4.008  1.00 20.00    -0.292 OA
HETATM   11 BR11 UNL     1     -31.803   8.778   0.812  1.00 20.00    -0.051 Br
ENDROOT
TORSDOF 0
ENDMDL
MODEL 5
REMARK VINA RESULT:       2.6      1.975      3.385
REMARK  0 active torsions:
REMARK  status: ('A' for Active; 'I' for Inactive)
ROOT
HETATM    1  C1  UNL     1     -34.604   4.793   3.859  1.00 20.00     0.002 A 
HETATM    2  C2  UNL     1     -33.759   4.604   2.766  1.00 20.00     0.016 A 
HETATM    3  C3  UNL     1     -34.717   6.056   4.466  1.00 20.00     0.019 A 
HETATM    4  C4  UNL     1     -33.051   5.702   2.315  1.00 20.00     0.017 A 
HETATM    5  C5  UNL     1     -33.148   6.959   2.900  1.00 20.00    -0.026 A 
HETATM    6  C6  UNL     1     -33.987   7.148   3.985  1.00 20.00     0.018 A 
HETATM    7  C7  UNL     1     -32.111   5.787   1.208  1.00 20.00     0.160 A 
HETATM    8  C8  UNL     1     -32.284   7.979   2.230  1.00 20.00     0.048 A 
HETATM    9  C9  UNL     1     -31.590   7.201   1.099  1.00 20.00     0.088 A 
HETATM   10  O10 UNL     1     -31.806   4.850   0.494  1.00 20.00    -0.292 OA
HETATM   11 BR11 UNL     1     -34.168   8.829   4.830  1.00 20.00    -0.051 Br
ENDROOT
TORSDOF 0
ENDMDL
MODEL 6
REMARK VINA RESULT:       2.7      2.829      3.688
REMARK  0 active torsions:
REMARK  status: ('A' for Active; 'I' for Inactive)
ROOT
HETATM    1  C1  UNL     1     -32.266   4.912   1.577  1.00 20.00     0.002 A 
HETATM    2  C2  UNL     1     -31.714   6.042   0.975  1.00 20.00     0.016 A 
HETATM    3  C3  UNL     1     -33.275   5.038   2.546  1.00 20.00     0.019 A 
HETATM    4  C4  UNL     1     -32.202   7.274   1.371  1.00 20.00     0.017 A 
HETATM    5  C5  UNL     1     -33.200   7.421   2.327  1.00 20.00    -0.026 A 
HETATM    6  C6  UNL     1     -33.749   6.299   2.926  1.00 20.00     0.018 A 
HETATM    7  C7  UNL     1     -31.812   8.597   0.913  1.00 20.00     0.160 A 
HETATM    8  C8  UNL     1     -33.554   8.851   2.580  1.00 20.00     0.048 A 
HETATM    9  C9  UNL     1     -32.629   9.640   1.638  1.00 20.00     0.088 A 
HETATM   10  O10 UNL     1     -30.956   8.808   0.075  1.00 20.00    -0.292 OA
HETATM   11 BR11 UNL     1     -35.108   6.425   4.232  1.00 20.00    -0.051 Br
ENDROOT
TORSDOF 0
ENDMDL
MODEL 7
REMARK VINA RESULT:       2.9      2.799      3.408
REMARK  0 active torsions:
REMARK  status: ('A' for Active; 'I' for Inactive)
ROOT
HETATM    1  C1  UNL     1     -31.982   5.002   1.061  1.00 20.00     0.002 A 
HETATM    2  C2  UNL     1     -31.984   6.395   0.987  1.00 20.00     0.016 A 
HETATM    3  C3  UNL     1     -32.667   4.340   2.093  1.00 20.00     0.019 A 
HETATM    4  C4  UNL     1     -32.683   7.080   1.963  1.00 20.00     0.017 A 
HETATM    5  C5  UNL     1     -33.368   6.445   2.991  1.00 20.00    -0.026 A 
HETATM    6  C6  UNL     1     -33.367   5.062   3.065  1.00 20.00     0.018 A 
HETATM    7  C7  UNL     1     -32.849   8.516   2.124  1.00 20.00     0.160 A 
HETATM    8  C8  UNL     1     -34.044   7.404   3.917  1.00 20.00     0.048 A 
HETATM    9  C9  UNL     1     -33.701   8.789   3.342  1.00 20.00     0.088 A 
HETATM   10  O10 UNL     1     -32.367   9.350   1.381  1.00 20.00    -0.292 OA
HETATM   11 BR11 UNL     1     -34.276   4.132   4.436  1.00 20.00    -0.051 Br
ENDROOT
TORSDOF 0
ENDMDL
