MODEL 1
REMARK VINA RESULT:      -2.5      0.000      0.000
REMARK  2 active torsions:
REMARK  status: ('A' for Active; 'I' for Inactive)
REMARK    1  A    between atoms: C1_1  and  C3_3 
REMARK    2  A    between atoms: C2_2  and  C3_3 
ROOT
HETATM    1  C3  UNL     1     -33.119   7.284   2.120  1.00 20.00     0.109 C 
HETATM    2 CL6  UNL     1     -32.790   5.586   1.632  1.00 20.00    -0.123 Cl
ENDROOT
BRANCH   1   3
HETATM    3  C1  UNL     1     -31.924   8.172   1.756  1.00 20.00     0.135 C 
HETATM    4 CL4  UNL     1     -32.316   9.444   0.573  1.00 20.00    -0.129 Cl
ENDBRANCH   1   3
BRANCH   1   5
HETATM    5  C2  UNL     1     -33.533   7.298   3.593  1.00 20.00     0.135 C 
HETATM    6 CL5  UNL     1     -35.088   6.469   3.853  1.00 20.00    -0.129 Cl
ENDBRANCH   1   5
TORSDOF 2
ENDMDL
MODEL 2
REMARK VINA RESULT:      -2.1      2.041      4.135
REMARK  2 active torsions:
REMARK  status: ('A' for Active; 'I' for Inactive)
REMARK    1  A    between atoms: C1_1  and  C3_3 
REMARK    2  A    between atoms: C2_2  and  C3_3 
ROOT
HETATM    1  C3  UNL     1     -34.379   6.559   3.400  1.00 20.00     0.109 C 
HETATM    2 CL6  UNL     1     -33.824   7.863   4.504  1.00 20.00    -0.123 Cl
ENDROOT
BRANCH   1   3
HETATM    3  C1  UNL     1     -34.959   5.397   4.215  1.00 20.00     0.135 C 
HETATM    4 CL4  UNL     1     -33.949   3.931   4.182  1.00 20.00    -0.129 Cl
ENDBRANCH   1   3
BRANCH   1   5
HETATM    5  C2  UNL     1     -33.233   6.199   2.452  1.00 20.00     0.135 C 
HETATM    6 CL5  UNL     1     -32.301   7.635   1.962  1.00 20.00    -0.129 Cl
ENDBRANCH   1   5
TORSDOF 2
ENDMDL
MODEL 3
REMARK VINA RESULT:      -1.9      2.149      2.722
REMARK  2 active torsions:
REMARK  status: ('A' for Active; 'I' for Inactive)
REMARK    1  A    between atoms: C1_1  and  C3_3 
REMARK    2  A    between atoms: C2_2  and  C3_3 
ROOT
HETATM    1  C3  UNL     1     -33.539   6.026   3.475  1.00 20.00     0.109 C 
HETATM    2 CL6  UNL     1     -34.296   7.559   4.027  1.00 20.00    -0.123 Cl
ENDROOT
BRANCH   1   3
HETATM    3  C1  UNL     1     -33.124   6.150   2.005  1.00 20.00     0.135 C 
HETATM    4 CL4  UNL     1     -32.085   7.558   1.674  1.00 20.00    -0.129 Cl
ENDBRANCH   1   3
BRANCH   1   5
HETATM    5  C2  UNL     1     -34.483   4.868   3.804  1.00 20.00     0.135 C 
HETATM    6 CL5  UNL     1     -33.600   3.440   4.397  1.00 20.00    -0.129 Cl
ENDBRANCH   1   5
TORSDOF 2
ENDMDL
MODEL 4
REMARK VINA RESULT:      -1.8      1.059      2.435
REMARK  2 active torsions:
REMARK  status: ('A' for Active; 'I' for Inactive)
REMARK    1  A    between atoms: C1_1  and  C3_3 
REMARK    2  A    between atoms: C2_2  and  C3_3 
ROOT
HETATM    1  C3  UNL     1     -32.706   7.128   2.646  1.00 20.00     0.109 C 
HETATM    2 CL6  UNL     1     -32.211   8.503   1.600  1.00 20.00    -0.123 Cl
ENDROOT
BRANCH   1   3
HETATM    3  C1  UNL     1     -33.139   5.942   1.777  1.00 20.00     0.135 C 
HETATM    4 CL4  UNL     1     -31.776   5.069   1.033  1.00 20.00    -0.129 Cl
ENDBRANCH   1   3
BRANCH   1   5
HETATM    5  C2  UNL     1     -33.743   7.628   3.653  1.00 20.00     0.135 C 
HETATM    6 CL5  UNL     1     -35.064   6.457   3.882  1.00 20.00    -0.129 Cl
ENDBRANCH   1   5
TORSDOF 2
ENDMDL
MODEL 5
REMARK VINA RESULT:      -1.8      1.095      3.359
REMARK  2 active torsions:
REMARK  status: ('A' for Active; 'I' for Inactive)
REMARK    1  A    between atoms: C1_1  and  C3_3 
REMARK    2  A    between atoms: C2_2  and  C3_3 
ROOT
HETATM    1  C3  UNL     1     -33.249   7.214   2.184  1.00 20.00     0.109 C 
HETATM    2 CL6  UNL     1     -33.796   7.579   3.856  1.00 20.00    -0.123 Cl
ENDROOT
BRANCH   1   3
HETATM    3  C1  UNL     1     -33.122   5.699   1.996  1.00 20.00     0.135 C 
HETATM    4 CL4  UNL     1     -31.718   5.219   1.011  1.00 20.00    -0.129 Cl
ENDBRANCH   1   3
BRANCH   1   5
HETATM    5  C2  UNL     1     -31.987   8.029   1.893  1.00 20.00     0.135 C 
HETATM    6 CL5  UNL     1     -32.282   9.301   0.683  1.00 20.00    -0.129 Cl
ENDBRANCH   1   5
TORSDOF 2
ENDMDL
MODEL 6
REMARK VINA RESULT:      -1.8      1.056      3.250
REMARK  2 active torsions:
REMARK  status: ('A' for Active; 'I' for Inactive)
REMARK    1  A    between atoms: C1_1  and  C3_3 
REMARK    2  A    between atoms: C2_2  and  C3_3 
ROOT
HETATM    1  C3  UNL     1     -31.961   7.644   1.849  1.00 20.00     0.109 C 
HETATM    2 CL6  UNL     1     -32.747   6.070   1.482  1.00 20.00    -0.123 Cl
ENDROOT
BRANCH   1   3
HETATM    3  C1  UNL     1     -32.694   8.335   3.003  1.00 20.00     0.135 C 
HETATM    4 CL4  UNL     1     -33.985   7.343   3.724  1.00 20.00    -0.129 Cl
ENDBRANCH   1   3
BRANCH   1   5
HETATM    5  C2  UNL     1     -31.852   8.450   0.553  1.00 20.00     0.135 C 
HETATM    6 CL5  UNL     1     -32.616  10.051   0.701  1.00 20.00    -0.129 Cl
ENDBRANCH   1   5
TORSDOF 2
ENDMDL
MODEL 7
REMARK VINA RESULT:      -1.7      1.592      3.813
REMARK  2 active torsions:
REMARK  status: ('A' for Active; 'I' for Inactive)
REMARK    1  A    between atoms: C1_1  and  C3_3 
REMARK    2  A    between atoms: C2_2  and  C3_3 
ROOT
HETATM    1  C3  UNL     1     -33.312   7.635   3.046  1.00 20.00     0.109 C 
HETATM    2 CL6  UNL     1     -32.892   8.236   4.687  1.00 20.00    -0.123 Cl
ENDROOT
BRANCH   1   3
HETATM    3  C1  UNL     1     -33.895   6.221   3.142  1.00 20.00     0.135 C 
HETATM    4 CL4  UNL     1     -35.406   6.136   4.081  1.00 20.00    -0.129 Cl
ENDBRANCH   1   3
BRANCH   1   5
HETATM    5  C2  UNL     1     -32.088   7.789   2.141  1.00 20.00     0.135 C 
HETATM    6 CL5  UNL     1     -32.317   9.072   0.927  1.00 20.00    -0.129 Cl
ENDBRANCH   1   5
TORSDOF 2
ENDMDL
MODEL 8
REMARK VINA RESULT:      -1.7      2.647      4.024
REMARK  2 active torsions:
REMARK  status: ('A' for Active; 'I' for Inactive)
REMARK    1  A    between atoms: C1_1  and  C3_3 
REMARK    2  A    between atoms: C2_2  and  C3_3 
ROOT
HETATM    1  C3  UNL     1     -33.624   5.449   3.521  1.00 20.00     0.109 C 
HETATM    2 CL6  UNL     1     -33.051   5.595   1.824  1.00 20.00    -0.123 Cl
ENDROOT
BRANCH   1   3
HETATM    3  C1  UNL     1     -34.101   4.017   3.788  1.00 20.00     0.135 C 
HETATM    4 CL4  UNL     1     -33.041   3.107   4.892  1.00 20.00    -0.129 Cl
ENDBRANCH   1   3
BRANCH   1   5
HETATM    5  C2  UNL     1     -34.649   6.552   3.788  1.00 20.00     0.135 C 
HETATM    6 CL5  UNL     1     -33.902   7.986   4.534  1.00 20.00    -0.129 Cl
ENDBRANCH   1   5
TORSDOF 2
ENDMDL
MODEL 9
REMARK VINA RESULT:      -1.7      0.477      3.245
REMARK  2 active torsions:
REMARK  status: ('A' for Active; 'I' for Inactive)
REMARK    1  A    between atoms: C1_1  and  C3_3 
REMARK    2  A    between atoms: C2_2  and  C3_3 
ROOT
HETATM    1  C3  UNL     1     -32.539   7.084   2.568  1.00 20.00     0.109 C 
HETATM    2 CL6  UNL     1     -33.059   5.798   1.427  1.00 20.00    -0.123 Cl
ENDROOT
BRANCH   1   3
HETATM    3  C1  UNL     1     -33.763   7.694   3.259  1.00 20.00     0.135 C 
HETATM    4 CL4  UNL     1     -34.933   6.482   3.838  1.00 20.00    -0.129 Cl
ENDBRANCH   1   3
BRANCH   1   5
HETATM    5  C2  UNL     1     -31.639   8.068   1.819  1.00 20.00     0.135 C 
HETATM    6 CL5  UNL     1     -32.580   9.185   0.801  1.00 20.00    -0.129 Cl
ENDBRANCH   1   5
TORSDOF 2
ENDMDL
