MODEL 1
REMARK VINA RESULT:      -0.5      0.000      0.000
REMARK  2 active torsions:
REMARK  status: ('A' for Active; 'I' for Inactive)
REMARK    1  A    between atoms: C1_1  and  C6_6 
REMARK    2  A    between atoms: C5_5  and  C10_10 
ROOT
HETATM    1  C2  UNL     1     -32.856   5.632   1.886  1.00 20.00     0.006 C 
HETATM    2  C3  UNL     1     -32.034   6.599   1.034  1.00 20.00     0.016 C 
HETATM    3  C4  UNL     1     -32.805   7.683   3.091  1.00 20.00     0.021 C 
HETATM    4  C5  UNL     1     -33.745   6.530   2.740  1.00 20.00    -0.010 C 
HETATM    5  C6  UNL     1     -32.046   7.949   1.781  1.00 20.00     0.010 C 
HETATM    6  C7  UNL     1     -30.640   8.485   2.038  1.00 20.00     0.023 C 
ENDROOT
BRANCH   4   7
HETATM    7  C10 UNL     1     -34.309   5.825   3.962  1.00 20.00    -0.019 C 
HETATM    8  C8  UNL     1     -35.804   6.110   4.114  1.00 20.00     0.010 C 
HETATM    9  C9  UNL     1     -34.062   4.317   3.883  1.00 20.00     0.010 C 
ENDBRANCH   4   7
BRANCH   5  10
HETATM   10  C1  UNL     1     -32.776   8.983   0.962  1.00 20.00     0.240 C 
HETATM   11  O11 UNL     1     -32.232   9.683   0.115  1.00 20.00    -0.306 OA
ENDBRANCH   5  10
TORSDOF 2
ENDMDL
MODEL 2
REMARK VINA RESULT:       0.6      1.675      2.268
REMARK  2 active torsions:
REMARK  status: ('A' for Active; 'I' for Inactive)
REMARK    1  A    between atoms: C1_1  and  C6_6 
REMARK    2  A    between atoms: C5_5  and  C10_10 
ROOT
HETATM    1  C2  UNL     1     -33.101   7.988   4.263  1.00 20.00     0.006 C 
HETATM    2  C3  UNL     1     -32.014   8.462   3.298  1.00 20.00     0.016 C 
HETATM    3  C4  UNL     1     -33.755   7.213   2.111  1.00 20.00     0.021 C 
HETATM    4  C5  UNL     1     -33.726   6.779   3.576  1.00 20.00    -0.010 C 
HETATM    5  C6  UNL     1     -32.402   7.913   1.909  1.00 20.00     0.010 C 
HETATM    6  C7  UNL     1     -32.481   9.009   0.850  1.00 20.00     0.023 C 
ENDROOT
BRANCH   4   7
HETATM    7  C10 UNL     1     -35.099   6.426   4.122  1.00 20.00    -0.019 C 
HETATM    8  C8  UNL     1     -36.192   6.757   3.105  1.00 20.00     0.010 C 
HETATM    9  C9  UNL     1     -35.166   4.948   4.512  1.00 20.00     0.010 C 
ENDBRANCH   4   7
BRANCH   5  10
HETATM   10  C1  UNL     1     -31.370   6.916   1.444  1.00 20.00     0.240 C 
HETATM   11  O11 UNL     1     -31.598   5.718   1.312  1.00 20.00    -0.306 OA
ENDBRANCH   5  10
TORSDOF 2
ENDMDL
MODEL 3
REMARK VINA RESULT:       0.6      1.978      4.282
REMARK  2 active torsions:
REMARK  status: ('A' for Active; 'I' for Inactive)
REMARK    1  A    between atoms: C1_1  and  C6_6 
REMARK    2  A    between atoms: C5_5  and  C10_10 
ROOT
HETATM    1  C2  UNL     1     -32.482   6.552   1.486  1.00 20.00     0.006 C 
HETATM    2  C3  UNL     1     -33.055   5.917   2.754  1.00 20.00     0.016 C 
HETATM    3  C4  UNL     1     -33.761   8.254   2.548  1.00 20.00     0.021 C 
HETATM    4  C5  UNL     1     -32.455   8.047   1.782  1.00 20.00    -0.010 C 
HETATM    5  C6  UNL     1     -33.838   7.032   3.478  1.00 20.00     0.010 C 
HETATM    6  C7  UNL     1     -35.281   6.633   3.774  1.00 20.00     0.023 C 
ENDROOT
BRANCH   4   7
HETATM    7  C10 UNL     1     -32.355   8.903   0.530  1.00 20.00    -0.019 C 
HETATM    8  C8  UNL     1     -32.731  10.355   0.830  1.00 20.00     0.010 C 
HETATM    9  C9  UNL     1     -30.948   8.831  -0.067  1.00 20.00     0.010 C 
ENDBRANCH   4   7
BRANCH   5  10
HETATM   10  C1  UNL     1     -33.181   7.347   4.798  1.00 20.00     0.240 C 
HETATM   11  O11 UNL     1     -33.031   8.487   5.225  1.00 20.00    -0.306 OA
ENDBRANCH   5  10
TORSDOF 2
ENDMDL
MODEL 4
REMARK VINA RESULT:       0.8      1.878      4.460
REMARK  2 active torsions:
REMARK  status: ('A' for Active; 'I' for Inactive)
REMARK    1  A    between atoms: C1_1  and  C6_6 
REMARK    2  A    between atoms: C5_5  and  C10_10 
ROOT
HETATM    1  C2  UNL     1     -33.176   8.031   4.107  1.00 20.00     0.006 C 
HETATM    2  C3  UNL     1     -34.243   7.171   4.786  1.00 20.00     0.016 C 
HETATM    3  C4  UNL     1     -33.552   6.189   2.650  1.00 20.00     0.021 C 
HETATM    4  C5  UNL     1     -33.294   7.695   2.625  1.00 20.00    -0.010 C 
HETATM    5  C6  UNL     1     -34.534   6.004   3.819  1.00 20.00     0.010 C 
HETATM    6  C7  UNL     1     -34.374   4.641   4.485  1.00 20.00     0.023 C 
ENDROOT
BRANCH   4   7
HETATM    7  C10 UNL     1     -32.060   8.077   1.825  1.00 20.00    -0.019 C 
HETATM    8  C8  UNL     1     -31.482   6.860   1.101  1.00 20.00     0.010 C 
HETATM    9  C9  UNL     1     -32.382   9.188   0.824  1.00 20.00     0.010 C 
ENDBRANCH   4   7
BRANCH   5  10
HETATM   10  C1  UNL     1     -35.954   6.094   3.319  1.00 20.00     0.240 C 
HETATM   11  O11 UNL     1     -36.474   7.139   2.941  1.00 20.00    -0.306 OA
ENDBRANCH   5  10
TORSDOF 2
ENDMDL
MODEL 5
REMARK VINA RESULT:       1.1      2.439      4.476
REMARK  2 active torsions:
REMARK  status: ('A' for Active; 'I' for Inactive)
REMARK    1  A    between atoms: C1_1  and  C6_6 
REMARK    2  A    between atoms: C5_5  and  C10_10 
ROOT
HETATM    1  C2  UNL     1     -33.100   6.321   1.189  1.00 20.00     0.006 C 
HETATM    2  C3  UNL     1     -34.090   5.377   1.873  1.00 20.00     0.016 C 
HETATM    3  C4  UNL     1     -33.315   7.109   3.423  1.00 20.00     0.021 C 
HETATM    4  C5  UNL     1     -32.269   6.901   2.329  1.00 20.00    -0.010 C 
HETATM    5  C6  UNL     1     -34.190   5.847   3.339  1.00 20.00     0.010 C 
HETATM    6  C7  UNL     1     -35.628   6.125   3.766  1.00 20.00     0.023 C 
ENDROOT
BRANCH   4   7
HETATM    7  C10 UNL     1     -31.541   8.178   1.947  1.00 20.00    -0.019 C 
HETATM    8  C8  UNL     1     -32.294   8.927   0.845  1.00 20.00     0.010 C 
HETATM    9  C9  UNL     1     -31.349   9.081   3.167  1.00 20.00     0.010 C 
ENDBRANCH   4   7
BRANCH   5  10
HETATM   10  C1  UNL     1     -33.648   4.782   4.259  1.00 20.00     0.240 C 
HETATM   11  O11 UNL     1     -34.001   3.608   4.216  1.00 20.00    -0.306 OA
ENDBRANCH   5  10
TORSDOF 2
ENDMDL
MODEL 6
REMARK VINA RESULT:       1.1      2.271      4.497
REMARK  2 active torsions:
REMARK  status: ('A' for Active; 'I' for Inactive)
REMARK    1  A    between atoms: C1_1  and  C6_6 
REMARK    2  A    between atoms: C5_5  and  C10_10 
ROOT
HETATM    1  C2  UNL     1     -32.225   8.424   3.016  1.00 20.00     0.006 C 
HETATM    2  C3  UNL     1     -32.864   7.468   4.024  1.00 20.00     0.016 C 
HETATM    3  C4  UNL     1     -33.373   6.789   1.726  1.00 20.00     0.021 C 
HETATM    4  C5  UNL     1     -33.078   8.288   1.760  1.00 20.00    -0.010 C 
HETATM    5  C6  UNL     1     -33.660   6.438   3.195  1.00 20.00     0.010 C 
HETATM    6  C7  UNL     1     -33.269   5.000   3.522  1.00 20.00     0.023 C 
ENDROOT
BRANCH   4   7
HETATM    7  C10 UNL     1     -32.380   8.788   0.506  1.00 20.00    -0.019 C 
HETATM    8  C8  UNL     1     -32.623  10.285   0.307  1.00 20.00     0.010 C 
HETATM    9  C9  UNL     1     -30.879   8.498   0.566  1.00 20.00     0.010 C 
ENDBRANCH   4   7
BRANCH   5  10
HETATM   10  C1  UNL     1     -35.134   6.577   3.480  1.00 20.00     0.240 C 
HETATM   11  O11 UNL     1     -35.731   5.889   4.302  1.00 20.00    -0.306 OA
ENDBRANCH   5  10
TORSDOF 2
ENDMDL
MODEL 7
REMARK VINA RESULT:       1.3      1.395      2.406
REMARK  2 active torsions:
REMARK  status: ('A' for Active; 'I' for Inactive)
REMARK    1  A    between atoms: C1_1  and  C6_6 
REMARK    2  A    between atoms: C5_5  and  C10_10 
ROOT
HETATM    1  C2  UNL     1     -34.220   7.308   3.799  1.00 20.00     0.006 C 
HETATM    2  C3  UNL     1     -33.424   8.406   3.093  1.00 20.00     0.016 C 
HETATM    3  C4  UNL     1     -33.105   6.244   1.988  1.00 20.00     0.021 C 
HETATM    4  C5  UNL     1     -33.490   6.016   3.449  1.00 20.00    -0.010 C 
HETATM    5  C6  UNL     1     -32.652   7.712   1.952  1.00 20.00     0.010 C 
HETATM    6  C7  UNL     1     -32.916   8.356   0.594  1.00 20.00     0.023 C 
ENDROOT
BRANCH   4   7
HETATM    7  C10 UNL     1     -34.340   4.774   3.657  1.00 20.00    -0.019 C 
HETATM    8  C8  UNL     1     -33.497   3.623   4.209  1.00 20.00     0.010 C 
HETATM    9  C9  UNL     1     -35.515   5.068   4.591  1.00 20.00     0.010 C 
ENDBRANCH   4   7
BRANCH   5  10
HETATM   10  C1  UNL     1     -31.168   7.801   2.208  1.00 20.00     0.240 C 
HETATM   11  O11 UNL     1     -30.672   8.514   3.074  1.00 20.00    -0.306 OA
ENDBRANCH   5  10
TORSDOF 2
ENDMDL
MODEL 8
REMARK VINA RESULT:       1.5      1.079      2.125
REMARK  2 active torsions:
REMARK  status: ('A' for Active; 'I' for Inactive)
REMARK    1  A    between atoms: C1_1  and  C6_6 
REMARK    2  A    between atoms: C5_5  and  C10_10 
ROOT
HETATM    1  C2  UNL     1     -33.126   7.569   3.975  1.00 20.00     0.006 C 
HETATM    2  C3  UNL     1     -32.277   8.600   3.229  1.00 20.00     0.016 C 
HETATM    3  C4  UNL     1     -33.436   7.117   1.660  1.00 20.00     0.021 C 
HETATM    4  C5  UNL     1     -33.263   6.404   3.001  1.00 20.00    -0.010 C 
HETATM    5  C6  UNL     1     -32.427   8.275   1.728  1.00 20.00     0.010 C 
HETATM    6  C7  UNL     1     -32.891   9.480   0.915  1.00 20.00     0.023 C 
ENDROOT
BRANCH   4   7
HETATM    7  C10 UNL     1     -34.418   5.477   3.338  1.00 20.00    -0.019 C 
HETATM    8  C8  UNL     1     -33.914   4.204   4.020  1.00 20.00     0.010 C 
HETATM    9  C9  UNL     1     -35.444   6.184   4.226  1.00 20.00     0.010 C 
ENDBRANCH   4   7
BRANCH   5  10
HETATM   10  C1  UNL     1     -31.100   7.837   1.162  1.00 20.00     0.240 C 
HETATM   11  O11 UNL     1     -30.624   8.290   0.126  1.00 20.00    -0.306 OA
ENDBRANCH   5  10
TORSDOF 2
ENDMDL
MODEL 9
REMARK VINA RESULT:       1.8      2.165      3.241
REMARK  2 active torsions:
REMARK  status: ('A' for Active; 'I' for Inactive)
REMARK    1  A    between atoms: C1_1  and  C6_6 
REMARK    2  A    between atoms: C5_5  and  C10_10 
ROOT
HETATM    1  C2  UNL     1     -32.643   8.033   1.947  1.00 20.00     0.006 C 
HETATM    2  C3  UNL     1     -32.054   7.107   0.882  1.00 20.00     0.016 C 
HETATM    3  C4  UNL     1     -33.564   5.881   2.370  1.00 20.00     0.021 C 
HETATM    4  C5  UNL     1     -33.016   7.107   3.100  1.00 20.00    -0.010 C 
HETATM    5  C6  UNL     1     -32.602   5.698   1.186  1.00 20.00     0.010 C 
HETATM    6  C7  UNL     1     -33.297   5.070  -0.019  1.00 20.00     0.023 C 
ENDROOT
BRANCH   4   7
HETATM    7  C10 UNL     1     -34.014   7.725   4.064  1.00 20.00    -0.019 C 
HETATM    8  C8  UNL     1     -35.151   6.749   4.372  1.00 20.00     0.010 C 
HETATM    9  C9  UNL     1     -33.323   8.161   5.358  1.00 20.00     0.010 C 
ENDBRANCH   4   7
BRANCH   5  10
HETATM   10  C1  UNL     1     -31.471   4.780   1.578  1.00 20.00     0.240 C 
HETATM   11  O11 UNL     1     -30.843   4.098   0.774  1.00 20.00    -0.306 OA
ENDBRANCH   5  10
TORSDOF 2
ENDMDL
