MODEL 1
REMARK VINA RESULT:      -2.3      0.000      0.000
REMARK  7 active torsions:
REMARK  status: ('A' for Active; 'I' for Inactive)
REMARK    1  A    between atoms: C1_1  and  C4_4 
REMARK    2  A    between atoms: C1_1  and  O10_10 
REMARK    3  A    between atoms: C4_4  and  C5_5 
REMARK    4  A    between atoms: C5_5  and  C6_6 
REMARK    5  A    between atoms: C6_6  and  C7_7 
REMARK    6  A    between atoms: C7_7  and  C8_8 
REMARK    7  A    between atoms: C8_8  and  O11_11 
ROOT
HETATM    1  C5  UNL     1     -33.171   7.464   3.877  1.00 20.00     0.010 C 
ENDROOT
BRANCH   1   2
HETATM    2  C4  UNL     1     -32.614   8.414   2.815  1.00 20.00     0.111 C 
BRANCH   2   3
HETATM    3  C1  UNL     1     -32.030   7.694   1.620  1.00 20.00     0.258 C 
HETATM    4  O9  UNL     1     -32.003   6.480   1.473  1.00 20.00    -0.265 OA
BRANCH   3   5
HETATM    5  O10 UNL     1     -31.571   8.619   0.726  1.00 20.00    -0.326 OA
HETATM    6  C2  UNL     1     -32.459   9.708   0.455  1.00 20.00     0.213 C 
ENDBRANCH   3   5
ENDBRANCH   2   3
ENDBRANCH   1   2
BRANCH   1   7
HETATM    7  C6  UNL     1     -34.690   7.298   3.774  1.00 20.00     0.002 C 
BRANCH   7   8
HETATM    8  C7  UNL     1     -35.117   5.878   4.143  1.00 20.00     0.026 C 
BRANCH   8   9
HETATM    9  C8  UNL     1     -34.078   4.850   3.720  1.00 20.00     0.167 C 
BRANCH   9  10
HETATM   10  O11 UNL     1     -34.297   3.649   4.447  1.00 20.00    -0.396 OA
HETATM   11  C3  UNL     1     -33.074   3.000   4.765  1.00 20.00     0.201 C 
ENDBRANCH   9  10
ENDBRANCH   8   9
ENDBRANCH   7   8
ENDBRANCH   1   7
TORSDOF 7
ENDMDL
MODEL 2
REMARK VINA RESULT:      -2.2      1.293      5.564
REMARK  7 active torsions:
REMARK  status: ('A' for Active; 'I' for Inactive)
REMARK    1  A    between atoms: C1_1  and  C4_4 
REMARK    2  A    between atoms: C1_1  and  O10_10 
REMARK    3  A    between atoms: C4_4  and  C5_5 
REMARK    4  A    between atoms: C5_5  and  C6_6 
REMARK    5  A    between atoms: C6_6  and  C7_7 
REMARK    6  A    between atoms: C7_7  and  C8_8 
REMARK    7  A    between atoms: C8_8  and  O11_11 
ROOT
HETATM    1  C5  UNL     1     -34.101   7.044   3.732  1.00 20.00     0.010 C 
ENDROOT
BRANCH   1   2
HETATM    2  C4  UNL     1     -33.827   5.608   3.284  1.00 20.00     0.111 C 
BRANCH   2   3
HETATM    3  C1  UNL     1     -34.534   4.574   4.133  1.00 20.00     0.258 C 
HETATM    4  O9  UNL     1     -35.541   4.777   4.797  1.00 20.00    -0.265 OA
BRANCH   3   5
HETATM    5  O10 UNL     1     -33.885   3.379   4.009  1.00 20.00    -0.326 OA
HETATM    6  C2  UNL     1     -33.012   3.037   5.091  1.00 20.00     0.213 C 
ENDBRANCH   3   5
ENDBRANCH   2   3
ENDBRANCH   1   2
BRANCH   1   7
HETATM    7  C6  UNL     1     -33.094   8.040   3.148  1.00 20.00     0.002 C 
BRANCH   7   8
HETATM    8  C7  UNL     1     -32.373   7.452   1.937  1.00 20.00     0.026 C 
BRANCH   8   9
HETATM    9  C8  UNL     1     -31.642   8.524   1.142  1.00 20.00     0.167 C 
BRANCH   9  10
HETATM   10  O11 UNL     1     -32.503   9.643   0.979  1.00 20.00    -0.396 OA
HETATM   11  C3  UNL     1     -32.656   9.988  -0.390  1.00 20.00     0.201 C 
ENDBRANCH   9  10
ENDBRANCH   8   9
ENDBRANCH   7   8
ENDBRANCH   1   7
TORSDOF 7
ENDMDL
MODEL 3
REMARK VINA RESULT:      -2.0      1.517      5.712
REMARK  7 active torsions:
REMARK  status: ('A' for Active; 'I' for Inactive)
REMARK    1  A    between atoms: C1_1  and  C4_4 
REMARK    2  A    between atoms: C1_1  and  O10_10 
REMARK    3  A    between atoms: C4_4  and  C5_5 
REMARK    4  A    between atoms: C5_5  and  C6_6 
REMARK    5  A    between atoms: C6_6  and  C7_7 
REMARK    6  A    between atoms: C7_7  and  C8_8 
REMARK    7  A    between atoms: C8_8  and  O11_11 
ROOT
HETATM    1  C5  UNL     1     -33.406   5.671   1.980  1.00 20.00     0.010 C 
ENDROOT
BRANCH   1   2
HETATM    2  C4  UNL     1     -33.903   5.996   3.389  1.00 20.00     0.111 C 
BRANCH   2   3
HETATM    3  C1  UNL     1     -34.562   4.820   4.075  1.00 20.00     0.258 C 
HETATM    4  O9  UNL     1     -35.580   4.879   4.751  1.00 20.00    -0.265 OA
BRANCH   3   5
HETATM    5  O10 UNL     1     -33.855   3.687   3.789  1.00 20.00    -0.326 OA
HETATM    6  C2  UNL     1     -33.192   3.077   4.901  1.00 20.00     0.213 C 
ENDBRANCH   3   5
ENDBRANCH   2   3
ENDBRANCH   1   2
BRANCH   1   7
HETATM    7  C6  UNL     1     -32.088   6.377   1.647  1.00 20.00     0.002 C 
BRANCH   7   8
HETATM    8  C7  UNL     1     -32.140   7.855   2.033  1.00 20.00     0.026 C 
BRANCH   8   9
HETATM    9  C8  UNL     1     -31.694   8.751   0.887  1.00 20.00     0.167 C 
BRANCH   9  10
HETATM   10  O11 UNL     1     -32.606   9.835   0.769  1.00 20.00    -0.396 OA
HETATM   11  C3  UNL     1     -32.752  10.250  -0.582  1.00 20.00     0.201 C 
ENDBRANCH   9  10
ENDBRANCH   8   9
ENDBRANCH   7   8
ENDBRANCH   1   7
TORSDOF 7
ENDMDL
MODEL 4
REMARK VINA RESULT:      -1.7      1.146      1.433
REMARK  7 active torsions:
REMARK  status: ('A' for Active; 'I' for Inactive)
REMARK    1  A    between atoms: C1_1  and  C4_4 
REMARK    2  A    between atoms: C1_1  and  O10_10 
REMARK    3  A    between atoms: C4_4  and  C5_5 
REMARK    4  A    between atoms: C5_5  and  C6_6 
REMARK    5  A    between atoms: C6_6  and  C7_7 
REMARK    6  A    between atoms: C7_7  and  C8_8 
REMARK    7  A    between atoms: C8_8  and  O11_11 
ROOT
HETATM    1  C5  UNL     1     -33.347   5.972   2.047  1.00 20.00     0.010 C 
ENDROOT
BRANCH   1   2
HETATM    2  C4  UNL     1     -32.074   6.608   1.488  1.00 20.00     0.111 C 
BRANCH   2   3
HETATM    3  C1  UNL     1     -32.009   8.104   1.709  1.00 20.00     0.258 C 
HETATM    4  O9  UNL     1     -31.396   8.656   2.612  1.00 20.00    -0.265 OA
BRANCH   3   5
HETATM    5  O10 UNL     1     -32.716   8.729   0.722  1.00 20.00    -0.326 OA
HETATM    6  C2  UNL     1     -32.297  10.062   0.413  1.00 20.00     0.213 C 
ENDBRANCH   3   5
ENDBRANCH   2   3
ENDBRANCH   1   2
BRANCH   1   7
HETATM    7  C6  UNL     1     -33.796   6.620   3.361  1.00 20.00     0.002 C 
BRANCH   7   8
HETATM    8  C7  UNL     1     -35.131   6.046   3.832  1.00 20.00     0.026 C 
BRANCH   8   9
HETATM    9  C8  UNL     1     -34.939   4.803   4.688  1.00 20.00     0.167 C 
BRANCH   9  10
HETATM   10  O11 UNL     1     -34.195   3.845   3.947  1.00 20.00    -0.396 OA
HETATM   11  C3  UNL     1     -33.306   3.116   4.781  1.00 20.00     0.201 C 
ENDBRANCH   9  10
ENDBRANCH   8   9
ENDBRANCH   7   8
ENDBRANCH   1   7
TORSDOF 7
ENDMDL
MODEL 5
REMARK VINA RESULT:      -1.7      0.953      1.692
REMARK  7 active torsions:
REMARK  status: ('A' for Active; 'I' for Inactive)
REMARK    1  A    between atoms: C1_1  and  C4_4 
REMARK    2  A    between atoms: C1_1  and  O10_10 
REMARK    3  A    between atoms: C4_4  and  C5_5 
REMARK    4  A    between atoms: C5_5  and  C6_6 
REMARK    5  A    between atoms: C6_6  and  C7_7 
REMARK    6  A    between atoms: C7_7  and  C8_8 
REMARK    7  A    between atoms: C8_8  and  O11_11 
ROOT
HETATM    1  C5  UNL     1     -33.872   8.209   3.457  1.00 20.00     0.010 C 
ENDROOT
BRANCH   1   2
HETATM    2  C4  UNL     1     -32.372   8.186   3.159  1.00 20.00     0.111 C 
BRANCH   2   3
HETATM    3  C1  UNL     1     -32.060   7.994   1.691  1.00 20.00     0.258 C 
HETATM    4  O9  UNL     1     -32.155   8.860   0.832  1.00 20.00    -0.265 OA
BRANCH   3   5
HETATM    5  O10 UNL     1     -31.626   6.715   1.493  1.00 20.00    -0.326 OA
HETATM    6  C2  UNL     1     -32.654   5.742   1.275  1.00 20.00     0.213 C 
ENDBRANCH   3   5
ENDBRANCH   2   3
ENDBRANCH   1   2
BRANCH   1   7
HETATM    7  C6  UNL     1     -34.275   7.172   4.510  1.00 20.00     0.002 C 
BRANCH   7   8
HETATM    8  C7  UNL     1     -35.223   6.128   3.924  1.00 20.00     0.026 C 
BRANCH   8   9
HETATM    9  C8  UNL     1     -35.061   4.776   4.605  1.00 20.00     0.167 C 
BRANCH   9  10
HETATM   10  O11 UNL     1     -34.098   4.013   3.889  1.00 20.00    -0.396 OA
HETATM   11  C3  UNL     1     -33.378   3.143   4.749  1.00 20.00     0.201 C 
ENDBRANCH   9  10
ENDBRANCH   8   9
ENDBRANCH   7   8
ENDBRANCH   1   7
TORSDOF 7
ENDMDL
MODEL 6
REMARK VINA RESULT:      -1.6      1.762      5.147
REMARK  7 active torsions:
REMARK  status: ('A' for Active; 'I' for Inactive)
REMARK    1  A    between atoms: C1_1  and  C4_4 
REMARK    2  A    between atoms: C1_1  and  O10_10 
REMARK    3  A    between atoms: C4_4  and  C5_5 
REMARK    4  A    between atoms: C5_5  and  C6_6 
REMARK    5  A    between atoms: C6_6  and  C7_7 
REMARK    6  A    between atoms: C7_7  and  C8_8 
REMARK    7  A    between atoms: C8_8  and  O11_11 
ROOT
HETATM    1  C5  UNL     1     -33.374   5.982   1.729  1.00 20.00     0.010 C 
ENDROOT
BRANCH   1   2
HETATM    2  C4  UNL     1     -33.558   5.558   3.187  1.00 20.00     0.111 C 
BRANCH   2   3
HETATM    3  C1  UNL     1     -34.686   6.289   3.882  1.00 20.00     0.258 C 
HETATM    4  O9  UNL     1     -35.677   5.759   4.364  1.00 20.00    -0.265 OA
BRANCH   3   5
HETATM    5  O10 UNL     1     -34.399   7.624   3.908  1.00 20.00    -0.326 OA
HETATM    6  C2  UNL     1     -33.420   8.026   4.870  1.00 20.00     0.213 C 
ENDBRANCH   3   5
ENDBRANCH   2   3
ENDBRANCH   1   2
BRANCH   1   7
HETATM    7  C6  UNL     1     -31.901   6.188   1.362  1.00 20.00     0.002 C 
BRANCH   7   8
HETATM    8  C7  UNL     1     -31.434   7.598   1.722  1.00 20.00     0.026 C 
BRANCH   8   9
HETATM    9  C8  UNL     1     -32.454   8.650   1.312  1.00 20.00     0.167 C 
BRANCH   9  10
HETATM   10  O11 UNL     1     -31.960   9.353   0.179  1.00 20.00    -0.396 OA
HETATM   11  C3  UNL     1     -32.733  10.513  -0.093  1.00 20.00     0.201 C 
ENDBRANCH   9  10
ENDBRANCH   8   9
ENDBRANCH   7   8
ENDBRANCH   1   7
TORSDOF 7
ENDMDL
MODEL 7
REMARK VINA RESULT:      -1.4      2.004      5.559
REMARK  7 active torsions:
REMARK  status: ('A' for Active; 'I' for Inactive)
REMARK    1  A    between atoms: C1_1  and  C4_4 
REMARK    2  A    between atoms: C1_1  and  O10_10 
REMARK    3  A    between atoms: C4_4  and  C5_5 
REMARK    4  A    between atoms: C5_5  and  C6_6 
REMARK    5  A    between atoms: C6_6  and  C7_7 
REMARK    6  A    between atoms: C7_7  and  C8_8 
REMARK    7  A    between atoms: C8_8  and  O11_11 
ROOT
HETATM    1  C5  UNL     1     -33.078   6.358   1.621  1.00 20.00     0.010 C 
ENDROOT
BRANCH   1   2
HETATM    2  C4  UNL     1     -33.478   5.831   2.999  1.00 20.00     0.111 C 
BRANCH   2   3
HETATM    3  C1  UNL     1     -34.349   6.795   3.775  1.00 20.00     0.258 C 
HETATM    4  O9  UNL     1     -34.053   7.950   4.046  1.00 20.00    -0.265 OA
BRANCH   3   5
HETATM    5  O10 UNL     1     -35.523   6.174   4.092  1.00 20.00    -0.326 OA
HETATM    6  C2  UNL     1     -35.396   4.877   4.682  1.00 20.00     0.213 C 
ENDBRANCH   3   5
ENDBRANCH   2   3
ENDBRANCH   1   2
BRANCH   1   7
HETATM    7  C6  UNL     1     -31.731   7.087   1.641  1.00 20.00     0.002 C 
BRANCH   7   8
HETATM    8  C7  UNL     1     -31.907   8.581   1.373  1.00 20.00     0.026 C 
BRANCH   8   9
HETATM    9  C8  UNL     1     -31.785   8.904  -0.110  1.00 20.00     0.167 C 
BRANCH   9  10
HETATM   10  O11 UNL     1     -32.705   9.939  -0.432  1.00 20.00    -0.396 OA
HETATM   11  C3  UNL     1     -32.861  10.852   0.645  1.00 20.00     0.201 C 
ENDBRANCH   9  10
ENDBRANCH   8   9
ENDBRANCH   7   8
ENDBRANCH   1   7
TORSDOF 7
ENDMDL
MODEL 8
REMARK VINA RESULT:      -1.2      1.322      4.600
REMARK  7 active torsions:
REMARK  status: ('A' for Active; 'I' for Inactive)
REMARK    1  A    between atoms: C1_1  and  C4_4 
REMARK    2  A    between atoms: C1_1  and  O10_10 
REMARK    3  A    between atoms: C4_4  and  C5_5 
REMARK    4  A    between atoms: C5_5  and  C6_6 
REMARK    5  A    between atoms: C6_6  and  C7_7 
REMARK    6  A    between atoms: C7_7  and  C8_8 
REMARK    7  A    between atoms: C8_8  and  O11_11 
ROOT
HETATM    1  C5  UNL     1     -34.222   7.475   4.495  1.00 20.00     0.010 C 
ENDROOT
BRANCH   1   2
HETATM    2  C4  UNL     1     -34.949   6.415   3.668  1.00 20.00     0.111 C 
BRANCH   2   3
HETATM    3  C1  UNL     1     -34.910   5.039   4.296  1.00 20.00     0.258 C 
HETATM    4  O9  UNL     1     -35.760   4.585   5.050  1.00 20.00    -0.265 OA
BRANCH   3   5
HETATM    5  O10 UNL     1     -33.795   4.384   3.860  1.00 20.00    -0.326 OA
HETATM    6  C2  UNL     1     -33.443   3.207   4.596  1.00 20.00     0.213 C 
ENDBRANCH   3   5
ENDBRANCH   2   3
ENDBRANCH   1   2
BRANCH   1   7
HETATM    7  C6  UNL     1     -33.004   8.052   3.766  1.00 20.00     0.002 C 
BRANCH   7   8
HETATM    8  C7  UNL     1     -33.066   7.757   2.268  1.00 20.00     0.026 C 
BRANCH   8   9
HETATM    9  C8  UNL     1     -31.683   7.499   1.688  1.00 20.00     0.167 C 
BRANCH   9  10
HETATM   10  O11 UNL     1     -31.566   6.117   1.375  1.00 20.00    -0.396 OA
HETATM   11  C3  UNL     1     -32.824   5.551   1.037  1.00 20.00     0.201 C 
ENDBRANCH   9  10
ENDBRANCH   8   9
ENDBRANCH   7   8
ENDBRANCH   1   7
TORSDOF 7
ENDMDL
MODEL 9
REMARK VINA RESULT:      -0.7      1.777      2.548
REMARK  7 active torsions:
REMARK  status: ('A' for Active; 'I' for Inactive)
REMARK    1  A    between atoms: C1_1  and  C4_4 
REMARK    2  A    between atoms: C1_1  and  O10_10 
REMARK    3  A    between atoms: C4_4  and  C5_5 
REMARK    4  A    between atoms: C5_5  and  C6_6 
REMARK    5  A    between atoms: C6_6  and  C7_7 
REMARK    6  A    between atoms: C7_7  and  C8_8 
REMARK    7  A    between atoms: C8_8  and  O11_11 
ROOT
HETATM    1  C5  UNL     1     -32.029   6.303   1.532  1.00 20.00     0.010 C 
ENDROOT
BRANCH   1   2
HETATM    2  C4  UNL     1     -31.920   7.765   1.967  1.00 20.00     0.111 C 
BRANCH   2   3
HETATM    3  C1  UNL     1     -31.755   8.721   0.806  1.00 20.00     0.258 C 
HETATM    4  O9  UNL     1     -30.992   8.559  -0.137  1.00 20.00    -0.265 OA
BRANCH   3   5
HETATM    5  O10 UNL     1     -32.615   9.769   0.968  1.00 20.00    -0.326 OA
HETATM    6  C2  UNL     1     -32.851  10.560  -0.200  1.00 20.00     0.213 C 
ENDBRANCH   3   5
ENDBRANCH   2   3
ENDBRANCH   1   2
BRANCH   1   7
HETATM    7  C6  UNL     1     -33.406   5.703   1.835  1.00 20.00     0.002 C 
BRANCH   7   8
HETATM    8  C7  UNL     1     -33.464   5.144   3.256  1.00 20.00     0.026 C 
BRANCH   8   9
HETATM    9  C8  UNL     1     -34.737   5.566   3.975  1.00 20.00     0.167 C 
BRANCH   9  10
HETATM   10  O11 UNL     1     -34.924   6.963   3.797  1.00 20.00    -0.396 OA
HETATM   11  C3  UNL     1     -34.088   7.717   4.663  1.00 20.00     0.201 C 
ENDBRANCH   9  10
ENDBRANCH   8   9
ENDBRANCH   7   8
ENDBRANCH   1   7
TORSDOF 7
ENDMDL
