MODEL 1
REMARK VINA RESULT:      -2.1      0.000      0.000
REMARK  0 active torsions:
REMARK  status: ('A' for Active; 'I' for Inactive)
ROOT
HETATM    1  C1  UNL     1     -33.628   7.177   3.207  1.00 20.00     0.111 C 
HETATM    2  C2  UNL     1     -31.946   8.078   1.734  1.00 20.00     0.049 C 
HETATM    3  C3  UNL     1     -32.707   7.055   2.135  1.00 20.00     0.104 C 
HETATM    4  N4  UNL     1     -34.381   7.276   4.084  1.00 20.00    -0.190 NA
HETATM    5 CL5  UNL     1     -32.600   5.519   1.356  1.00 20.00    -0.073 Cl
ENDROOT
TORSDOF 0
ENDMDL
MODEL 2
REMARK VINA RESULT:      -2.1      2.641      2.913
REMARK  0 active torsions:
REMARK  status: ('A' for Active; 'I' for Inactive)
ROOT
HETATM    1  C1  UNL     1     -33.422   6.254   2.489  1.00 20.00     0.111 C 
HETATM    2  C2  UNL     1     -33.874   7.905   4.187  1.00 20.00     0.049 C 
HETATM    3  C3  UNL     1     -34.156   6.735   3.604  1.00 20.00     0.104 C 
HETATM    4  N4  UNL     1     -32.823   5.860   1.577  1.00 20.00    -0.190 NA
HETATM    5 CL5  UNL     1     -35.444   5.747   4.188  1.00 20.00    -0.073 Cl
ENDROOT
TORSDOF 0
ENDMDL
MODEL 3
REMARK VINA RESULT:      -2.0      2.584      2.871
REMARK  0 active torsions:
REMARK  status: ('A' for Active; 'I' for Inactive)
ROOT
HETATM    1  C1  UNL     1     -33.937   4.537   3.878  1.00 20.00     0.111 C 
HETATM    2  C2  UNL     1     -34.729   6.812   3.816  1.00 20.00     0.049 C 
HETATM    3  C3  UNL     1     -33.987   5.829   3.296  1.00 20.00     0.104 C 
HETATM    4  N4  UNL     1     -33.894   3.479   4.353  1.00 20.00    -0.190 NA
HETATM    5 CL5  UNL     1     -33.044   6.094   1.875  1.00 20.00    -0.073 Cl
ENDROOT
TORSDOF 0
ENDMDL
MODEL 4
REMARK VINA RESULT:      -2.0      1.531      1.760
REMARK  0 active torsions:
REMARK  status: ('A' for Active; 'I' for Inactive)
ROOT
HETATM    1  C1  UNL     1     -33.933   6.626   3.113  1.00 20.00     0.111 C 
HETATM    2  C2  UNL     1     -32.639   5.559   1.382  1.00 20.00     0.049 C 
HETATM    3  C3  UNL     1     -32.916   6.636   2.124  1.00 20.00     0.104 C 
HETATM    4  N4  UNL     1     -34.764   6.620   3.923  1.00 20.00    -0.190 NA
HETATM    5 CL5  UNL     1     -32.038   8.105   1.907  1.00 20.00    -0.073 Cl
ENDROOT
TORSDOF 0
ENDMDL
MODEL 5
REMARK VINA RESULT:      -2.0      2.687      3.304
REMARK  0 active torsions:
REMARK  status: ('A' for Active; 'I' for Inactive)
ROOT
HETATM    1  C1  UNL     1     -33.447   6.297   2.528  1.00 20.00     0.111 C 
HETATM    2  C2  UNL     1     -35.362   6.106   3.980  1.00 20.00     0.049 C 
HETATM    3  C3  UNL     1     -34.222   6.717   3.640  1.00 20.00     0.104 C 
HETATM    4  N4  UNL     1     -32.812   5.956   1.619  1.00 20.00    -0.190 NA
HETATM    5 CL5  UNL     1     -33.635   8.058   4.553  1.00 20.00    -0.073 Cl
ENDROOT
TORSDOF 0
ENDMDL
MODEL 6
REMARK VINA RESULT:      -1.8      2.547      3.094
REMARK  0 active torsions:
REMARK  status: ('A' for Active; 'I' for Inactive)
ROOT
HETATM    1  C1  UNL     1     -33.308   6.016   2.442  1.00 20.00     0.111 C 
HETATM    2  C2  UNL     1     -35.097   6.481   3.989  1.00 20.00     0.049 C 
HETATM    3  C3  UNL     1     -34.180   5.642   3.497  1.00 20.00     0.104 C 
HETATM    4  N4  UNL     1     -32.594   6.320   1.579  1.00 20.00    -0.190 NA
HETATM    5 CL5  UNL     1     -34.016   4.046   4.130  1.00 20.00    -0.073 Cl
ENDROOT
TORSDOF 0
ENDMDL
MODEL 7
REMARK VINA RESULT:      -1.7      2.632      2.843
REMARK  0 active torsions:
REMARK  status: ('A' for Active; 'I' for Inactive)
ROOT
HETATM    1  C1  UNL     1     -33.870   4.737   3.743  1.00 20.00     0.111 C 
HETATM    2  C2  UNL     1     -33.091   6.105   1.918  1.00 20.00     0.049 C 
HETATM    3  C3  UNL     1     -33.686   5.993   3.110  1.00 20.00     0.104 C 
HETATM    4  N4  UNL     1     -34.022   3.710   4.262  1.00 20.00    -0.190 NA
HETATM    5 CL5  UNL     1     -34.265   7.390   3.941  1.00 20.00    -0.073 Cl
ENDROOT
TORSDOF 0
ENDMDL
MODEL 8
REMARK VINA RESULT:      -1.7      2.466      2.811
REMARK  0 active torsions:
REMARK  status: ('A' for Active; 'I' for Inactive)
ROOT
HETATM    1  C1  UNL     1     -32.400   8.133   1.563  1.00 20.00     0.111 C 
HETATM    2  C2  UNL     1     -32.774   5.757   1.728  1.00 20.00     0.049 C 
HETATM    3  C3  UNL     1     -32.951   6.994   2.204  1.00 20.00     0.104 C 
HETATM    4  N4  UNL     1     -31.950   9.066   1.040  1.00 20.00    -0.190 NA
HETATM    5 CL5  UNL     1     -33.869   7.262   3.641  1.00 20.00    -0.073 Cl
ENDROOT
TORSDOF 0
ENDMDL
MODEL 9
REMARK VINA RESULT:      -1.6      1.961      2.581
REMARK  0 active torsions:
REMARK  status: ('A' for Active; 'I' for Inactive)
ROOT
HETATM    1  C1  UNL     1     -32.732   7.387   2.421  1.00 20.00     0.111 C 
HETATM    2  C2  UNL     1     -34.409   7.521   4.147  1.00 20.00     0.049 C 
HETATM    3  C3  UNL     1     -33.654   6.791   3.319  1.00 20.00     0.104 C 
HETATM    4  N4  UNL     1     -31.977   7.872   1.685  1.00 20.00    -0.190 NA
HETATM    5 CL5  UNL     1     -33.773   5.070   3.306  1.00 20.00    -0.073 Cl
ENDROOT
TORSDOF 0
ENDMDL
