MODEL 1
REMARK VINA RESULT:      -1.5      0.000      0.000
REMARK  2 active torsions:
REMARK  status: ('A' for Active; 'I' for Inactive)
REMARK    1  A    between atoms: C3_3  and  C4_4 
REMARK    2  A    between atoms: C4_4  and  S6_6 
ROOT
HETATM    1  C1  UNL     1     -32.260   9.118   0.801  1.00 20.00     0.133 C 
HETATM    2  N5  UNL     1     -32.625   9.887   0.011  1.00 20.00    -0.184 NA
HETATM    3  S6  UNL     1     -31.720   8.004   1.950  1.00 20.00    -0.046 SA
ENDROOT
BRANCH   3   4
HETATM    4  C4  UNL     1     -33.257   7.058   2.147  1.00 20.00     0.135 C 
BRANCH   4   5
HETATM    5  C3  UNL     1     -33.823   7.234   3.525  1.00 20.00    -0.011 C 
HETATM    6  C2  UNL     1     -33.319   8.098   4.417  1.00 20.00     0.027 C 
HETATM    7 BR7  UNL     1     -35.242   6.094   3.976  1.00 20.00    -0.056 Br
ENDBRANCH   4   5
ENDBRANCH   3   4
TORSDOF 2
ENDMDL
MODEL 2
REMARK VINA RESULT:      -1.5      0.860      1.488
REMARK  2 active torsions:
REMARK  status: ('A' for Active; 'I' for Inactive)
REMARK    1  A    between atoms: C3_3  and  C4_4 
REMARK    2  A    between atoms: C4_4  and  S6_6 
ROOT
HETATM    1  C1  UNL     1     -32.248   9.347   0.629  1.00 20.00     0.133 C 
HETATM    2  N5  UNL     1     -32.701  10.216   0.008  1.00 20.00    -0.184 NA
HETATM    3  S6  UNL     1     -31.581   8.081   1.529  1.00 20.00    -0.046 SA
ENDROOT
BRANCH   3   4
HETATM    4  C4  UNL     1     -32.878   7.939   2.791  1.00 20.00     0.135 C 
BRANCH   4   5
HETATM    5  C3  UNL     1     -33.519   6.584   2.751  1.00 20.00    -0.011 C 
HETATM    6  C2  UNL     1     -33.144   5.623   1.895  1.00 20.00     0.027 C 
HETATM    7 BR7  UNL     1     -34.963   6.330   3.921  1.00 20.00    -0.056 Br
ENDBRANCH   4   5
ENDBRANCH   3   4
TORSDOF 2
ENDMDL
MODEL 3
REMARK VINA RESULT:      -1.4      1.404      1.563
REMARK  2 active torsions:
REMARK  status: ('A' for Active; 'I' for Inactive)
REMARK    1  A    between atoms: C3_3  and  C4_4 
REMARK    2  A    between atoms: C4_4  and  S6_6 
ROOT
HETATM    1  C1  UNL     1     -32.254   9.327   0.729  1.00 20.00     0.133 C 
HETATM    2  N5  UNL     1     -32.647  10.204   0.080  1.00 20.00    -0.184 NA
HETATM    3  S6  UNL     1     -31.674   8.048   1.669  1.00 20.00    -0.046 SA
ENDROOT
BRANCH   3   4
HETATM    4  C4  UNL     1     -32.955   8.061   2.956  1.00 20.00     0.135 C 
BRANCH   4   5
HETATM    5  C3  UNL     1     -33.717   6.769   2.967  1.00 20.00    -0.011 C 
HETATM    6  C2  UNL     1     -34.713   6.517   3.828  1.00 20.00     0.027 C 
HETATM    7 BR7  UNL     1     -33.133   5.465   1.752  1.00 20.00    -0.056 Br
ENDBRANCH   4   5
ENDBRANCH   3   4
TORSDOF 2
ENDMDL
MODEL 4
REMARK VINA RESULT:      -1.3      3.942      4.674
REMARK  2 active torsions:
REMARK  status: ('A' for Active; 'I' for Inactive)
REMARK    1  A    between atoms: C3_3  and  C4_4 
REMARK    2  A    between atoms: C4_4  and  S6_6 
ROOT
HETATM    1  C1  UNL     1     -34.401   4.719   4.148  1.00 20.00     0.133 C 
HETATM    2  N5  UNL     1     -33.966   3.676   4.412  1.00 20.00    -0.184 NA
HETATM    3  S6  UNL     1     -35.042   6.234   3.764  1.00 20.00    -0.046 SA
ENDROOT
BRANCH   3   4
HETATM    4  C4  UNL     1     -33.482   7.147   3.589  1.00 20.00     0.135 C 
BRANCH   4   5
HETATM    5  C3  UNL     1     -32.890   6.942   2.226  1.00 20.00    -0.011 C 
HETATM    6  C2  UNL     1     -32.942   5.770   1.576  1.00 20.00     0.027 C 
HETATM    7 BR7  UNL     1     -31.977   8.411   1.503  1.00 20.00    -0.056 Br
ENDBRANCH   4   5
ENDBRANCH   3   4
TORSDOF 2
ENDMDL
MODEL 5
REMARK VINA RESULT:      -1.3      4.318      4.818
REMARK  2 active torsions:
REMARK  status: ('A' for Active; 'I' for Inactive)
REMARK    1  A    between atoms: C3_3  and  C4_4 
REMARK    2  A    between atoms: C4_4  and  S6_6 
ROOT
HETATM    1  C1  UNL     1     -33.767   3.682   4.498  1.00 20.00     0.133 C 
HETATM    2  N5  UNL     1     -33.118   2.756   4.759  1.00 20.00    -0.184 NA
HETATM    3  S6  UNL     1     -34.717   5.028   4.123  1.00 20.00    -0.046 SA
ENDROOT
BRANCH   3   4
HETATM    4  C4  UNL     1     -33.684   5.725   2.803  1.00 20.00     0.135 C 
BRANCH   4   5
HETATM    5  C3  UNL     1     -33.341   7.157   3.089  1.00 20.00    -0.011 C 
HETATM    6  C2  UNL     1     -33.903   7.858   4.083  1.00 20.00     0.027 C 
HETATM    7 BR7  UNL     1     -32.129   7.958   1.902  1.00 20.00    -0.056 Br
ENDBRANCH   4   5
ENDBRANCH   3   4
TORSDOF 2
ENDMDL
MODEL 6
REMARK VINA RESULT:      -1.3      1.300      1.511
REMARK  2 active torsions:
REMARK  status: ('A' for Active; 'I' for Inactive)
REMARK    1  A    between atoms: C3_3  and  C4_4 
REMARK    2  A    between atoms: C4_4  and  S6_6 
ROOT
HETATM    1  C1  UNL     1     -32.290   9.020   0.895  1.00 20.00     0.133 C 
HETATM    2  N5  UNL     1     -32.603   9.771   0.067  1.00 20.00    -0.184 NA
HETATM    3  S6  UNL     1     -31.827   7.932   2.101  1.00 20.00    -0.046 SA
ENDROOT
BRANCH   3   4
HETATM    4  C4  UNL     1     -33.338   6.928   2.149  1.00 20.00     0.135 C 
BRANCH   4   5
HETATM    5  C3  UNL     1     -33.993   7.006   3.497  1.00 20.00    -0.011 C 
HETATM    6  C2  UNL     1     -35.102   6.322   3.810  1.00 20.00     0.027 C 
HETATM    7 BR7  UNL     1     -33.215   8.202   4.714  1.00 20.00    -0.056 Br
ENDBRANCH   4   5
ENDBRANCH   3   4
TORSDOF 2
ENDMDL
MODEL 7
REMARK VINA RESULT:      -1.1      3.659      4.359
REMARK  2 active torsions:
REMARK  status: ('A' for Active; 'I' for Inactive)
REMARK    1  A    between atoms: C3_3  and  C4_4 
REMARK    2  A    between atoms: C4_4  and  S6_6 
ROOT
HETATM    1  C1  UNL     1     -34.448   4.992   4.075  1.00 20.00     0.133 C 
HETATM    2  N5  UNL     1     -34.159   3.918   4.406  1.00 20.00    -0.184 NA
HETATM    3  S6  UNL     1     -34.877   6.553   3.591  1.00 20.00    -0.046 SA
ENDROOT
BRANCH   3   4
HETATM    4  C4  UNL     1     -33.222   7.299   3.600  1.00 20.00     0.135 C 
BRANCH   4   5
HETATM    5  C3  UNL     1     -32.632   7.311   2.221  1.00 20.00    -0.011 C 
HETATM    6  C2  UNL     1     -32.166   8.424   1.636  1.00 20.00     0.027 C 
HETATM    7 BR7  UNL     1     -32.664   5.675   1.305  1.00 20.00    -0.056 Br
ENDBRANCH   4   5
ENDBRANCH   3   4
TORSDOF 2
ENDMDL
MODEL 8
REMARK VINA RESULT:      -0.9      4.064      4.686
REMARK  2 active torsions:
REMARK  status: ('A' for Active; 'I' for Inactive)
REMARK    1  A    between atoms: C3_3  and  C4_4 
REMARK    2  A    between atoms: C4_4  and  S6_6 
ROOT
HETATM    1  C1  UNL     1     -33.716   3.764   4.415  1.00 20.00     0.133 C 
HETATM    2  N5  UNL     1     -33.130   2.825   4.764  1.00 20.00    -0.184 NA
HETATM    3  S6  UNL     1     -34.576   5.129   3.914  1.00 20.00    -0.046 SA
ENDROOT
BRANCH   3   4
HETATM    4  C4  UNL     1     -33.486   5.647   2.558  1.00 20.00     0.135 C 
BRANCH   4   5
HETATM    5  C3  UNL     1     -33.083   7.084   2.712  1.00 20.00    -0.011 C 
HETATM    6  C2  UNL     1     -32.211   7.689   1.893  1.00 20.00     0.027 C 
HETATM    7 BR7  UNL     1     -33.805   7.980   4.193  1.00 20.00    -0.056 Br
ENDBRANCH   4   5
ENDBRANCH   3   4
TORSDOF 2
ENDMDL
MODEL 9
REMARK VINA RESULT:      -0.7      2.433      2.636
REMARK  2 active torsions:
REMARK  status: ('A' for Active; 'I' for Inactive)
REMARK    1  A    between atoms: C3_3  and  C4_4 
REMARK    2  A    between atoms: C4_4  and  S6_6 
ROOT
HETATM    1  C1  UNL     1     -32.428   7.848   2.140  1.00 20.00     0.133 C 
HETATM    2  N5  UNL     1     -31.679   8.210   1.331  1.00 20.00    -0.184 NA
HETATM    3  S6  UNL     1     -33.520   7.330   3.321  1.00 20.00    -0.046 SA
ENDROOT
BRANCH   3   4
HETATM    4  C4  UNL     1     -33.542   5.563   2.905  1.00 20.00     0.135 C 
BRANCH   4   5
HETATM    5  C3  UNL     1     -34.250   4.772   3.965  1.00 20.00    -0.011 C 
HETATM    6  C2  UNL     1     -35.382   5.186   4.552  1.00 20.00     0.027 C 
HETATM    7 BR7  UNL     1     -33.405   3.186   4.501  1.00 20.00    -0.056 Br
ENDBRANCH   4   5
ENDBRANCH   3   4
TORSDOF 2
ENDMDL
