MODEL 1
REMARK VINA RESULT:      -0.6      0.000      0.000
REMARK  1 active torsions:
REMARK  status: ('A' for Active; 'I' for Inactive)
REMARK    1  A    between atoms: C7_7  and  C8_8 
ROOT
HETATM    1  C1  UNL     1     -32.259   9.132   0.715  1.00 20.00     0.064 C 
HETATM    2  C2  UNL     1     -32.303   6.083   1.111  1.00 20.00     0.002 C 
HETATM    3  C3  UNL     1     -31.167   7.047   1.467  1.00 20.00     0.019 C 
HETATM    4  C4  UNL     1     -33.591   6.326   1.900  1.00 20.00     0.005 C 
HETATM    5  C5  UNL     1     -32.650   8.379   3.050  1.00 20.00     0.024 C 
HETATM    6  C6  UNL     1     -31.660   8.438   1.872  1.00 20.00     0.093 C 
HETATM    7  C7  UNL     1     -33.318   7.004   3.245  1.00 20.00    -0.003 C 
HETATM    8  N9  UNL     1     -32.730   9.678  -0.195  1.00 20.00    -0.197 NA
ENDROOT
BRANCH   7   9
HETATM    9  C8  UNL     1     -34.600   7.137   4.064  1.00 20.00     0.089 C 
HETATM   10 BR10 UNL     1     -35.333   5.374   4.406  1.00 20.00    -0.096 Br
ENDBRANCH   7   9
TORSDOF 1
ENDMDL
MODEL 2
REMARK VINA RESULT:       1.0      3.037      4.149
REMARK  1 active torsions:
REMARK  status: ('A' for Active; 'I' for Inactive)
REMARK    1  A    between atoms: C7_7  and  C8_8 
ROOT
HETATM    1  C1  UNL     1     -33.852   7.807   4.864  1.00 20.00     0.064 C 
HETATM    2  C2  UNL     1     -34.449   4.843   4.303  1.00 20.00     0.002 C 
HETATM    3  C3  UNL     1     -35.400   6.031   4.121  1.00 20.00     0.019 C 
HETATM    4  C4  UNL     1     -33.219   4.892   3.395  1.00 20.00     0.005 C 
HETATM    5  C5  UNL     1     -33.838   7.166   2.463  1.00 20.00     0.024 C 
HETATM    6  C6  UNL     1     -34.682   7.328   3.741  1.00 20.00     0.093 C 
HETATM    7  C7  UNL     1     -33.477   5.706   2.125  1.00 20.00    -0.003 C 
HETATM    8  N9  UNL     1     -33.199   8.185   5.746  1.00 20.00    -0.197 NA
ENDROOT
BRANCH   7   9
HETATM    9  C8  UNL     1     -32.277   5.652   1.182  1.00 20.00     0.089 C 
HETATM   10 BR10 UNL     1     -31.445   7.402   1.095  1.00 20.00    -0.096 Br
ENDBRANCH   7   9
TORSDOF 1
ENDMDL
MODEL 3
REMARK VINA RESULT:       1.6      2.754      3.682
REMARK  1 active torsions:
REMARK  status: ('A' for Active; 'I' for Inactive)
REMARK    1  A    between atoms: C7_7  and  C8_8 
ROOT
HETATM    1  C1  UNL     1     -33.628   5.374   0.433  1.00 20.00     0.064 C 
HETATM    2  C2  UNL     1     -34.111   6.311   3.322  1.00 20.00     0.002 C 
HETATM    3  C3  UNL     1     -33.130   5.234   2.849  1.00 20.00     0.019 C 
HETATM    4  C4  UNL     1     -33.793   7.711   2.793  1.00 20.00     0.005 C 
HETATM    5  C5  UNL     1     -31.877   6.875   1.360  1.00 20.00     0.024 C 
HETATM    6  C6  UNL     1     -32.566   5.500   1.452  1.00 20.00     0.093 C 
HETATM    7  C7  UNL     1     -32.310   7.872   2.453  1.00 20.00    -0.003 C 
HETATM    8  N9  UNL     1     -34.462   5.275  -0.368  1.00 20.00    -0.197 NA
ENDROOT
BRANCH   7   9
HETATM    9  C8  UNL     1     -31.993   9.306   2.032  1.00 20.00     0.089 C 
HETATM   10 BR10 UNL     1     -32.456   9.546   0.164  1.00 20.00    -0.096 Br
ENDBRANCH   7   9
TORSDOF 1
ENDMDL
MODEL 4
REMARK VINA RESULT:       1.8      1.953      2.724
REMARK  1 active torsions:
REMARK  status: ('A' for Active; 'I' for Inactive)
REMARK    1  A    between atoms: C7_7  and  C8_8 
ROOT
HETATM    1  C1  UNL     1     -31.823   5.630   1.395  1.00 20.00     0.064 C 
HETATM    2  C2  UNL     1     -31.985   8.259   2.983  1.00 20.00     0.002 C 
HETATM    3  C3  UNL     1     -32.308   8.050   1.500  1.00 20.00     0.019 C 
HETATM    4  C4  UNL     1     -32.907   7.489   3.930  1.00 20.00     0.005 C 
HETATM    5  C5  UNL     1     -34.120   6.341   2.023  1.00 20.00     0.024 C 
HETATM    6  C6  UNL     1     -32.863   6.659   1.191  1.00 20.00     0.093 C 
HETATM    7  C7  UNL     1     -34.269   7.200   3.295  1.00 20.00    -0.003 C 
HETATM    8  N9  UNL     1     -31.006   4.822   1.555  1.00 20.00    -0.197 NA
ENDROOT
BRANCH   7   9
HETATM    9  C8  UNL     1     -35.212   6.530   4.292  1.00 20.00     0.089 C 
HETATM   10 BR10 UNL     1     -34.741   4.656   4.465  1.00 20.00    -0.096 Br
ENDBRANCH   7   9
TORSDOF 1
ENDMDL
MODEL 5
REMARK VINA RESULT:       2.1      3.158      4.072
REMARK  1 active torsions:
REMARK  status: ('A' for Active; 'I' for Inactive)
REMARK    1  A    between atoms: C7_7  and  C8_8 
ROOT
HETATM    1  C1  UNL     1     -33.468   7.964   4.894  1.00 20.00     0.064 C 
HETATM    2  C2  UNL     1     -33.297   5.560   2.984  1.00 20.00     0.002 C 
HETATM    3  C3  UNL     1     -34.548   6.363   3.353  1.00 20.00     0.019 C 
HETATM    4  C4  UNL     1     -32.233   6.376   2.246  1.00 20.00     0.005 C 
HETATM    5  C5  UNL     1     -33.545   8.532   2.475  1.00 20.00     0.024 C 
HETATM    6  C6  UNL     1     -34.256   7.835   3.651  1.00 20.00     0.093 C 
HETATM    7  C7  UNL     1     -32.840   7.567   1.502  1.00 20.00    -0.003 C 
HETATM    8  N9  UNL     1     -32.849   8.066   5.870  1.00 20.00    -0.197 NA
ENDROOT
BRANCH   7   9
HETATM    9  C8  UNL     1     -31.782   8.303   0.683  1.00 20.00     0.089 C 
HETATM   10 BR10 UNL     1     -32.514   9.982   0.045  1.00 20.00    -0.096 Br
ENDBRANCH   7   9
TORSDOF 1
ENDMDL
MODEL 6
REMARK VINA RESULT:       2.1      2.829      3.923
REMARK  1 active torsions:
REMARK  status: ('A' for Active; 'I' for Inactive)
REMARK    1  A    between atoms: C7_7  and  C8_8 
ROOT
HETATM    1  C1  UNL     1     -33.235   7.646   4.027  1.00 20.00     0.064 C 
HETATM    2  C2  UNL     1     -35.781   5.956   4.378  1.00 20.00     0.002 C 
HETATM    3  C3  UNL     1     -35.355   6.743   3.135  1.00 20.00     0.019 C 
HETATM    4  C4  UNL     1     -34.828   4.816   4.743  1.00 20.00     0.005 C 
HETATM    5  C5  UNL     1     -33.189   5.427   2.910  1.00 20.00     0.024 C 
HETATM    6  C6  UNL     1     -33.837   6.823   2.959  1.00 20.00     0.093 C 
HETATM    7  C7  UNL     1     -34.050   4.308   3.528  1.00 20.00    -0.003 C 
HETATM    8  N9  UNL     1     -32.762   8.293   4.866  1.00 20.00    -0.197 NA
ENDROOT
BRANCH   7   9
HETATM    9  C8  UNL     1     -33.188   3.100   3.890  1.00 20.00     0.089 C 
HETATM   10 BR10 UNL     1     -32.773   3.150   5.784  1.00 20.00    -0.096 Br
ENDBRANCH   7   9
TORSDOF 1
ENDMDL
