MODEL 1
REMARK VINA RESULT:      -2.4      0.000      0.000
REMARK  2 active torsions:
REMARK  status: ('A' for Active; 'I' for Inactive)
REMARK    1  A    between atoms: C3_3  and  C5_5 
REMARK    2  A    between atoms: C5_5  and  N6_6 
ROOT
HETATM    1  C1  UNL     1     -32.293   8.742   1.297  1.00 20.00     0.157 C 
HETATM    2  N6  UNL     1     -32.150   7.985   2.184  1.00 20.00    -0.271 NA
HETATM    3  S7  UNL     1     -32.462   9.781   0.102  1.00 20.00    -0.055 SA
ENDROOT
BRANCH   2   4
HETATM    4  C5  UNL     1     -33.212   6.986   2.319  1.00 20.00     0.183 C 
BRANCH   4   5
HETATM    5  C3  UNL     1     -33.942   7.180   3.620  1.00 20.00    -0.073 C 
HETATM    6  C2  UNL     1     -33.517   8.060   4.539  1.00 20.00     0.015 C 
HETATM    7  C4  UNL     1     -35.151   6.323   3.852  1.00 20.00     0.044 C 
ENDBRANCH   4   5
ENDBRANCH   2   4
TORSDOF 2
ENDMDL
MODEL 2
REMARK VINA RESULT:      -2.3      0.086      1.329
REMARK  2 active torsions:
REMARK  status: ('A' for Active; 'I' for Inactive)
REMARK    1  A    between atoms: C3_3  and  C5_5 
REMARK    2  A    between atoms: C5_5  and  N6_6 
ROOT
HETATM    1  C1  UNL     1     -32.305   8.696   1.360  1.00 20.00     0.157 C 
HETATM    2  N6  UNL     1     -32.185   7.935   2.247  1.00 20.00    -0.271 NA
HETATM    3  S7  UNL     1     -32.444   9.741   0.166  1.00 20.00    -0.055 SA
ENDROOT
BRANCH   2   4
HETATM    4  C5  UNL     1     -33.225   6.907   2.322  1.00 20.00     0.183 C 
BRANCH   4   5
HETATM    5  C3  UNL     1     -34.007   7.057   3.599  1.00 20.00    -0.073 C 
HETATM    6  C2  UNL     1     -35.125   6.350   3.824  1.00 20.00     0.015 C 
HETATM    7  C4  UNL     1     -33.494   8.057   4.594  1.00 20.00     0.044 C 
ENDBRANCH   4   5
ENDBRANCH   2   4
TORSDOF 2
ENDMDL
MODEL 3
REMARK VINA RESULT:      -2.1      0.901      1.502
REMARK  2 active torsions:
REMARK  status: ('A' for Active; 'I' for Inactive)
REMARK    1  A    between atoms: C3_3  and  C5_5 
REMARK    2  A    between atoms: C5_5  and  N6_6 
ROOT
HETATM    1  C1  UNL     1     -32.177   8.904   0.975  1.00 20.00     0.157 C 
HETATM    2  N6  UNL     1     -31.890   8.023   1.698  1.00 20.00    -0.271 NA
HETATM    3  S7  UNL     1     -32.546  10.089  -0.023  1.00 20.00    -0.055 SA
ENDROOT
BRANCH   2   4
HETATM    4  C5  UNL     1     -32.710   7.925   2.907  1.00 20.00     0.183 C 
BRANCH   4   5
HETATM    5  C3  UNL     1     -33.539   6.671   2.870  1.00 20.00    -0.073 C 
HETATM    6  C2  UNL     1     -34.573   6.487   3.705  1.00 20.00     0.015 C 
HETATM    7  C4  UNL     1     -33.136   5.622   1.875  1.00 20.00     0.044 C 
ENDBRANCH   4   5
ENDBRANCH   2   4
TORSDOF 2
ENDMDL
MODEL 4
REMARK VINA RESULT:      -2.1      0.989      1.608
REMARK  2 active torsions:
REMARK  status: ('A' for Active; 'I' for Inactive)
REMARK    1  A    between atoms: C3_3  and  C5_5 
REMARK    2  A    between atoms: C5_5  and  N6_6 
ROOT
HETATM    1  C1  UNL     1     -32.152   9.010   0.869  1.00 20.00     0.157 C 
HETATM    2  N6  UNL     1     -31.829   8.074   1.501  1.00 20.00    -0.271 NA
HETATM    3  S7  UNL     1     -32.570  10.272  -0.008  1.00 20.00    -0.055 SA
ENDROOT
BRANCH   2   4
HETATM    4  C5  UNL     1     -32.575   7.884   2.747  1.00 20.00     0.183 C 
BRANCH   4   5
HETATM    5  C3  UNL     1     -33.372   6.610   2.683  1.00 20.00    -0.073 C 
HETATM    6  C2  UNL     1     -33.095   5.653   1.783  1.00 20.00     0.015 C 
HETATM    7  C4  UNL     1     -34.509   6.473   3.653  1.00 20.00     0.044 C 
ENDBRANCH   4   5
ENDBRANCH   2   4
TORSDOF 2
ENDMDL
MODEL 5
REMARK VINA RESULT:      -1.6      1.231      1.525
REMARK  2 active torsions:
REMARK  status: ('A' for Active; 'I' for Inactive)
REMARK    1  A    between atoms: C3_3  and  C5_5 
REMARK    2  A    between atoms: C5_5  and  N6_6 
ROOT
HETATM    1  C1  UNL     1     -32.357   8.182   1.848  1.00 20.00     0.157 C 
HETATM    2  N6  UNL     1     -32.745   7.546   2.756  1.00 20.00    -0.271 NA
HETATM    3  S7  UNL     1     -31.823   9.065   0.634  1.00 20.00    -0.055 SA
ENDROOT
BRANCH   2   4
HETATM    4  C5  UNL     1     -33.225   6.207   2.411  1.00 20.00     0.183 C 
BRANCH   4   5
HETATM    5  C3  UNL     1     -34.174   5.710   3.467  1.00 20.00    -0.073 C 
HETATM    6  C2  UNL     1     -35.116   6.507   3.996  1.00 20.00     0.015 C 
HETATM    7  C4  UNL     1     -33.997   4.291   3.923  1.00 20.00     0.044 C 
ENDBRANCH   4   5
ENDBRANCH   2   4
TORSDOF 2
ENDMDL
MODEL 6
REMARK VINA RESULT:      -1.4      3.721      4.379
REMARK  2 active torsions:
REMARK  status: ('A' for Active; 'I' for Inactive)
REMARK    1  A    between atoms: C3_3  and  C5_5 
REMARK    2  A    between atoms: C5_5  and  N6_6 
ROOT
HETATM    1  C1  UNL     1     -33.875   4.129   4.138  1.00 20.00     0.157 C 
HETATM    2  N6  UNL     1     -34.369   5.121   3.746  1.00 20.00    -0.271 NA
HETATM    3  S7  UNL     1     -33.227   2.782   4.688  1.00 20.00    -0.055 SA
ENDROOT
BRANCH   2   4
HETATM    4  C5  UNL     1     -33.644   5.783   2.660  1.00 20.00     0.183 C 
BRANCH   4   5
HETATM    5  C3  UNL     1     -33.324   7.202   3.043  1.00 20.00    -0.073 C 
HETATM    6  C2  UNL     1     -33.921   7.800   4.087  1.00 20.00     0.015 C 
HETATM    7  C4  UNL     1     -32.330   7.928   2.185  1.00 20.00     0.044 C 
ENDBRANCH   4   5
ENDBRANCH   2   4
TORSDOF 2
ENDMDL
MODEL 7
REMARK VINA RESULT:      -1.3      3.694      4.307
REMARK  2 active torsions:
REMARK  status: ('A' for Active; 'I' for Inactive)
REMARK    1  A    between atoms: C3_3  and  C5_5 
REMARK    2  A    between atoms: C5_5  and  N6_6 
ROOT
HETATM    1  C1  UNL     1     -33.824   4.152   4.085  1.00 20.00     0.157 C 
HETATM    2  N6  UNL     1     -34.280   5.150   3.665  1.00 20.00    -0.271 NA
HETATM    3  S7  UNL     1     -33.228   2.797   4.672  1.00 20.00    -0.055 SA
ENDROOT
BRANCH   2   4
HETATM    4  C5  UNL     1     -33.534   5.752   2.559  1.00 20.00     0.183 C 
BRANCH   4   5
HETATM    5  C3  UNL     1     -33.214   7.188   2.872  1.00 20.00    -0.073 C 
HETATM    6  C2  UNL     1     -32.315   7.880   2.154  1.00 20.00     0.015 C 
HETATM    7  C4  UNL     1     -33.923   7.799   4.045  1.00 20.00     0.044 C 
ENDBRANCH   4   5
ENDBRANCH   2   4
TORSDOF 2
ENDMDL
MODEL 8
REMARK VINA RESULT:      -1.2      1.449      2.026
REMARK  2 active torsions:
REMARK  status: ('A' for Active; 'I' for Inactive)
REMARK    1  A    between atoms: C3_3  and  C5_5 
REMARK    2  A    between atoms: C5_5  and  N6_6 
ROOT
HETATM    1  C1  UNL     1     -32.544   6.976   1.633  1.00 20.00     0.157 C 
HETATM    2  N6  UNL     1     -33.109   5.959   1.799  1.00 20.00    -0.271 NA
HETATM    3  S7  UNL     1     -31.780   8.350   1.380  1.00 20.00    -0.055 SA
ENDROOT
BRANCH   2   4
HETATM    4  C5  UNL     1     -33.344   5.606   3.201  1.00 20.00     0.183 C 
BRANCH   4   5
HETATM    5  C3  UNL     1     -34.375   6.523   3.799  1.00 20.00    -0.073 C 
HETATM    6  C2  UNL     1     -35.684   6.228   3.761  1.00 20.00     0.015 C 
HETATM    7  C4  UNL     1     -33.873   7.797   4.414  1.00 20.00     0.044 C 
ENDBRANCH   4   5
ENDBRANCH   2   4
TORSDOF 2
ENDMDL
MODEL 9
REMARK VINA RESULT:      -1.1      3.257      4.321
REMARK  2 active torsions:
REMARK  status: ('A' for Active; 'I' for Inactive)
REMARK    1  A    between atoms: C3_3  and  C5_5 
REMARK    2  A    between atoms: C5_5  and  N6_6 
ROOT
HETATM    1  C1  UNL     1     -34.210   5.127   3.947  1.00 20.00     0.157 C 
HETATM    2  N6  UNL     1     -34.551   6.184   3.564  1.00 20.00    -0.271 NA
HETATM    3  S7  UNL     1     -33.775   3.684   4.463  1.00 20.00    -0.055 SA
ENDROOT
BRANCH   2   4
HETATM    4  C5  UNL     1     -33.481   7.177   3.459  1.00 20.00     0.183 C 
BRANCH   4   5
HETATM    5  C3  UNL     1     -32.762   7.026   2.146  1.00 20.00    -0.073 C 
HETATM    6  C2  UNL     1     -32.766   5.865   1.473  1.00 20.00     0.015 C 
HETATM    7  C4  UNL     1     -32.016   8.226   1.641  1.00 20.00     0.044 C 
ENDBRANCH   4   5
ENDBRANCH   2   4
TORSDOF 2
ENDMDL
