MODEL 1
REMARK VINA RESULT:      -2.2      0.000      0.000
REMARK  2 active torsions:
REMARK  status: ('A' for Active; 'I' for Inactive)
REMARK    1  A    between atoms: C1_1  and  C3_3 
REMARK    2  A    between atoms: C1_1  and  O5_5 
ROOT
HETATM    1  C1  UNL     1     -33.110   6.445   2.299  1.00 20.00     0.291 C 
HETATM    2  O4  UNL     1     -32.708   5.614   1.495  1.00 20.00    -0.262 OA
ENDROOT
BRANCH   1   3
HETATM    3  C3  UNL     1     -34.272   6.258   3.238  1.00 20.00     0.277 C 
HETATM    4 CL6  UNL     1     -34.172   4.663   4.001  1.00 20.00    -0.097 Cl
HETATM    5 CL7  UNL     1     -34.207   7.543   4.451  1.00 20.00    -0.097 Cl
ENDBRANCH   1   3
BRANCH   1   6
HETATM    6  O5  UNL     1     -32.559   7.679   2.508  1.00 20.00    -0.324 OA
HETATM    7  C2  UNL     1     -31.947   8.285   1.364  1.00 20.00     0.213 C 
ENDBRANCH   1   6
TORSDOF 2
ENDMDL
MODEL 2
REMARK VINA RESULT:      -2.1      2.632      3.741
REMARK  2 active torsions:
REMARK  status: ('A' for Active; 'I' for Inactive)
REMARK    1  A    between atoms: C1_1  and  C3_3 
REMARK    2  A    between atoms: C1_1  and  O5_5 
ROOT
HETATM    1  C1  UNL     1     -34.603   5.076   4.003  1.00 20.00     0.291 C 
HETATM    2  O4  UNL     1     -35.554   4.829   4.733  1.00 20.00    -0.262 OA
ENDROOT
BRANCH   1   3
HETATM    3  C3  UNL     1     -34.376   6.374   3.275  1.00 20.00     0.277 C 
HETATM    4 CL6  UNL     1     -33.969   7.647   4.437  1.00 20.00    -0.097 Cl
HETATM    5 CL7  UNL     1     -33.058   6.130   2.121  1.00 20.00    -0.097 Cl
ENDBRANCH   1   3
BRANCH   1   6
HETATM    6  O5  UNL     1     -33.563   4.227   3.742  1.00 20.00    -0.324 OA
HETATM    7  C2  UNL     1     -33.396   3.150   4.670  1.00 20.00     0.213 C 
ENDBRANCH   1   6
TORSDOF 2
ENDMDL
MODEL 3
REMARK VINA RESULT:      -2.1      1.005      1.005
REMARK  2 active torsions:
REMARK  status: ('A' for Active; 'I' for Inactive)
REMARK    1  A    between atoms: C1_1  and  C3_3 
REMARK    2  A    between atoms: C1_1  and  O5_5 
ROOT
HETATM    1  C1  UNL     1     -33.169   7.018   2.592  1.00 20.00     0.291 C 
HETATM    2  O4  UNL     1     -33.164   5.960   1.976  1.00 20.00    -0.262 OA
ENDROOT
BRANCH   1   3
HETATM    3  C3  UNL     1     -34.194   7.424   3.618  1.00 20.00     0.277 C 
HETATM    4 CL6  UNL     1     -35.180   6.023   4.065  1.00 20.00    -0.097 Cl
HETATM    5 CL7  UNL     1     -33.334   8.065   5.024  1.00 20.00    -0.097 Cl
ENDBRANCH   1   3
BRANCH   1   6
HETATM    6  O5  UNL     1     -32.230   8.005   2.479  1.00 20.00    -0.324 OA
HETATM    7  C2  UNL     1     -32.074   8.564   1.170  1.00 20.00     0.213 C 
ENDBRANCH   1   6
TORSDOF 2
ENDMDL
MODEL 4
REMARK VINA RESULT:      -2.0      1.395      1.939
REMARK  2 active torsions:
REMARK  status: ('A' for Active; 'I' for Inactive)
REMARK    1  A    between atoms: C1_1  and  C3_3 
REMARK    2  A    between atoms: C1_1  and  O5_5 
ROOT
HETATM    1  C1  UNL     1     -33.066   7.305   2.646  1.00 20.00     0.291 C 
HETATM    2  O4  UNL     1     -32.186   8.050   2.233  1.00 20.00    -0.262 OA
ENDROOT
BRANCH   1   3
HETATM    3  C3  UNL     1     -34.083   7.657   3.699  1.00 20.00     0.277 C 
HETATM    4 CL6  UNL     1     -35.135   6.265   4.001  1.00 20.00    -0.097 Cl
HETATM    5 CL7  UNL     1     -33.211   8.119   5.167  1.00 20.00    -0.097 Cl
ENDBRANCH   1   3
BRANCH   1   6
HETATM    6  O5  UNL     1     -33.300   6.033   2.202  1.00 20.00    -0.324 OA
HETATM    7  C2  UNL     1     -32.350   5.520   1.262  1.00 20.00     0.213 C 
ENDBRANCH   1   6
TORSDOF 2
ENDMDL
MODEL 5
REMARK VINA RESULT:      -2.0      0.868      1.641
REMARK  2 active torsions:
REMARK  status: ('A' for Active; 'I' for Inactive)
REMARK    1  A    between atoms: C1_1  and  C3_3 
REMARK    2  A    between atoms: C1_1  and  O5_5 
ROOT
HETATM    1  C1  UNL     1     -33.249   6.271   2.564  1.00 20.00     0.291 C 
HETATM    2  O4  UNL     1     -33.000   5.547   1.609  1.00 20.00    -0.262 OA
ENDROOT
BRANCH   1   3
HETATM    3  C3  UNL     1     -33.968   5.846   3.817  1.00 20.00     0.277 C 
HETATM    4 CL6  UNL     1     -35.638   6.435   3.775  1.00 20.00    -0.097 Cl
HETATM    5 CL7  UNL     1     -33.924   4.080   3.899  1.00 20.00    -0.097 Cl
ENDBRANCH   1   3
BRANCH   1   6
HETATM    6  O5  UNL     1     -32.893   7.587   2.675  1.00 20.00    -0.324 OA
HETATM    7  C2  UNL     1     -31.960   8.060   1.698  1.00 20.00     0.213 C 
ENDBRANCH   1   6
TORSDOF 2
ENDMDL
MODEL 6
REMARK VINA RESULT:      -1.9      1.835      2.383
REMARK  2 active torsions:
REMARK  status: ('A' for Active; 'I' for Inactive)
REMARK    1  A    between atoms: C1_1  and  C3_3 
REMARK    2  A    between atoms: C1_1  and  O5_5 
ROOT
HETATM    1  C1  UNL     1     -32.140   8.028   1.922  1.00 20.00     0.291 C 
HETATM    2  O4  UNL     1     -31.646   8.449   2.960  1.00 20.00    -0.262 OA
ENDROOT
BRANCH   1   3
HETATM    3  C3  UNL     1     -33.110   6.880   1.821  1.00 20.00     0.277 C 
HETATM    4 CL6  UNL     1     -32.239   5.400   1.388  1.00 20.00    -0.097 Cl
HETATM    5 CL7  UNL     1     -33.913   6.704   3.387  1.00 20.00    -0.097 Cl
ENDBRANCH   1   3
BRANCH   1   6
HETATM    6  O5  UNL     1     -31.924   8.544   0.674  1.00 20.00    -0.324 OA
HETATM    7  C2  UNL     1     -32.467   9.848   0.441  1.00 20.00     0.213 C 
ENDBRANCH   1   6
TORSDOF 2
ENDMDL
MODEL 7
REMARK VINA RESULT:      -1.8      2.292      3.636
REMARK  2 active torsions:
REMARK  status: ('A' for Active; 'I' for Inactive)
REMARK    1  A    between atoms: C1_1  and  C3_3 
REMARK    2  A    between atoms: C1_1  and  O5_5 
ROOT
HETATM    1  C1  UNL     1     -33.761   6.912   3.337  1.00 20.00     0.291 C 
HETATM    2  O4  UNL     1     -33.877   7.827   4.141  1.00 20.00    -0.262 OA
ENDROOT
BRANCH   1   3
HETATM    3  C3  UNL     1     -33.132   7.023   1.974  1.00 20.00     0.277 C 
HETATM    4 CL6  UNL     1     -31.789   8.175   2.028  1.00 20.00    -0.097 Cl
HETATM    5 CL7  UNL     1     -32.565   5.415   1.501  1.00 20.00    -0.097 Cl
ENDBRANCH   1   3
BRANCH   1   6
HETATM    6  O5  UNL     1     -34.156   5.619   3.545  1.00 20.00    -0.324 OA
HETATM    7  C2  UNL     1     -35.329   5.453   4.350  1.00 20.00     0.213 C 
ENDBRANCH   1   6
TORSDOF 2
ENDMDL
MODEL 8
REMARK VINA RESULT:      -1.8      2.390      3.289
REMARK  2 active torsions:
REMARK  status: ('A' for Active; 'I' for Inactive)
REMARK    1  A    between atoms: C1_1  and  C3_3 
REMARK    2  A    between atoms: C1_1  and  O5_5 
ROOT
HETATM    1  C1  UNL     1     -33.351   7.203   3.323  1.00 20.00     0.291 C 
HETATM    2  O4  UNL     1     -33.431   8.088   4.165  1.00 20.00    -0.262 OA
ENDROOT
BRANCH   1   3
HETATM    3  C3  UNL     1     -32.293   7.108   2.255  1.00 20.00     0.277 C 
HETATM    4 CL6  UNL     1     -32.605   5.698   1.230  1.00 20.00    -0.097 Cl
HETATM    5 CL7  UNL     1     -32.341   8.600   1.306  1.00 20.00    -0.097 Cl
ENDBRANCH   1   3
BRANCH   1   6
HETATM    6  O5  UNL     1     -34.189   6.127   3.221  1.00 20.00    -0.324 OA
HETATM    7  C2  UNL     1     -35.339   6.156   4.074  1.00 20.00     0.213 C 
ENDBRANCH   1   6
TORSDOF 2
ENDMDL
MODEL 9
REMARK VINA RESULT:      -1.6      1.010      1.611
REMARK  2 active torsions:
REMARK  status: ('A' for Active; 'I' for Inactive)
REMARK    1  A    between atoms: C1_1  and  C3_3 
REMARK    2  A    between atoms: C1_1  and  O5_5 
ROOT
HETATM    1  C1  UNL     1     -33.265   6.673   2.574  1.00 20.00     0.291 C 
HETATM    2  O4  UNL     1     -33.169   5.760   1.763  1.00 20.00    -0.262 OA
ENDROOT
BRANCH   1   3
HETATM    3  C3  UNL     1     -33.927   6.574   3.923  1.00 20.00     0.277 C 
HETATM    4 CL6  UNL     1     -33.647   8.066   4.835  1.00 20.00    -0.097 Cl
HETATM    5 CL7  UNL     1     -35.656   6.308   3.665  1.00 20.00    -0.097 Cl
ENDBRANCH   1   3
BRANCH   1   6
HETATM    6  O5  UNL     1     -32.764   7.935   2.410  1.00 20.00    -0.324 OA
HETATM    7  C2  UNL     1     -31.702   8.060   1.458  1.00 20.00     0.213 C 
ENDBRANCH   1   6
TORSDOF 2
ENDMDL
