MODEL 1
REMARK VINA RESULT:      -2.3      0.000      0.000
REMARK  1 active torsions:
REMARK  status: ('A' for Active; 'I' for Inactive)
REMARK    1  A    between atoms: C1_1  and  C2_2 
ROOT
HETATM    1  C1  UNL     1     -32.941   7.027   2.539  1.00 20.00    -0.005 C 
HETATM    2  C3  UNL     1     -33.995   7.354   3.301  1.00 20.00    -0.031 C 
HETATM    3  C5  UNL     1     -34.794   6.361   4.077  1.00 20.00     0.036 C 
ENDROOT
BRANCH   1   4
HETATM    4  C2  UNL     1     -32.174   7.998   1.791  1.00 20.00    -0.005 C 
HETATM    5  C4  UNL     1     -32.731   8.876   0.944  1.00 20.00    -0.031 C 
HETATM    6  C6  UNL     1     -31.951   9.883   0.165  1.00 20.00     0.036 C 
ENDBRANCH   1   4
TORSDOF 1
ENDMDL
MODEL 2
REMARK VINA RESULT:      -2.3      0.021      3.977
REMARK  1 active torsions:
REMARK  status: ('A' for Active; 'I' for Inactive)
REMARK    1  A    between atoms: C1_1  and  C2_2 
ROOT
HETATM    1  C1  UNL     1     -32.186   7.995   1.812  1.00 20.00    -0.005 C 
HETATM    2  C3  UNL     1     -32.733   8.864   0.949  1.00 20.00    -0.031 C 
HETATM    3  C5  UNL     1     -31.947   9.876   0.183  1.00 20.00     0.036 C 
ENDROOT
BRANCH   1   4
HETATM    4  C2  UNL     1     -32.957   7.020   2.549  1.00 20.00    -0.005 C 
HETATM    5  C4  UNL     1     -34.005   7.346   3.321  1.00 20.00    -0.031 C 
HETATM    6  C6  UNL     1     -34.809   6.349   4.088  1.00 20.00     0.036 C 
ENDBRANCH   1   4
TORSDOF 1
ENDMDL
MODEL 3
REMARK VINA RESULT:      -2.2      0.970      4.042
REMARK  1 active torsions:
REMARK  status: ('A' for Active; 'I' for Inactive)
REMARK    1  A    between atoms: C1_1  and  C2_2 
ROOT
HETATM    1  C1  UNL     1     -32.574   6.716   1.719  1.00 20.00    -0.005 C 
HETATM    2  C3  UNL     1     -32.375   8.040   1.793  1.00 20.00    -0.031 C 
HETATM    3  C5  UNL     1     -31.456   8.791   0.887  1.00 20.00     0.036 C 
ENDROOT
BRANCH   1   4
HETATM    4  C2  UNL     1     -33.466   6.000   2.602  1.00 20.00    -0.005 C 
HETATM    5  C4  UNL     1     -34.340   6.612   3.415  1.00 20.00    -0.031 C 
HETATM    6  C6  UNL     1     -35.266   5.884   4.333  1.00 20.00     0.036 C 
ENDBRANCH   1   4
TORSDOF 1
ENDMDL
MODEL 4
REMARK VINA RESULT:      -2.2      0.953      1.115
REMARK  1 active torsions:
REMARK  status: ('A' for Active; 'I' for Inactive)
REMARK    1  A    between atoms: C1_1  and  C2_2 
ROOT
HETATM    1  C1  UNL     1     -33.430   6.051   2.643  1.00 20.00    -0.005 C 
HETATM    2  C3  UNL     1     -34.355   6.673   3.388  1.00 20.00    -0.031 C 
HETATM    3  C5  UNL     1     -35.261   5.966   4.342  1.00 20.00     0.036 C 
ENDROOT
BRANCH   1   4
HETATM    4  C2  UNL     1     -32.559   6.746   1.721  1.00 20.00    -0.005 C 
HETATM    5  C4  UNL     1     -32.317   8.063   1.792  1.00 20.00    -0.031 C 
HETATM    6  C6  UNL     1     -31.422   8.792   0.847  1.00 20.00     0.036 C 
ENDBRANCH   1   4
TORSDOF 1
ENDMDL
MODEL 5
REMARK VINA RESULT:      -2.0      1.913      3.956
REMARK  1 active torsions:
REMARK  status: ('A' for Active; 'I' for Inactive)
REMARK    1  A    between atoms: C1_1  and  C2_2 
ROOT
HETATM    1  C1  UNL     1     -32.222   8.683   1.505  1.00 20.00    -0.005 C 
HETATM    2  C3  UNL     1     -32.259   9.353   0.343  1.00 20.00    -0.031 C 
HETATM    3  C5  UNL     1     -32.665  10.785   0.226  1.00 20.00     0.036 C 
ENDROOT
BRANCH   1   4
HETATM    4  C2  UNL     1     -31.828   7.296   1.606  1.00 20.00    -0.005 C 
HETATM    5  C4  UNL     1     -32.670   6.276   1.379  1.00 20.00    -0.031 C 
HETATM    6  C6  UNL     1     -32.277   4.840   1.481  1.00 20.00     0.036 C 
ENDBRANCH   1   4
TORSDOF 1
ENDMDL
MODEL 6
REMARK VINA RESULT:      -1.9      1.879      2.111
REMARK  1 active torsions:
REMARK  status: ('A' for Active; 'I' for Inactive)
REMARK    1  A    between atoms: C1_1  and  C2_2 
ROOT
HETATM    1  C1  UNL     1     -31.809   7.283   1.523  1.00 20.00    -0.005 C 
HETATM    2  C3  UNL     1     -32.693   6.278   1.431  1.00 20.00    -0.031 C 
HETATM    3  C5  UNL     1     -32.314   4.835   1.479  1.00 20.00     0.036 C 
ENDROOT
BRANCH   1   4
HETATM    4  C2  UNL     1     -32.187   8.677   1.475  1.00 20.00    -0.005 C 
HETATM    5  C4  UNL     1     -32.265   9.376   0.333  1.00 20.00    -0.031 C 
HETATM    6  C6  UNL     1     -32.654  10.816   0.269  1.00 20.00     0.036 C 
ENDBRANCH   1   4
TORSDOF 1
ENDMDL
MODEL 7
REMARK VINA RESULT:      -1.8      2.648      3.954
REMARK  1 active torsions:
REMARK  status: ('A' for Active; 'I' for Inactive)
REMARK    1  A    between atoms: C1_1  and  C2_2 
ROOT
HETATM    1  C1  UNL     1     -34.816   4.621   4.440  1.00 20.00    -0.005 C 
HETATM    2  C3  UNL     1     -33.643   4.016   4.207  1.00 20.00    -0.031 C 
HETATM    3  C5  UNL     1     -33.352   2.601   4.583  1.00 20.00     0.036 C 
ENDROOT
BRANCH   1   4
HETATM    4  C2  UNL     1     -35.086   5.993   4.072  1.00 20.00    -0.005 C 
HETATM    5  C4  UNL     1     -34.125   6.918   3.938  1.00 20.00    -0.031 C 
HETATM    6  C6  UNL     1     -34.390   8.338   3.559  1.00 20.00     0.036 C 
ENDBRANCH   1   4
TORSDOF 1
ENDMDL
MODEL 8
REMARK VINA RESULT:      -1.7      2.617      4.975
REMARK  1 active torsions:
REMARK  status: ('A' for Active; 'I' for Inactive)
REMARK    1  A    between atoms: C1_1  and  C2_2 
ROOT
HETATM    1  C1  UNL     1     -35.072   5.986   4.108  1.00 20.00    -0.005 C 
HETATM    2  C3  UNL     1     -34.095   6.873   3.867  1.00 20.00    -0.031 C 
HETATM    3  C5  UNL     1     -34.343   8.310   3.545  1.00 20.00     0.036 C 
ENDROOT
BRANCH   1   4
HETATM    4  C2  UNL     1     -34.820   4.597   4.419  1.00 20.00    -0.005 C 
HETATM    5  C4  UNL     1     -33.620   4.018   4.263  1.00 20.00    -0.031 C 
HETATM    6  C6  UNL     1     -33.347   2.584   4.579  1.00 20.00     0.036 C 
ENDBRANCH   1   4
TORSDOF 1
ENDMDL
MODEL 9
REMARK VINA RESULT:      -1.7      1.422      4.340
REMARK  1 active torsions:
REMARK  status: ('A' for Active; 'I' for Inactive)
REMARK    1  A    between atoms: C1_1  and  C2_2 
ROOT
HETATM    1  C1  UNL     1     -33.026   6.782   1.676  1.00 20.00    -0.005 C 
HETATM    2  C3  UNL     1     -32.052   7.700   1.767  1.00 20.00    -0.031 C 
HETATM    3  C5  UNL     1     -32.036   8.970   0.982  1.00 20.00     0.036 C 
ENDROOT
BRANCH   1   4
HETATM    4  C2  UNL     1     -33.030   5.556   2.440  1.00 20.00    -0.005 C 
HETATM    5  C4  UNL     1     -33.938   5.287   3.390  1.00 20.00    -0.031 C 
HETATM    6  C6  UNL     1     -33.953   4.025   4.187  1.00 20.00     0.036 C 
ENDBRANCH   1   4
TORSDOF 1
ENDMDL
