MODEL 1
REMARK VINA RESULT:      -2.9      0.000      0.000
REMARK  3 active torsions:
REMARK  status: ('A' for Active; 'I' for Inactive)
REMARK    1  A    between atoms: C2_2  and  C8_8 
REMARK    2  A    between atoms: C4_4  and  C7_7 
REMARK    3  A    between atoms: C7_7  and  C8_8 
ROOT
HETATM    1  C7  UNL     1     -32.005   8.018   2.453  1.00 20.00     0.034 C 
ENDROOT
BRANCH   1   2
HETATM    2  C4  UNL     1     -32.252   8.471   1.040  1.00 20.00    -0.030 C 
HETATM    3  C3  UNL     1     -32.465   9.748   0.693  1.00 20.00    -0.035 C 
HETATM    4  C5  UNL     1     -32.708  10.197  -0.710  1.00 20.00     0.035 C 
ENDBRANCH   1   2
BRANCH   1   5
HETATM    5  C8  UNL     1     -32.861   6.798   2.846  1.00 20.00     0.007 C 
HETATM    6  C6  UNL     1     -33.206   5.977   1.601  1.00 20.00     0.014 C 
BRANCH   5   7
HETATM    7  C2  UNL     1     -34.135   7.215   3.540  1.00 20.00    -0.032 C 
HETATM    8  C1  UNL     1     -35.081   6.360   3.945  1.00 20.00     0.007 C 
ENDBRANCH   5   7
ENDBRANCH   1   5
TORSDOF 3
ENDMDL
MODEL 2
REMARK VINA RESULT:      -2.7      0.977      4.150
REMARK  3 active torsions:
REMARK  status: ('A' for Active; 'I' for Inactive)
REMARK    1  A    between atoms: C2_2  and  C8_8 
REMARK    2  A    between atoms: C4_4  and  C7_7 
REMARK    3  A    between atoms: C7_7  and  C8_8 
ROOT
HETATM    1  C7  UNL     1     -32.521   8.177   3.119  1.00 20.00     0.034 C 
ENDROOT
BRANCH   1   2
HETATM    2  C4  UNL     1     -33.704   7.620   3.863  1.00 20.00    -0.030 C 
HETATM    3  C3  UNL     1     -34.331   6.485   3.524  1.00 20.00    -0.035 C 
HETATM    4  C5  UNL     1     -35.504   5.932   4.263  1.00 20.00     0.035 C 
ENDBRANCH   1   2
BRANCH   1   5
HETATM    5  C8  UNL     1     -32.556   7.851   1.614  1.00 20.00     0.007 C 
HETATM    6  C6  UNL     1     -31.854   6.516   1.349  1.00 20.00     0.014 C 
BRANCH   5   7
HETATM    7  C2  UNL     1     -31.895   8.935   0.797  1.00 20.00    -0.032 C 
HETATM    8  C1  UNL     1     -32.540   9.997   0.301  1.00 20.00     0.007 C 
ENDBRANCH   5   7
ENDBRANCH   1   5
TORSDOF 3
ENDMDL
MODEL 3
REMARK VINA RESULT:      -2.7      1.398      2.355
REMARK  3 active torsions:
REMARK  status: ('A' for Active; 'I' for Inactive)
REMARK    1  A    between atoms: C2_2  and  C8_8 
REMARK    2  A    between atoms: C4_4  and  C7_7 
REMARK    3  A    between atoms: C7_7  and  C8_8 
ROOT
HETATM    1  C7  UNL     1     -33.105   5.911   2.559  1.00 20.00     0.034 C 
ENDROOT
BRANCH   1   2
HETATM    2  C4  UNL     1     -32.928   7.016   1.554  1.00 20.00    -0.030 C 
HETATM    3  C3  UNL     1     -32.057   8.025   1.700  1.00 20.00    -0.035 C 
HETATM    4  C5  UNL     1     -31.880   9.120   0.701  1.00 20.00     0.035 C 
ENDBRANCH   1   2
BRANCH   1   5
HETATM    5  C8  UNL     1     -34.399   6.057   3.384  1.00 20.00     0.007 C 
HETATM    6  C6  UNL     1     -34.336   7.326   4.238  1.00 20.00     0.014 C 
BRANCH   5   7
HETATM    7  C2  UNL     1     -34.622   4.862   4.278  1.00 20.00    -0.032 C 
HETATM    8  C1  UNL     1     -33.831   3.782   4.296  1.00 20.00     0.007 C 
ENDBRANCH   5   7
ENDBRANCH   1   5
TORSDOF 3
ENDMDL
MODEL 4
REMARK VINA RESULT:      -2.6      2.008      5.131
REMARK  3 active torsions:
REMARK  status: ('A' for Active; 'I' for Inactive)
REMARK    1  A    between atoms: C2_2  and  C8_8 
REMARK    2  A    between atoms: C4_4  and  C7_7 
REMARK    3  A    between atoms: C7_7  and  C8_8 
ROOT
HETATM    1  C7  UNL     1     -34.891   6.063   3.723  1.00 20.00     0.034 C 
ENDROOT
BRANCH   1   2
HETATM    2  C4  UNL     1     -34.660   4.709   4.336  1.00 20.00    -0.030 C 
HETATM    3  C3  UNL     1     -33.579   3.954   4.092  1.00 20.00    -0.035 C 
HETATM    4  C5  UNL     1     -33.350   2.611   4.701  1.00 20.00     0.035 C 
ENDBRANCH   1   2
BRANCH   1   5
HETATM    5  C8  UNL     1     -33.604   6.907   3.641  1.00 20.00     0.007 C 
HETATM    6  C6  UNL     1     -33.802   8.238   4.371  1.00 20.00     0.014 C 
BRANCH   5   7
HETATM    7  C2  UNL     1     -33.209   7.175   2.209  1.00 20.00    -0.032 C 
HETATM    8  C1  UNL     1     -32.084   7.803   1.848  1.00 20.00     0.007 C 
ENDBRANCH   5   7
ENDBRANCH   1   5
TORSDOF 3
ENDMDL
MODEL 5
REMARK VINA RESULT:      -2.6      0.904      1.459
REMARK  3 active torsions:
REMARK  status: ('A' for Active; 'I' for Inactive)
REMARK    1  A    between atoms: C2_2  and  C8_8 
REMARK    2  A    between atoms: C4_4  and  C7_7 
REMARK    3  A    between atoms: C7_7  and  C8_8 
ROOT
HETATM    1  C7  UNL     1     -32.305   7.193   2.230  1.00 20.00     0.034 C 
ENDROOT
BRANCH   1   2
HETATM    2  C4  UNL     1     -31.892   8.412   1.452  1.00 20.00    -0.030 C 
HETATM    3  C3  UNL     1     -32.746   9.177   0.758  1.00 20.00    -0.035 C 
HETATM    4  C5  UNL     1     -32.337  10.388  -0.013  1.00 20.00     0.035 C 
ENDBRANCH   1   2
BRANCH   1   5
HETATM    5  C8  UNL     1     -33.548   7.437   3.107  1.00 20.00     0.007 C 
HETATM    6  C6  UNL     1     -33.140   8.105   4.422  1.00 20.00     0.014 C 
BRANCH   5   7
HETATM    7  C2  UNL     1     -34.277   6.149   3.405  1.00 20.00    -0.032 C 
HETATM    8  C1  UNL     1     -35.378   6.070   4.161  1.00 20.00     0.007 C 
ENDBRANCH   5   7
ENDBRANCH   1   5
TORSDOF 3
ENDMDL
MODEL 6
REMARK VINA RESULT:      -2.3      0.673      1.956
REMARK  3 active torsions:
REMARK  status: ('A' for Active; 'I' for Inactive)
REMARK    1  A    between atoms: C2_2  and  C8_8 
REMARK    2  A    between atoms: C4_4  and  C7_7 
REMARK    3  A    between atoms: C7_7  and  C8_8 
ROOT
HETATM    1  C7  UNL     1     -31.990   7.909   2.294  1.00 20.00     0.034 C 
ENDROOT
BRANCH   1   2
HETATM    2  C4  UNL     1     -31.851   8.729   1.041  1.00 20.00    -0.030 C 
HETATM    3  C3  UNL     1     -32.691   9.716   0.699  1.00 20.00    -0.035 C 
HETATM    4  C5  UNL     1     -32.552  10.531  -0.544  1.00 20.00     0.035 C 
ENDBRANCH   1   2
BRANCH   1   5
HETATM    5  C8  UNL     1     -33.329   7.148   2.363  1.00 20.00     0.007 C 
HETATM    6  C6  UNL     1     -33.938   7.285   3.761  1.00 20.00     0.014 C 
BRANCH   5   7
HETATM    7  C2  UNL     1     -33.151   5.685   2.035  1.00 20.00    -0.032 C 
HETATM    8  C1  UNL     1     -32.244   5.217   1.170  1.00 20.00     0.007 C 
ENDBRANCH   5   7
ENDBRANCH   1   5
TORSDOF 3
ENDMDL
MODEL 7
REMARK VINA RESULT:      -2.2      1.967      4.893
REMARK  3 active torsions:
REMARK  status: ('A' for Active; 'I' for Inactive)
REMARK    1  A    between atoms: C2_2  and  C8_8 
REMARK    2  A    between atoms: C4_4  and  C7_7 
REMARK    3  A    between atoms: C7_7  and  C8_8 
ROOT
HETATM    1  C7  UNL     1     -33.845   6.216   2.954  1.00 20.00     0.034 C 
ENDROOT
BRANCH   1   2
HETATM    2  C4  UNL     1     -33.224   5.017   3.616  1.00 20.00    -0.030 C 
HETATM    3  C3  UNL     1     -33.929   3.995   4.121  1.00 20.00    -0.035 C 
HETATM    4  C5  UNL     1     -33.312   2.804   4.776  1.00 20.00     0.035 C 
ENDBRANCH   1   2
BRANCH   1   5
HETATM    5  C8  UNL     1     -33.102   6.642   1.673  1.00 20.00     0.007 C 
HETATM    6  C6  UNL     1     -32.280   5.470   1.130  1.00 20.00     0.014 C 
BRANCH   5   7
HETATM    7  C2  UNL     1     -32.191   7.818   1.926  1.00 20.00    -0.032 C 
HETATM    8  C1  UNL     1     -32.056   8.853   1.088  1.00 20.00     0.007 C 
ENDBRANCH   5   7
ENDBRANCH   1   5
TORSDOF 3
ENDMDL
MODEL 8
REMARK VINA RESULT:      -2.2      1.044      4.032
REMARK  3 active torsions:
REMARK  status: ('A' for Active; 'I' for Inactive)
REMARK    1  A    between atoms: C2_2  and  C8_8 
REMARK    2  A    between atoms: C4_4  and  C7_7 
REMARK    3  A    between atoms: C7_7  and  C8_8 
ROOT
HETATM    1  C7  UNL     1     -32.867   8.232   3.092  1.00 20.00     0.034 C 
ENDROOT
BRANCH   1   2
HETATM    2  C4  UNL     1     -33.522   7.063   3.776  1.00 20.00    -0.030 C 
HETATM    3  C3  UNL     1     -34.832   6.792   3.699  1.00 20.00    -0.035 C 
HETATM    4  C5  UNL     1     -35.481   5.631   4.377  1.00 20.00     0.035 C 
ENDBRANCH   1   2
BRANCH   1   5
HETATM    5  C8  UNL     1     -32.045   7.816   1.857  1.00 20.00     0.007 C 
HETATM    6  C6  UNL     1     -32.120   8.906   0.785  1.00 20.00     0.014 C 
BRANCH   5   7
HETATM    7  C2  UNL     1     -32.538   6.511   1.279  1.00 20.00    -0.032 C 
HETATM    8  C1  UNL     1     -31.824   5.379   1.270  1.00 20.00     0.007 C 
ENDBRANCH   5   7
ENDBRANCH   1   5
TORSDOF 3
ENDMDL
MODEL 9
REMARK VINA RESULT:      -2.1      1.286      2.199
REMARK  3 active torsions:
REMARK  status: ('A' for Active; 'I' for Inactive)
REMARK    1  A    between atoms: C2_2  and  C8_8 
REMARK    2  A    between atoms: C4_4  and  C7_7 
REMARK    3  A    between atoms: C7_7  and  C8_8 
ROOT
HETATM    1  C7  UNL     1     -32.969   5.321   2.042  1.00 20.00     0.034 C 
ENDROOT
BRANCH   1   2
HETATM    2  C4  UNL     1     -32.913   6.673   1.384  1.00 20.00    -0.030 C 
HETATM    3  C3  UNL     1     -31.976   7.593   1.651  1.00 20.00    -0.035 C 
HETATM    4  C5  UNL     1     -31.919   8.934   0.997  1.00 20.00     0.035 C 
ENDBRANCH   1   2
BRANCH   1   5
HETATM    5  C8  UNL     1     -33.460   5.388   3.501  1.00 20.00     0.007 C 
HETATM    6  C6  UNL     1     -33.919   4.003   3.964  1.00 20.00     0.014 C 
BRANCH   5   7
HETATM    7  C2  UNL     1     -34.596   6.371   3.658  1.00 20.00    -0.032 C 
HETATM    8  C1  UNL     1     -34.483   7.553   4.275  1.00 20.00     0.007 C 
ENDBRANCH   5   7
ENDBRANCH   1   5
TORSDOF 3
ENDMDL
