MODEL 1
REMARK VINA RESULT:       2.3      0.000      0.000
REMARK  3 active torsions:
REMARK  status: ('A' for Active; 'I' for Inactive)
REMARK    1  A    between atoms: C1_1  and  S7_7 
REMARK    2  A    between atoms: C1_1  and  S8_8 
REMARK    3  A    between atoms: C5_5  and  S8_8 
ROOT
HETATM    1  S8  UNL     1     -33.153   5.361   3.268  1.00 20.00    -0.103 SA
ENDROOT
BRANCH   1   2
HETATM    2  C1  UNL     1     -32.805   6.227   1.782  1.00 20.00     0.102 C 
HETATM    3  S6  UNL     1     -32.039   7.715   1.753  1.00 20.00    -0.065 SA
BRANCH   2   4
HETATM    4  S7  UNL     1     -33.256   5.371   0.316  1.00 20.00    -0.124 SA
HETATM    5  H18 UNL     1     -32.095   4.722   0.143  1.00 20.00     0.108 HD
ENDBRANCH   2   4
ENDBRANCH   1   2
BRANCH   1   6
HETATM    6  C5  UNL     1     -34.577   6.365   3.843  1.00 20.00     0.003 C 
HETATM    7  C2  UNL     1     -35.354   6.862   2.621  1.00 20.00     0.026 C 
HETATM    8  C3  UNL     1     -35.470   5.480   4.717  1.00 20.00     0.026 C 
HETATM    9  C4  UNL     1     -34.046   7.550   4.655  1.00 20.00     0.026 C 
ENDBRANCH   1   6
TORSDOF 3
ENDMDL
MODEL 2
REMARK VINA RESULT:       2.4      1.274      1.977
REMARK  3 active torsions:
REMARK  status: ('A' for Active; 'I' for Inactive)
REMARK    1  A    between atoms: C1_1  and  S7_7 
REMARK    2  A    between atoms: C1_1  and  S8_8 
REMARK    3  A    between atoms: C5_5  and  S8_8 
ROOT
HETATM    1  S8  UNL     1     -34.223   6.488   1.726  1.00 20.00    -0.103 SA
ENDROOT
BRANCH   1   2
HETATM    2  C1  UNL     1     -32.479   6.466   1.529  1.00 20.00     0.102 C 
HETATM    3  S6  UNL     1     -31.620   5.073   1.182  1.00 20.00    -0.065 SA
BRANCH   2   4
HETATM    4  S7  UNL     1     -31.711   8.042   1.650  1.00 20.00    -0.124 SA
HETATM    5  H18 UNL     1     -32.137   8.335   2.887  1.00 20.00     0.108 HD
ENDBRANCH   2   4
ENDBRANCH   1   2
BRANCH   1   6
HETATM    6  C5  UNL     1     -34.297   6.245   3.543  1.00 20.00     0.003 C 
HETATM    7  C2  UNL     1     -35.766   6.224   3.976  1.00 20.00     0.026 C 
HETATM    8  C3  UNL     1     -33.624   4.911   3.879  1.00 20.00     0.026 C 
HETATM    9  C4  UNL     1     -33.557   7.400   4.223  1.00 20.00     0.026 C 
ENDBRANCH   1   6
TORSDOF 3
ENDMDL
MODEL 3
REMARK VINA RESULT:       2.4      1.271      2.208
REMARK  3 active torsions:
REMARK  status: ('A' for Active; 'I' for Inactive)
REMARK    1  A    between atoms: C1_1  and  S7_7 
REMARK    2  A    between atoms: C1_1  and  S8_8 
REMARK    3  A    between atoms: C5_5  and  S8_8 
ROOT
HETATM    1  S8  UNL     1     -34.230   6.497   1.728  1.00 20.00    -0.103 SA
ENDROOT
BRANCH   1   2
HETATM    2  C1  UNL     1     -32.487   6.465   1.523  1.00 20.00     0.102 C 
HETATM    3  S6  UNL     1     -31.638   5.069   1.165  1.00 20.00    -0.065 SA
BRANCH   2   4
HETATM    4  S7  UNL     1     -31.710   8.036   1.649  1.00 20.00    -0.124 SA
HETATM    5  H18 UNL     1     -31.018   7.785   2.770  1.00 20.00     0.108 HD
ENDBRANCH   2   4
ENDBRANCH   1   2
BRANCH   1   6
HETATM    6  C5  UNL     1     -34.298   6.243   3.544  1.00 20.00     0.003 C 
HETATM    7  C2  UNL     1     -33.566   7.401   4.229  1.00 20.00     0.026 C 
HETATM    8  C3  UNL     1     -35.767   6.216   3.973  1.00 20.00     0.026 C 
HETATM    9  C4  UNL     1     -33.621   4.911   3.879  1.00 20.00     0.026 C 
ENDBRANCH   1   6
TORSDOF 3
ENDMDL
MODEL 4
REMARK VINA RESULT:       2.4      1.275      2.376
REMARK  3 active torsions:
REMARK  status: ('A' for Active; 'I' for Inactive)
REMARK    1  A    between atoms: C1_1  and  S7_7 
REMARK    2  A    between atoms: C1_1  and  S8_8 
REMARK    3  A    between atoms: C5_5  and  S8_8 
ROOT
HETATM    1  S8  UNL     1     -34.224   6.493   1.729  1.00 20.00    -0.103 SA
ENDROOT
BRANCH   1   2
HETATM    2  C1  UNL     1     -32.480   6.469   1.532  1.00 20.00     0.102 C 
HETATM    3  S6  UNL     1     -31.622   5.076   1.184  1.00 20.00    -0.065 SA
BRANCH   2   4
HETATM    4  S7  UNL     1     -31.711   8.045   1.655  1.00 20.00    -0.124 SA
HETATM    5  H18 UNL     1     -31.183   7.873   2.876  1.00 20.00     0.108 HD
ENDBRANCH   2   4
ENDBRANCH   1   2
BRANCH   1   6
HETATM    6  C5  UNL     1     -34.298   6.241   3.545  1.00 20.00     0.003 C 
HETATM    7  C2  UNL     1     -33.629   4.906   3.884  1.00 20.00     0.026 C 
HETATM    8  C3  UNL     1     -33.555   7.395   4.223  1.00 20.00     0.026 C 
HETATM    9  C4  UNL     1     -35.767   6.226   3.979  1.00 20.00     0.026 C 
ENDBRANCH   1   6
TORSDOF 3
ENDMDL
MODEL 5
REMARK VINA RESULT:       2.5      1.926      3.582
REMARK  3 active torsions:
REMARK  status: ('A' for Active; 'I' for Inactive)
REMARK    1  A    between atoms: C1_1  and  S7_7 
REMARK    2  A    between atoms: C1_1  and  S8_8 
REMARK    3  A    between atoms: C5_5  and  S8_8 
ROOT
HETATM    1  S8  UNL     1     -33.134   6.079   1.652  1.00 20.00    -0.103 SA
ENDROOT
BRANCH   1   2
HETATM    2  C1  UNL     1     -33.978   5.758   3.157  1.00 20.00     0.102 C 
HETATM    3  S6  UNL     1     -35.131   6.790   3.793  1.00 20.00    -0.065 SA
BRANCH   2   4
HETATM    4  S7  UNL     1     -33.570   4.222   3.908  1.00 20.00    -0.124 SA
HETATM    5  H18 UNL     1     -32.529   3.926   3.117  1.00 20.00     0.108 HD
ENDBRANCH   2   4
ENDBRANCH   1   2
BRANCH   1   6
HETATM    6  C5  UNL     1     -32.371   7.686   2.102  1.00 20.00     0.003 C 
HETATM    7  C2  UNL     1     -32.703   7.994   3.565  1.00 20.00     0.026 C 
HETATM    8  C3  UNL     1     -30.856   7.570   1.914  1.00 20.00     0.026 C 
HETATM    9  C4  UNL     1     -32.940   8.773   1.186  1.00 20.00     0.026 C 
ENDBRANCH   1   6
TORSDOF 3
ENDMDL
MODEL 6
REMARK VINA RESULT:       2.6      1.937      3.757
REMARK  3 active torsions:
REMARK  status: ('A' for Active; 'I' for Inactive)
REMARK    1  A    between atoms: C1_1  and  S7_7 
REMARK    2  A    between atoms: C1_1  and  S8_8 
REMARK    3  A    between atoms: C5_5  and  S8_8 
ROOT
HETATM    1  S8  UNL     1     -33.025   7.122   3.454  1.00 20.00    -0.103 SA
ENDROOT
BRANCH   1   2
HETATM    2  C1  UNL     1     -34.235   5.869   3.667  1.00 20.00     0.102 C 
HETATM    3  S6  UNL     1     -33.846   4.267   3.951  1.00 20.00    -0.065 SA
BRANCH   2   4
HETATM    4  S7  UNL     1     -35.895   6.445   3.634  1.00 20.00    -0.124 SA
HETATM    5  H18 UNL     1     -35.622   7.739   3.852  1.00 20.00     0.108 HD
ENDBRANCH   2   4
ENDBRANCH   1   2
BRANCH   1   6
HETATM    6  C5  UNL     1     -32.558   6.761   1.717  1.00 20.00     0.003 C 
HETATM    7  C2  UNL     1     -33.826   6.434   0.925  1.00 20.00     0.026 C 
HETATM    8  C3  UNL     1     -31.871   7.999   1.134  1.00 20.00     0.026 C 
HETATM    9  C4  UNL     1     -31.599   5.566   1.706  1.00 20.00     0.026 C 
ENDBRANCH   1   6
TORSDOF 3
ENDMDL
MODEL 7
REMARK VINA RESULT:       2.7      1.811      3.828
REMARK  3 active torsions:
REMARK  status: ('A' for Active; 'I' for Inactive)
REMARK    1  A    between atoms: C1_1  and  S7_7 
REMARK    2  A    between atoms: C1_1  and  S8_8 
REMARK    3  A    between atoms: C5_5  and  S8_8 
ROOT
HETATM    1  S8  UNL     1     -33.237   5.286   3.214  1.00 20.00    -0.103 SA
ENDROOT
BRANCH   1   2
HETATM    2  C1  UNL     1     -34.296   6.617   3.648  1.00 20.00     0.102 C 
HETATM    3  S6  UNL     1     -35.939   6.614   3.330  1.00 20.00    -0.065 SA
BRANCH   2   4
HETATM    4  S7  UNL     1     -33.506   7.926   4.514  1.00 20.00    -0.124 SA
HETATM    5  H18 UNL     1     -34.490   8.155   5.395  1.00 20.00     0.108 HD
ENDBRANCH   2   4
ENDBRANCH   1   2
BRANCH   1   6
HETATM    6  C5  UNL     1     -32.678   5.902   1.579  1.00 20.00     0.003 C 
HETATM    7  C2  UNL     1     -32.206   7.350   1.734  1.00 20.00     0.026 C 
HETATM    8  C3  UNL     1     -31.526   5.016   1.098  1.00 20.00     0.026 C 
HETATM    9  C4  UNL     1     -33.853   5.826   0.599  1.00 20.00     0.026 C 
ENDBRANCH   1   6
TORSDOF 3
ENDMDL
