MODEL 1
REMARK VINA RESULT:      -0.9      0.000      0.000
REMARK  1 active torsions:
REMARK  status: ('A' for Active; 'I' for Inactive)
REMARK    1  A    between atoms: C3_3  and  C4_4 
ROOT
HETATM    1  C1  UNL     1     -33.620   7.500   4.498  1.00 20.00     0.033 C 
HETATM    2  C2  UNL     1     -35.676   6.740   3.266  1.00 20.00     0.033 C 
HETATM    3  C4  UNL     1     -34.180   6.496   3.484  1.00 20.00     0.042 C 
HETATM    4 CL6  UNL     1     -33.996   4.844   4.199  1.00 20.00    -0.119 Cl
ENDROOT
BRANCH   3   5
HETATM    5  C3  UNL     1     -33.391   6.506   2.163  1.00 20.00     0.139 C 
HETATM    6 CL5  UNL     1     -32.221   7.845   2.041  1.00 20.00    -0.129 Cl
ENDBRANCH   3   5
TORSDOF 1
ENDMDL
MODEL 2
REMARK VINA RESULT:      -0.8      1.878      2.884
REMARK  1 active torsions:
REMARK  status: ('A' for Active; 'I' for Inactive)
REMARK    1  A    between atoms: C3_3  and  C4_4 
ROOT
HETATM    1  C1  UNL     1     -34.068   7.477   4.521  1.00 20.00     0.033 C 
HETATM    2  C2  UNL     1     -33.643   6.028   2.510  1.00 20.00     0.033 C 
HETATM    3  C4  UNL     1     -34.600   6.318   3.670  1.00 20.00     0.042 C 
HETATM    4 CL6  UNL     1     -36.176   6.847   2.957  1.00 20.00    -0.119 Cl
ENDROOT
BRANCH   3   5
HETATM    5  C3  UNL     1     -34.885   5.063   4.514  1.00 20.00     0.139 C 
HETATM    6 CL5  UNL     1     -33.780   3.707   4.172  1.00 20.00    -0.129 Cl
ENDBRANCH   3   5
TORSDOF 1
ENDMDL
MODEL 3
REMARK VINA RESULT:      -0.8      1.409      1.875
REMARK  1 active torsions:
REMARK  status: ('A' for Active; 'I' for Inactive)
REMARK    1  A    between atoms: C3_3  and  C4_4 
ROOT
HETATM    1  C1  UNL     1     -34.299   5.070   4.222  1.00 20.00     0.033 C 
HETATM    2  C2  UNL     1     -33.877   7.534   4.504  1.00 20.00     0.033 C 
HETATM    3  C4  UNL     1     -34.314   6.437   3.528  1.00 20.00     0.042 C 
HETATM    4 CL6  UNL     1     -36.023   6.784   3.049  1.00 20.00    -0.119 Cl
ENDROOT
BRANCH   3   5
HETATM    5  C3  UNL     1     -33.475   6.440   2.238  1.00 20.00     0.139 C 
HETATM    6 CL5  UNL     1     -32.326   7.800   2.137  1.00 20.00    -0.129 Cl
ENDBRANCH   3   5
TORSDOF 1
ENDMDL
MODEL 4
REMARK VINA RESULT:      -0.8      1.343      1.857
REMARK  1 active torsions:
REMARK  status: ('A' for Active; 'I' for Inactive)
REMARK    1  A    between atoms: C3_3  and  C4_4 
ROOT
HETATM    1  C1  UNL     1     -35.677   6.776   3.239  1.00 20.00     0.033 C 
HETATM    2  C2  UNL     1     -34.120   5.040   4.180  1.00 20.00     0.033 C 
HETATM    3  C4  UNL     1     -34.211   6.404   3.489  1.00 20.00     0.042 C 
HETATM    4 CL6  UNL     1     -33.524   7.635   4.621  1.00 20.00    -0.119 Cl
ENDROOT
BRANCH   3   5
HETATM    5  C3  UNL     1     -33.372   6.458   2.200  1.00 20.00     0.139 C 
HETATM    6 CL5  UNL     1     -32.273   7.859   2.122  1.00 20.00    -0.129 Cl
ENDBRANCH   3   5
TORSDOF 1
ENDMDL
MODEL 5
REMARK VINA RESULT:      -0.8      1.375      2.926
REMARK  1 active torsions:
REMARK  status: ('A' for Active; 'I' for Inactive)
REMARK    1  A    between atoms: C3_3  and  C4_4 
ROOT
HETATM    1  C1  UNL     1     -35.947   6.866   3.027  1.00 20.00     0.033 C 
HETATM    2  C2  UNL     1     -34.023   7.467   4.531  1.00 20.00     0.033 C 
HETATM    3  C4  UNL     1     -34.667   6.355   3.697  1.00 20.00     0.042 C 
HETATM    4 CL6  UNL     1     -33.504   5.917   2.383  1.00 20.00    -0.119 Cl
ENDROOT
BRANCH   3   5
HETATM    5  C3  UNL     1     -34.915   5.081   4.524  1.00 20.00     0.139 C 
HETATM    6 CL5  UNL     1     -33.787   3.753   4.144  1.00 20.00    -0.129 Cl
ENDBRANCH   3   5
TORSDOF 1
ENDMDL
MODEL 6
REMARK VINA RESULT:      -0.7      2.033      3.178
REMARK  1 active torsions:
REMARK  status: ('A' for Active; 'I' for Inactive)
REMARK    1  A    between atoms: C3_3  and  C4_4 
ROOT
HETATM    1  C1  UNL     1     -32.215   7.654   1.748  1.00 20.00     0.033 C 
HETATM    2  C2  UNL     1     -31.718   5.195   1.569  1.00 20.00     0.033 C 
HETATM    3  C4  UNL     1     -32.820   6.246   1.732  1.00 20.00     0.042 C 
HETATM    4 CL6  UNL     1     -33.897   6.135   0.283  1.00 20.00    -0.119 Cl
ENDROOT
BRANCH   3   5
HETATM    5  C3  UNL     1     -33.698   5.979   2.967  1.00 20.00     0.139 C 
HETATM    6 CL5  UNL     1     -34.095   7.450   3.893  1.00 20.00    -0.129 Cl
ENDBRANCH   3   5
TORSDOF 1
ENDMDL
MODEL 7
REMARK VINA RESULT:      -0.6      1.609      2.831
REMARK  1 active torsions:
REMARK  status: ('A' for Active; 'I' for Inactive)
REMARK    1  A    between atoms: C3_3  and  C4_4 
ROOT
HETATM    1  C1  UNL     1     -33.572   6.057   2.582  1.00 20.00     0.033 C 
HETATM    2  C2  UNL     1     -35.907   6.867   3.046  1.00 20.00     0.033 C 
HETATM    3  C4  UNL     1     -34.617   6.327   3.671  1.00 20.00     0.042 C 
HETATM    4 CL6  UNL     1     -33.954   7.617   4.751  1.00 20.00    -0.119 Cl
ENDROOT
BRANCH   3   5
HETATM    5  C3  UNL     1     -34.871   5.090   4.549  1.00 20.00     0.139 C 
HETATM    6 CL5  UNL     1     -33.788   3.721   4.185  1.00 20.00    -0.129 Cl
ENDBRANCH   3   5
TORSDOF 1
ENDMDL
MODEL 8
REMARK VINA RESULT:      -0.5      1.724      3.183
REMARK  1 active torsions:
REMARK  status: ('A' for Active; 'I' for Inactive)
REMARK    1  A    between atoms: C3_3  and  C4_4 
ROOT
HETATM    1  C1  UNL     1     -31.719   5.177   1.520  1.00 20.00     0.033 C 
HETATM    2  C2  UNL     1     -33.770   6.175   0.460  1.00 20.00     0.033 C 
HETATM    3  C4  UNL     1     -32.866   6.179   1.696  1.00 20.00     0.042 C 
HETATM    4 CL6  UNL     1     -32.132   7.827   1.827  1.00 20.00    -0.119 Cl
ENDROOT
BRANCH   3   5
HETATM    5  C3  UNL     1     -33.656   5.933   2.993  1.00 20.00     0.139 C 
HETATM    6 CL5  UNL     1     -34.096   7.429   3.856  1.00 20.00    -0.129 Cl
ENDBRANCH   3   5
TORSDOF 1
ENDMDL
MODEL 9
REMARK VINA RESULT:      -0.5      2.046      3.166
REMARK  1 active torsions:
REMARK  status: ('A' for Active; 'I' for Inactive)
REMARK    1  A    between atoms: C3_3  and  C4_4 
ROOT
HETATM    1  C1  UNL     1     -33.751   6.250   0.496  1.00 20.00     0.033 C 
HETATM    2  C2  UNL     1     -32.120   7.677   1.772  1.00 20.00     0.033 C 
HETATM    3  C4  UNL     1     -32.821   6.316   1.712  1.00 20.00     0.042 C 
HETATM    4 CL6  UNL     1     -31.543   5.057   1.486  1.00 20.00    -0.119 Cl
ENDROOT
BRANCH   3   5
HETATM    5  C3  UNL     1     -33.555   5.983   3.022  1.00 20.00     0.139 C 
HETATM    6 CL5  UNL     1     -34.141   7.422   3.897  1.00 20.00    -0.129 Cl
ENDBRANCH   3   5
TORSDOF 1
ENDMDL
