MODEL 1
REMARK VINA RESULT:      -3.4      0.000      0.000
REMARK  3 active torsions:
REMARK  status: ('A' for Active; 'I' for Inactive)
REMARK    1  A    between atoms: C3_3  and  C8_8 
REMARK    2  A    between atoms: C6_6  and  C7_7 
REMARK    3  A    between atoms: C7_7  and  C8_8 
ROOT
HETATM    1  C5  UNL     1     -32.582   5.612   1.308  1.00 20.00     0.010 C 
HETATM    2  C8  UNL     1     -33.067   6.916   1.943  1.00 20.00    -0.014 C 
ENDROOT
BRANCH   2   3
HETATM    3  C3  UNL     1     -33.490   6.658   3.391  1.00 20.00    -0.011 A 
HETATM    4  C1  UNL     1     -34.336   7.662   4.124  1.00 20.00     0.005 A 
HETATM    5  C2  UNL     1     -34.923   6.340   3.716  1.00 20.00     0.005 A 
ENDBRANCH   2   3
BRANCH   2   6
HETATM    6  C7  UNL     1     -32.000   8.025   1.901  1.00 20.00     0.004 C 
BRANCH   6   7
HETATM    7  C6  UNL     1     -31.842   8.667   0.520  1.00 20.00    -0.004 C 
HETATM    8  C4  UNL     1     -32.557  10.008   0.448  1.00 20.00     0.005 C 
ENDBRANCH   6   7
ENDBRANCH   2   6
TORSDOF 3
ENDMDL
MODEL 2
REMARK VINA RESULT:      -3.0      1.912      4.689
REMARK  3 active torsions:
REMARK  status: ('A' for Active; 'I' for Inactive)
REMARK    1  A    between atoms: C3_3  and  C8_8 
REMARK    2  A    between atoms: C6_6  and  C7_7 
REMARK    3  A    between atoms: C7_7  and  C8_8 
ROOT
HETATM    1  C5  UNL     1     -34.260   7.479   4.147  1.00 20.00     0.010 C 
HETATM    2  C8  UNL     1     -34.283   6.165   3.364  1.00 20.00    -0.014 C 
ENDROOT
BRANCH   2   3
HETATM    3  C3  UNL     1     -32.949   5.975   2.638  1.00 20.00    -0.011 A 
HETATM    4  C1  UNL     1     -32.912   5.848   1.140  1.00 20.00     0.005 A 
HETATM    5  C2  UNL     1     -32.375   7.085   1.803  1.00 20.00     0.005 A 
ENDBRANCH   2   3
BRANCH   2   6
HETATM    6  C7  UNL     1     -34.567   4.948   4.263  1.00 20.00     0.004 C 
BRANCH   6   7
HETATM    7  C6  UNL     1     -33.772   3.700   3.868  1.00 20.00    -0.004 C 
HETATM    8  C4  UNL     1     -33.106   3.061   5.078  1.00 20.00     0.005 C 
ENDBRANCH   6   7
ENDBRANCH   2   6
TORSDOF 3
ENDMDL
MODEL 3
REMARK VINA RESULT:      -2.5      1.147      2.219
REMARK  3 active torsions:
REMARK  status: ('A' for Active; 'I' for Inactive)
REMARK    1  A    between atoms: C3_3  and  C8_8 
REMARK    2  A    between atoms: C6_6  and  C7_7 
REMARK    3  A    between atoms: C7_7  and  C8_8 
ROOT
HETATM    1  C5  UNL     1     -34.099   7.726   4.019  1.00 20.00     0.010 C 
HETATM    2  C8  UNL     1     -33.398   6.554   3.330  1.00 20.00    -0.014 C 
ENDROOT
BRANCH   2   3
HETATM    3  C3  UNL     1     -34.318   5.331   3.328  1.00 20.00    -0.011 A 
HETATM    4  C1  UNL     1     -33.986   4.131   4.171  1.00 20.00     0.005 A 
HETATM    5  C2  UNL     1     -35.151   5.008   4.537  1.00 20.00     0.005 A 
ENDBRANCH   2   3
BRANCH   2   6
HETATM    6  C7  UNL     1     -32.970   6.888   1.889  1.00 20.00     0.004 C 
BRANCH   6   7
HETATM    7  C6  UNL     1     -31.877   7.958   1.810  1.00 20.00    -0.004 C 
HETATM    8  C4  UNL     1     -32.242   9.050   0.816  1.00 20.00     0.005 C 
ENDBRANCH   6   7
ENDBRANCH   2   6
TORSDOF 3
ENDMDL
MODEL 4
REMARK VINA RESULT:      -2.4      0.985      3.890
REMARK  3 active torsions:
REMARK  status: ('A' for Active; 'I' for Inactive)
REMARK    1  A    between atoms: C3_3  and  C8_8 
REMARK    2  A    between atoms: C6_6  and  C7_7 
REMARK    3  A    between atoms: C7_7  and  C8_8 
ROOT
HETATM    1  C5  UNL     1     -31.815   6.720   1.398  1.00 20.00     0.010 C 
HETATM    2  C8  UNL     1     -32.251   8.050   2.014  1.00 20.00    -0.014 C 
ENDROOT
BRANCH   2   3
HETATM    3  C3  UNL     1     -32.901   8.926   0.940  1.00 20.00    -0.011 A 
HETATM    4  C1  UNL     1     -32.558  10.388   0.845  1.00 20.00     0.005 A 
HETATM    5  C2  UNL     1     -32.087   9.434  -0.217  1.00 20.00     0.005 A 
ENDBRANCH   2   3
BRANCH   2   6
HETATM    6  C7  UNL     1     -33.223   7.863   3.193  1.00 20.00     0.004 C 
BRANCH   6   7
HETATM    7  C6  UNL     1     -33.835   6.461   3.262  1.00 20.00    -0.004 C 
HETATM    8  C4  UNL     1     -35.176   6.476   3.981  1.00 20.00     0.005 C 
ENDBRANCH   6   7
ENDBRANCH   2   6
TORSDOF 3
ENDMDL
MODEL 5
REMARK VINA RESULT:      -2.2      1.246      3.997
REMARK  3 active torsions:
REMARK  status: ('A' for Active; 'I' for Inactive)
REMARK    1  A    between atoms: C3_3  and  C8_8 
REMARK    2  A    between atoms: C6_6  and  C7_7 
REMARK    3  A    between atoms: C7_7  and  C8_8 
ROOT
HETATM    1  C5  UNL     1     -31.991   8.059   2.174  1.00 20.00     0.010 C 
HETATM    2  C8  UNL     1     -33.253   7.205   2.305  1.00 20.00    -0.014 C 
ENDROOT
BRANCH   2   3
HETATM    3  C3  UNL     1     -32.932   5.752   1.948  1.00 20.00    -0.011 A 
HETATM    4  C1  UNL     1     -33.246   5.221   0.577  1.00 20.00     0.005 A 
HETATM    5  C2  UNL     1     -31.818   5.436   0.991  1.00 20.00     0.005 A 
ENDBRANCH   2   3
BRANCH   2   6
HETATM    6  C7  UNL     1     -33.867   7.273   3.716  1.00 20.00     0.004 C 
BRANCH   6   7
HETATM    7  C6  UNL     1     -35.220   6.566   3.826  1.00 20.00    -0.004 C 
HETATM    8  C4  UNL     1     -35.074   5.181   4.437  1.00 20.00     0.005 C 
ENDBRANCH   6   7
ENDBRANCH   2   6
TORSDOF 3
ENDMDL
MODEL 6
REMARK VINA RESULT:      -1.9      1.624      3.583
REMARK  3 active torsions:
REMARK  status: ('A' for Active; 'I' for Inactive)
REMARK    1  A    between atoms: C3_3  and  C8_8 
REMARK    2  A    between atoms: C6_6  and  C7_7 
REMARK    3  A    between atoms: C7_7  and  C8_8 
ROOT
HETATM    1  C5  UNL     1     -33.856   4.132   3.749  1.00 20.00     0.010 C 
HETATM    2  C8  UNL     1     -33.648   5.615   3.438  1.00 20.00    -0.014 C 
ENDROOT
BRANCH   2   3
HETATM    3  C3  UNL     1     -33.360   5.794   1.946  1.00 20.00    -0.011 A 
HETATM    4  C1  UNL     1     -32.281   6.738   1.490  1.00 20.00     0.005 A 
HETATM    5  C2  UNL     1     -32.090   5.253   1.350  1.00 20.00     0.005 A 
ENDBRANCH   2   3
BRANCH   2   6
HETATM    6  C7  UNL     1     -34.858   6.478   3.844  1.00 20.00     0.004 C 
BRANCH   6   7
HETATM    7  C6  UNL     1     -34.491   7.929   4.163  1.00 20.00    -0.004 C 
HETATM    8  C4  UNL     1     -33.145   8.019   4.867  1.00 20.00     0.005 C 
ENDBRANCH   6   7
ENDBRANCH   2   6
TORSDOF 3
ENDMDL
MODEL 7
REMARK VINA RESULT:      -1.9      1.384      2.661
REMARK  3 active torsions:
REMARK  status: ('A' for Active; 'I' for Inactive)
REMARK    1  A    between atoms: C3_3  and  C8_8 
REMARK    2  A    between atoms: C6_6  and  C7_7 
REMARK    3  A    between atoms: C7_7  and  C8_8 
ROOT
HETATM    1  C5  UNL     1     -33.809   8.142   4.717  1.00 20.00     0.010 C 
HETATM    2  C8  UNL     1     -33.363   7.155   3.637  1.00 20.00    -0.014 C 
ENDROOT
BRANCH   2   3
HETATM    3  C3  UNL     1     -34.480   6.143   3.370  1.00 20.00    -0.011 A 
HETATM    4  C1  UNL     1     -34.409   4.763   3.962  1.00 20.00     0.005 A 
HETATM    5  C2  UNL     1     -35.423   5.748   4.472  1.00 20.00     0.005 A 
ENDBRANCH   2   3
BRANCH   2   6
HETATM    6  C7  UNL     1     -32.969   7.857   2.324  1.00 20.00     0.004 C 
BRANCH   6   7
HETATM    7  C6  UNL     1     -31.773   7.209   1.622  1.00 20.00    -0.004 C 
HETATM    8  C4  UNL     1     -32.078   5.775   1.217  1.00 20.00     0.005 C 
ENDBRANCH   6   7
ENDBRANCH   2   6
TORSDOF 3
ENDMDL
MODEL 8
REMARK VINA RESULT:      -1.8      0.987      2.363
REMARK  3 active torsions:
REMARK  status: ('A' for Active; 'I' for Inactive)
REMARK    1  A    between atoms: C3_3  and  C8_8 
REMARK    2  A    between atoms: C6_6  and  C7_7 
REMARK    3  A    between atoms: C7_7  and  C8_8 
ROOT
HETATM    1  C5  UNL     1     -33.597   7.626   3.532  1.00 20.00     0.010 C 
HETATM    2  C8  UNL     1     -32.419   7.597   2.556  1.00 20.00    -0.014 C 
ENDROOT
BRANCH   2   3
HETATM    3  C3  UNL     1     -32.703   6.592   1.437  1.00 20.00    -0.011 A 
HETATM    4  C1  UNL     1     -31.840   5.371   1.278  1.00 20.00     0.005 A 
HETATM    5  C2  UNL     1     -33.256   5.233   1.762  1.00 20.00     0.005 A 
ENDBRANCH   2   3
BRANCH   2   6
HETATM    6  C7  UNL     1     -32.120   8.982   1.952  1.00 20.00     0.004 C 
BRANCH   6   7
HETATM    7  C6  UNL     1     -32.010   8.968   0.425  1.00 20.00    -0.004 C 
HETATM    8  C4  UNL     1     -32.657  10.202  -0.188  1.00 20.00     0.005 C 
ENDBRANCH   6   7
ENDBRANCH   2   6
TORSDOF 3
ENDMDL
MODEL 9
REMARK VINA RESULT:      -1.8      1.097      4.004
REMARK  3 active torsions:
REMARK  status: ('A' for Active; 'I' for Inactive)
REMARK    1  A    between atoms: C3_3  and  C8_8 
REMARK    2  A    between atoms: C6_6  and  C7_7 
REMARK    3  A    between atoms: C7_7  and  C8_8 
ROOT
HETATM    1  C5  UNL     1     -31.788   8.648   3.128  1.00 20.00     0.010 C 
HETATM    2  C8  UNL     1     -32.335   8.205   1.771  1.00 20.00    -0.014 C 
ENDROOT
BRANCH   2   3
HETATM    3  C3  UNL     1     -31.876   9.182   0.686  1.00 20.00    -0.011 A 
HETATM    4  C1  UNL     1     -32.761   9.477  -0.493  1.00 20.00     0.005 A 
HETATM    5  C2  UNL     1     -32.530  10.529   0.555  1.00 20.00     0.005 A 
ENDBRANCH   2   3
BRANCH   2   6
HETATM    6  C7  UNL     1     -31.903   6.774   1.400  1.00 20.00     0.004 C 
BRANCH   6   7
HETATM    7  C6  UNL     1     -32.991   5.726   1.650  1.00 20.00    -0.004 C 
HETATM    8  C4  UNL     1     -33.809   6.060   2.889  1.00 20.00     0.005 C 
ENDBRANCH   6   7
ENDBRANCH   2   6
TORSDOF 3
ENDMDL
