MODEL 1
REMARK VINA RESULT:       0.1      0.000      0.000
REMARK  1 active torsions:
REMARK  status: ('A' for Active; 'I' for Inactive)
REMARK    1  A    between atoms: C7_7  and  O12_12 
ROOT
HETATM    1  C1  UNL     1     -32.409  10.402   0.037  1.00 20.00     0.015 C 
HETATM    2  C2  UNL     1     -32.421   9.488   0.815  1.00 20.00    -0.079 C 
HETATM    3  C3  UNL     1     -32.156   7.043   1.026  1.00 20.00     0.055 C 
HETATM    4  C4  UNL     1     -32.993   5.960   3.165  1.00 20.00     0.013 C 
HETATM    5  C5  UNL     1     -33.779   8.319   2.518  1.00 20.00     0.060 C 
HETATM    6  C6  UNL     1     -32.854   5.815   1.646  1.00 20.00    -0.014 C 
HETATM    7  C7  UNL     1     -32.436   8.365   1.770  1.00 20.00     0.121 C 
HETATM    8  C8  UNL     1     -33.890   7.163   3.552  1.00 20.00    -0.044 C 
HETATM    9  C9  UNL     1     -32.110   4.531   1.282  1.00 20.00     0.010 C 
HETATM   10  C10 UNL     1     -35.365   6.710   3.619  1.00 20.00     0.015 C 
HETATM   11  C11 UNL     1     -33.496   7.649   4.961  1.00 20.00     0.015 C 
ENDROOT
BRANCH   7  12
HETATM   12  O12 UNL     1     -31.378   8.567   2.711  1.00 20.00    -0.378 OA
HETATM   13  H30 UNL     1     -30.605   8.112   2.350  1.00 20.00     0.211 HD
ENDBRANCH   7  12
TORSDOF 1
ENDMDL
MODEL 2
REMARK VINA RESULT:       2.7      1.292      3.524
REMARK  1 active torsions:
REMARK  status: ('A' for Active; 'I' for Inactive)
REMARK    1  A    between atoms: C7_7  and  O12_12 
ROOT
HETATM    1  C1  UNL     1     -31.007   4.095   0.813  1.00 20.00     0.015 C 
HETATM    2  C2  UNL     1     -31.746   4.992   1.118  1.00 20.00    -0.079 C 
HETATM    3  C3  UNL     1     -32.111   7.426   0.940  1.00 20.00     0.055 C 
HETATM    4  C4  UNL     1     -33.791   8.472   2.530  1.00 20.00     0.013 C 
HETATM    5  C5  UNL     1     -32.825   6.143   3.020  1.00 20.00     0.060 C 
HETATM    6  C6  UNL     1     -32.448   8.651   1.815  1.00 20.00    -0.014 C 
HETATM    7  C7  UNL     1     -32.652   6.092   1.493  1.00 20.00     0.121 C 
HETATM    8  C8  UNL     1     -33.769   7.276   3.515  1.00 20.00    -0.044 C 
HETATM    9  C9  UNL     1     -32.435   9.930   0.980  1.00 20.00     0.010 C 
HETATM   10  C10 UNL     1     -33.275   7.751   4.898  1.00 20.00     0.015 C 
HETATM   11  C11 UNL     1     -35.206   6.750   3.698  1.00 20.00     0.015 C 
ENDROOT
BRANCH   7  12
HETATM   12  O12 UNL     1     -33.921   5.850   0.882  1.00 20.00    -0.378 OA
HETATM   13  H30 UNL     1     -34.124   4.917   1.042  1.00 20.00     0.211 HD
ENDBRANCH   7  12
TORSDOF 1
ENDMDL
