MODEL 1
REMARK VINA RESULT:       0.2      0.000      0.000
REMARK  2 active torsions:
REMARK  status: ('A' for Active; 'I' for Inactive)
REMARK    1  A    between atoms: C6_6  and  C11_11 
REMARK    2  A    between atoms: C11_11  and  O12_12 
ROOT
HETATM    1  C1  UNL     1     -33.758   5.302   2.851  1.00 20.00    -0.024 C 
HETATM    2  C2  UNL     1     -34.537   5.774   3.838  1.00 20.00    -0.087 C 
HETATM    3  C3  UNL     1     -32.849   6.164   2.024  1.00 20.00     0.035 C 
HETATM    4  C4  UNL     1     -34.538   7.231   4.227  1.00 20.00     0.034 C 
HETATM    5  C5  UNL     1     -33.374   8.029   3.630  1.00 20.00     0.012 C 
HETATM    6  C6  UNL     1     -33.148   7.666   2.160  1.00 20.00     0.023 C 
HETATM    7  C7  UNL     1     -35.459   4.882   4.617  1.00 20.00     0.043 C 
ENDROOT
BRANCH   6   8
HETATM    8  C11 UNL     1     -32.024   8.500   1.551  1.00 20.00     0.057 C 
HETATM    9  C8  UNL     1     -31.477   7.829   0.292  1.00 20.00     0.046 C 
HETATM   10  C9  UNL     1     -30.904   8.730   2.566  1.00 20.00     0.046 C 
BRANCH   8  11
HETATM   11  O12 UNL     1     -32.555   9.768   1.165  1.00 20.00    -0.385 OA
HETATM   12  C10 UNL     1     -32.566   9.913  -0.246  1.00 20.00     0.202 C 
ENDBRANCH   8  11
ENDBRANCH   6   8
TORSDOF 2
ENDMDL
MODEL 2
REMARK VINA RESULT:       1.5      0.515      1.520
REMARK  2 active torsions:
REMARK  status: ('A' for Active; 'I' for Inactive)
REMARK    1  A    between atoms: C6_6  and  C11_11 
REMARK    2  A    between atoms: C11_11  and  O12_12 
ROOT
HETATM    1  C1  UNL     1     -34.851   7.041   4.110  1.00 20.00    -0.024 C 
HETATM    2  C2  UNL     1     -34.767   5.701   4.058  1.00 20.00    -0.087 C 
HETATM    3  C3  UNL     1     -33.960   7.962   3.329  1.00 20.00     0.035 C 
HETATM    4  C4  UNL     1     -33.774   4.997   3.168  1.00 20.00     0.034 C 
HETATM    5  C5  UNL     1     -33.119   5.915   2.130  1.00 20.00     0.012 C 
HETATM    6  C6  UNL     1     -32.722   7.258   2.748  1.00 20.00     0.023 C 
HETATM    7  C7  UNL     1     -35.656   4.818   4.883  1.00 20.00     0.043 C 
ENDROOT
BRANCH   6   8
HETATM    8  C11 UNL     1     -32.021   8.150   1.727  1.00 20.00     0.057 C 
HETATM    9  C8  UNL     1     -31.655   7.353   0.477  1.00 20.00     0.046 C 
HETATM   10  C9  UNL     1     -30.777   8.800   2.332  1.00 20.00     0.046 C 
BRANCH   8  11
HETATM   11  O12 UNL     1     -32.924   9.182   1.328  1.00 20.00    -0.385 OA
HETATM   12  C10 UNL     1     -32.379   9.966   0.278  1.00 20.00     0.202 C 
ENDBRANCH   8  11
ENDBRANCH   6   8
TORSDOF 2
ENDMDL
MODEL 3
REMARK VINA RESULT:       2.1      2.397      4.981
REMARK  2 active torsions:
REMARK  status: ('A' for Active; 'I' for Inactive)
REMARK    1  A    between atoms: C6_6  and  C11_11 
REMARK    2  A    between atoms: C11_11  and  O12_12 
ROOT
HETATM    1  C1  UNL     1     -32.318   6.758   1.199  1.00 20.00    -0.024 C 
HETATM    2  C2  UNL     1     -32.381   8.002   1.701  1.00 20.00    -0.087 C 
HETATM    3  C3  UNL     1     -32.851   5.546   1.906  1.00 20.00     0.035 C 
HETATM    4  C4  UNL     1     -33.036   8.295   3.027  1.00 20.00     0.034 C 
HETATM    5  C5  UNL     1     -33.874   7.133   3.571  1.00 20.00     0.012 C 
HETATM    6  C6  UNL     1     -33.149   5.795   3.394  1.00 20.00     0.023 C 
HETATM    7  C7  UNL     1     -31.803   9.181   0.975  1.00 20.00     0.043 C 
ENDROOT
BRANCH   6   8
HETATM    8  C11 UNL     1     -33.961   4.646   3.984  1.00 20.00     0.057 C 
HETATM    9  C8  UNL     1     -34.072   3.496   2.984  1.00 20.00     0.046 C 
HETATM   10  C9  UNL     1     -35.348   5.120   4.413  1.00 20.00     0.046 C 
BRANCH   8  11
HETATM   11  O12 UNL     1     -33.276   4.148   5.134  1.00 20.00    -0.385 OA
HETATM   12  C10 UNL     1     -32.996   2.763   5.008  1.00 20.00     0.202 C 
ENDBRANCH   8  11
ENDBRANCH   6   8
TORSDOF 2
ENDMDL
MODEL 4
REMARK VINA RESULT:       2.6      1.860      4.878
REMARK  2 active torsions:
REMARK  status: ('A' for Active; 'I' for Inactive)
REMARK    1  A    between atoms: C6_6  and  C11_11 
REMARK    2  A    between atoms: C11_11  and  O12_12 
ROOT
HETATM    1  C1  UNL     1     -33.197   9.875   1.475  1.00 20.00    -0.024 C 
HETATM    2  C2  UNL     1     -32.309   9.392   0.591  1.00 20.00    -0.087 C 
HETATM    3  C3  UNL     1     -33.806   9.055   2.575  1.00 20.00     0.035 C 
HETATM    4  C4  UNL     1     -31.816   7.968   0.650  1.00 20.00     0.034 C 
HETATM    5  C5  UNL     1     -32.164   7.251   1.959  1.00 20.00     0.012 C 
HETATM    6  C6  UNL     1     -33.606   7.543   2.386  1.00 20.00     0.023 C 
HETATM    7  C7  UNL     1     -31.752  10.238  -0.516  1.00 20.00     0.043 C 
ENDROOT
BRANCH   6   8
HETATM    8  C11 UNL     1     -33.968   6.784   3.660  1.00 20.00     0.057 C 
HETATM    9  C8  UNL     1     -35.474   6.535   3.728  1.00 20.00     0.046 C 
HETATM   10  C9  UNL     1     -33.493   7.541   4.900  1.00 20.00     0.046 C 
BRANCH   8  11
HETATM   11  O12 UNL     1     -33.324   5.510   3.630  1.00 20.00    -0.385 OA
HETATM   12  C10 UNL     1     -34.206   4.478   4.040  1.00 20.00     0.202 C 
ENDBRANCH   8  11
ENDBRANCH   6   8
TORSDOF 2
ENDMDL
MODEL 5
REMARK VINA RESULT:       2.9      2.380      5.161
REMARK  2 active torsions:
REMARK  status: ('A' for Active; 'I' for Inactive)
REMARK    1  A    between atoms: C6_6  and  C11_11 
REMARK    2  A    between atoms: C11_11  and  O12_12 
ROOT
HETATM    1  C1  UNL     1     -32.905   8.220   2.778  1.00 20.00    -0.024 C 
HETATM    2  C2  UNL     1     -32.345   7.894   1.601  1.00 20.00    -0.087 C 
HETATM    3  C3  UNL     1     -33.516   7.219   3.715  1.00 20.00     0.035 C 
HETATM    4  C4  UNL     1     -32.252   6.465   1.130  1.00 20.00     0.034 C 
HETATM    5  C5  UNL     1     -32.552   5.435   2.224  1.00 20.00     0.012 C 
HETATM    6  C6  UNL     1     -33.766   5.851   3.060  1.00 20.00     0.023 C 
HETATM    7  C7  UNL     1     -31.778   8.933   0.679  1.00 20.00     0.043 C 
ENDROOT
BRANCH   6   8
HETATM    8  C11 UNL     1     -34.097   4.798   4.114  1.00 20.00     0.057 C 
HETATM    9  C8  UNL     1     -35.505   5.012   4.666  1.00 20.00     0.046 C 
HETATM   10  C9  UNL     1     -33.069   4.815   5.245  1.00 20.00     0.046 C 
BRANCH   8  11
HETATM   11  O12 UNL     1     -34.070   3.510   3.496  1.00 20.00    -0.385 OA
HETATM   12  C10 UNL     1     -33.347   2.577   4.282  1.00 20.00     0.202 C 
ENDBRANCH   8  11
ENDBRANCH   6   8
TORSDOF 2
ENDMDL
MODEL 6
REMARK VINA RESULT:       3.1      1.686      4.895
REMARK  2 active torsions:
REMARK  status: ('A' for Active; 'I' for Inactive)
REMARK    1  A    between atoms: C6_6  and  C11_11 
REMARK    2  A    between atoms: C11_11  and  O12_12 
ROOT
HETATM    1  C1  UNL     1     -33.199  10.095   1.303  1.00 20.00    -0.024 C 
HETATM    2  C2  UNL     1     -32.268   9.693   0.422  1.00 20.00    -0.087 C 
HETATM    3  C3  UNL     1     -33.743   9.222   2.395  1.00 20.00     0.035 C 
HETATM    4  C4  UNL     1     -31.657   8.316   0.479  1.00 20.00     0.034 C 
HETATM    5  C5  UNL     1     -31.951   7.565   1.782  1.00 20.00     0.012 C 
HETATM    6  C6  UNL     1     -33.415   7.733   2.201  1.00 20.00     0.023 C 
HETATM    7  C7  UNL     1     -31.778  10.588  -0.678  1.00 20.00     0.043 C 
ENDROOT
BRANCH   6   8
HETATM    8  C11 UNL     1     -33.719   6.941   3.470  1.00 20.00     0.057 C 
HETATM    9  C8  UNL     1     -33.180   7.667   4.701  1.00 20.00     0.046 C 
HETATM   10  C9  UNL     1     -33.142   5.529   3.384  1.00 20.00     0.046 C 
BRANCH   8  11
HETATM   11  O12 UNL     1     -35.137   6.844   3.617  1.00 20.00    -0.385 OA
HETATM   12  C10 UNL     1     -35.503   5.657   4.302  1.00 20.00     0.202 C 
ENDBRANCH   8  11
ENDBRANCH   6   8
TORSDOF 2
ENDMDL
MODEL 7
REMARK VINA RESULT:       3.2      1.205      2.289
REMARK  2 active torsions:
REMARK  status: ('A' for Active; 'I' for Inactive)
REMARK    1  A    between atoms: C6_6  and  C11_11 
REMARK    2  A    between atoms: C11_11  and  O12_12 
ROOT
HETATM    1  C1  UNL     1     -34.072   7.082   3.704  1.00 20.00    -0.024 C 
HETATM    2  C2  UNL     1     -33.848   5.798   3.376  1.00 20.00    -0.087 C 
HETATM    3  C3  UNL     1     -33.570   8.246   2.900  1.00 20.00     0.035 C 
HETATM    4  C4  UNL     1     -33.088   5.413   2.132  1.00 20.00     0.034 C 
HETATM    5  C5  UNL     1     -32.886   6.572   1.150  1.00 20.00     0.012 C 
HETATM    6  C6  UNL     1     -32.487   7.857   1.881  1.00 20.00     0.023 C 
HETATM    7  C7  UNL     1     -34.339   4.665   4.228  1.00 20.00     0.043 C 
ENDROOT
BRANCH   6   8
HETATM    8  C11 UNL     1     -32.234   8.996   0.898  1.00 20.00     0.057 C 
HETATM    9  C8  UNL     1     -32.597  10.340   1.526  1.00 20.00     0.046 C 
HETATM   10  C9  UNL     1     -33.013   8.781  -0.399  1.00 20.00     0.046 C 
BRANCH   8  11
HETATM   11  O12 UNL     1     -30.839   9.030   0.590  1.00 20.00    -0.385 OA
HETATM   12  C10 UNL     1     -30.611   8.794  -0.790  1.00 20.00     0.202 C 
ENDBRANCH   8  11
ENDBRANCH   6   8
TORSDOF 2
ENDMDL
