MODEL 1
REMARK VINA RESULT:      -1.1      0.000      0.000
REMARK  2 active torsions:
REMARK  status: ('A' for Active; 'I' for Inactive)
REMARK    1  A    between atoms: C3_3  and  C4_4 
REMARK    2  A    between atoms: C4_4  and  O5_5 
ROOT
HETATM    1  C1  UNL     1     -33.663   6.013   2.606  1.00 20.00     0.046 C 
HETATM    2  C2  UNL     1     -34.118   7.498   4.568  1.00 20.00     0.046 C 
HETATM    3  C4  UNL     1     -34.659   6.342   3.724  1.00 20.00     0.063 C 
ENDROOT
BRANCH   3   4
HETATM    4  C3  UNL     1     -34.938   5.077   4.551  1.00 20.00     0.151 C 
HETATM    5 CL6  UNL     1     -33.811   3.743   4.185  1.00 20.00    -0.127 Cl
ENDBRANCH   3   4
BRANCH   3   6
HETATM    6  O5  UNL     1     -35.871   6.782   3.107  1.00 20.00    -0.390 OA
HETATM    7  H15 UNL     1     -36.388   7.219   3.800  1.00 20.00     0.210 HD
ENDBRANCH   3   6
TORSDOF 2
ENDMDL
MODEL 2
REMARK VINA RESULT:      -1.0      1.936      2.663
REMARK  2 active torsions:
REMARK  status: ('A' for Active; 'I' for Inactive)
REMARK    1  A    between atoms: C3_3  and  C4_4 
REMARK    2  A    between atoms: C4_4  and  O5_5 
ROOT
HETATM    1  C1  UNL     1     -33.946   7.496   4.501  1.00 20.00     0.046 C 
HETATM    2  C2  UNL     1     -34.496   5.063   4.312  1.00 20.00     0.046 C 
HETATM    3  C4  UNL     1     -34.432   6.392   3.556  1.00 20.00     0.063 C 
ENDROOT
BRANCH   3   4
HETATM    4  C3  UNL     1     -33.518   6.334   2.322  1.00 20.00     0.151 C 
HETATM    5 CL6  UNL     1     -32.434   7.745   2.191  1.00 20.00    -0.127 Cl
ENDBRANCH   3   4
BRANCH   3   6
HETATM    6  O5  UNL     1     -35.760   6.727   3.147  1.00 20.00    -0.390 OA
HETATM    7  H15 UNL     1     -35.704   6.970   2.211  1.00 20.00     0.210 HD
ENDBRANCH   3   6
TORSDOF 2
ENDMDL
MODEL 3
REMARK VINA RESULT:      -0.9      2.506      2.993
REMARK  2 active torsions:
REMARK  status: ('A' for Active; 'I' for Inactive)
REMARK    1  A    between atoms: C3_3  and  C4_4 
REMARK    2  A    between atoms: C4_4  and  O5_5 
ROOT
HETATM    1  C1  UNL     1     -31.800   5.254   1.491  1.00 20.00     0.046 C 
HETATM    2  C2  UNL     1     -32.134   7.709   1.838  1.00 20.00     0.046 C 
HETATM    3  C4  UNL     1     -32.836   6.352   1.753  1.00 20.00     0.063 C 
ENDROOT
BRANCH   3   4
HETATM    4  C3  UNL     1     -33.635   6.011   3.021  1.00 20.00     0.151 C 
HETATM    5 CL6  UNL     1     -34.150   7.457   3.931  1.00 20.00    -0.127 Cl
ENDBRANCH   3   4
BRANCH   3   6
HETATM    6  O5  UNL     1     -33.721   6.387   0.630  1.00 20.00    -0.390 OA
HETATM    7  H15 UNL     1     -34.311   5.625   0.724  1.00 20.00     0.210 HD
ENDBRANCH   3   6
TORSDOF 2
ENDMDL
MODEL 4
REMARK VINA RESULT:      -0.9      3.203      3.789
REMARK  2 active torsions:
REMARK  status: ('A' for Active; 'I' for Inactive)
REMARK    1  A    between atoms: C3_3  and  C4_4 
REMARK    2  A    between atoms: C4_4  and  O5_5 
ROOT
HETATM    1  C1  UNL     1     -32.618   8.820   0.962  1.00 20.00     0.046 C 
HETATM    2  C2  UNL     1     -32.656   6.352   1.373  1.00 20.00     0.046 C 
HETATM    3  C4  UNL     1     -32.297   7.714   1.973  1.00 20.00     0.063 C 
ENDROOT
BRANCH   3   4
HETATM    4  C3  UNL     1     -33.030   7.998   3.293  1.00 20.00     0.151 C 
HETATM    5 CL6  UNL     1     -34.313   6.810   3.649  1.00 20.00    -0.127 Cl
ENDBRANCH   3   4
BRANCH   3   6
HETATM    6  O5  UNL     1     -30.886   7.733   2.200  1.00 20.00    -0.390 OA
HETATM    7  H15 UNL     1     -30.665   6.886   2.616  1.00 20.00     0.210 HD
ENDBRANCH   3   6
TORSDOF 2
ENDMDL
MODEL 5
REMARK VINA RESULT:      -0.8      2.447      2.791
REMARK  2 active torsions:
REMARK  status: ('A' for Active; 'I' for Inactive)
REMARK    1  A    between atoms: C3_3  and  C4_4 
REMARK    2  A    between atoms: C4_4  and  O5_5 
ROOT
HETATM    1  C1  UNL     1     -35.675   6.678   3.273  1.00 20.00     0.046 C 
HETATM    2  C2  UNL     1     -33.689   7.610   4.475  1.00 20.00     0.046 C 
HETATM    3  C4  UNL     1     -34.167   6.530   3.502  1.00 20.00     0.063 C 
ENDROOT
BRANCH   3   4
HETATM    4  C3  UNL     1     -33.437   6.577   2.150  1.00 20.00     0.151 C 
HETATM    5 CL6  UNL     1     -32.191   7.851   2.075  1.00 20.00    -0.127 Cl
ENDBRANCH   3   4
BRANCH   3   6
HETATM    6  O5  UNL     1     -33.946   5.259   4.116  1.00 20.00    -0.390 OA
HETATM    7  H15 UNL     1     -33.070   5.304   4.529  1.00 20.00     0.210 HD
ENDBRANCH   3   6
TORSDOF 2
ENDMDL
MODEL 6
REMARK VINA RESULT:      -0.7      2.818      3.485
REMARK  2 active torsions:
REMARK  status: ('A' for Active; 'I' for Inactive)
REMARK    1  A    between atoms: C3_3  and  C4_4 
REMARK    2  A    between atoms: C4_4  and  O5_5 
ROOT
HETATM    1  C1  UNL     1     -32.260   7.661   1.765  1.00 20.00     0.046 C 
HETATM    2  C2  UNL     1     -33.599   6.007   0.450  1.00 20.00     0.046 C 
HETATM    3  C4  UNL     1     -32.788   6.223   1.729  1.00 20.00     0.063 C 
ENDROOT
BRANCH   3   4
HETATM    4  C3  UNL     1     -33.597   5.941   3.005  1.00 20.00     0.151 C 
HETATM    5 CL6  UNL     1     -34.088   7.427   3.861  1.00 20.00    -0.127 Cl
ENDBRANCH   3   4
BRANCH   3   6
HETATM    6  O5  UNL     1     -31.657   5.349   1.683  1.00 20.00    -0.390 OA
HETATM    7  H15 UNL     1     -32.007   4.457   1.539  1.00 20.00     0.210 HD
ENDBRANCH   3   6
TORSDOF 2
ENDMDL
MODEL 7
REMARK VINA RESULT:      -0.7      2.398      2.855
REMARK  2 active torsions:
REMARK  status: ('A' for Active; 'I' for Inactive)
REMARK    1  A    between atoms: C3_3  and  C4_4 
REMARK    2  A    between atoms: C4_4  and  O5_5 
ROOT
HETATM    1  C1  UNL     1     -34.118   5.055   4.154  1.00 20.00     0.046 C 
HETATM    2  C2  UNL     1     -35.658   6.807   3.251  1.00 20.00     0.046 C 
HETATM    3  C4  UNL     1     -34.193   6.435   3.492  1.00 20.00     0.063 C 
ENDROOT
BRANCH   3   4
HETATM    4  C3  UNL     1     -33.357   6.432   2.203  1.00 20.00     0.151 C 
HETATM    5 CL6  UNL     1     -32.275   7.844   2.070  1.00 20.00    -0.127 Cl
ENDBRANCH   3   4
BRANCH   3   6
HETATM    6  O5  UNL     1     -33.646   7.385   4.410  1.00 20.00    -0.390 OA
HETATM    7  H15 UNL     1     -34.272   8.124   4.443  1.00 20.00     0.210 HD
ENDBRANCH   3   6
TORSDOF 2
ENDMDL
MODEL 8
REMARK VINA RESULT:      -0.6      1.149      1.703
REMARK  2 active torsions:
REMARK  status: ('A' for Active; 'I' for Inactive)
REMARK    1  A    between atoms: C3_3  and  C4_4 
REMARK    2  A    between atoms: C4_4  and  O5_5 
ROOT
HETATM    1  C1  UNL     1     -35.907   6.905   3.043  1.00 20.00     0.046 C 
HETATM    2  C2  UNL     1     -33.552   6.169   2.634  1.00 20.00     0.046 C 
HETATM    3  C4  UNL     1     -34.622   6.396   3.704  1.00 20.00     0.063 C 
ENDROOT
BRANCH   3   4
HETATM    4  C3  UNL     1     -34.931   5.131   4.519  1.00 20.00     0.151 C 
HETATM    5 CL6  UNL     1     -33.822   3.780   4.159  1.00 20.00    -0.127 Cl
ENDBRANCH   3   4
BRANCH   3   6
HETATM    6  O5  UNL     1     -34.152   7.422   4.581  1.00 20.00    -0.390 OA
HETATM    7  H15 UNL     1     -34.155   7.042   5.472  1.00 20.00     0.210 HD
ENDBRANCH   3   6
TORSDOF 2
ENDMDL
MODEL 9
REMARK VINA RESULT:      -0.6      3.275      3.896
REMARK  2 active torsions:
REMARK  status: ('A' for Active; 'I' for Inactive)
REMARK    1  A    between atoms: C3_3  and  C4_4 
REMARK    2  A    between atoms: C4_4  and  O5_5 
ROOT
HETATM    1  C1  UNL     1     -33.457   7.757   2.888  1.00 20.00     0.046 C 
HETATM    2  C2  UNL     1     -32.488   9.093   1.008  1.00 20.00     0.046 C 
HETATM    3  C4  UNL     1     -32.199   8.009   2.049  1.00 20.00     0.063 C 
ENDROOT
BRANCH   3   4
HETATM    4  C3  UNL     1     -31.728   6.687   1.423  1.00 20.00     0.151 C 
HETATM    5 CL6  UNL     1     -32.968   5.406   1.484  1.00 20.00    -0.127 Cl
ENDBRANCH   3   4
BRANCH   3   6
HETATM    6  O5  UNL     1     -31.186   8.505   2.927  1.00 20.00    -0.390 OA
HETATM    7  H15 UNL     1     -31.636   9.078   3.567  1.00 20.00     0.210 HD
ENDBRANCH   3   6
TORSDOF 2
ENDMDL
