MODEL 1
REMARK VINA RESULT:      -0.4      0.000      0.000
REMARK  2 active torsions:
REMARK  status: ('A' for Active; 'I' for Inactive)
REMARK    1  A    between atoms: C6_6  and  C7_7 
REMARK    2  A    between atoms: C7_7  and  C8_8 
ROOT
HETATM    1  C1  UNL     1     -33.169   7.531   4.110  1.00 20.00     0.069 C 
HETATM    2  C2  UNL     1     -34.472   4.774   4.456  1.00 20.00     0.002 C 
HETATM    3  C3  UNL     1     -35.648   5.726   4.233  1.00 20.00     0.002 C 
HETATM    4  C4  UNL     1     -33.411   5.160   3.425  1.00 20.00     0.024 C 
HETATM    5  C5  UNL     1     -35.242   6.642   3.078  1.00 20.00     0.024 C 
HETATM    6  C6  UNL     1     -33.709   6.622   3.075  1.00 20.00     0.050 C 
HETATM    7  N9  UNL     1     -32.746   8.244   4.921  1.00 20.00    -0.196 NA
ENDROOT
BRANCH   6   8
HETATM    8  C7  UNL     1     -33.136   7.012   1.713  1.00 20.00     0.039 C 
BRANCH   8   9
HETATM    9  C8  UNL     1     -32.039   8.064   1.803  1.00 20.00     0.116 C 
HETATM   10 CL10 UNL     1     -32.281   9.384   0.634  1.00 20.00    -0.130 Cl
ENDBRANCH   8   9
ENDBRANCH   6   8
TORSDOF 2
ENDMDL
MODEL 2
REMARK VINA RESULT:       0.2      3.052      4.122
REMARK  2 active torsions:
REMARK  status: ('A' for Active; 'I' for Inactive)
REMARK    1  A    between atoms: C6_6  and  C7_7 
REMARK    2  A    between atoms: C7_7  and  C8_8 
ROOT
HETATM    1  C1  UNL     1     -35.772   6.619   3.201  1.00 20.00     0.069 C 
HETATM    2  C2  UNL     1     -32.978   7.457   2.249  1.00 20.00     0.002 C 
HETATM    3  C3  UNL     1     -33.201   8.261   3.531  1.00 20.00     0.002 C 
HETATM    4  C4  UNL     1     -33.452   6.035   2.550  1.00 20.00     0.024 C 
HETATM    5  C5  UNL     1     -33.799   7.287   4.546  1.00 20.00     0.024 C 
HETATM    6  C6  UNL     1     -34.451   6.184   3.703  1.00 20.00     0.050 C 
HETATM    7  N9  UNL     1     -36.809   6.959   2.807  1.00 20.00    -0.196 NA
ENDROOT
BRANCH   6   8
HETATM    8  C7  UNL     1     -34.613   4.884   4.490  1.00 20.00     0.039 C 
BRANCH   8   9
HETATM    9  C8  UNL     1     -33.796   3.733   3.922  1.00 20.00     0.116 C 
HETATM   10 CL10 UNL     1     -32.889   2.868   5.186  1.00 20.00    -0.130 Cl
ENDBRANCH   8   9
ENDBRANCH   6   8
TORSDOF 2
ENDMDL
MODEL 3
REMARK VINA RESULT:       0.3      2.822      4.316
REMARK  2 active torsions:
REMARK  status: ('A' for Active; 'I' for Inactive)
REMARK    1  A    between atoms: C6_6  and  C7_7 
REMARK    2  A    between atoms: C7_7  and  C8_8 
ROOT
HETATM    1  C1  UNL     1     -32.790   6.445   1.590  1.00 20.00     0.069 C 
HETATM    2  C2  UNL     1     -31.098   8.856   0.730  1.00 20.00     0.002 C 
HETATM    3  C3  UNL     1     -32.537   9.270   0.421  1.00 20.00     0.002 C 
HETATM    4  C4  UNL     1     -31.129   8.209   2.115  1.00 20.00     0.024 C 
HETATM    5  C5  UNL     1     -33.370   8.855   1.634  1.00 20.00     0.024 C 
HETATM    6  C6  UNL     1     -32.572   7.726   2.296  1.00 20.00     0.050 C 
HETATM    7  N9  UNL     1     -32.961   5.440   1.037  1.00 20.00    -0.196 NA
ENDROOT
BRANCH   6   8
HETATM    8  C7  UNL     1     -32.938   7.557   3.770  1.00 20.00     0.039 C 
BRANCH   8   9
HETATM    9  C8  UNL     1     -34.434   7.656   4.032  1.00 20.00     0.116 C 
HETATM   10 CL10 UNL     1     -35.208   6.056   4.103  1.00 20.00    -0.130 Cl
ENDBRANCH   8   9
ENDBRANCH   6   8
TORSDOF 2
ENDMDL
MODEL 4
REMARK VINA RESULT:       0.3      1.697      2.649
REMARK  2 active torsions:
REMARK  status: ('A' for Active; 'I' for Inactive)
REMARK    1  A    between atoms: C6_6  and  C7_7 
REMARK    2  A    between atoms: C7_7  and  C8_8 
ROOT
HETATM    1  C1  UNL     1     -33.708   6.609   2.977  1.00 20.00     0.069 C 
HETATM    2  C2  UNL     1     -32.323   4.587   1.131  1.00 20.00     0.002 C 
HETATM    3  C3  UNL     1     -33.477   5.139   0.294  1.00 20.00     0.002 C 
HETATM    4  C4  UNL     1     -31.676   5.793   1.813  1.00 20.00     0.024 C 
HETATM    5  C5  UNL     1     -33.474   6.652   0.508  1.00 20.00     0.024 C 
HETATM    6  C6  UNL     1     -32.775   6.861   1.857  1.00 20.00     0.050 C 
HETATM    7  N9  UNL     1     -34.440   6.412   3.855  1.00 20.00    -0.196 NA
ENDROOT
BRANCH   6   8
HETATM    8  C7  UNL     1     -32.198   8.270   1.989  1.00 20.00     0.039 C 
BRANCH   8   9
HETATM    9  C8  UNL     1     -31.835   8.897   0.651  1.00 20.00     0.116 C 
HETATM   10 CL10 UNL     1     -32.675  10.444   0.387  1.00 20.00    -0.130 Cl
ENDBRANCH   8   9
ENDBRANCH   6   8
TORSDOF 2
ENDMDL
MODEL 5
REMARK VINA RESULT:       0.5      1.340      1.340
REMARK  2 active torsions:
REMARK  status: ('A' for Active; 'I' for Inactive)
REMARK    1  A    between atoms: C6_6  and  C7_7 
REMARK    2  A    between atoms: C7_7  and  C8_8 
ROOT
HETATM    1  C1  UNL     1     -33.418   7.520   4.409  1.00 20.00     0.069 C 
HETATM    2  C2  UNL     1     -34.377   4.607   4.502  1.00 20.00     0.002 C 
HETATM    3  C3  UNL     1     -35.664   5.431   4.463  1.00 20.00     0.002 C 
HETATM    4  C4  UNL     1     -33.442   5.228   3.464  1.00 20.00     0.024 C 
HETATM    5  C5  UNL     1     -35.448   6.510   3.403  1.00 20.00     0.024 C 
HETATM    6  C6  UNL     1     -33.926   6.674   3.307  1.00 20.00     0.050 C 
HETATM    7  N9  UNL     1     -33.020   8.184   5.273  1.00 20.00    -0.196 NA
ENDROOT
BRANCH   6   8
HETATM    8  C7  UNL     1     -33.499   7.278   1.970  1.00 20.00     0.039 C 
BRANCH   8   9
HETATM    9  C8  UNL     1     -32.028   7.054   1.653  1.00 20.00     0.116 C 
HETATM   10 CL10 UNL     1     -31.735   5.453   0.933  1.00 20.00    -0.130 Cl
ENDBRANCH   8   9
ENDBRANCH   6   8
TORSDOF 2
ENDMDL
MODEL 6
REMARK VINA RESULT:       0.5      2.738      3.828
REMARK  2 active torsions:
REMARK  status: ('A' for Active; 'I' for Inactive)
REMARK    1  A    between atoms: C6_6  and  C7_7 
REMARK    2  A    between atoms: C7_7  and  C8_8 
ROOT
HETATM    1  C1  UNL     1     -32.429   7.985   1.581  1.00 20.00     0.069 C 
HETATM    2  C2  UNL     1     -33.273   5.337   0.281  1.00 20.00     0.002 C 
HETATM    3  C3  UNL     1     -31.925   5.028   0.935  1.00 20.00     0.002 C 
HETATM    4  C4  UNL     1     -34.068   6.145   1.306  1.00 20.00     0.024 C 
HETATM    5  C5  UNL     1     -31.970   5.664   2.324  1.00 20.00     0.024 C 
HETATM    6  C6  UNL     1     -33.012   6.784   2.215  1.00 20.00     0.050 C 
HETATM    7  N9  UNL     1     -31.971   8.928   1.083  1.00 20.00    -0.196 NA
ENDROOT
BRANCH   6   8
HETATM    8  C7  UNL     1     -33.587   7.163   3.580  1.00 20.00     0.039 C 
BRANCH   8   9
HETATM    9  C8  UNL     1     -34.985   6.610   3.816  1.00 20.00     0.116 C 
HETATM   10 CL10 UNL     1     -34.949   4.938   4.424  1.00 20.00    -0.130 Cl
ENDBRANCH   8   9
ENDBRANCH   6   8
TORSDOF 2
ENDMDL
MODEL 7
REMARK VINA RESULT:       0.5      1.695      2.351
REMARK  2 active torsions:
REMARK  status: ('A' for Active; 'I' for Inactive)
REMARK    1  A    between atoms: C6_6  and  C7_7 
REMARK    2  A    between atoms: C7_7  and  C8_8 
ROOT
HETATM    1  C1  UNL     1     -33.512   4.815   3.513  1.00 20.00     0.069 C 
HETATM    2  C2  UNL     1     -35.488   7.124   3.936  1.00 20.00     0.002 C 
HETATM    3  C3  UNL     1     -34.248   7.533   4.731  1.00 20.00     0.002 C 
HETATM    4  C4  UNL     1     -34.980   6.591   2.597  1.00 20.00     0.024 C 
HETATM    5  C5  UNL     1     -33.048   7.229   3.834  1.00 20.00     0.024 C 
HETATM    6  C6  UNL     1     -33.538   6.145   2.867  1.00 20.00     0.050 C 
HETATM    7  N9  UNL     1     -33.492   3.771   4.019  1.00 20.00    -0.196 NA
ENDROOT
BRANCH   6   8
HETATM    8  C7  UNL     1     -32.704   6.100   1.588  1.00 20.00     0.039 C 
BRANCH   8   9
HETATM    9  C8  UNL     1     -31.644   7.191   1.525  1.00 20.00     0.116 C 
HETATM   10 CL10 UNL     1     -32.299   8.725   0.905  1.00 20.00    -0.130 Cl
ENDBRANCH   8   9
ENDBRANCH   6   8
TORSDOF 2
ENDMDL
MODEL 8
REMARK VINA RESULT:       0.6      2.045      2.645
REMARK  2 active torsions:
REMARK  status: ('A' for Active; 'I' for Inactive)
REMARK    1  A    between atoms: C6_6  and  C7_7 
REMARK    2  A    between atoms: C7_7  and  C8_8 
ROOT
HETATM    1  C1  UNL     1     -33.783   5.786   0.932  1.00 20.00     0.069 C 
HETATM    2  C2  UNL     1     -34.989   6.185   3.725  1.00 20.00     0.002 C 
HETATM    3  C3  UNL     1     -34.271   4.838   3.809  1.00 20.00     0.002 C 
HETATM    4  C4  UNL     1     -34.034   7.132   2.999  1.00 20.00     0.024 C 
HETATM    5  C5  UNL     1     -32.916   5.034   3.130  1.00 20.00     0.024 C 
HETATM    6  C6  UNL     1     -33.115   6.220   2.178  1.00 20.00     0.050 C 
HETATM    7  N9  UNL     1     -34.307   5.447  -0.046  1.00 20.00    -0.196 NA
ENDROOT
BRANCH   6   8
HETATM    8  C7  UNL     1     -31.793   6.902   1.831  1.00 20.00     0.039 C 
BRANCH   8   9
HETATM    9  C8  UNL     1     -31.834   8.413   2.003  1.00 20.00     0.116 C 
HETATM   10 CL10 UNL     1     -32.268   9.247   0.493  1.00 20.00    -0.130 Cl
ENDBRANCH   8   9
ENDBRANCH   6   8
TORSDOF 2
ENDMDL
MODEL 9
REMARK VINA RESULT:       0.7      2.245      3.000
REMARK  2 active torsions:
REMARK  status: ('A' for Active; 'I' for Inactive)
REMARK    1  A    between atoms: C6_6  and  C7_7 
REMARK    2  A    between atoms: C7_7  and  C8_8 
ROOT
HETATM    1  C1  UNL     1     -32.185   6.415   1.810  1.00 20.00     0.069 C 
HETATM    2  C2  UNL     1     -34.221   7.610   3.769  1.00 20.00     0.002 C 
HETATM    3  C3  UNL     1     -32.884   7.705   4.504  1.00 20.00     0.002 C 
HETATM    4  C4  UNL     1     -33.953   8.071   2.336  1.00 20.00     0.024 C 
HETATM    5  C5  UNL     1     -31.870   8.219   3.482  1.00 20.00     0.024 C 
HETATM    6  C6  UNL     1     -32.454   7.836   2.116  1.00 20.00     0.050 C 
HETATM    7  N9  UNL     1     -31.973   5.300   1.569  1.00 20.00    -0.196 NA
ENDROOT
BRANCH   6   8
HETATM    8  C7  UNL     1     -31.897   8.709   0.993  1.00 20.00     0.039 C 
BRANCH   8   9
HETATM    9  C8  UNL     1     -32.630  10.034   0.843  1.00 20.00     0.116 C 
HETATM   10 CL10 UNL     1     -33.030  10.390  -0.854  1.00 20.00    -0.130 Cl
ENDBRANCH   8   9
ENDBRANCH   6   8
TORSDOF 2
ENDMDL
