MODEL 1
REMARK VINA RESULT:      -3.7      0.000      0.000
REMARK  3 active torsions:
REMARK  status: ('A' for Active; 'I' for Inactive)
REMARK    1  A    between atoms: C5_5  and  C7_7 
REMARK    2  A    between atoms: C6_6  and  C8_8 
REMARK    3  A    between atoms: C7_7  and  C8_8 
ROOT
HETATM    1  C1  UNL     1     -33.924   3.869   4.169  1.00 20.00     0.012 C 
HETATM    2  C3  UNL     1     -34.379   4.973   4.050  1.00 20.00    -0.117 C 
HETATM    3  C5  UNL     1     -34.942   6.323   3.903  1.00 20.00     0.093 C 
ENDROOT
BRANCH   3   4
HETATM    4  C7  UNL     1     -33.878   7.357   3.522  1.00 20.00     0.013 C 
BRANCH   4   5
HETATM    5  C8  UNL     1     -33.146   7.004   2.220  1.00 20.00     0.013 C 
BRANCH   5   6
HETATM    6  C6  UNL     1     -31.945   7.912   1.952  1.00 20.00     0.093 C 
HETATM    7  C4  UNL     1     -32.255   8.980   0.990  1.00 20.00    -0.117 C 
HETATM    8  C2  UNL     1     -32.506   9.852   0.203  1.00 20.00     0.012 C 
ENDBRANCH   5   6
ENDBRANCH   4   5
ENDBRANCH   3   4
TORSDOF 3
ENDMDL
MODEL 2
REMARK VINA RESULT:      -3.7      0.073      5.035
REMARK  3 active torsions:
REMARK  status: ('A' for Active; 'I' for Inactive)
REMARK    1  A    between atoms: C5_5  and  C7_7 
REMARK    2  A    between atoms: C6_6  and  C8_8 
REMARK    3  A    between atoms: C7_7  and  C8_8 
ROOT
HETATM    1  C1  UNL     1     -32.576   9.877   0.173  1.00 20.00     0.012 C 
HETATM    2  C3  UNL     1     -32.274   9.016   0.952  1.00 20.00    -0.117 C 
HETATM    3  C5  UNL     1     -31.898   7.961   1.904  1.00 20.00     0.093 C 
ENDROOT
BRANCH   3   4
HETATM    4  C7  UNL     1     -33.063   7.018   2.215  1.00 20.00     0.013 C 
BRANCH   4   5
HETATM    5  C8  UNL     1     -33.774   7.366   3.530  1.00 20.00     0.013 C 
BRANCH   5   6
HETATM    6  C6  UNL     1     -34.878   6.369   3.888  1.00 20.00     0.093 C 
HETATM    7  C4  UNL     1     -34.363   5.001   4.049  1.00 20.00    -0.117 C 
HETATM    8  C2  UNL     1     -33.946   3.883   4.179  1.00 20.00     0.012 C 
ENDBRANCH   5   6
ENDBRANCH   4   5
ENDBRANCH   3   4
TORSDOF 3
ENDMDL
MODEL 3
REMARK VINA RESULT:      -3.4      1.576      2.139
REMARK  3 active torsions:
REMARK  status: ('A' for Active; 'I' for Inactive)
REMARK    1  A    between atoms: C5_5  and  C7_7 
REMARK    2  A    between atoms: C6_6  and  C8_8 
REMARK    3  A    between atoms: C7_7  and  C8_8 
ROOT
HETATM    1  C1  UNL     1     -33.525   3.451   4.253  1.00 20.00     0.012 C 
HETATM    2  C3  UNL     1     -34.341   4.322   4.371  1.00 20.00    -0.117 C 
HETATM    3  C5  UNL     1     -35.345   5.386   4.519  1.00 20.00     0.093 C 
ENDROOT
BRANCH   3   4
HETATM    4  C7  UNL     1     -35.092   6.559   3.569  1.00 20.00     0.013 C 
BRANCH   4   5
HETATM    5  C8  UNL     1     -33.828   7.352   3.929  1.00 20.00     0.013 C 
BRANCH   5   6
HETATM    6  C6  UNL     1     -32.963   7.674   2.708  1.00 20.00     0.093 C 
HETATM    7  C4  UNL     1     -32.694   6.485   1.886  1.00 20.00    -0.117 C 
HETATM    8  C2  UNL     1     -32.472   5.516   1.213  1.00 20.00     0.012 C 
ENDBRANCH   5   6
ENDBRANCH   4   5
ENDBRANCH   3   4
TORSDOF 3
ENDMDL
MODEL 4
REMARK VINA RESULT:      -3.4      1.571      4.436
REMARK  3 active torsions:
REMARK  status: ('A' for Active; 'I' for Inactive)
REMARK    1  A    between atoms: C5_5  and  C7_7 
REMARK    2  A    between atoms: C6_6  and  C8_8 
REMARK    3  A    between atoms: C7_7  and  C8_8 
ROOT
HETATM    1  C1  UNL     1     -32.438   5.447   1.219  1.00 20.00     0.012 C 
HETATM    2  C3  UNL     1     -32.695   6.429   1.860  1.00 20.00    -0.117 C 
HETATM    3  C5  UNL     1     -33.006   7.634   2.643  1.00 20.00     0.093 C 
ENDROOT
BRANCH   3   4
HETATM    4  C7  UNL     1     -33.827   7.317   3.895  1.00 20.00     0.013 C 
BRANCH   4   5
HETATM    5  C8  UNL     1     -35.105   6.527   3.583  1.00 20.00     0.013 C 
BRANCH   5   6
HETATM    6  C6  UNL     1     -35.332   5.363   4.549  1.00 20.00     0.093 C 
HETATM    7  C4  UNL     1     -34.333   4.297   4.383  1.00 20.00    -0.117 C 
HETATM    8  C2  UNL     1     -33.519   3.424   4.249  1.00 20.00     0.012 C 
ENDBRANCH   5   6
ENDBRANCH   4   5
ENDBRANCH   3   4
TORSDOF 3
ENDMDL
MODEL 5
REMARK VINA RESULT:      -3.2      1.119      1.536
REMARK  3 active torsions:
REMARK  status: ('A' for Active; 'I' for Inactive)
REMARK    1  A    between atoms: C5_5  and  C7_7 
REMARK    2  A    between atoms: C6_6  and  C8_8 
REMARK    3  A    between atoms: C7_7  and  C8_8 
ROOT
HETATM    1  C1  UNL     1     -35.509   5.707   4.412  1.00 20.00     0.012 C 
HETATM    2  C3  UNL     1     -34.675   6.330   3.814  1.00 20.00    -0.117 C 
HETATM    3  C5  UNL     1     -33.655   7.097   3.084  1.00 20.00     0.093 C 
ENDROOT
BRANCH   3   4
HETATM    4  C7  UNL     1     -32.998   6.277   1.971  1.00 20.00     0.013 C 
BRANCH   4   5
HETATM    5  C8  UNL     1     -31.855   7.029   1.275  1.00 20.00     0.013 C 
BRANCH   5   6
HETATM    6  C6  UNL     1     -31.795   8.507   1.666  1.00 20.00     0.093 C 
HETATM    7  C4  UNL     1     -32.269   9.389   0.589  1.00 20.00    -0.117 C 
HETATM    8  C2  UNL     1     -32.654  10.111  -0.290  1.00 20.00     0.012 C 
ENDBRANCH   5   6
ENDBRANCH   4   5
ENDBRANCH   3   4
TORSDOF 3
ENDMDL
MODEL 6
REMARK VINA RESULT:      -3.2      1.085      4.962
REMARK  3 active torsions:
REMARK  status: ('A' for Active; 'I' for Inactive)
REMARK    1  A    between atoms: C5_5  and  C7_7 
REMARK    2  A    between atoms: C6_6  and  C8_8 
REMARK    3  A    between atoms: C7_7  and  C8_8 
ROOT
HETATM    1  C1  UNL     1     -32.625  10.095  -0.361  1.00 20.00     0.012 C 
HETATM    2  C3  UNL     1     -32.258   9.424   0.565  1.00 20.00    -0.117 C 
HETATM    3  C5  UNL     1     -31.806   8.608   1.700  1.00 20.00     0.093 C 
ENDROOT
BRANCH   3   4
HETATM    4  C7  UNL     1     -31.803   7.112   1.375  1.00 20.00     0.013 C 
BRANCH   4   5
HETATM    5  C8  UNL     1     -33.030   6.379   1.934  1.00 20.00     0.013 C 
BRANCH   5   6
HETATM    6  C6  UNL     1     -33.688   7.128   3.095  1.00 20.00     0.093 C 
HETATM    7  C4  UNL     1     -34.669   6.299   3.810  1.00 20.00    -0.117 C 
HETATM    8  C2  UNL     1     -35.472   5.624   4.395  1.00 20.00     0.012 C 
ENDBRANCH   5   6
ENDBRANCH   4   5
ENDBRANCH   3   4
TORSDOF 3
ENDMDL
MODEL 7
REMARK VINA RESULT:      -3.2      1.239      2.314
REMARK  3 active torsions:
REMARK  status: ('A' for Active; 'I' for Inactive)
REMARK    1  A    between atoms: C5_5  and  C7_7 
REMARK    2  A    between atoms: C6_6  and  C8_8 
REMARK    3  A    between atoms: C7_7  and  C8_8 
ROOT
HETATM    1  C1  UNL     1     -32.896   2.759   5.180  1.00 20.00     0.012 C 
HETATM    2  C3  UNL     1     -33.506   3.504   4.463  1.00 20.00    -0.117 C 
HETATM    3  C5  UNL     1     -34.249   4.415   3.581  1.00 20.00     0.093 C 
ENDROOT
BRANCH   3   4
HETATM    4  C7  UNL     1     -35.062   5.447   4.365  1.00 20.00     0.013 C 
BRANCH   4   5
HETATM    5  C8  UNL     1     -35.066   6.830   3.699  1.00 20.00     0.013 C 
BRANCH   5   6
HETATM    6  C6  UNL     1     -33.800   7.636   4.000  1.00 20.00     0.093 C 
HETATM    7  C4  UNL     1     -32.895   7.704   2.843  1.00 20.00    -0.117 C 
HETATM    8  C2  UNL     1     -32.152   7.761   1.901  1.00 20.00     0.012 C 
ENDBRANCH   5   6
ENDBRANCH   4   5
ENDBRANCH   3   4
TORSDOF 3
ENDMDL
MODEL 8
REMARK VINA RESULT:      -3.1      0.921      1.201
REMARK  3 active torsions:
REMARK  status: ('A' for Active; 'I' for Inactive)
REMARK    1  A    between atoms: C5_5  and  C7_7 
REMARK    2  A    between atoms: C6_6  and  C8_8 
REMARK    3  A    between atoms: C7_7  and  C8_8 
ROOT
HETATM    1  C1  UNL     1     -35.248   5.316   4.130  1.00 20.00     0.012 C 
HETATM    2  C3  UNL     1     -34.784   6.423   4.104  1.00 20.00    -0.117 C 
HETATM    3  C5  UNL     1     -34.221   7.781   4.072  1.00 20.00     0.093 C 
ENDROOT
BRANCH   3   4
HETATM    4  C7  UNL     1     -32.807   7.809   3.488  1.00 20.00     0.013 C 
BRANCH   4   5
HETATM    5  C8  UNL     1     -32.754   7.313   2.036  1.00 20.00     0.013 C 
BRANCH   5   6
HETATM    6  C6  UNL     1     -31.699   8.040   1.200  1.00 20.00     0.093 C 
HETATM    7  C4  UNL     1     -32.212   9.288   0.616  1.00 20.00    -0.117 C 
HETATM    8  C2  UNL     1     -32.629  10.306   0.136  1.00 20.00     0.012 C 
ENDBRANCH   5   6
ENDBRANCH   4   5
ENDBRANCH   3   4
TORSDOF 3
ENDMDL
MODEL 9
REMARK VINA RESULT:      -2.7      1.214      4.461
REMARK  3 active torsions:
REMARK  status: ('A' for Active; 'I' for Inactive)
REMARK    1  A    between atoms: C5_5  and  C7_7 
REMARK    2  A    between atoms: C6_6  and  C8_8 
REMARK    3  A    between atoms: C7_7  and  C8_8 
ROOT
HETATM    1  C1  UNL     1     -32.446   9.799   0.323  1.00 20.00     0.012 C 
HETATM    2  C3  UNL     1     -32.162   8.826   0.966  1.00 20.00    -0.117 C 
HETATM    3  C5  UNL     1     -31.809   7.636   1.753  1.00 20.00     0.093 C 
ENDROOT
BRANCH   3   4
HETATM    4  C7  UNL     1     -32.668   6.422   1.388  1.00 20.00     0.013 C 
BRANCH   4   5
HETATM    5  C8  UNL     1     -33.242   5.709   2.619  1.00 20.00     0.013 C 
BRANCH   5   6
HETATM    6  C6  UNL     1     -34.436   6.447   3.228  1.00 20.00     0.093 C 
HETATM    7  C4  UNL     1     -34.024   7.457   4.214  1.00 20.00    -0.117 C 
HETATM    8  C2  UNL     1     -33.691   8.282   5.021  1.00 20.00     0.012 C 
ENDBRANCH   5   6
ENDBRANCH   4   5
ENDBRANCH   3   4
TORSDOF 3
ENDMDL
