MODEL 1
REMARK VINA RESULT:      -1.6      0.000      0.000
REMARK  1 active torsions:
REMARK  status: ('A' for Active; 'I' for Inactive)
REMARK    1  A    between atoms: C1_1  and  C3_3 
ROOT
HETATM    1  C2  UNL     1     -34.187   7.449   4.156  1.00 20.00     0.208 A 
HETATM    2  C3  UNL     1     -35.058   6.286   3.757  1.00 20.00     0.206 A 
HETATM    3  O5  UNL     1     -33.825   6.574   3.081  1.00 20.00    -0.374 OA
ENDROOT
BRANCH   2   4
HETATM    4  C1  UNL     1     -35.024   5.042   4.524  1.00 20.00     0.265 C 
HETATM    5  O4  UNL     1     -34.358   4.065   4.197  1.00 20.00    -0.304 OA
ENDBRANCH   2   4
TORSDOF 1
ENDMDL
MODEL 2
REMARK VINA RESULT:      -1.4      4.289      5.143
REMARK  1 active torsions:
REMARK  status: ('A' for Active; 'I' for Inactive)
REMARK    1  A    between atoms: C1_1  and  C3_3 
ROOT
HETATM    1  C2  UNL     1     -32.776   9.844  -0.484  1.00 20.00     0.208 A 
HETATM    2  C3  UNL     1     -31.856   9.342   0.598  1.00 20.00     0.206 A 
HETATM    3  O5  UNL     1     -32.562  10.586   0.722  1.00 20.00    -0.374 OA
ENDROOT
BRANCH   2   4
HETATM    4  C1  UNL     1     -32.312   8.320   1.538  1.00 20.00     0.265 C 
HETATM    5  O4  UNL     1     -31.764   7.230   1.671  1.00 20.00    -0.304 OA
ENDBRANCH   2   4
TORSDOF 1
ENDMDL
MODEL 3
REMARK VINA RESULT:      -1.3      3.610      5.023
REMARK  1 active torsions:
REMARK  status: ('A' for Active; 'I' for Inactive)
REMARK    1  A    between atoms: C1_1  and  C3_3 
ROOT
HETATM    1  C2  UNL     1     -32.799   7.586   2.538  1.00 20.00     0.208 A 
HETATM    2  C3  UNL     1     -31.871   8.383   1.657  1.00 20.00     0.206 A 
HETATM    3  O5  UNL     1     -32.010   6.960   1.519  1.00 20.00    -0.374 OA
ENDROOT
BRANCH   2   4
HETATM    4  C1  UNL     1     -32.399   9.131   0.517  1.00 20.00     0.265 C 
HETATM    5  O4  UNL     1     -32.448  10.356   0.477  1.00 20.00    -0.304 OA
ENDBRANCH   2   4
TORSDOF 1
ENDMDL
MODEL 4
REMARK VINA RESULT:      -1.3      2.029      2.669
REMARK  1 active torsions:
REMARK  status: ('A' for Active; 'I' for Inactive)
REMARK    1  A    between atoms: C1_1  and  C3_3 
ROOT
HETATM    1  C2  UNL     1     -31.897   7.730   1.904  1.00 20.00     0.208 A 
HETATM    2  C3  UNL     1     -33.344   7.523   2.271  1.00 20.00     0.206 A 
HETATM    3  O5  UNL     1     -32.558   6.481   1.672  1.00 20.00    -0.374 OA
ENDROOT
BRANCH   2   4
HETATM    4  C1  UNL     1     -33.721   7.243   3.655  1.00 20.00     0.265 C 
HETATM    5  O4  UNL     1     -34.811   6.783   3.979  1.00 20.00    -0.304 OA
ENDBRANCH   2   4
TORSDOF 1
ENDMDL
MODEL 5
REMARK VINA RESULT:      -1.3      1.743      2.353
REMARK  1 active torsions:
REMARK  status: ('A' for Active; 'I' for Inactive)
REMARK    1  A    between atoms: C1_1  and  C3_3 
ROOT
HETATM    1  C2  UNL     1     -34.174   7.463   4.111  1.00 20.00     0.208 A 
HETATM    2  C3  UNL     1     -33.741   6.209   3.394  1.00 20.00     0.206 A 
HETATM    3  O5  UNL     1     -35.125   6.499   3.644  1.00 20.00    -0.374 OA
ENDROOT
BRANCH   2   4
HETATM    4  C1  UNL     1     -33.385   6.256   1.978  1.00 20.00     0.265 C 
HETATM    5  O4  UNL     1     -32.491   5.577   1.483  1.00 20.00    -0.304 OA
ENDBRANCH   2   4
TORSDOF 1
ENDMDL
MODEL 6
REMARK VINA RESULT:      -1.2      1.846      2.138
REMARK  1 active torsions:
REMARK  status: ('A' for Active; 'I' for Inactive)
REMARK    1  A    between atoms: C1_1  and  C3_3 
ROOT
HETATM    1  C2  UNL     1     -33.052   6.320   1.855  1.00 20.00     0.208 A 
HETATM    2  C3  UNL     1     -33.360   6.579   3.307  1.00 20.00     0.206 A 
HETATM    3  O5  UNL     1     -32.785   7.588   2.463  1.00 20.00    -0.374 OA
ENDROOT
BRANCH   2   4
HETATM    4  C1  UNL     1     -34.727   6.884   3.727  1.00 20.00     0.265 C 
HETATM    5  O4  UNL     1     -35.506   6.040   4.158  1.00 20.00    -0.304 OA
ENDBRANCH   2   4
TORSDOF 1
ENDMDL
MODEL 7
REMARK VINA RESULT:      -1.2      1.660      2.817
REMARK  1 active torsions:
REMARK  status: ('A' for Active; 'I' for Inactive)
REMARK    1  A    between atoms: C1_1  and  C3_3 
ROOT
HETATM    1  C2  UNL     1     -35.164   6.493   3.773  1.00 20.00     0.208 A 
HETATM    2  C3  UNL     1     -33.693   6.669   3.498  1.00 20.00     0.206 A 
HETATM    3  O5  UNL     1     -34.248   5.396   3.859  1.00 20.00    -0.374 OA
ENDROOT
BRANCH   2   4
HETATM    4  C1  UNL     1     -33.201   6.720   2.122  1.00 20.00     0.265 C 
HETATM    5  O4  UNL     1     -32.247   7.406   1.769  1.00 20.00    -0.304 OA
ENDBRANCH   2   4
TORSDOF 1
ENDMDL
MODEL 8
REMARK VINA RESULT:      -1.1      1.057      2.692
REMARK  1 active torsions:
REMARK  status: ('A' for Active; 'I' for Inactive)
REMARK    1  A    between atoms: C1_1  and  C3_3 
ROOT
HETATM    1  C2  UNL     1     -34.139   4.428   4.134  1.00 20.00     0.208 A 
HETATM    2  C3  UNL     1     -34.778   5.695   3.627  1.00 20.00     0.206 A 
HETATM    3  O5  UNL     1     -35.422   4.860   4.601  1.00 20.00    -0.374 OA
ENDROOT
BRANCH   2   4
HETATM    4  C1  UNL     1     -34.364   6.993   4.157  1.00 20.00     0.265 C 
HETATM    5  O4  UNL     1     -33.575   7.737   3.584  1.00 20.00    -0.304 OA
ENDBRANCH   2   4
TORSDOF 1
ENDMDL
MODEL 9
REMARK VINA RESULT:      -1.1      3.252      3.589
REMARK  1 active torsions:
REMARK  status: ('A' for Active; 'I' for Inactive)
REMARK    1  A    between atoms: C1_1  and  C3_3 
ROOT
HETATM    1  C2  UNL     1     -32.222   8.771   1.224  1.00 20.00     0.208 A 
HETATM    2  C3  UNL     1     -31.818   7.375   1.626  1.00 20.00     0.206 A 
HETATM    3  O5  UNL     1     -32.061   8.403   2.599  1.00 20.00    -0.374 OA
ENDROOT
BRANCH   2   4
HETATM    4  C1  UNL     1     -32.809   6.301   1.656  1.00 20.00     0.265 C 
HETATM    5  O4  UNL     1     -32.560   5.142   1.341  1.00 20.00    -0.304 OA
ENDBRANCH   2   4
TORSDOF 1
ENDMDL
