MODEL 1
REMARK VINA RESULT:      -0.7      0.000      0.000
REMARK  3 active torsions:
REMARK  status: ('A' for Active; 'I' for Inactive)
REMARK    1  A    between atoms: C1_1  and  C7_7 
REMARK    2  A    between atoms: C1_1  and  C9_9 
REMARK    3  A    between atoms: C7_7  and  C8_8 
ROOT
HETATM    1  C1  UNL     1     -33.139   6.840   2.345  1.00 20.00     0.134 C 
HETATM    2  O10 UNL     1     -32.964   5.934   1.528  1.00 20.00    -0.297 OA
ENDROOT
BRANCH   1   3
HETATM    3  C7  UNL     1     -32.366   8.153   2.234  1.00 20.00     0.083 C 
BRANCH   3   4
HETATM    4  C8  UNL     1     -32.462   8.804   0.845  1.00 20.00    -0.016 C 
HETATM    5  C2  UNL     1     -31.149   8.612   0.085  1.00 20.00     0.010 C 
HETATM    6  C3  UNL     1     -32.786  10.297   0.952  1.00 20.00     0.010 C 
ENDBRANCH   3   4
ENDBRANCH   1   3
BRANCH   1   7
HETATM    7  C9  UNL     1     -34.133   6.681   3.515  1.00 20.00     0.009 C 
HETATM    8  C4  UNL     1     -35.558   6.992   3.024  1.00 20.00     0.022 C 
HETATM    9  C5  UNL     1     -34.109   5.246   4.056  1.00 20.00     0.022 C 
HETATM   10  C6  UNL     1     -33.761   7.676   4.622  1.00 20.00     0.022 C 
ENDBRANCH   1   7
TORSDOF 3
ENDMDL
MODEL 2
REMARK VINA RESULT:      -0.7      0.024      1.371
REMARK  3 active torsions:
REMARK  status: ('A' for Active; 'I' for Inactive)
REMARK    1  A    between atoms: C1_1  and  C7_7 
REMARK    2  A    between atoms: C1_1  and  C9_9 
REMARK    3  A    between atoms: C7_7  and  C8_8 
ROOT
HETATM    1  C1  UNL     1     -33.142   6.835   2.329  1.00 20.00     0.134 C 
HETATM    2  O10 UNL     1     -32.973   5.926   1.513  1.00 20.00    -0.297 OA
ENDROOT
BRANCH   1   3
HETATM    3  C7  UNL     1     -32.353   8.138   2.220  1.00 20.00     0.083 C 
BRANCH   3   4
HETATM    4  C8  UNL     1     -32.453   8.800   0.836  1.00 20.00    -0.016 C 
HETATM    5  C2  UNL     1     -31.134   8.635   0.080  1.00 20.00     0.010 C 
HETATM    6  C3  UNL     1     -32.800  10.286   0.954  1.00 20.00     0.010 C 
ENDBRANCH   3   4
ENDBRANCH   1   3
BRANCH   1   7
HETATM    7  C9  UNL     1     -34.142   6.689   3.495  1.00 20.00     0.009 C 
HETATM    8  C4  UNL     1     -33.768   7.672   4.619  1.00 20.00     0.022 C 
HETATM    9  C5  UNL     1     -35.569   7.008   3.027  1.00 20.00     0.022 C 
HETATM   10  C6  UNL     1     -34.066   5.258   4.041  1.00 20.00     0.022 C 
ENDBRANCH   1   7
TORSDOF 3
ENDMDL
MODEL 3
REMARK VINA RESULT:      -0.6      0.022      1.371
REMARK  3 active torsions:
REMARK  status: ('A' for Active; 'I' for Inactive)
REMARK    1  A    between atoms: C1_1  and  C7_7 
REMARK    2  A    between atoms: C1_1  and  C9_9 
REMARK    3  A    between atoms: C7_7  and  C8_8 
ROOT
HETATM    1  C1  UNL     1     -33.136   6.849   2.342  1.00 20.00     0.134 C 
HETATM    2  O10 UNL     1     -32.970   5.936   1.531  1.00 20.00    -0.297 OA
ENDROOT
BRANCH   1   3
HETATM    3  C7  UNL     1     -32.350   8.153   2.222  1.00 20.00     0.083 C 
BRANCH   3   4
HETATM    4  C8  UNL     1     -32.457   8.807   0.835  1.00 20.00    -0.016 C 
HETATM    5  C2  UNL     1     -31.150   8.617   0.064  1.00 20.00     0.010 C 
HETATM    6  C3  UNL     1     -32.780  10.299   0.948  1.00 20.00     0.010 C 
ENDBRANCH   3   4
ENDBRANCH   1   3
BRANCH   1   7
HETATM    7  C9  UNL     1     -34.132   6.709   3.513  1.00 20.00     0.009 C 
HETATM    8  C4  UNL     1     -34.087   5.269   4.055  1.00 20.00     0.022 C 
HETATM    9  C5  UNL     1     -33.765   7.668   4.653  1.00 20.00     0.022 C 
HETATM   10  C6  UNL     1     -35.547   7.003   3.001  1.00 20.00     0.022 C 
ENDBRANCH   1   7
TORSDOF 3
ENDMDL
MODEL 4
REMARK VINA RESULT:      -0.0      1.602      4.443
REMARK  3 active torsions:
REMARK  status: ('A' for Active; 'I' for Inactive)
REMARK    1  A    between atoms: C1_1  and  C7_7 
REMARK    2  A    between atoms: C1_1  and  C9_9 
REMARK    3  A    between atoms: C7_7  and  C8_8 
ROOT
HETATM    1  C1  UNL     1     -33.332   7.334   2.949  1.00 20.00     0.134 C 
HETATM    2  O10 UNL     1     -33.847   8.079   3.785  1.00 20.00    -0.297 OA
ENDROOT
BRANCH   1   3
HETATM    3  C7  UNL     1     -33.802   5.889   2.796  1.00 20.00     0.083 C 
BRANCH   3   4
HETATM    4  C8  UNL     1     -34.114   5.201   4.134  1.00 20.00    -0.016 C 
HETATM    5  C2  UNL     1     -33.733   3.722   4.064  1.00 20.00     0.010 C 
HETATM    6  C3  UNL     1     -35.595   5.339   4.498  1.00 20.00     0.010 C 
ENDBRANCH   3   4
ENDBRANCH   1   3
BRANCH   1   7
HETATM    7  C9  UNL     1     -32.190   7.826   2.035  1.00 20.00     0.009 C 
HETATM    8  C4  UNL     1     -32.728   8.901   1.073  1.00 20.00     0.022 C 
HETATM    9  C5  UNL     1     -31.057   8.442   2.866  1.00 20.00     0.022 C 
HETATM   10  C6  UNL     1     -31.667   6.642   1.212  1.00 20.00     0.022 C 
ENDBRANCH   1   7
TORSDOF 3
ENDMDL
MODEL 5
REMARK VINA RESULT:      -0.0      1.602      4.442
REMARK  3 active torsions:
REMARK  status: ('A' for Active; 'I' for Inactive)
REMARK    1  A    between atoms: C1_1  and  C7_7 
REMARK    2  A    between atoms: C1_1  and  C9_9 
REMARK    3  A    between atoms: C7_7  and  C8_8 
ROOT
HETATM    1  C1  UNL     1     -33.343   7.343   2.936  1.00 20.00     0.134 C 
HETATM    2  O10 UNL     1     -33.881   8.081   3.764  1.00 20.00    -0.297 OA
ENDROOT
BRANCH   1   3
HETATM    3  C7  UNL     1     -33.780   5.887   2.789  1.00 20.00     0.083 C 
BRANCH   3   4
HETATM    4  C8  UNL     1     -34.114   5.209   4.127  1.00 20.00    -0.016 C 
HETATM    5  C2  UNL     1     -33.738   3.728   4.072  1.00 20.00     0.010 C 
HETATM    6  C3  UNL     1     -35.600   5.354   4.469  1.00 20.00     0.010 C 
ENDBRANCH   3   4
ENDBRANCH   1   3
BRANCH   1   7
HETATM    7  C9  UNL     1     -32.205   7.852   2.027  1.00 20.00     0.009 C 
HETATM    8  C4  UNL     1     -31.639   6.679   1.206  1.00 20.00     0.022 C 
HETATM    9  C5  UNL     1     -32.725   8.918   1.053  1.00 20.00     0.022 C 
HETATM   10  C6  UNL     1     -31.088   8.429   2.904  1.00 20.00     0.022 C 
ENDBRANCH   1   7
TORSDOF 3
ENDMDL
MODEL 6
REMARK VINA RESULT:       0.2      1.711      2.207
REMARK  3 active torsions:
REMARK  status: ('A' for Active; 'I' for Inactive)
REMARK    1  A    between atoms: C1_1  and  C7_7 
REMARK    2  A    between atoms: C1_1  and  C9_9 
REMARK    3  A    between atoms: C7_7  and  C8_8 
ROOT
HETATM    1  C1  UNL     1     -32.747   7.453   2.292  1.00 20.00     0.134 C 
HETATM    2  O10 UNL     1     -33.292   7.868   3.317  1.00 20.00    -0.297 OA
ENDROOT
BRANCH   1   3
HETATM    3  C7  UNL     1     -31.881   8.378   1.439  1.00 20.00     0.083 C 
BRANCH   3   4
HETATM    4  C8  UNL     1     -32.696   9.340   0.558  1.00 20.00    -0.016 C 
HETATM    5  C2  UNL     1     -32.158   9.320  -0.874  1.00 20.00     0.010 C 
HETATM    6  C3  UNL     1     -32.654  10.768   1.107  1.00 20.00     0.010 C 
ENDBRANCH   3   4
ENDBRANCH   1   3
BRANCH   1   7
HETATM    7  C9  UNL     1     -32.926   5.994   1.823  1.00 20.00     0.009 C 
HETATM    8  C4  UNL     1     -33.828   5.961   0.576  1.00 20.00     0.022 C 
HETATM    9  C5  UNL     1     -31.571   5.372   1.458  1.00 20.00     0.022 C 
HETATM   10  C6  UNL     1     -33.598   5.190   2.943  1.00 20.00     0.022 C 
ENDBRANCH   1   7
TORSDOF 3
ENDMDL
MODEL 7
REMARK VINA RESULT:       0.2      1.717      2.378
REMARK  3 active torsions:
REMARK  status: ('A' for Active; 'I' for Inactive)
REMARK    1  A    between atoms: C1_1  and  C7_7 
REMARK    2  A    between atoms: C1_1  and  C9_9 
REMARK    3  A    between atoms: C7_7  and  C8_8 
ROOT
HETATM    1  C1  UNL     1     -32.734   7.477   2.286  1.00 20.00     0.134 C 
HETATM    2  O10 UNL     1     -33.253   7.882   3.328  1.00 20.00    -0.297 OA
ENDROOT
BRANCH   1   3
HETATM    3  C7  UNL     1     -31.880   8.406   1.426  1.00 20.00     0.083 C 
BRANCH   3   4
HETATM    4  C8  UNL     1     -32.705   9.382   0.573  1.00 20.00    -0.016 C 
HETATM    5  C2  UNL     1     -32.235   9.332  -0.882  1.00 20.00     0.010 C 
HETATM    6  C3  UNL     1     -32.596  10.814   1.103  1.00 20.00     0.010 C 
ENDBRANCH   3   4
ENDBRANCH   1   3
BRANCH   1   7
HETATM    7  C9  UNL     1     -32.935   6.025   1.803  1.00 20.00     0.009 C 
HETATM    8  C4  UNL     1     -33.597   5.199   2.921  1.00 20.00     0.022 C 
HETATM    9  C5  UNL     1     -33.846   5.985   0.569  1.00 20.00     0.022 C 
HETATM   10  C6  UNL     1     -31.567   5.415   1.478  1.00 20.00     0.022 C 
ENDBRANCH   1   7
TORSDOF 3
ENDMDL
MODEL 8
REMARK VINA RESULT:       0.4      0.947      4.036
REMARK  3 active torsions:
REMARK  status: ('A' for Active; 'I' for Inactive)
REMARK    1  A    between atoms: C1_1  and  C7_7 
REMARK    2  A    between atoms: C1_1  and  C9_9 
REMARK    3  A    between atoms: C7_7  and  C8_8 
ROOT
HETATM    1  C1  UNL     1     -32.582   6.865   1.706  1.00 20.00     0.134 C 
HETATM    2  O10 UNL     1     -31.997   5.814   1.435  1.00 20.00    -0.297 OA
ENDROOT
BRANCH   1   3
HETATM    3  C7  UNL     1     -34.004   6.847   2.261  1.00 20.00     0.083 C 
BRANCH   3   4
HETATM    4  C8  UNL     1     -34.068   6.585   3.775  1.00 20.00    -0.016 C 
HETATM    5  C2  UNL     1     -35.389   5.904   4.133  1.00 20.00     0.010 C 
HETATM    6  C3  UNL     1     -33.921   7.884   4.571  1.00 20.00     0.010 C 
ENDBRANCH   3   4
ENDBRANCH   1   3
BRANCH   1   7
HETATM    7  C9  UNL     1     -31.908   8.236   1.485  1.00 20.00     0.009 C 
HETATM    8  C4  UNL     1     -31.043   8.185   0.213  1.00 20.00     0.022 C 
HETATM    9  C5  UNL     1     -32.963   9.337   1.311  1.00 20.00     0.022 C 
HETATM   10  C6  UNL     1     -31.006   8.546   2.686  1.00 20.00     0.022 C 
ENDBRANCH   1   7
TORSDOF 3
ENDMDL
MODEL 9
REMARK VINA RESULT:       0.5      2.541      5.133
REMARK  3 active torsions:
REMARK  status: ('A' for Active; 'I' for Inactive)
REMARK    1  A    between atoms: C1_1  and  C7_7 
REMARK    2  A    between atoms: C1_1  and  C9_9 
REMARK    3  A    between atoms: C7_7  and  C8_8 
ROOT
HETATM    1  C1  UNL     1     -34.625   5.148   4.147  1.00 20.00     0.134 C 
HETATM    2  O10 UNL     1     -35.648   4.854   4.770  1.00 20.00    -0.297 OA
ENDROOT
BRANCH   1   3
HETATM    3  C7  UNL     1     -33.514   4.120   3.942  1.00 20.00     0.083 C 
BRANCH   3   4
HETATM    4  C8  UNL     1     -33.472   3.038   5.033  1.00 20.00    -0.016 C 
HETATM    5  C2  UNL     1     -32.373   3.360   6.048  1.00 20.00     0.010 C 
HETATM    6  C3  UNL     1     -33.231   1.651   4.432  1.00 20.00     0.010 C 
ENDBRANCH   3   4
ENDBRANCH   1   3
BRANCH   1   7
HETATM    7  C9  UNL     1     -34.422   6.561   3.560  1.00 20.00     0.009 C 
HETATM    8  C4  UNL     1     -35.769   7.104   3.051  1.00 20.00     0.022 C 
HETATM    9  C5  UNL     1     -33.887   7.520   4.632  1.00 20.00     0.022 C 
HETATM   10  C6  UNL     1     -33.444   6.475   2.382  1.00 20.00     0.022 C 
ENDBRANCH   1   7
TORSDOF 3
ENDMDL
