MODEL 1
REMARK VINA RESULT:      -2.0      0.000      0.000
REMARK  4 active torsions:
REMARK  status: ('A' for Active; 'I' for Inactive)
REMARK    1  A    between atoms: C2_2  and  C5_5 
REMARK    2  A    between atoms: C4_4  and  C6_6 
REMARK    3  A    between atoms: C5_5  and  O8_8 
REMARK    4  A    between atoms: C6_6  and  O8_8 
ROOT
HETATM    1  O8  UNL     1     -32.132   7.837   2.496  1.00 20.00    -0.383 OA
ENDROOT
BRANCH   1   2
HETATM    2  C5  UNL     1     -33.247   6.960   2.409  1.00 20.00     0.218 C 
BRANCH   2   3
HETATM    3  C2  UNL     1     -34.045   7.038   3.671  1.00 20.00     0.026 C 
HETATM    4  C1  UNL     1     -35.179   6.362   3.885  1.00 20.00     0.034 C 
HETATM    5 CL9  UNL     1     -33.441   8.119   4.881  1.00 20.00    -0.088 Cl
ENDBRANCH   2   3
ENDBRANCH   1   2
BRANCH   1   6
HETATM    6  C6  UNL     1     -31.754   8.330   1.218  1.00 20.00     0.202 C 
BRANCH   6   7
HETATM    7  C4  UNL     1     -32.794   9.323   0.745  1.00 20.00     0.169 A 
HETATM    8  C3  UNL     1     -32.395  10.647   0.155  1.00 20.00     0.202 A 
HETATM    9  O7  UNL     1     -32.806   9.545  -0.669  1.00 20.00    -0.379 OA
ENDBRANCH   6   7
ENDBRANCH   1   6
TORSDOF 4
ENDMDL
MODEL 2
REMARK VINA RESULT:      -2.0      1.089      1.263
REMARK  4 active torsions:
REMARK  status: ('A' for Active; 'I' for Inactive)
REMARK    1  A    between atoms: C2_2  and  C5_5 
REMARK    2  A    between atoms: C4_4  and  C6_6 
REMARK    3  A    between atoms: C5_5  and  O8_8 
REMARK    4  A    between atoms: C6_6  and  O8_8 
ROOT
HETATM    1  O8  UNL     1     -32.077   7.918   2.463  1.00 20.00    -0.383 OA
ENDROOT
BRANCH   1   2
HETATM    2  C5  UNL     1     -33.178   7.018   2.482  1.00 20.00     0.218 C 
BRANCH   2   3
HETATM    3  C2  UNL     1     -33.975   7.228   3.729  1.00 20.00     0.026 C 
HETATM    4  C1  UNL     1     -33.653   8.105   4.688  1.00 20.00     0.034 C 
HETATM    5 CL9  UNL     1     -35.369   6.218   3.915  1.00 20.00    -0.088 Cl
ENDBRANCH   2   3
ENDBRANCH   1   2
BRANCH   1   6
HETATM    6  C6  UNL     1     -31.773   8.342   1.142  1.00 20.00     0.202 C 
BRANCH   6   7
HETATM    7  C4  UNL     1     -32.795   9.372   0.707  1.00 20.00     0.169 A 
HETATM    8  C3  UNL     1     -32.371  10.693   0.129  1.00 20.00     0.202 A 
HETATM    9  O7  UNL     1     -32.831   9.616  -0.702  1.00 20.00    -0.379 OA
ENDBRANCH   6   7
ENDBRANCH   1   6
TORSDOF 4
ENDMDL
MODEL 3
REMARK VINA RESULT:      -1.9      1.442      1.442
REMARK  4 active torsions:
REMARK  status: ('A' for Active; 'I' for Inactive)
REMARK    1  A    between atoms: C2_2  and  C5_5 
REMARK    2  A    between atoms: C4_4  and  C6_6 
REMARK    3  A    between atoms: C5_5  and  O8_8 
REMARK    4  A    between atoms: C6_6  and  O8_8 
ROOT
HETATM    1  O8  UNL     1     -32.610   7.641   2.608  1.00 20.00    -0.383 OA
ENDROOT
BRANCH   1   2
HETATM    2  C5  UNL     1     -33.110   6.347   2.299  1.00 20.00     0.218 C 
BRANCH   2   3
HETATM    3  C2  UNL     1     -34.070   5.914   3.360  1.00 20.00     0.026 C 
HETATM    4  C1  UNL     1     -34.962   6.724   3.941  1.00 20.00     0.034 C 
HETATM    5 CL9  UNL     1     -33.948   4.261   3.861  1.00 20.00    -0.088 Cl
ENDBRANCH   2   3
ENDBRANCH   1   2
BRANCH   1   6
HETATM    6  C6  UNL     1     -31.923   8.213   1.504  1.00 20.00     0.202 C 
BRANCH   6   7
HETATM    7  C4  UNL     1     -32.846   9.184   0.798  1.00 20.00     0.169 A 
HETATM    8  C3  UNL     1     -32.365  10.539   0.362  1.00 20.00     0.202 A 
HETATM    9  O7  UNL     1     -32.500   9.451  -0.565  1.00 20.00    -0.379 OA
ENDBRANCH   6   7
ENDBRANCH   1   6
TORSDOF 4
ENDMDL
MODEL 4
REMARK VINA RESULT:      -1.4      2.538      4.934
REMARK  4 active torsions:
REMARK  status: ('A' for Active; 'I' for Inactive)
REMARK    1  A    between atoms: C2_2  and  C5_5 
REMARK    2  A    between atoms: C4_4  and  C6_6 
REMARK    3  A    between atoms: C5_5  and  O8_8 
REMARK    4  A    between atoms: C6_6  and  O8_8 
ROOT
HETATM    1  O8  UNL     1     -34.069   7.849   3.318  1.00 20.00    -0.383 OA
ENDROOT
BRANCH   1   2
HETATM    2  C5  UNL     1     -32.650   7.866   3.239  1.00 20.00     0.218 C 
BRANCH   2   3
HETATM    3  C2  UNL     1     -32.224   7.601   1.831  1.00 20.00     0.026 C 
HETATM    4  C1  UNL     1     -31.878   8.555   0.959  1.00 20.00     0.034 C 
HETATM    5 CL9  UNL     1     -32.236   5.942   1.337  1.00 20.00    -0.088 Cl
ENDBRANCH   2   3
ENDBRANCH   1   2
BRANCH   1   6
HETATM    6  C6  UNL     1     -34.525   6.991   4.354  1.00 20.00     0.202 C 
BRANCH   6   7
HETATM    7  C4  UNL     1     -34.911   5.655   3.755  1.00 20.00     0.169 A 
HETATM    8  C3  UNL     1     -34.146   4.404   4.083  1.00 20.00     0.202 A 
HETATM    9  O7  UNL     1     -35.409   4.701   4.698  1.00 20.00    -0.379 OA
ENDBRANCH   6   7
ENDBRANCH   1   6
TORSDOF 4
ENDMDL
MODEL 5
REMARK VINA RESULT:      -1.2      2.415      4.602
REMARK  4 active torsions:
REMARK  status: ('A' for Active; 'I' for Inactive)
REMARK    1  A    between atoms: C2_2  and  C5_5 
REMARK    2  A    between atoms: C4_4  and  C6_6 
REMARK    3  A    between atoms: C5_5  and  O8_8 
REMARK    4  A    between atoms: C6_6  and  O8_8 
ROOT
HETATM    1  O8  UNL     1     -32.082   6.985   1.614  1.00 20.00    -0.383 OA
ENDROOT
BRANCH   1   2
HETATM    2  C5  UNL     1     -32.311   8.345   1.957  1.00 20.00     0.218 C 
BRANCH   2   3
HETATM    3  C2  UNL     1     -32.094   9.208   0.756  1.00 20.00     0.026 C 
HETATM    4  C1  UNL     1     -32.745  10.354   0.526  1.00 20.00     0.034 C 
HETATM    5 CL9  UNL     1     -30.949   8.618  -0.401  1.00 20.00    -0.088 Cl
ENDBRANCH   2   3
ENDBRANCH   1   2
BRANCH   1   6
HETATM    6  C6  UNL     1     -33.213   6.176   1.904  1.00 20.00     0.202 C 
BRANCH   6   7
HETATM    7  C4  UNL     1     -33.629   6.405   3.341  1.00 20.00     0.169 A 
HETATM    8  C3  UNL     1     -35.078   6.522   3.723  1.00 20.00     0.202 A 
HETATM    9  O7  UNL     1     -34.335   5.313   3.939  1.00 20.00    -0.379 OA
ENDBRANCH   6   7
ENDBRANCH   1   6
TORSDOF 4
ENDMDL
MODEL 6
REMARK VINA RESULT:      -1.1      3.259      5.571
REMARK  4 active torsions:
REMARK  status: ('A' for Active; 'I' for Inactive)
REMARK    1  A    between atoms: C2_2  and  C5_5 
REMARK    2  A    between atoms: C4_4  and  C6_6 
REMARK    3  A    between atoms: C5_5  and  O8_8 
REMARK    4  A    between atoms: C6_6  and  O8_8 
ROOT
HETATM    1  O8  UNL     1     -34.616   5.843   3.274  1.00 20.00    -0.383 OA
ENDROOT
BRANCH   1   2
HETATM    2  C5  UNL     1     -33.714   6.921   3.480  1.00 20.00     0.218 C 
BRANCH   2   3
HETATM    3  C2  UNL     1     -32.803   7.044   2.301  1.00 20.00     0.026 C 
HETATM    4  C1  UNL     1     -32.106   8.147   2.002  1.00 20.00     0.034 C 
HETATM    5 CL9  UNL     1     -32.713   5.659   1.267  1.00 20.00    -0.088 Cl
ENDBRANCH   2   3
ENDBRANCH   1   2
BRANCH   1   6
HETATM    6  C6  UNL     1     -34.570   4.911   4.345  1.00 20.00     0.202 C 
BRANCH   6   7
HETATM    7  C4  UNL     1     -33.503   3.877   4.055  1.00 20.00     0.169 A 
HETATM    8  C3  UNL     1     -32.795   3.155   5.167  1.00 20.00     0.202 A 
HETATM    9  O7  UNL     1     -33.855   2.539   4.419  1.00 20.00    -0.379 OA
ENDBRANCH   6   7
ENDBRANCH   1   6
TORSDOF 4
ENDMDL
MODEL 7
REMARK VINA RESULT:      -1.1      3.443      5.451
REMARK  4 active torsions:
REMARK  status: ('A' for Active; 'I' for Inactive)
REMARK    1  A    between atoms: C2_2  and  C5_5 
REMARK    2  A    between atoms: C4_4  and  C6_6 
REMARK    3  A    between atoms: C5_5  and  O8_8 
REMARK    4  A    between atoms: C6_6  and  O8_8 
ROOT
HETATM    1  O8  UNL     1     -35.008   5.793   3.829  1.00 20.00    -0.383 OA
ENDROOT
BRANCH   1   2
HETATM    2  C5  UNL     1     -33.849   6.015   3.036  1.00 20.00     0.218 C 
BRANCH   2   3
HETATM    3  C2  UNL     1     -33.306   7.380   3.314  1.00 20.00     0.026 C 
HETATM    4  C1  UNL     1     -33.650   8.124   4.372  1.00 20.00     0.034 C 
HETATM    5 CL9  UNL     1     -32.199   8.007   2.140  1.00 20.00    -0.088 Cl
ENDBRANCH   2   3
ENDBRANCH   1   2
BRANCH   1   6
HETATM    6  C6  UNL     1     -34.882   4.621   4.622  1.00 20.00     0.202 C 
BRANCH   6   7
HETATM    7  C4  UNL     1     -33.661   3.849   4.169  1.00 20.00     0.169 A 
HETATM    8  C3  UNL     1     -32.787   3.126   5.155  1.00 20.00     0.202 A 
HETATM    9  O7  UNL     1     -33.752   2.432   4.350  1.00 20.00    -0.379 OA
ENDBRANCH   6   7
ENDBRANCH   1   6
TORSDOF 4
ENDMDL
MODEL 8
REMARK VINA RESULT:      -1.1      2.978      5.385
REMARK  4 active torsions:
REMARK  status: ('A' for Active; 'I' for Inactive)
REMARK    1  A    between atoms: C2_2  and  C5_5 
REMARK    2  A    between atoms: C4_4  and  C6_6 
REMARK    3  A    between atoms: C5_5  and  O8_8 
REMARK    4  A    between atoms: C6_6  and  O8_8 
ROOT
HETATM    1  O8  UNL     1     -34.866   5.952   3.860  1.00 20.00    -0.383 OA
ENDROOT
BRANCH   1   2
HETATM    2  C5  UNL     1     -33.781   6.046   2.946  1.00 20.00     0.218 C 
BRANCH   2   3
HETATM    3  C2  UNL     1     -33.108   7.371   3.102  1.00 20.00     0.026 C 
HETATM    4  C1  UNL     1     -32.306   7.920   2.182  1.00 20.00     0.034 C 
HETATM    5 CL9  UNL     1     -33.381   8.186   4.605  1.00 20.00    -0.088 Cl
ENDBRANCH   2   3
ENDBRANCH   1   2
BRANCH   1   6
HETATM    6  C6  UNL     1     -34.899   4.686   4.502  1.00 20.00     0.202 C 
BRANCH   6   7
HETATM    7  C4  UNL     1     -33.661   3.904   4.117  1.00 20.00     0.169 A 
HETATM    8  C3  UNL     1     -32.848   3.175   5.150  1.00 20.00     0.202 A 
HETATM    9  O7  UNL     1     -33.772   2.488   4.292  1.00 20.00    -0.379 OA
ENDBRANCH   6   7
ENDBRANCH   1   6
TORSDOF 4
ENDMDL
MODEL 9
REMARK VINA RESULT:      -1.0      1.510      1.528
REMARK  4 active torsions:
REMARK  status: ('A' for Active; 'I' for Inactive)
REMARK    1  A    between atoms: C2_2  and  C5_5 
REMARK    2  A    between atoms: C4_4  and  C6_6 
REMARK    3  A    between atoms: C5_5  and  O8_8 
REMARK    4  A    between atoms: C6_6  and  O8_8 
ROOT
HETATM    1  O8  UNL     1     -32.281   8.127   2.790  1.00 20.00    -0.383 OA
ENDROOT
BRANCH   1   2
HETATM    2  C5  UNL     1     -33.615   8.072   3.277  1.00 20.00     0.218 C 
BRANCH   2   3
HETATM    3  C2  UNL     1     -34.069   6.649   3.334  1.00 20.00     0.026 C 
HETATM    4  C1  UNL     1     -35.097   6.217   4.075  1.00 20.00     0.034 C 
HETATM    5 CL9  UNL     1     -33.146   5.523   2.397  1.00 20.00    -0.088 Cl
ENDBRANCH   2   3
ENDBRANCH   1   2
BRANCH   1   6
HETATM    6  C6  UNL     1     -32.237   8.008   1.375  1.00 20.00     0.202 C 
BRANCH   6   7
HETATM    7  C4  UNL     1     -31.896   9.357   0.777  1.00 20.00     0.169 A 
HETATM    8  C3  UNL     1     -32.660   9.904  -0.396  1.00 20.00     0.202 A 
HETATM    9  O7  UNL     1     -32.908  10.355   0.944  1.00 20.00    -0.379 OA
ENDBRANCH   6   7
ENDBRANCH   1   6
TORSDOF 4
ENDMDL
