MODEL 1
REMARK VINA RESULT:       0.8      0.000      0.000
REMARK  0 active torsions:
REMARK  status: ('A' for Active; 'I' for Inactive)
ROOT
HETATM    1  C1  UNL     1     -34.861   4.330   4.918  1.00 20.00     0.047 C 
HETATM    2  C2  UNL     1     -35.281   5.551   4.572  1.00 20.00    -0.013 C 
HETATM    3  C3  UNL     1     -32.377   7.655   2.146  1.00 20.00    -0.030 C 
HETATM    4  C4  UNL     1     -32.733   8.139   3.342  1.00 20.00    -0.030 C 
HETATM    5  C5  UNL     1     -33.644   3.755   4.298  1.00 20.00     0.149 C 
HETATM    6  C6  UNL     1     -32.965   6.411   1.552  1.00 20.00     0.033 C 
HETATM    7  C7  UNL     1     -33.768   7.499   4.219  1.00 20.00     0.040 C 
HETATM    8  C8  UNL     1     -32.854   4.609   3.332  1.00 20.00     0.088 C 
HETATM    9  C9  UNL     1     -33.775   5.556   2.548  1.00 20.00     0.008 C 
HETATM   10  C10 UNL     1     -34.637   6.425   3.509  1.00 20.00    -0.019 C 
HETATM   11  C11 UNL     1     -35.767   7.111   2.709  1.00 20.00     0.020 C 
HETATM   12  O12 UNL     1     -33.267   2.631   4.622  1.00 20.00    -0.293 OA
ENDROOT
TORSDOF 0
ENDMDL
MODEL 2
REMARK VINA RESULT:       2.1      1.783      3.587
REMARK  0 active torsions:
REMARK  status: ('A' for Active; 'I' for Inactive)
ROOT
HETATM    1  C1  UNL     1     -31.918   7.226   1.482  1.00 20.00     0.047 C 
HETATM    2  C2  UNL     1     -32.549   7.855   2.480  1.00 20.00    -0.013 C 
HETATM    3  C3  UNL     1     -35.604   5.385   4.299  1.00 20.00    -0.030 C 
HETATM    4  C4  UNL     1     -35.937   6.531   3.694  1.00 20.00    -0.030 C 
HETATM    5  C5  UNL     1     -32.134   5.777   1.257  1.00 20.00     0.149 C 
HETATM    6  C6  UNL     1     -34.192   4.900   4.428  1.00 20.00     0.033 C 
HETATM    7  C7  UNL     1     -34.934   7.468   3.086  1.00 20.00     0.040 C 
HETATM    8  C8  UNL     1     -33.137   5.054   2.127  1.00 20.00     0.088 C 
HETATM    9  C9  UNL     1     -33.180   5.654   3.541  1.00 20.00     0.008 C 
HETATM   10  C10 UNL     1     -33.462   7.184   3.492  1.00 20.00    -0.019 C 
HETATM   11  C11 UNL     1     -33.172   7.805   4.877  1.00 20.00     0.020 C 
HETATM   12  O12 UNL     1     -31.548   5.209   0.338  1.00 20.00    -0.293 OA
ENDROOT
TORSDOF 0
ENDMDL
MODEL 3
REMARK VINA RESULT:       2.1      2.200      4.148
REMARK  0 active torsions:
REMARK  status: ('A' for Active; 'I' for Inactive)
ROOT
HETATM    1  C1  UNL     1     -31.482   7.678   1.955  1.00 20.00     0.047 C 
HETATM    2  C2  UNL     1     -32.092   6.586   1.481  1.00 20.00    -0.013 C 
HETATM    3  C3  UNL     1     -34.949   4.957   4.297  1.00 20.00    -0.030 C 
HETATM    4  C4  UNL     1     -33.890   4.232   3.916  1.00 20.00    -0.030 C 
HETATM    5  C5  UNL     1     -31.965   8.324   3.198  1.00 20.00     0.149 C 
HETATM    6  C6  UNL     1     -35.243   6.327   3.767  1.00 20.00     0.033 C 
HETATM    7  C7  UNL     1     -32.884   4.703   2.907  1.00 20.00     0.040 C 
HETATM    8  C8  UNL     1     -33.104   7.675   3.952  1.00 20.00     0.088 C 
HETATM    9  C9  UNL     1     -34.075   6.971   2.993  1.00 20.00     0.008 C 
HETATM   10  C10 UNL     1     -33.328   5.947   2.089  1.00 20.00    -0.019 C 
HETATM   11  C11 UNL     1     -34.255   5.510   0.932  1.00 20.00     0.020 C 
HETATM   12  O12 UNL     1     -31.398   9.328   3.623  1.00 20.00    -0.293 OA
ENDROOT
TORSDOF 0
ENDMDL
MODEL 4
REMARK VINA RESULT:       3.5      1.757      3.192
REMARK  0 active torsions:
REMARK  status: ('A' for Active; 'I' for Inactive)
ROOT
HETATM    1  C1  UNL     1     -34.394   5.171   3.272  1.00 20.00     0.047 C 
HETATM    2  C2  UNL     1     -33.525   5.083   2.259  1.00 20.00    -0.013 C 
HETATM    3  C3  UNL     1     -32.138   8.970   0.951  1.00 20.00    -0.030 C 
HETATM    4  C4  UNL     1     -32.819   8.180   0.112  1.00 20.00    -0.030 C 
HETATM    5  C5  UNL     1     -34.610   6.464   3.961  1.00 20.00     0.149 C 
HETATM    6  C6  UNL     1     -31.777   8.570   2.350  1.00 20.00     0.033 C 
HETATM    7  C7  UNL     1     -33.288   6.801   0.471  1.00 20.00     0.040 C 
HETATM    8  C8  UNL     1     -33.887   7.687   3.443  1.00 20.00     0.088 C 
HETATM    9  C9  UNL     1     -32.515   7.316   2.860  1.00 20.00     0.008 C 
HETATM   10  C10 UNL     1     -32.650   6.220   1.763  1.00 20.00    -0.019 C 
HETATM   11  C11 UNL     1     -31.253   5.640   1.441  1.00 20.00     0.020 C 
HETATM   12  O12 UNL     1     -35.410   6.533   4.892  1.00 20.00    -0.293 OA
ENDROOT
TORSDOF 0
ENDMDL
MODEL 5
REMARK VINA RESULT:       3.6      1.886      3.308
REMARK  0 active torsions:
REMARK  status: ('A' for Active; 'I' for Inactive)
ROOT
HETATM    1  C1  UNL     1     -33.697   7.874   4.027  1.00 20.00     0.047 C 
HETATM    2  C2  UNL     1     -32.746   8.121   3.119  1.00 20.00    -0.013 C 
HETATM    3  C3  UNL     1     -32.117   4.767   0.455  1.00 20.00    -0.030 C 
HETATM    4  C4  UNL     1     -31.127   5.192   1.248  1.00 20.00    -0.030 C 
HETATM    5  C5  UNL     1     -34.550   6.669   3.906  1.00 20.00     0.149 C 
HETATM    6  C6  UNL     1     -33.465   5.421   0.396  1.00 20.00     0.033 C 
HETATM    7  C7  UNL     1     -31.247   6.377   2.160  1.00 20.00     0.040 C 
HETATM    8  C8  UNL     1     -34.267   5.694   2.786  1.00 20.00     0.088 C 
HETATM    9  C9  UNL     1     -33.734   6.419   1.541  1.00 20.00     0.008 C 
HETATM   10  C10 UNL     1     -32.483   7.278   1.884  1.00 20.00    -0.019 C 
HETATM   11  C11 UNL     1     -32.179   8.236   0.710  1.00 20.00     0.020 C 
HETATM   12  O12 UNL     1     -35.422   6.453   4.745  1.00 20.00    -0.293 OA
ENDROOT
TORSDOF 0
ENDMDL
