MODEL 1
REMARK VINA RESULT:       1.0      0.000      0.000
REMARK  0 active torsions:
REMARK  status: ('A' for Active; 'I' for Inactive)
ROOT
HETATM    1  C1  UNL     1     -34.590   6.239   3.756  1.00 20.00     0.064 C 
HETATM    2  C2  UNL     1     -31.482   6.334   1.886  1.00 20.00     0.005 C 
HETATM    3  C3  UNL     1     -32.841   5.868   1.346  1.00 20.00     0.006 C 
HETATM    4  C4  UNL     1     -32.626   7.793   3.565  1.00 20.00     0.024 C 
HETATM    5  C5  UNL     1     -32.752   8.234   1.221  1.00 20.00     0.010 C 
HETATM    6  C6  UNL     1     -34.013   7.379   3.038  1.00 20.00     0.097 C 
HETATM    7  C7  UNL     1     -31.755   7.790   2.294  1.00 20.00    -0.013 C 
HETATM    8  C8  UNL     1     -33.738   7.107   1.542  1.00 20.00     0.003 C 
HETATM    9  N9  UNL     1     -35.047   5.337   4.325  1.00 20.00    -0.197 NA
ENDROOT
TORSDOF 0
ENDMDL
MODEL 2
REMARK VINA RESULT:       1.3      2.045      3.123
REMARK  0 active torsions:
REMARK  status: ('A' for Active; 'I' for Inactive)
ROOT
HETATM    1  C1  UNL     1     -33.538   3.817   4.379  1.00 20.00     0.064 C 
HETATM    2  C2  UNL     1     -33.890   7.427   4.491  1.00 20.00     0.005 C 
HETATM    3  C3  UNL     1     -32.889   6.648   3.625  1.00 20.00     0.006 C 
HETATM    4  C4  UNL     1     -35.434   5.458   4.512  1.00 20.00     0.024 C 
HETATM    5  C5  UNL     1     -34.981   6.682   2.511  1.00 20.00     0.010 C 
HETATM    6  C6  UNL     1     -34.476   4.647   3.619  1.00 20.00     0.097 C 
HETATM    7  C7  UNL     1     -35.248   6.901   4.001  1.00 20.00    -0.013 C 
HETATM    8  C8  UNL     1     -33.798   5.744   2.767  1.00 20.00     0.003 C 
HETATM    9  N9  UNL     1     -32.796   3.159   4.981  1.00 20.00    -0.197 NA
ENDROOT
TORSDOF 0
ENDMDL
MODEL 3
REMARK VINA RESULT:       1.6      2.208      3.295
REMARK  0 active torsions:
REMARK  status: ('A' for Active; 'I' for Inactive)
ROOT
HETATM    1  C1  UNL     1     -32.307   8.480   1.517  1.00 20.00     0.064 C 
HETATM    2  C2  UNL     1     -35.250   6.755   2.754  1.00 20.00     0.005 C 
HETATM    3  C3  UNL     1     -34.424   6.353   1.524  1.00 20.00     0.006 C 
HETATM    4  C4  UNL     1     -33.247   7.863   3.763  1.00 20.00     0.024 C 
HETATM    5  C5  UNL     1     -33.357   5.496   3.461  1.00 20.00     0.010 C 
HETATM    6  C6  UNL     1     -32.369   7.456   2.564  1.00 20.00     0.097 C 
HETATM    7  C7  UNL     1     -34.225   6.679   3.896  1.00 20.00    -0.013 C 
HETATM    8  C8  UNL     1     -33.014   6.128   2.109  1.00 20.00     0.003 C 
HETATM    9  N9  UNL     1     -32.258   9.290   0.688  1.00 20.00    -0.197 NA
ENDROOT
TORSDOF 0
ENDMDL
MODEL 4
REMARK VINA RESULT:       1.7      0.993      2.150
REMARK  0 active torsions:
REMARK  status: ('A' for Active; 'I' for Inactive)
ROOT
HETATM    1  C1  UNL     1     -34.332   6.655   3.454  1.00 20.00     0.064 C 
HETATM    2  C2  UNL     1     -32.855   8.700   0.846  1.00 20.00     0.005 C 
HETATM    3  C3  UNL     1     -33.132   9.146   2.288  1.00 20.00     0.006 C 
HETATM    4  C4  UNL     1     -32.679   6.319   1.594  1.00 20.00     0.024 C 
HETATM    5  C5  UNL     1     -31.076   7.966   2.246  1.00 20.00     0.010 C 
HETATM    6  C6  UNL     1     -32.922   6.721   3.061  1.00 20.00     0.097 C 
HETATM    7  C7  UNL     1     -31.891   7.518   1.031  1.00 20.00    -0.013 C 
HETATM    8  C8  UNL     1     -32.316   8.141   3.127  1.00 20.00     0.003 C 
HETATM    9  N9  UNL     1     -35.449   6.603   3.765  1.00 20.00    -0.197 NA
ENDROOT
TORSDOF 0
ENDMDL
MODEL 5
REMARK VINA RESULT:       1.8      2.041      3.489
REMARK  0 active torsions:
REMARK  status: ('A' for Active; 'I' for Inactive)
ROOT
HETATM    1  C1  UNL     1     -32.337   7.131   1.801  1.00 20.00     0.064 C 
HETATM    2  C2  UNL     1     -33.905   7.009   5.071  1.00 20.00     0.005 C 
HETATM    3  C3  UNL     1     -34.025   8.158   4.060  1.00 20.00     0.006 C 
HETATM    4  C4  UNL     1     -33.470   5.391   3.213  1.00 20.00     0.024 C 
HETATM    5  C5  UNL     1     -35.585   6.471   3.473  1.00 20.00     0.010 C 
HETATM    6  C6  UNL     1     -33.612   6.504   2.158  1.00 20.00     0.097 C 
HETATM    7  C7  UNL     1     -34.480   5.811   4.299  1.00 20.00    -0.013 C 
HETATM    8  C8  UNL     1     -34.625   7.467   2.817  1.00 20.00     0.003 C 
HETATM    9  N9  UNL     1     -31.327   7.627   1.519  1.00 20.00    -0.197 NA
ENDROOT
TORSDOF 0
ENDMDL
MODEL 6
REMARK VINA RESULT:       1.9      1.778      2.920
REMARK  0 active torsions:
REMARK  status: ('A' for Active; 'I' for Inactive)
ROOT
HETATM    1  C1  UNL     1     -32.499   5.702   1.682  1.00 20.00     0.064 C 
HETATM    2  C2  UNL     1     -32.782   7.839   4.601  1.00 20.00     0.005 C 
HETATM    3  C3  UNL     1     -32.217   8.255   3.235  1.00 20.00     0.006 C 
HETATM    4  C4  UNL     1     -34.180   6.075   3.510  1.00 20.00     0.024 C 
HETATM    5  C5  UNL     1     -34.583   8.402   3.150  1.00 20.00     0.010 C 
HETATM    6  C6  UNL     1     -33.667   6.475   2.114  1.00 20.00     0.097 C 
HETATM    7  C7  UNL     1     -34.221   7.418   4.264  1.00 20.00    -0.013 C 
HETATM    8  C8  UNL     1     -33.396   7.988   2.275  1.00 20.00     0.003 C 
HETATM    9  N9  UNL     1     -31.575   5.090   1.340  1.00 20.00    -0.197 NA
ENDROOT
TORSDOF 0
ENDMDL
MODEL 7
REMARK VINA RESULT:       1.9      2.639      3.527
REMARK  0 active torsions:
REMARK  status: ('A' for Active; 'I' for Inactive)
ROOT
HETATM    1  C1  UNL     1     -32.655   9.613   0.245  1.00 20.00     0.064 C 
HETATM    2  C2  UNL     1     -33.222   6.487   1.997  1.00 20.00     0.005 C 
HETATM    3  C3  UNL     1     -31.937   6.880   1.255  1.00 20.00     0.006 C 
HETATM    4  C4  UNL     1     -33.763   8.899   2.383  1.00 20.00     0.024 C 
HETATM    5  C5  UNL     1     -31.885   7.849   3.419  1.00 20.00     0.010 C 
HETATM    6  C6  UNL     1     -32.470   9.343   1.673  1.00 20.00     0.097 C 
HETATM    7  C7  UNL     1     -33.350   7.582   3.068  1.00 20.00    -0.013 C 
HETATM    8  C8  UNL     1     -31.503   8.175   1.972  1.00 20.00     0.003 C 
HETATM    9  N9  UNL     1     -32.803   9.828  -0.886  1.00 20.00    -0.197 NA
ENDROOT
TORSDOF 0
ENDMDL
MODEL 8
REMARK VINA RESULT:       2.1      1.850      3.214
REMARK  0 active torsions:
REMARK  status: ('A' for Active; 'I' for Inactive)
ROOT
HETATM    1  C1  UNL     1     -32.762   5.805   1.490  1.00 20.00     0.064 C 
HETATM    2  C2  UNL     1     -35.548   6.577   3.683  1.00 20.00     0.005 C 
HETATM    3  C3  UNL     1     -34.535   5.441   3.883  1.00 20.00     0.006 C 
HETATM    4  C4  UNL     1     -33.857   7.883   2.380  1.00 20.00     0.024 C 
HETATM    5  C5  UNL     1     -33.588   7.450   4.714  1.00 20.00     0.010 C 
HETATM    6  C6  UNL     1     -32.797   6.784   2.580  1.00 20.00     0.097 C 
HETATM    7  C7  UNL     1     -34.662   7.833   3.694  1.00 20.00    -0.013 C 
HETATM    8  C8  UNL     1     -33.185   6.184   3.951  1.00 20.00     0.003 C 
HETATM    9  N9  UNL     1     -32.735   5.031   0.625  1.00 20.00    -0.197 NA
ENDROOT
TORSDOF 0
ENDMDL
MODEL 9
REMARK VINA RESULT:       2.1      1.522      1.971
REMARK  0 active torsions:
REMARK  status: ('A' for Active; 'I' for Inactive)
ROOT
HETATM    1  C1  UNL     1     -33.296   7.874   4.035  1.00 20.00     0.064 C 
HETATM    2  C2  UNL     1     -31.806   5.144   2.165  1.00 20.00     0.005 C 
HETATM    3  C3  UNL     1     -33.148   5.096   2.909  1.00 20.00     0.006 C 
HETATM    4  C4  UNL     1     -32.028   7.620   1.882  1.00 20.00     0.024 C 
HETATM    5  C5  UNL     1     -33.499   6.091   0.785  1.00 20.00     0.010 C 
HETATM    6  C6  UNL     1     -33.393   7.619   2.595  1.00 20.00     0.097 C 
HETATM    7  C7  UNL     1     -32.022   6.269   1.140  1.00 20.00    -0.013 C 
HETATM    8  C8  UNL     1     -33.959   6.225   2.240  1.00 20.00     0.003 C 
HETATM    9  N9  UNL     1     -33.217   8.077   5.175  1.00 20.00    -0.197 NA
ENDROOT
TORSDOF 0
ENDMDL
