MODEL 1
REMARK VINA RESULT:       3.4      0.000      0.000
REMARK  1 active torsions:
REMARK  status: ('A' for Active; 'I' for Inactive)
REMARK    1  A    between atoms: C8_8  and  O10_10 
ROOT
HETATM    1  C1  UNL     1     -32.920   5.119   3.035  1.00 20.00     0.005 C 
HETATM    2  C2  UNL     1     -33.221   5.347   0.557  1.00 20.00     0.005 C 
HETATM    3  C3  UNL     1     -33.895   6.287   3.238  1.00 20.00     0.008 C 
HETATM    4  C4  UNL     1     -34.177   6.525   0.789  1.00 20.00     0.008 C 
HETATM    5  C5  UNL     1     -31.366   6.573   1.709  1.00 20.00     0.042 C 
HETATM    6  C6  UNL     1     -32.183   5.265   1.692  1.00 20.00    -0.012 C 
HETATM    7  C7  UNL     1     -33.772   7.286   2.066  1.00 20.00     0.019 C 
HETATM    8  C8  UNL     1     -32.303   7.781   1.951  1.00 20.00     0.058 C 
HETATM    9  C9  UNL     1     -32.117   8.847   0.868  1.00 20.00     0.046 C 
ENDROOT
BRANCH   8  10
HETATM   10  O10 UNL     1     -31.923   8.389   3.192  1.00 20.00    -0.390 OA
HETATM   11  H26 UNL     1     -32.687   8.304   3.778  1.00 20.00     0.210 HD
ENDBRANCH   8  10
TORSDOF 1
ENDMDL
MODEL 2
REMARK VINA RESULT:       3.5      1.399      2.642
REMARK  1 active torsions:
REMARK  status: ('A' for Active; 'I' for Inactive)
REMARK    1  A    between atoms: C8_8  and  O10_10 
ROOT
HETATM    1  C1  UNL     1     -33.327   5.364   0.769  1.00 20.00     0.005 C 
HETATM    2  C2  UNL     1     -31.358   6.486   1.839  1.00 20.00     0.005 C 
HETATM    3  C3  UNL     1     -34.049   6.718   0.731  1.00 20.00     0.008 C 
HETATM    4  C4  UNL     1     -32.111   7.823   1.807  1.00 20.00     0.008 C 
HETATM    5  C5  UNL     1     -33.145   5.466   3.267  1.00 20.00     0.042 C 
HETATM    6  C6  UNL     1     -32.349   5.312   1.955  1.00 20.00    -0.012 C 
HETATM    7  C7  UNL     1     -33.626   7.575   1.944  1.00 20.00     0.019 C 
HETATM    8  C8  UNL     1     -33.925   6.803   3.261  1.00 20.00     0.058 C 
HETATM    9  C9  UNL     1     -33.618   7.626   4.515  1.00 20.00     0.046 C 
ENDROOT
BRANCH   8  10
HETATM   10  O10 UNL     1     -35.324   6.495   3.307  1.00 20.00    -0.390 OA
HETATM   11  H26 UNL     1     -35.682   6.985   4.060  1.00 20.00     0.210 HD
ENDBRANCH   8  10
TORSDOF 1
ENDMDL
MODEL 3
REMARK VINA RESULT:       3.5      1.454      2.827
REMARK  1 active torsions:
REMARK  status: ('A' for Active; 'I' for Inactive)
REMARK    1  A    between atoms: C8_8  and  O10_10 
ROOT
HETATM    1  C1  UNL     1     -31.133   6.709   1.919  1.00 20.00     0.005 C 
HETATM    2  C2  UNL     1     -32.870   8.333   1.129  1.00 20.00     0.005 C 
HETATM    3  C3  UNL     1     -32.027   5.556   1.442  1.00 20.00     0.008 C 
HETATM    4  C4  UNL     1     -33.753   7.160   0.680  1.00 20.00     0.008 C 
HETATM    5  C5  UNL     1     -32.910   7.512   3.494  1.00 20.00     0.042 C 
HETATM    6  C6  UNL     1     -31.992   7.919   2.324  1.00 20.00    -0.012 C 
HETATM    7  C7  UNL     1     -33.514   5.944   1.596  1.00 20.00     0.019 C 
HETATM    8  C8  UNL     1     -33.807   6.322   3.075  1.00 20.00     0.058 C 
HETATM    9  C9  UNL     1     -35.286   6.631   3.328  1.00 20.00     0.046 C 
ENDROOT
BRANCH   8  10
HETATM   10  O10 UNL     1     -33.475   5.207   3.910  1.00 20.00    -0.390 OA
HETATM   11  H26 UNL     1     -34.193   5.129   4.554  1.00 20.00     0.210 HD
ENDBRANCH   8  10
TORSDOF 1
ENDMDL
MODEL 4
REMARK VINA RESULT:       3.6      1.492      2.568
REMARK  1 active torsions:
REMARK  status: ('A' for Active; 'I' for Inactive)
REMARK    1  A    between atoms: C8_8  and  O10_10 
ROOT
HETATM    1  C1  UNL     1     -31.974   5.895   1.476  1.00 20.00     0.005 C 
HETATM    2  C2  UNL     1     -33.735   7.118   2.773  1.00 20.00     0.005 C 
HETATM    3  C3  UNL     1     -30.932   6.900   1.987  1.00 20.00     0.008 C 
HETATM    4  C4  UNL     1     -32.676   8.121   3.252  1.00 20.00     0.008 C 
HETATM    5  C5  UNL     1     -33.291   7.728   0.385  1.00 20.00     0.042 C 
HETATM    6  C6  UNL     1     -33.359   6.558   1.389  1.00 20.00    -0.012 C 
HETATM    7  C7  UNL     1     -31.586   8.287   2.176  1.00 20.00     0.019 C 
HETATM    8  C8  UNL     1     -32.223   8.753   0.837  1.00 20.00     0.058 C 
HETATM    9  C9  UNL     1     -32.813  10.163   0.918  1.00 20.00     0.046 C 
ENDROOT
BRANCH   8  10
HETATM   10  O10 UNL     1     -31.203   8.795  -0.169  1.00 20.00    -0.390 OA
HETATM   11  H26 UNL     1     -31.664   8.817  -1.019  1.00 20.00     0.210 HD
ENDBRANCH   8  10
TORSDOF 1
ENDMDL
MODEL 5
REMARK VINA RESULT:       3.8      1.774      3.073
REMARK  1 active torsions:
REMARK  status: ('A' for Active; 'I' for Inactive)
REMARK    1  A    between atoms: C8_8  and  O10_10 
ROOT
HETATM    1  C1  UNL     1     -35.135   5.347   3.933  1.00 20.00     0.005 C 
HETATM    2  C2  UNL     1     -34.597   7.758   4.360  1.00 20.00     0.005 C 
HETATM    3  C3  UNL     1     -33.651   5.006   4.123  1.00 20.00     0.008 C 
HETATM    4  C4  UNL     1     -33.116   7.390   4.525  1.00 20.00     0.008 C 
HETATM    5  C5  UNL     1     -34.598   6.872   2.017  1.00 20.00     0.042 C 
HETATM    6  C6  UNL     1     -35.290   6.779   3.393  1.00 20.00    -0.012 C 
HETATM    7  C7  UNL     1     -32.773   6.180   3.635  1.00 20.00     0.019 C 
HETATM    8  C8  UNL     1     -33.102   6.498   2.149  1.00 20.00     0.058 C 
HETATM    9  C9  UNL     1     -32.206   7.592   1.563  1.00 20.00     0.046 C 
ENDROOT
BRANCH   8  10
HETATM   10  O10 UNL     1     -32.874   5.320   1.365  1.00 20.00    -0.390 OA
HETATM   11  H26 UNL     1     -31.974   5.032   1.568  1.00 20.00     0.210 HD
ENDBRANCH   8  10
TORSDOF 1
ENDMDL
MODEL 6
REMARK VINA RESULT:       4.2      1.559      2.715
REMARK  1 active torsions:
REMARK  status: ('A' for Active; 'I' for Inactive)
REMARK    1  A    between atoms: C8_8  and  O10_10 
ROOT
HETATM    1  C1  UNL     1     -33.400   7.253   4.775  1.00 20.00     0.005 C 
HETATM    2  C2  UNL     1     -35.429   6.089   3.876  1.00 20.00     0.005 C 
HETATM    3  C3  UNL     1     -33.438   8.203   3.570  1.00 20.00     0.008 C 
HETATM    4  C4  UNL     1     -35.431   7.040   2.671  1.00 20.00     0.008 C 
HETATM    5  C5  UNL     1     -33.143   5.263   3.271  1.00 20.00     0.042 C 
HETATM    6  C6  UNL     1     -33.994   5.885   4.398  1.00 20.00    -0.012 C 
HETATM    7  C7  UNL     1     -33.988   7.461   2.332  1.00 20.00     0.019 C 
HETATM    8  C8  UNL     1     -33.119   6.205   2.043  1.00 20.00     0.058 C 
HETATM    9  C9  UNL     1     -33.545   5.465   0.773  1.00 20.00     0.046 C 
ENDROOT
BRANCH   8  10
HETATM   10  O10 UNL     1     -31.763   6.622   1.837  1.00 20.00    -0.390 OA
HETATM   11  H26 UNL     1     -31.459   6.163   1.042  1.00 20.00     0.210 HD
ENDBRANCH   8  10
TORSDOF 1
ENDMDL
MODEL 7
REMARK VINA RESULT:       4.3      1.583      2.971
REMARK  1 active torsions:
REMARK  status: ('A' for Active; 'I' for Inactive)
REMARK    1  A    between atoms: C8_8  and  O10_10 
ROOT
HETATM    1  C1  UNL     1     -32.338   8.011   4.139  1.00 20.00     0.005 C 
HETATM    2  C2  UNL     1     -34.175   8.701   2.581  1.00 20.00     0.005 C 
HETATM    3  C3  UNL     1     -31.346   8.096   2.971  1.00 20.00     0.008 C 
HETATM    4  C4  UNL     1     -33.166   8.758   1.426  1.00 20.00     0.008 C 
HETATM    5  C5  UNL     1     -33.688   6.271   2.942  1.00 20.00     0.042 C 
HETATM    6  C6  UNL     1     -33.742   7.654   3.624  1.00 20.00    -0.012 C 
HETATM    7  C7  UNL     1     -32.053   7.716   1.651  1.00 20.00     0.019 C 
HETATM    8  C8  UNL     1     -32.670   6.294   1.777  1.00 20.00     0.058 C 
HETATM    9  C9  UNL     1     -33.311   5.805   0.475  1.00 20.00     0.046 C 
ENDROOT
BRANCH   8  10
HETATM   10  O10 UNL     1     -31.625   5.365   2.091  1.00 20.00    -0.390 OA
HETATM   11  H26 UNL     1     -31.701   4.647   1.447  1.00 20.00     0.210 HD
ENDBRANCH   8  10
TORSDOF 1
ENDMDL
MODEL 8
REMARK VINA RESULT:       4.4      1.649      3.264
REMARK  1 active torsions:
REMARK  status: ('A' for Active; 'I' for Inactive)
REMARK    1  A    between atoms: C8_8  and  O10_10 
ROOT
HETATM    1  C1  UNL     1     -31.851   8.726   0.810  1.00 20.00     0.005 C 
HETATM    2  C2  UNL     1     -31.451   8.289   3.245  1.00 20.00     0.005 C 
HETATM    3  C3  UNL     1     -33.362   8.640   1.066  1.00 20.00     0.008 C 
HETATM    4  C4  UNL     1     -32.966   8.187   3.469  1.00 20.00     0.008 C 
HETATM    5  C5  UNL     1     -31.521   6.379   1.626  1.00 20.00     0.042 C 
HETATM    6  C6  UNL     1     -31.087   7.847   1.815  1.00 20.00    -0.012 C 
HETATM    7  C7  UNL     1     -33.648   7.634   2.203  1.00 20.00     0.019 C 
HETATM    8  C8  UNL     1     -33.049   6.246   1.837  1.00 20.00     0.058 C 
HETATM    9  C9  UNL     1     -33.370   5.167   2.874  1.00 20.00     0.046 C 
ENDROOT
BRANCH   8  10
HETATM   10  O10 UNL     1     -33.625   5.808   0.600  1.00 20.00    -0.390 OA
HETATM   11  H26 UNL     1     -34.578   5.947   0.683  1.00 20.00     0.210 HD
ENDBRANCH   8  10
TORSDOF 1
ENDMDL
MODEL 9
REMARK VINA RESULT:       4.6      1.208      2.857
REMARK  1 active torsions:
REMARK  status: ('A' for Active; 'I' for Inactive)
REMARK    1  A    between atoms: C8_8  and  O10_10 
ROOT
HETATM    1  C1  UNL     1     -31.650   8.364   1.557  1.00 20.00     0.005 C 
HETATM    2  C2  UNL     1     -33.428   6.927   0.530  1.00 20.00     0.005 C 
HETATM    3  C3  UNL     1     -31.273   7.198   2.481  1.00 20.00     0.008 C 
HETATM    4  C4  UNL     1     -33.044   5.784   1.481  1.00 20.00     0.008 C 
HETATM    5  C5  UNL     1     -33.985   8.409   2.471  1.00 20.00     0.042 C 
HETATM    6  C6  UNL     1     -33.141   8.291   1.185  1.00 20.00    -0.012 C 
HETATM    7  C7  UNL     1     -32.529   6.362   2.814  1.00 20.00     0.019 C 
HETATM    8  C8  UNL     1     -33.612   7.274   3.455  1.00 20.00     0.058 C 
HETATM    9  C9  UNL     1     -34.856   6.500   3.899  1.00 20.00     0.046 C 
ENDROOT
BRANCH   8  10
HETATM   10  O10 UNL     1     -33.066   7.878   4.634  1.00 20.00    -0.390 OA
HETATM   11  H26 UNL     1     -32.968   8.819   4.434  1.00 20.00     0.210 HD
ENDBRANCH   8  10
TORSDOF 1
ENDMDL
