MODEL 1
REMARK VINA RESULT:      -2.4      0.000      0.000
REMARK  2 active torsions:
REMARK  status: ('A' for Active; 'I' for Inactive)
REMARK    1  A    between atoms: C1_1  and  C3_3 
REMARK    2  A    between atoms: C2_2  and  C4_4 
ROOT
HETATM    1  C1  UNL     1     -33.185   7.104   2.387  1.00 20.00    -0.015 C 
HETATM    2  C2  UNL     1     -33.824   7.207   3.561  1.00 20.00    -0.015 C 
ENDROOT
BRANCH   1   3
HETATM    3  C3  UNL     1     -31.972   7.900   2.032  1.00 20.00     0.141 C 
HETATM    4 CL5  UNL     1     -32.386   9.119   0.808  1.00 20.00    -0.126 Cl
ENDBRANCH   1   3
BRANCH   2   5
HETATM    5  C4  UNL     1     -35.048   6.425   3.908  1.00 20.00     0.141 C 
HETATM    6 CL6  UNL     1     -34.613   4.732   4.227  1.00 20.00    -0.126 Cl
ENDBRANCH   2   5
TORSDOF 2
ENDMDL
MODEL 2
REMARK VINA RESULT:      -2.4      0.021      4.199
REMARK  2 active torsions:
REMARK  status: ('A' for Active; 'I' for Inactive)
REMARK    1  A    between atoms: C1_1  and  C3_3 
REMARK    2  A    between atoms: C2_2  and  C4_4 
ROOT
HETATM    1  C1  UNL     1     -33.820   7.217   3.561  1.00 20.00    -0.015 C 
HETATM    2  C2  UNL     1     -33.192   7.131   2.379  1.00 20.00    -0.015 C 
ENDROOT
BRANCH   1   3
HETATM    3  C3  UNL     1     -35.044   6.435   3.906  1.00 20.00     0.141 C 
HETATM    4 CL5  UNL     1     -34.612   4.740   4.213  1.00 20.00    -0.126 Cl
ENDBRANCH   1   3
BRANCH   2   5
HETATM    5  C4  UNL     1     -31.979   7.927   2.026  1.00 20.00     0.141 C 
HETATM    6 CL6  UNL     1     -32.390   9.141   0.796  1.00 20.00    -0.126 Cl
ENDBRANCH   2   5
TORSDOF 2
ENDMDL
MODEL 3
REMARK VINA RESULT:      -2.3      1.505      1.788
REMARK  2 active torsions:
REMARK  status: ('A' for Active; 'I' for Inactive)
REMARK    1  A    between atoms: C1_1  and  C3_3 
REMARK    2  A    between atoms: C2_2  and  C4_4 
ROOT
HETATM    1  C1  UNL     1     -32.384   8.007   1.919  1.00 20.00    -0.015 C 
HETATM    2  C2  UNL     1     -32.851   6.751   1.882  1.00 20.00    -0.015 C 
ENDROOT
BRANCH   1   3
HETATM    3  C3  UNL     1     -31.615   8.637   0.804  1.00 20.00     0.141 C 
HETATM    4 CL5  UNL     1     -32.489  10.057   0.192  1.00 20.00    -0.126 Cl
ENDBRANCH   1   3
BRANCH   2   5
HETATM    5  C4  UNL     1     -33.604   6.115   3.004  1.00 20.00     0.141 C 
HETATM    6 CL6  UNL     1     -34.299   7.369   4.054  1.00 20.00    -0.126 Cl
ENDBRANCH   2   5
TORSDOF 2
ENDMDL
MODEL 4
REMARK VINA RESULT:      -2.3      1.509      4.193
REMARK  2 active torsions:
REMARK  status: ('A' for Active; 'I' for Inactive)
REMARK    1  A    between atoms: C1_1  and  C3_3 
REMARK    2  A    between atoms: C2_2  and  C4_4 
ROOT
HETATM    1  C1  UNL     1     -32.826   6.725   1.856  1.00 20.00    -0.015 C 
HETATM    2  C2  UNL     1     -32.380   7.989   1.900  1.00 20.00    -0.015 C 
ENDROOT
BRANCH   1   3
HETATM    3  C3  UNL     1     -33.582   6.075   2.968  1.00 20.00     0.141 C 
HETATM    4 CL5  UNL     1     -34.309   7.315   4.011  1.00 20.00    -0.126 Cl
ENDBRANCH   1   3
BRANCH   2   5
HETATM    5  C4  UNL     1     -31.608   8.634   0.797  1.00 20.00     0.141 C 
HETATM    6 CL6  UNL     1     -32.492  10.048   0.186  1.00 20.00    -0.126 Cl
ENDBRANCH   2   5
TORSDOF 2
ENDMDL
MODEL 5
REMARK VINA RESULT:      -2.1      1.045      4.110
REMARK  2 active torsions:
REMARK  status: ('A' for Active; 'I' for Inactive)
REMARK    1  A    between atoms: C1_1  and  C3_3 
REMARK    2  A    between atoms: C2_2  and  C4_4 
ROOT
HETATM    1  C1  UNL     1     -34.675   6.657   3.912  1.00 20.00    -0.015 C 
HETATM    2  C2  UNL     1     -33.533   6.749   3.216  1.00 20.00    -0.015 C 
ENDROOT
BRANCH   1   3
HETATM    3  C3  UNL     1     -35.302   5.360   4.307  1.00 20.00     0.141 C 
HETATM    4 CL5  UNL     1     -34.099   4.056   4.218  1.00 20.00    -0.126 Cl
ENDBRANCH   1   3
BRANCH   2   5
HETATM    5  C4  UNL     1     -32.917   8.045   2.804  1.00 20.00     0.141 C 
HETATM    6 CL6  UNL     1     -31.737   7.767   1.505  1.00 20.00    -0.126 Cl
ENDBRANCH   2   5
TORSDOF 2
ENDMDL
MODEL 6
REMARK VINA RESULT:      -1.9      2.943      3.615
REMARK  2 active torsions:
REMARK  status: ('A' for Active; 'I' for Inactive)
REMARK    1  A    between atoms: C1_1  and  C3_3 
REMARK    2  A    between atoms: C2_2  and  C4_4 
ROOT
HETATM    1  C1  UNL     1     -34.939   4.954   4.418  1.00 20.00    -0.015 C 
HETATM    2  C2  UNL     1     -33.883   4.281   3.941  1.00 20.00    -0.015 C 
ENDROOT
BRANCH   1   3
HETATM    3  C3  UNL     1     -35.362   6.295   3.915  1.00 20.00     0.141 C 
HETATM    4 CL5  UNL     1     -33.992   7.424   3.976  1.00 20.00    -0.126 Cl
ENDBRANCH   1   3
BRANCH   2   5
HETATM    5  C4  UNL     1     -33.448   2.949   4.456  1.00 20.00     0.141 C 
HETATM    6 CL6  UNL     1     -32.538   3.153   5.969  1.00 20.00    -0.126 Cl
ENDBRANCH   2   5
TORSDOF 2
ENDMDL
MODEL 7
REMARK VINA RESULT:      -1.9      2.919      4.430
REMARK  2 active torsions:
REMARK  status: ('A' for Active; 'I' for Inactive)
REMARK    1  A    between atoms: C1_1  and  C3_3 
REMARK    2  A    between atoms: C2_2  and  C4_4 
ROOT
HETATM    1  C1  UNL     1     -33.867   4.440   3.958  1.00 20.00    -0.015 C 
HETATM    2  C2  UNL     1     -35.001   5.052   4.324  1.00 20.00    -0.015 C 
ENDROOT
BRANCH   1   3
HETATM    3  C3  UNL     1     -33.494   3.059   4.391  1.00 20.00     0.141 C 
HETATM    4 CL5  UNL     1     -32.525   3.133   5.878  1.00 20.00    -0.126 Cl
ENDBRANCH   1   3
BRANCH   2   5
HETATM    5  C4  UNL     1     -35.365   6.439   3.907  1.00 20.00     0.141 C 
HETATM    6 CL6  UNL     1     -33.934   7.489   3.985  1.00 20.00    -0.126 Cl
ENDBRANCH   2   5
TORSDOF 2
ENDMDL
MODEL 8
REMARK VINA RESULT:      -1.8      1.504      3.902
REMARK  2 active torsions:
REMARK  status: ('A' for Active; 'I' for Inactive)
REMARK    1  A    between atoms: C1_1  and  C3_3 
REMARK    2  A    between atoms: C2_2  and  C4_4 
ROOT
HETATM    1  C1  UNL     1     -33.917   6.588   3.066  1.00 20.00    -0.015 C 
HETATM    2  C2  UNL     1     -33.083   7.597   2.781  1.00 20.00    -0.015 C 
ENDROOT
BRANCH   1   3
HETATM    3  C3  UNL     1     -35.011   6.679   4.079  1.00 20.00     0.141 C 
HETATM    4 CL5  UNL     1     -35.442   5.054   4.651  1.00 20.00    -0.126 Cl
ENDBRANCH   1   3
BRANCH   2   5
HETATM    5  C4  UNL     1     -31.977   7.501   1.783  1.00 20.00     0.141 C 
HETATM    6 CL6  UNL     1     -31.844   5.832   1.187  1.00 20.00    -0.126 Cl
ENDBRANCH   2   5
TORSDOF 2
ENDMDL
MODEL 9
REMARK VINA RESULT:      -1.8      1.504      1.504
REMARK  2 active torsions:
REMARK  status: ('A' for Active; 'I' for Inactive)
REMARK    1  A    between atoms: C1_1  and  C3_3 
REMARK    2  A    between atoms: C2_2  and  C4_4 
ROOT
HETATM    1  C1  UNL     1     -33.107   7.592   2.753  1.00 20.00    -0.015 C 
HETATM    2  C2  UNL     1     -33.885   6.556   3.097  1.00 20.00    -0.015 C 
ENDROOT
BRANCH   1   3
HETATM    3  C3  UNL     1     -31.984   7.495   1.773  1.00 20.00     0.141 C 
HETATM    4 CL5  UNL     1     -31.841   5.827   1.181  1.00 20.00    -0.126 Cl
ENDBRANCH   1   3
BRANCH   2   5
HETATM    5  C4  UNL     1     -34.995   6.648   4.092  1.00 20.00     0.141 C 
HETATM    6 CL6  UNL     1     -35.457   5.020   4.634  1.00 20.00    -0.126 Cl
ENDBRANCH   2   5
TORSDOF 2
ENDMDL
