MODEL 1
REMARK VINA RESULT:       0.7      0.000      0.000
REMARK  1 active torsions:
REMARK  status: ('A' for Active; 'I' for Inactive)
REMARK    1  A    between atoms: C7_7  and  C8_8 
ROOT
HETATM    1  C1  UNL     1     -35.394   6.753   3.011  1.00 20.00     0.015 C 
HETATM    2  C2  UNL     1     -33.847   5.033   3.921  1.00 20.00     0.015 C 
HETATM    3  C3  UNL     1     -33.396   7.446   4.317  1.00 20.00     0.015 C 
HETATM    4  C7  UNL     1     -33.900   6.433   3.262  1.00 20.00    -0.045 C 
ENDROOT
BRANCH   4   5
HETATM    5  C8  UNL     1     -33.042   6.494   1.916  1.00 20.00    -0.045 C 
HETATM    6  C4  UNL     1     -33.933   6.392   0.655  1.00 20.00     0.015 C 
HETATM    7  C5  UNL     1     -32.012   5.341   1.833  1.00 20.00     0.015 C 
HETATM    8  C6  UNL     1     -32.245   7.816   1.796  1.00 20.00     0.015 C 
ENDBRANCH   4   5
TORSDOF 1
ENDMDL
MODEL 2
REMARK VINA RESULT:       0.7      0.001      1.522
REMARK  1 active torsions:
REMARK  status: ('A' for Active; 'I' for Inactive)
REMARK    1  A    between atoms: C7_7  and  C8_8 
ROOT
HETATM    1  C1  UNL     1     -35.394   6.754   3.010  1.00 20.00     0.015 C 
HETATM    2  C2  UNL     1     -33.848   5.033   3.921  1.00 20.00     0.015 C 
HETATM    3  C3  UNL     1     -33.397   7.446   4.317  1.00 20.00     0.015 C 
HETATM    4  C7  UNL     1     -33.900   6.433   3.262  1.00 20.00    -0.045 C 
ENDROOT
BRANCH   4   5
HETATM    5  C8  UNL     1     -33.042   6.493   1.916  1.00 20.00    -0.045 C 
HETATM    6  C4  UNL     1     -32.014   5.340   1.832  1.00 20.00     0.015 C 
HETATM    7  C5  UNL     1     -32.244   7.815   1.797  1.00 20.00     0.015 C 
HETATM    8  C6  UNL     1     -33.933   6.393   0.655  1.00 20.00     0.015 C 
ENDBRANCH   4   5
TORSDOF 1
ENDMDL
MODEL 3
REMARK VINA RESULT:       0.7      0.017      3.070
REMARK  1 active torsions:
REMARK  status: ('A' for Active; 'I' for Inactive)
REMARK    1  A    between atoms: C7_7  and  C8_8 
ROOT
HETATM    1  C1  UNL     1     -33.932   6.416   0.650  1.00 20.00     0.015 C 
HETATM    2  C2  UNL     1     -32.222   7.803   1.804  1.00 20.00     0.015 C 
HETATM    3  C3  UNL     1     -32.031   5.324   1.821  1.00 20.00     0.015 C 
HETATM    4  C7  UNL     1     -33.040   6.493   1.913  1.00 20.00    -0.045 C 
ENDROOT
BRANCH   4   5
HETATM    5  C8  UNL     1     -33.902   6.436   3.256  1.00 20.00    -0.045 C 
HETATM    6  C4  UNL     1     -35.395   6.754   3.001  1.00 20.00     0.015 C 
HETATM    7  C5  UNL     1     -33.400   7.452   4.311  1.00 20.00     0.015 C 
HETATM    8  C6  UNL     1     -33.849   5.038   3.920  1.00 20.00     0.015 C 
ENDBRANCH   4   5
TORSDOF 1
ENDMDL
MODEL 4
REMARK VINA RESULT:       0.7      0.017      2.153
REMARK  1 active torsions:
REMARK  status: ('A' for Active; 'I' for Inactive)
REMARK    1  A    between atoms: C7_7  and  C8_8 
ROOT
HETATM    1  C1  UNL     1     -33.382   7.446   4.303  1.00 20.00     0.015 C 
HETATM    2  C2  UNL     1     -35.384   6.754   3.002  1.00 20.00     0.015 C 
HETATM    3  C3  UNL     1     -33.837   5.034   3.914  1.00 20.00     0.015 C 
HETATM    4  C7  UNL     1     -33.890   6.431   3.250  1.00 20.00    -0.045 C 
ENDROOT
BRANCH   4   5
HETATM    5  C8  UNL     1     -33.033   6.487   1.904  1.00 20.00    -0.045 C 
HETATM    6  C4  UNL     1     -32.006   5.333   1.822  1.00 20.00     0.015 C 
HETATM    7  C5  UNL     1     -32.236   7.808   1.779  1.00 20.00     0.015 C 
HETATM    8  C6  UNL     1     -33.926   6.383   0.644  1.00 20.00     0.015 C 
ENDBRANCH   4   5
TORSDOF 1
ENDMDL
MODEL 5
REMARK VINA RESULT:       0.7      0.017      3.070
REMARK  1 active torsions:
REMARK  status: ('A' for Active; 'I' for Inactive)
REMARK    1  A    between atoms: C7_7  and  C8_8 
ROOT
HETATM    1  C1  UNL     1     -33.932   6.414   0.651  1.00 20.00     0.015 C 
HETATM    2  C2  UNL     1     -32.223   7.803   1.805  1.00 20.00     0.015 C 
HETATM    3  C3  UNL     1     -32.031   5.325   1.824  1.00 20.00     0.015 C 
HETATM    4  C7  UNL     1     -33.041   6.493   1.914  1.00 20.00    -0.045 C 
ENDROOT
BRANCH   4   5
HETATM    5  C8  UNL     1     -33.903   6.436   3.257  1.00 20.00    -0.045 C 
HETATM    6  C4  UNL     1     -33.402   7.452   4.312  1.00 20.00     0.015 C 
HETATM    7  C5  UNL     1     -33.852   5.038   3.920  1.00 20.00     0.015 C 
HETATM    8  C6  UNL     1     -35.396   6.756   3.002  1.00 20.00     0.015 C 
ENDBRANCH   4   5
TORSDOF 1
ENDMDL
MODEL 6
REMARK VINA RESULT:       0.7      0.024      3.070
REMARK  1 active torsions:
REMARK  status: ('A' for Active; 'I' for Inactive)
REMARK    1  A    between atoms: C7_7  and  C8_8 
ROOT
HETATM    1  C1  UNL     1     -33.930   6.417   0.651  1.00 20.00     0.015 C 
HETATM    2  C2  UNL     1     -32.216   7.795   1.810  1.00 20.00     0.015 C 
HETATM    3  C3  UNL     1     -32.036   5.315   1.824  1.00 20.00     0.015 C 
HETATM    4  C7  UNL     1     -33.040   6.489   1.916  1.00 20.00    -0.045 C 
ENDROOT
BRANCH   4   5
HETATM    5  C8  UNL     1     -33.904   6.433   3.258  1.00 20.00    -0.045 C 
HETATM    6  C4  UNL     1     -33.844   5.040   3.929  1.00 20.00     0.015 C 
HETATM    7  C5  UNL     1     -35.399   6.742   2.998  1.00 20.00     0.015 C 
HETATM    8  C6  UNL     1     -33.411   7.458   4.308  1.00 20.00     0.015 C 
ENDBRANCH   4   5
TORSDOF 1
ENDMDL
MODEL 7
REMARK VINA RESULT:       0.7      0.001      1.522
REMARK  1 active torsions:
REMARK  status: ('A' for Active; 'I' for Inactive)
REMARK    1  A    between atoms: C7_7  and  C8_8 
ROOT
HETATM    1  C1  UNL     1     -35.394   6.752   3.010  1.00 20.00     0.015 C 
HETATM    2  C2  UNL     1     -33.846   5.034   3.921  1.00 20.00     0.015 C 
HETATM    3  C3  UNL     1     -33.397   7.447   4.317  1.00 20.00     0.015 C 
HETATM    4  C7  UNL     1     -33.900   6.433   3.261  1.00 20.00    -0.045 C 
ENDROOT
BRANCH   4   5
HETATM    5  C8  UNL     1     -33.041   6.495   1.916  1.00 20.00    -0.045 C 
HETATM    6  C4  UNL     1     -32.244   7.816   1.797  1.00 20.00     0.015 C 
HETATM    7  C5  UNL     1     -33.932   6.392   0.655  1.00 20.00     0.015 C 
HETATM    8  C6  UNL     1     -32.012   5.342   1.832  1.00 20.00     0.015 C 
ENDBRANCH   4   5
TORSDOF 1
ENDMDL
MODEL 8
REMARK VINA RESULT:       0.7      0.013      2.152
REMARK  1 active torsions:
REMARK  status: ('A' for Active; 'I' for Inactive)
REMARK    1  A    between atoms: C7_7  and  C8_8 
ROOT
HETATM    1  C1  UNL     1     -33.389   7.448   4.304  1.00 20.00     0.015 C 
HETATM    2  C2  UNL     1     -35.388   6.750   3.002  1.00 20.00     0.015 C 
HETATM    3  C3  UNL     1     -33.839   5.034   3.916  1.00 20.00     0.015 C 
HETATM    4  C7  UNL     1     -33.894   6.430   3.252  1.00 20.00    -0.045 C 
ENDROOT
BRANCH   4   5
HETATM    5  C8  UNL     1     -33.036   6.488   1.906  1.00 20.00    -0.045 C 
HETATM    6  C4  UNL     1     -32.237   7.807   1.784  1.00 20.00     0.015 C 
HETATM    7  C5  UNL     1     -33.929   6.384   0.646  1.00 20.00     0.015 C 
HETATM    8  C6  UNL     1     -32.010   5.332   1.824  1.00 20.00     0.015 C 
ENDBRANCH   4   5
TORSDOF 1
ENDMDL
MODEL 9
REMARK VINA RESULT:       0.7      0.008      3.070
REMARK  1 active torsions:
REMARK  status: ('A' for Active; 'I' for Inactive)
REMARK    1  A    between atoms: C7_7  and  C8_8 
ROOT
HETATM    1  C1  UNL     1     -32.003   5.349   1.835  1.00 20.00     0.015 C 
HETATM    2  C2  UNL     1     -33.925   6.389   0.650  1.00 20.00     0.015 C 
HETATM    3  C3  UNL     1     -32.246   7.822   1.794  1.00 20.00     0.015 C 
HETATM    4  C7  UNL     1     -33.038   6.498   1.914  1.00 20.00    -0.045 C 
ENDROOT
BRANCH   4   5
HETATM    5  C8  UNL     1     -33.899   6.435   3.257  1.00 20.00    -0.045 C 
HETATM    6  C4  UNL     1     -33.398   7.447   4.315  1.00 20.00     0.015 C 
HETATM    7  C5  UNL     1     -33.845   5.034   3.915  1.00 20.00     0.015 C 
HETATM    8  C6  UNL     1     -35.392   6.753   3.004  1.00 20.00     0.015 C 
ENDBRANCH   4   5
TORSDOF 1
ENDMDL
