MODEL 1
REMARK VINA RESULT:       2.5      0.000      0.000
REMARK  0 active torsions:
REMARK  status: ('A' for Active; 'I' for Inactive)
ROOT
HETATM    1  C1  UNL     1     -32.266   8.124   1.937  1.00 20.00     0.064 C 
HETATM    2  C2  UNL     1     -34.471   5.332   4.383  1.00 20.00     0.005 C 
HETATM    3  C3  UNL     1     -35.609   6.731   2.651  1.00 20.00     0.005 C 
HETATM    4  C4  UNL     1     -33.525   4.785   3.304  1.00 20.00     0.006 C 
HETATM    5  C5  UNL     1     -34.640   6.201   1.585  1.00 20.00     0.006 C 
HETATM    6  C6  UNL     1     -33.684   7.669   3.936  1.00 20.00     0.024 C 
HETATM    7  C7  UNL     1     -32.676   7.100   2.916  1.00 20.00     0.097 C 
HETATM    8  C8  UNL     1     -34.923   6.758   4.027  1.00 20.00    -0.013 C 
HETATM    9  C9  UNL     1     -33.279   5.856   2.224  1.00 20.00     0.003 C 
HETATM   10  N10 UNL     1     -31.945   8.928   1.166  1.00 20.00    -0.197 NA
ENDROOT
TORSDOF 0
ENDMDL
MODEL 2
REMARK VINA RESULT:       2.9      2.234      3.650
REMARK  0 active torsions:
REMARK  status: ('A' for Active; 'I' for Inactive)
ROOT
HETATM    1  C1  UNL     1     -34.146   5.259   3.554  1.00 20.00     0.064 C 
HETATM    2  C2  UNL     1     -32.673   8.506   1.120  1.00 20.00     0.005 C 
HETATM    3  C3  UNL     1     -31.114   6.893   2.226  1.00 20.00     0.005 C 
HETATM    4  C4  UNL     1     -33.385   7.330   0.435  1.00 20.00     0.006 C 
HETATM    5  C5  UNL     1     -31.851   5.723   1.561  1.00 20.00     0.006 C 
HETATM    6  C6  UNL     1     -33.225   7.568   3.378  1.00 20.00     0.024 C 
HETATM    7  C7  UNL     1     -34.012   6.439   2.681  1.00 20.00     0.097 C 
HETATM    8  C8  UNL     1     -32.083   8.062   2.469  1.00 20.00    -0.013 C 
HETATM    9  C9  UNL     1     -33.334   6.082   1.337  1.00 20.00     0.003 C 
HETATM   10  N10 UNL     1     -34.250   4.330   4.240  1.00 20.00    -0.197 NA
ENDROOT
TORSDOF 0
ENDMDL
MODEL 3
REMARK VINA RESULT:       3.0      1.454      2.886
REMARK  0 active torsions:
REMARK  status: ('A' for Active; 'I' for Inactive)
ROOT
HETATM    1  C1  UNL     1     -32.545   9.372   0.359  1.00 20.00     0.064 C 
HETATM    2  C2  UNL     1     -33.668   6.092   2.931  1.00 20.00     0.005 C 
HETATM    3  C3  UNL     1     -31.546   6.045   1.609  1.00 20.00     0.005 C 
HETATM    4  C4  UNL     1     -33.228   7.417   3.570  1.00 20.00     0.006 C 
HETATM    5  C5  UNL     1     -31.128   7.385   2.230  1.00 20.00     0.006 C 
HETATM    6  C6  UNL     1     -33.584   7.125   0.649  1.00 20.00     0.024 C 
HETATM    7  C7  UNL     1     -33.227   8.474   1.308  1.00 20.00     0.097 C 
HETATM    8  C8  UNL     1     -33.079   5.957   1.517  1.00 20.00    -0.013 C 
HETATM    9  C9  UNL     1     -32.374   8.227   2.575  1.00 20.00     0.003 C 
HETATM   10  N10 UNL     1     -32.007  10.078  -0.388  1.00 20.00    -0.197 NA
ENDROOT
TORSDOF 0
ENDMDL
MODEL 4
REMARK VINA RESULT:       3.6      2.170      3.480
REMARK  0 active torsions:
REMARK  status: ('A' for Active; 'I' for Inactive)
ROOT
HETATM    1  C1  UNL     1     -34.737   6.298   3.792  1.00 20.00     0.064 C 
HETATM    2  C2  UNL     1     -31.153   6.379   1.387  1.00 20.00     0.005 C 
HETATM    3  C3  UNL     1     -33.288   5.413   0.515  1.00 20.00     0.005 C 
HETATM    4  C4  UNL     1     -31.883   7.701   1.675  1.00 20.00     0.006 C 
HETATM    5  C5  UNL     1     -34.015   6.726   0.834  1.00 20.00     0.006 C 
HETATM    6  C6  UNL     1     -32.700   5.150   2.928  1.00 20.00     0.024 C 
HETATM    7  C7  UNL     1     -33.370   6.495   3.277  1.00 20.00     0.097 C 
HETATM    8  C8  UNL     1     -32.127   5.194   1.499  1.00 20.00    -0.013 C 
HETATM    9  C9  UNL     1     -33.354   7.424   2.040  1.00 20.00     0.003 C 
HETATM   10  N10 UNL     1     -35.813   6.142   4.196  1.00 20.00    -0.197 NA
ENDROOT
TORSDOF 0
ENDMDL
MODEL 5
REMARK VINA RESULT:       3.6      2.477      3.533
REMARK  0 active torsions:
REMARK  status: ('A' for Active; 'I' for Inactive)
ROOT
HETATM    1  C1  UNL     1     -33.395   3.691   4.508  1.00 20.00     0.064 C 
HETATM    2  C2  UNL     1     -35.506   6.929   2.587  1.00 20.00     0.005 C 
HETATM    3  C3  UNL     1     -33.982   7.335   4.527  1.00 20.00     0.005 C 
HETATM    4  C4  UNL     1     -34.351   6.249   1.836  1.00 20.00     0.006 C 
HETATM    5  C5  UNL     1     -32.842   6.627   3.781  1.00 20.00     0.006 C 
HETATM    6  C6  UNL     1     -35.343   5.243   4.434  1.00 20.00     0.024 C 
HETATM    7  C7  UNL     1     -34.244   4.517   3.631  1.00 20.00     0.097 C 
HETATM    8  C8  UNL     1     -35.339   6.748   4.105  1.00 20.00    -0.013 C 
HETATM    9  C9  UNL     1     -33.411   5.549   2.836  1.00 20.00     0.003 C 
HETATM   10  N10 UNL     1     -32.726   3.042   5.198  1.00 20.00    -0.197 NA
ENDROOT
TORSDOF 0
ENDMDL
MODEL 6
REMARK VINA RESULT:       3.7      0.959      2.237
REMARK  0 active torsions:
REMARK  status: ('A' for Active; 'I' for Inactive)
ROOT
HETATM    1  C1  UNL     1     -32.332   7.478   1.642  1.00 20.00     0.064 C 
HETATM    2  C2  UNL     1     -35.443   5.625   3.994  1.00 20.00     0.005 C 
HETATM    3  C3  UNL     1     -33.450   6.685   5.070  1.00 20.00     0.005 C 
HETATM    4  C4  UNL     1     -35.746   6.950   3.277  1.00 20.00     0.006 C 
HETATM    5  C5  UNL     1     -33.743   7.994   4.325  1.00 20.00     0.006 C 
HETATM    6  C6  UNL     1     -33.199   5.499   2.885  1.00 20.00     0.024 C 
HETATM    7  C7  UNL     1     -33.548   6.783   2.104  1.00 20.00     0.097 C 
HETATM    8  C8  UNL     1     -33.932   5.483   4.240  1.00 20.00    -0.013 C 
HETATM    9  C9  UNL     1     -34.434   7.701   2.978  1.00 20.00     0.003 C 
HETATM   10  N10 UNL     1     -31.377   8.025   1.279  1.00 20.00    -0.197 NA
ENDROOT
TORSDOF 0
ENDMDL
MODEL 7
REMARK VINA RESULT:       3.8      2.369      3.639
REMARK  0 active torsions:
REMARK  status: ('A' for Active; 'I' for Inactive)
ROOT
HETATM    1  C1  UNL     1     -33.582   4.260   3.974  1.00 20.00     0.064 C 
HETATM    2  C2  UNL     1     -32.112   7.653   1.744  1.00 20.00     0.005 C 
HETATM    3  C3  UNL     1     -34.131   6.379   1.001  1.00 20.00     0.005 C 
HETATM    4  C4  UNL     1     -32.780   7.894   3.107  1.00 20.00     0.006 C 
HETATM    5  C5  UNL     1     -34.778   6.600   2.376  1.00 20.00     0.006 C 
HETATM    6  C6  UNL     1     -32.233   5.173   2.087  1.00 20.00     0.024 C 
HETATM    7  C7  UNL     1     -32.822   5.428   3.490  1.00 20.00     0.097 C 
HETATM    8  C8  UNL     1     -32.601   6.328   1.136  1.00 20.00    -0.013 C 
HETATM    9  C9  UNL     1     -33.692   6.706   3.467  1.00 20.00     0.003 C 
HETATM   10  N10 UNL     1     -34.180   3.343   4.354  1.00 20.00    -0.197 NA
ENDROOT
TORSDOF 0
ENDMDL
MODEL 8
REMARK VINA RESULT:       3.8      2.088      3.727
REMARK  0 active torsions:
REMARK  status: ('A' for Active; 'I' for Inactive)
ROOT
HETATM    1  C1  UNL     1     -34.555   6.529   3.535  1.00 20.00     0.064 C 
HETATM    2  C2  UNL     1     -30.819   7.905   1.865  1.00 20.00     0.005 C 
HETATM    3  C3  UNL     1     -33.017   8.599   0.895  1.00 20.00     0.005 C 
HETATM    4  C4  UNL     1     -31.265   8.448   3.232  1.00 20.00     0.006 C 
HETATM    5  C5  UNL     1     -33.464   9.111   2.271  1.00 20.00     0.006 C 
HETATM    6  C6  UNL     1     -32.745   6.302   1.837  1.00 20.00     0.024 C 
HETATM    7  C7  UNL     1     -33.134   6.792   3.247  1.00 20.00     0.097 C 
HETATM    8  C8  UNL     1     -32.037   7.425   1.057  1.00 20.00    -0.013 C 
HETATM    9  C9  UNL     1     -32.789   8.293   3.391  1.00 20.00     0.003 C 
HETATM   10  N10 UNL     1     -35.673   6.323   3.762  1.00 20.00    -0.197 NA
ENDROOT
TORSDOF 0
ENDMDL
MODEL 9
REMARK VINA RESULT:       4.3      1.881      3.213
REMARK  0 active torsions:
REMARK  status: ('A' for Active; 'I' for Inactive)
ROOT
HETATM    1  C1  UNL     1     -32.061   5.574   1.487  1.00 20.00     0.064 C 
HETATM    2  C2  UNL     1     -34.344   8.917   2.985  1.00 20.00     0.005 C 
HETATM    3  C3  UNL     1     -32.469   7.922   4.305  1.00 20.00     0.005 C 
HETATM    4  C4  UNL     1     -33.381   9.145   1.810  1.00 20.00     0.006 C 
HETATM    5  C5  UNL     1     -31.521   8.126   3.115  1.00 20.00     0.006 C 
HETATM    6  C6  UNL     1     -33.917   6.449   2.901  1.00 20.00     0.024 C 
HETATM    7  C7  UNL     1     -33.020   6.679   1.667  1.00 20.00     0.097 C 
HETATM    8  C8  UNL     1     -33.906   7.695   3.808  1.00 20.00    -0.013 C 
HETATM    9  C9  UNL     1     -32.304   8.044   1.789  1.00 20.00     0.003 C 
HETATM   10  N10 UNL     1     -31.306   4.705   1.346  1.00 20.00    -0.197 NA
ENDROOT
TORSDOF 0
ENDMDL
