MODEL 1
REMARK VINA RESULT:      -0.1      0.000      0.000
REMARK  1 active torsions:
REMARK  status: ('A' for Active; 'I' for Inactive)
REMARK    1  A    between atoms: C5_5  and  S6_6 
ROOT
HETATM    1  C1  UNL     1     -35.722   6.826   3.089  1.00 20.00     0.026 C 
HETATM    2  C2  UNL     1     -34.311   5.077   4.215  1.00 20.00     0.026 C 
HETATM    3  C3  UNL     1     -33.702   7.507   4.423  1.00 20.00     0.026 C 
HETATM    4  C5  UNL     1     -34.302   6.436   3.508  1.00 20.00    -0.003 C 
ENDROOT
BRANCH   4   5
HETATM    5  S6  UNL     1     -33.262   6.298   2.003  1.00 20.00    -0.165 SA
HETATM    6  C4  UNL     1     -32.349   7.842   2.195  1.00 20.00     0.090 C 
ENDBRANCH   4   5
TORSDOF 1
ENDMDL
MODEL 2
REMARK VINA RESULT:      -0.1      0.053      1.791
REMARK  1 active torsions:
REMARK  status: ('A' for Active; 'I' for Inactive)
REMARK    1  A    between atoms: C5_5  and  S6_6 
ROOT
HETATM    1  C1  UNL     1     -34.229   5.062   4.228  1.00 20.00     0.026 C 
HETATM    2  C2  UNL     1     -33.673   7.507   4.397  1.00 20.00     0.026 C 
HETATM    3  C3  UNL     1     -35.716   6.767   3.132  1.00 20.00     0.026 C 
HETATM    4  C5  UNL     1     -34.275   6.413   3.510  1.00 20.00    -0.003 C 
ENDROOT
BRANCH   4   5
HETATM    5  S6  UNL     1     -33.276   6.298   1.976  1.00 20.00    -0.165 SA
HETATM    6  C4  UNL     1     -32.333   7.823   2.185  1.00 20.00     0.090 C 
ENDBRANCH   4   5
TORSDOF 1
ENDMDL
MODEL 3
REMARK VINA RESULT:      -0.1      0.036      1.765
REMARK  1 active torsions:
REMARK  status: ('A' for Active; 'I' for Inactive)
REMARK    1  A    between atoms: C5_5  and  S6_6 
ROOT
HETATM    1  C1  UNL     1     -33.700   7.514   4.409  1.00 20.00     0.026 C 
HETATM    2  C2  UNL     1     -35.725   6.778   3.116  1.00 20.00     0.026 C 
HETATM    3  C3  UNL     1     -34.261   5.069   4.236  1.00 20.00     0.026 C 
HETATM    4  C5  UNL     1     -34.291   6.420   3.516  1.00 20.00    -0.003 C 
ENDROOT
BRANCH   4   5
HETATM    5  S6  UNL     1     -33.280   6.297   1.990  1.00 20.00    -0.165 SA
HETATM    6  C4  UNL     1     -32.340   7.824   2.196  1.00 20.00     0.090 C 
ENDBRANCH   4   5
TORSDOF 1
ENDMDL
MODEL 4
REMARK VINA RESULT:       0.3      1.894      3.101
REMARK  1 active torsions:
REMARK  status: ('A' for Active; 'I' for Inactive)
REMARK    1  A    between atoms: C5_5  and  S6_6 
ROOT
HETATM    1  C1  UNL     1     -33.764   6.113   0.484  1.00 20.00     0.026 C 
HETATM    2  C2  UNL     1     -32.297   7.622   1.858  1.00 20.00     0.026 C 
HETATM    3  C3  UNL     1     -31.695   5.197   1.581  1.00 20.00     0.026 C 
HETATM    4  C5  UNL     1     -32.846   6.200   1.705  1.00 20.00    -0.003 C 
ENDROOT
BRANCH   4   5
HETATM    5  S6  UNL     1     -33.821   5.794   3.205  1.00 20.00    -0.165 SA
HETATM    6  C4  UNL     1     -34.008   7.474   3.837  1.00 20.00     0.090 C 
ENDBRANCH   4   5
TORSDOF 1
ENDMDL
MODEL 5
REMARK VINA RESULT:       0.3      1.887      3.120
REMARK  1 active torsions:
REMARK  status: ('A' for Active; 'I' for Inactive)
REMARK    1  A    between atoms: C5_5  and  S6_6 
ROOT
HETATM    1  C1  UNL     1     -32.254   7.621   1.863  1.00 20.00     0.026 C 
HETATM    2  C2  UNL     1     -31.706   5.188   1.558  1.00 20.00     0.026 C 
HETATM    3  C3  UNL     1     -33.756   6.159   0.475  1.00 20.00     0.026 C 
HETATM    4  C5  UNL     1     -32.834   6.214   1.696  1.00 20.00    -0.003 C 
ENDROOT
BRANCH   4   5
HETATM    5  S6  UNL     1     -33.812   5.800   3.192  1.00 20.00    -0.165 SA
HETATM    6  C4  UNL     1     -34.004   7.478   3.830  1.00 20.00     0.090 C 
ENDBRANCH   4   5
TORSDOF 1
ENDMDL
MODEL 6
REMARK VINA RESULT:       0.3      1.891      3.120
REMARK  1 active torsions:
REMARK  status: ('A' for Active; 'I' for Inactive)
REMARK    1  A    between atoms: C5_5  and  S6_6 
ROOT
HETATM    1  C1  UNL     1     -31.716   5.184   1.510  1.00 20.00     0.026 C 
HETATM    2  C2  UNL     1     -33.783   6.178   0.483  1.00 20.00     0.026 C 
HETATM    3  C3  UNL     1     -32.251   7.616   1.862  1.00 20.00     0.026 C 
HETATM    4  C5  UNL     1     -32.837   6.212   1.686  1.00 20.00    -0.003 C 
ENDROOT
BRANCH   4   5
HETATM    5  S6  UNL     1     -33.797   5.783   3.189  1.00 20.00    -0.165 SA
HETATM    6  C4  UNL     1     -34.024   7.459   3.820  1.00 20.00     0.090 C 
ENDBRANCH   4   5
TORSDOF 1
ENDMDL
MODEL 7
REMARK VINA RESULT:       0.4      1.482      3.458
REMARK  1 active torsions:
REMARK  status: ('A' for Active; 'I' for Inactive)
REMARK    1  A    between atoms: C5_5  and  S6_6 
ROOT
HETATM    1  C1  UNL     1     -31.029   8.246   2.780  1.00 20.00     0.026 C 
HETATM    2  C2  UNL     1     -32.275   6.470   1.510  1.00 20.00     0.026 C 
HETATM    3  C3  UNL     1     -32.696   8.899   1.014  1.00 20.00     0.026 C 
HETATM    4  C5  UNL     1     -32.354   7.880   2.104  1.00 20.00    -0.003 C 
ENDROOT
BRANCH   4   5
HETATM    5  S6  UNL     1     -33.684   7.900   3.367  1.00 20.00    -0.165 SA
HETATM    6  C4  UNL     1     -34.074   6.138   3.339  1.00 20.00     0.090 C 
ENDBRANCH   4   5
TORSDOF 1
ENDMDL
MODEL 8
REMARK VINA RESULT:       0.5      1.485      3.472
REMARK  1 active torsions:
REMARK  status: ('A' for Active; 'I' for Inactive)
REMARK    1  A    between atoms: C5_5  and  S6_6 
ROOT
HETATM    1  C1  UNL     1     -32.676   8.937   1.034  1.00 20.00     0.026 C 
HETATM    2  C2  UNL     1     -31.009   8.246   2.783  1.00 20.00     0.026 C 
HETATM    3  C3  UNL     1     -32.273   6.497   1.492  1.00 20.00     0.026 C 
HETATM    4  C5  UNL     1     -32.339   7.898   2.107  1.00 20.00    -0.003 C 
ENDROOT
BRANCH   4   5
HETATM    5  S6  UNL     1     -33.658   7.919   3.381  1.00 20.00    -0.165 SA
HETATM    6  C4  UNL     1     -34.055   6.159   3.351  1.00 20.00     0.090 C 
ENDBRANCH   4   5
TORSDOF 1
ENDMDL
MODEL 9
REMARK VINA RESULT:       0.6      1.779      2.772
REMARK  1 active torsions:
REMARK  status: ('A' for Active; 'I' for Inactive)
REMARK    1  A    between atoms: C5_5  and  S6_6 
ROOT
HETATM    1  C1  UNL     1     -33.574   6.019   2.580  1.00 20.00     0.026 C 
HETATM    2  C2  UNL     1     -35.869   6.946   3.015  1.00 20.00     0.026 C 
HETATM    3  C3  UNL     1     -33.971   7.515   4.561  1.00 20.00     0.026 C 
HETATM    4  C5  UNL     1     -34.576   6.436   3.659  1.00 20.00    -0.003 C 
ENDROOT
BRANCH   4   5
HETATM    5  S6  UNL     1     -34.980   4.970   4.685  1.00 20.00    -0.165 SA
HETATM    6  C4  UNL     1     -33.723   3.857   4.025  1.00 20.00     0.090 C 
ENDBRANCH   4   5
TORSDOF 1
ENDMDL
