MODEL 1
REMARK VINA RESULT:      -0.6      0.000      0.000
REMARK  1 active torsions:
REMARK  status: ('A' for Active; 'I' for Inactive)
REMARK    1  A    between atoms: C4_4  and  C9_9 
ROOT
HETATM    1  C1  UNL     1     -34.909   5.225   4.410  1.00 20.00    -0.025 C 
HETATM    2  C2  UNL     1     -33.924   4.829   3.590  1.00 20.00    -0.025 C 
HETATM    3  C5  UNL     1     -35.087   6.491   2.487  1.00 20.00     0.017 C 
HETATM    4  C6  UNL     1     -34.145   7.582   4.374  1.00 20.00     0.017 C 
HETATM    5  C7  UNL     1     -35.301   6.626   3.997  1.00 20.00     0.009 C 
HETATM    6  C8  UNL     1     -33.650   5.972   2.639  1.00 20.00     0.016 C 
HETATM    7  C9  UNL     1     -32.986   7.095   3.465  1.00 20.00     0.015 C 
ENDROOT
BRANCH   7   8
HETATM    8  C4  UNL     1     -32.435   8.193   2.609  1.00 20.00    -0.031 C 
HETATM    9  C3  UNL     1     -31.837   7.993   1.430  1.00 20.00     0.007 C 
ENDBRANCH   7   8
TORSDOF 1
ENDMDL
MODEL 2
REMARK VINA RESULT:      -0.3      1.109      3.486
REMARK  1 active torsions:
REMARK  status: ('A' for Active; 'I' for Inactive)
REMARK    1  A    between atoms: C4_4  and  C9_9 
ROOT
HETATM    1  C1  UNL     1     -31.447   6.801   1.518  1.00 20.00    -0.025 C 
HETATM    2  C2  UNL     1     -31.974   7.939   1.996  1.00 20.00    -0.025 C 
HETATM    3  C5  UNL     1     -33.701   6.758   1.020  1.00 20.00     0.017 C 
HETATM    4  C6  UNL     1     -33.004   5.394   2.834  1.00 20.00     0.017 C 
HETATM    5  C7  UNL     1     -32.573   5.799   1.405  1.00 20.00     0.009 C 
HETATM    6  C8  UNL     1     -33.449   7.689   2.215  1.00 20.00     0.016 C 
HETATM    7  C9  UNL     1     -33.567   6.719   3.411  1.00 20.00     0.015 C 
ENDROOT
BRANCH   7   8
HETATM    8  C4  UNL     1     -34.976   6.575   3.899  1.00 20.00    -0.031 C 
HETATM    9  C3  UNL     1     -35.475   5.450   4.421  1.00 20.00     0.007 C 
ENDBRANCH   7   8
TORSDOF 1
ENDMDL
MODEL 3
REMARK VINA RESULT:      -0.1      0.934      1.949
REMARK  1 active torsions:
REMARK  status: ('A' for Active; 'I' for Inactive)
REMARK    1  A    between atoms: C4_4  and  C9_9 
ROOT
HETATM    1  C1  UNL     1     -35.370   5.894   3.871  1.00 20.00    -0.025 C 
HETATM    2  C2  UNL     1     -35.494   7.145   3.403  1.00 20.00    -0.025 C 
HETATM    3  C5  UNL     1     -33.480   7.045   4.527  1.00 20.00     0.017 C 
HETATM    4  C6  UNL     1     -33.213   5.549   2.703  1.00 20.00     0.017 C 
HETATM    5  C7  UNL     1     -33.896   5.640   4.087  1.00 20.00     0.009 C 
HETATM    6  C8  UNL     1     -34.099   7.720   3.294  1.00 20.00     0.016 C 
HETATM    7  C9  UNL     1     -33.398   6.980   2.134  1.00 20.00     0.015 C 
ENDROOT
BRANCH   7   8
HETATM    8  C4  UNL     1     -32.096   7.614   1.751  1.00 20.00    -0.031 C 
HETATM    9  C3  UNL     1     -31.993   8.772   1.090  1.00 20.00     0.007 C 
ENDBRANCH   7   8
TORSDOF 1
ENDMDL
MODEL 4
REMARK VINA RESULT:       0.1      1.163      3.388
REMARK  1 active torsions:
REMARK  status: ('A' for Active; 'I' for Inactive)
REMARK    1  A    between atoms: C4_4  and  C9_9 
ROOT
HETATM    1  C1  UNL     1     -33.492   7.999   3.249  1.00 20.00    -0.025 C 
HETATM    2  C2  UNL     1     -33.858   7.637   4.488  1.00 20.00    -0.025 C 
HETATM    3  C5  UNL     1     -35.264   6.536   3.026  1.00 20.00     0.017 C 
HETATM    4  C6  UNL     1     -33.111   5.652   2.554  1.00 20.00     0.017 C 
HETATM    5  C7  UNL     1     -33.967   6.916   2.307  1.00 20.00     0.009 C 
HETATM    6  C8  UNL     1     -34.564   6.305   4.373  1.00 20.00     0.016 C 
HETATM    7  C9  UNL     1     -33.491   5.258   4.005  1.00 20.00     0.015 C 
ENDROOT
BRANCH   7   8
HETATM    8  C4  UNL     1     -34.001   3.853   4.099  1.00 20.00    -0.031 C 
HETATM    9  C3  UNL     1     -33.316   2.843   4.647  1.00 20.00     0.007 C 
ENDBRANCH   7   8
TORSDOF 1
ENDMDL
MODEL 5
REMARK VINA RESULT:       0.1      1.157      3.734
REMARK  1 active torsions:
REMARK  status: ('A' for Active; 'I' for Inactive)
REMARK    1  A    between atoms: C4_4  and  C9_9 
ROOT
HETATM    1  C1  UNL     1     -31.952   8.870   1.073  1.00 20.00    -0.025 C 
HETATM    2  C2  UNL     1     -32.982   8.179   0.563  1.00 20.00    -0.025 C 
HETATM    3  C5  UNL     1     -31.683   6.676   1.738  1.00 20.00     0.017 C 
HETATM    4  C6  UNL     1     -32.489   8.178   3.390  1.00 20.00     0.017 C 
HETATM    5  C7  UNL     1     -31.435   8.093   2.262  1.00 20.00     0.009 C 
HETATM    6  C8  UNL     1     -33.160   6.946   1.421  1.00 20.00     0.016 C 
HETATM    7  C9  UNL     1     -33.702   7.424   2.786  1.00 20.00     0.015 C 
ENDROOT
BRANCH   7   8
HETATM    8  C4  UNL     1     -34.159   6.292   3.653  1.00 20.00    -0.031 C 
HETATM    9  C3  UNL     1     -35.419   6.129   4.069  1.00 20.00     0.007 C 
ENDBRANCH   7   8
TORSDOF 1
ENDMDL
MODEL 6
REMARK VINA RESULT:       0.3      1.548      2.996
REMARK  1 active torsions:
REMARK  status: ('A' for Active; 'I' for Inactive)
REMARK    1  A    between atoms: C4_4  and  C9_9 
ROOT
HETATM    1  C1  UNL     1     -33.615   6.203   2.887  1.00 20.00    -0.025 C 
HETATM    2  C2  UNL     1     -33.236   7.374   3.420  1.00 20.00    -0.025 C 
HETATM    3  C5  UNL     1     -31.524   6.683   2.035  1.00 20.00     0.017 C 
HETATM    4  C6  UNL     1     -33.358   7.044   0.571  1.00 20.00     0.017 C 
HETATM    5  C7  UNL     1     -32.835   6.020   1.605  1.00 20.00     0.009 C 
HETATM    6  C8  UNL     1     -32.212   7.979   2.485  1.00 20.00     0.016 C 
HETATM    7  C9  UNL     1     -32.968   8.404   1.207  1.00 20.00     0.015 C 
ENDROOT
BRANCH   7   8
HETATM    8  C4  UNL     1     -32.128   9.240   0.292  1.00 20.00    -0.031 C 
HETATM    9  C3  UNL     1     -32.455  10.474  -0.107  1.00 20.00     0.007 C 
ENDBRANCH   7   8
TORSDOF 1
ENDMDL
MODEL 7
REMARK VINA RESULT:       0.4      1.444      2.192
REMARK  1 active torsions:
REMARK  status: ('A' for Active; 'I' for Inactive)
REMARK    1  A    between atoms: C4_4  and  C9_9 
ROOT
HETATM    1  C1  UNL     1     -32.671   5.195   2.623  1.00 20.00    -0.025 C 
HETATM    2  C2  UNL     1     -31.868   5.467   1.584  1.00 20.00    -0.025 C 
HETATM    3  C5  UNL     1     -33.879   6.521   1.170  1.00 20.00     0.017 C 
HETATM    4  C6  UNL     1     -33.040   7.596   3.113  1.00 20.00     0.017 C 
HETATM    5  C7  UNL     1     -33.723   6.280   2.673  1.00 20.00     0.009 C 
HETATM    6  C8  UNL     1     -32.376   6.743   0.950  1.00 20.00     0.016 C 
HETATM    7  C9  UNL     1     -32.070   7.889   1.938  1.00 20.00     0.015 C 
ENDROOT
BRANCH   7   8
HETATM    8  C4  UNL     1     -32.295   9.242   1.338  1.00 20.00    -0.031 C 
HETATM    9  C3  UNL     1     -32.233   9.500   0.028  1.00 20.00     0.007 C 
ENDBRANCH   7   8
TORSDOF 1
ENDMDL
MODEL 8
REMARK VINA RESULT:       0.5      1.168      3.273
REMARK  1 active torsions:
REMARK  status: ('A' for Active; 'I' for Inactive)
REMARK    1  A    between atoms: C4_4  and  C9_9 
ROOT
HETATM    1  C1  UNL     1     -34.031   7.816   2.470  1.00 20.00    -0.025 C 
HETATM    2  C2  UNL     1     -33.148   6.854   2.162  1.00 20.00    -0.025 C 
HETATM    3  C5  UNL     1     -33.135   7.064   4.460  1.00 20.00     0.017 C 
HETATM    4  C6  UNL     1     -35.328   6.309   3.949  1.00 20.00     0.017 C 
HETATM    5  C7  UNL     1     -34.460   7.588   3.901  1.00 20.00     0.009 C 
HETATM    6  C8  UNL     1     -33.000   5.977   3.385  1.00 20.00     0.016 C 
HETATM    7  C9  UNL     1     -34.324   5.198   3.543  1.00 20.00     0.015 C 
ENDROOT
BRANCH   7   8
HETATM    8  C4  UNL     1     -34.234   4.110   4.568  1.00 20.00    -0.031 C 
HETATM    9  C3  UNL     1     -33.306   3.148   4.558  1.00 20.00     0.007 C 
ENDBRANCH   7   8
TORSDOF 1
ENDMDL
MODEL 9
REMARK VINA RESULT:       1.1      1.914      3.791
REMARK  1 active torsions:
REMARK  status: ('A' for Active; 'I' for Inactive)
REMARK    1  A    between atoms: C4_4  and  C9_9 
ROOT
HETATM    1  C1  UNL     1     -32.770   9.607   1.668  1.00 20.00    -0.025 C 
HETATM    2  C2  UNL     1     -32.333   8.998   0.556  1.00 20.00    -0.025 C 
HETATM    3  C5  UNL     1     -31.144   8.103   2.320  1.00 20.00     0.017 C 
HETATM    4  C6  UNL     1     -33.391   7.459   2.736  1.00 20.00     0.017 C 
HETATM    5  C7  UNL     1     -32.461   8.691   2.831  1.00 20.00     0.009 C 
HETATM    6  C8  UNL     1     -31.746   7.669   0.976  1.00 20.00     0.016 C 
HETATM    7  C9  UNL     1     -32.925   6.778   1.423  1.00 20.00     0.015 C 
ENDROOT
BRANCH   7   8
HETATM    8  C4  UNL     1     -32.522   5.351   1.633  1.00 20.00    -0.031 C 
HETATM    9  C3  UNL     1     -31.646   4.699   0.862  1.00 20.00     0.007 C 
ENDBRANCH   7   8
TORSDOF 1
ENDMDL
