MODEL 1
REMARK VINA RESULT:      -2.2      0.000      0.000
REMARK  2 active torsions:
REMARK  status: ('A' for Active; 'I' for Inactive)
REMARK    1  A    between atoms: C1_1  and  C6_6 
REMARK    2  A    between atoms: C1_1  and  C7_7 
ROOT
HETATM    1  C1  UNL     1     -33.025   6.614   2.260  1.00 20.00     0.135 C 
HETATM    2  O8  UNL     1     -33.014   5.819   1.321  1.00 20.00    -0.297 OA
ENDROOT
BRANCH   1   3
HETATM    3  C6  UNL     1     -33.762   6.333   3.497  1.00 20.00     0.056 A 
HETATM    4  C2  UNL     1     -34.272   7.477   4.330  1.00 20.00     0.013 A 
HETATM    5  C3  UNL     1     -35.237   6.627   3.560  1.00 20.00     0.013 A 
ENDBRANCH   1   3
BRANCH   1   6
HETATM    6  C7  UNL     1     -32.281   7.920   2.197  1.00 20.00     0.056 A 
HETATM    7  C4  UNL     1     -31.262   8.094   1.129  1.00 20.00     0.013 A 
HETATM    8  C5  UNL     1     -32.566   8.832   1.057  1.00 20.00     0.013 A 
ENDBRANCH   1   6
TORSDOF 2
ENDMDL
MODEL 2
REMARK VINA RESULT:      -2.1      0.179      3.330
REMARK  2 active torsions:
REMARK  status: ('A' for Active; 'I' for Inactive)
REMARK    1  A    between atoms: C1_1  and  C6_6 
REMARK    2  A    between atoms: C1_1  and  C7_7 
ROOT
HETATM    1  C1  UNL     1     -32.943   6.656   2.200  1.00 20.00     0.135 C 
HETATM    2  O8  UNL     1     -33.035   5.854   1.272  1.00 20.00    -0.297 OA
ENDROOT
BRANCH   1   3
HETATM    3  C6  UNL     1     -32.165   7.893   2.075  1.00 20.00     0.056 A 
HETATM    4  C2  UNL     1     -31.387   8.151   0.813  1.00 20.00     0.013 A 
HETATM    5  C3  UNL     1     -32.618   8.954   1.108  1.00 20.00     0.013 A 
ENDBRANCH   1   3
BRANCH   1   6
HETATM    6  C7  UNL     1     -33.628   6.418   3.519  1.00 20.00     0.056 A 
HETATM    7  C4  UNL     1     -34.208   7.588   4.228  1.00 20.00     0.013 A 
HETATM    8  C5  UNL     1     -35.105   6.578   3.578  1.00 20.00     0.013 A 
ENDBRANCH   1   6
TORSDOF 2
ENDMDL
MODEL 3
REMARK VINA RESULT:      -2.0      0.788      1.249
REMARK  2 active torsions:
REMARK  status: ('A' for Active; 'I' for Inactive)
REMARK    1  A    between atoms: C1_1  and  C6_6 
REMARK    2  A    between atoms: C1_1  and  C7_7 
ROOT
HETATM    1  C1  UNL     1     -33.081   6.479   2.227  1.00 20.00     0.135 C 
HETATM    2  O8  UNL     1     -33.061   5.249   2.205  1.00 20.00    -0.297 OA
ENDROOT
BRANCH   1   3
HETATM    3  C6  UNL     1     -34.130   7.219   2.936  1.00 20.00     0.056 A 
HETATM    4  C2  UNL     1     -35.030   6.489   3.895  1.00 20.00     0.013 A 
HETATM    5  C3  UNL     1     -34.000   7.444   4.418  1.00 20.00     0.013 A 
ENDBRANCH   1   3
BRANCH   1   6
HETATM    6  C7  UNL     1     -32.028   7.297   1.530  1.00 20.00     0.056 A 
HETATM    7  C4  UNL     1     -32.366   8.692   1.145  1.00 20.00     0.013 A 
HETATM    8  C5  UNL     1     -31.417   8.430   2.275  1.00 20.00     0.013 A 
ENDBRANCH   1   6
TORSDOF 2
ENDMDL
MODEL 4
REMARK VINA RESULT:      -1.9      1.707      3.730
REMARK  2 active torsions:
REMARK  status: ('A' for Active; 'I' for Inactive)
REMARK    1  A    between atoms: C1_1  and  C6_6 
REMARK    2  A    between atoms: C1_1  and  C7_7 
ROOT
HETATM    1  C1  UNL     1     -33.327   7.541   3.624  1.00 20.00     0.135 C 
HETATM    2  O8  UNL     1     -33.500   8.155   4.676  1.00 20.00    -0.297 OA
ENDROOT
BRANCH   1   3
HETATM    3  C6  UNL     1     -32.181   7.817   2.752  1.00 20.00     0.056 A 
HETATM    4  C2  UNL     1     -32.042   7.067   1.455  1.00 20.00     0.013 A 
HETATM    5  C3  UNL     1     -32.404   8.522   1.441  1.00 20.00     0.013 A 
ENDBRANCH   1   3
BRANCH   1   6
HETATM    6  C7  UNL     1     -34.281   6.469   3.171  1.00 20.00     0.056 A 
HETATM    7  C4  UNL     1     -34.261   5.166   3.885  1.00 20.00     0.013 A 
HETATM    8  C5  UNL     1     -35.409   6.112   4.072  1.00 20.00     0.013 A 
ENDBRANCH   1   6
TORSDOF 2
ENDMDL
MODEL 5
REMARK VINA RESULT:      -1.8      1.909      3.746
REMARK  2 active torsions:
REMARK  status: ('A' for Active; 'I' for Inactive)
REMARK    1  A    between atoms: C1_1  and  C6_6 
REMARK    2  A    between atoms: C1_1  and  C7_7 
ROOT
HETATM    1  C1  UNL     1     -32.071   8.137   1.716  1.00 20.00     0.135 C 
HETATM    2  O8  UNL     1     -31.803   8.303   2.905  1.00 20.00    -0.297 OA
ENDROOT
BRANCH   1   3
HETATM    3  C6  UNL     1     -31.736   9.145   0.704  1.00 20.00     0.056 A 
HETATM    4  C2  UNL     1     -32.641   9.329  -0.484  1.00 20.00     0.013 A 
HETATM    5  C3  UNL     1     -32.588  10.380   0.584  1.00 20.00     0.013 A 
ENDBRANCH   1   3
BRANCH   1   6
HETATM    6  C7  UNL     1     -32.754   6.888   1.228  1.00 20.00     0.056 A 
HETATM    7  C4  UNL     1     -32.040   5.594   1.381  1.00 20.00     0.013 A 
HETATM    8  C5  UNL     1     -33.225   5.908   2.243  1.00 20.00     0.013 A 
ENDBRANCH   1   6
TORSDOF 2
ENDMDL
MODEL 6
REMARK VINA RESULT:      -1.8      0.802      3.312
REMARK  2 active torsions:
REMARK  status: ('A' for Active; 'I' for Inactive)
REMARK    1  A    between atoms: C1_1  and  C6_6 
REMARK    2  A    between atoms: C1_1  and  C7_7 
ROOT
HETATM    1  C1  UNL     1     -33.099   6.414   2.235  1.00 20.00     0.135 C 
HETATM    2  O8  UNL     1     -33.011   5.188   2.294  1.00 20.00    -0.297 OA
ENDROOT
BRANCH   1   3
HETATM    3  C6  UNL     1     -32.123   7.221   1.496  1.00 20.00     0.056 A 
HETATM    4  C2  UNL     1     -32.426   8.666   1.208  1.00 20.00     0.013 A 
HETATM    5  C3  UNL     1     -31.373   8.311   2.215  1.00 20.00     0.013 A 
ENDBRANCH   1   3
BRANCH   1   6
HETATM    6  C7  UNL     1     -34.216   7.157   2.916  1.00 20.00     0.056 A 
HETATM    7  C4  UNL     1     -35.044   6.422   3.907  1.00 20.00     0.013 A 
HETATM    8  C5  UNL     1     -34.070   7.466   4.364  1.00 20.00     0.013 A 
ENDBRANCH   1   6
TORSDOF 2
ENDMDL
MODEL 7
REMARK VINA RESULT:      -1.8      1.714      1.883
REMARK  2 active torsions:
REMARK  status: ('A' for Active; 'I' for Inactive)
REMARK    1  A    between atoms: C1_1  and  C6_6 
REMARK    2  A    between atoms: C1_1  and  C7_7 
ROOT
HETATM    1  C1  UNL     1     -33.292   7.586   3.627  1.00 20.00     0.135 C 
HETATM    2  O8  UNL     1     -33.428   8.148   4.713  1.00 20.00    -0.297 OA
ENDROOT
BRANCH   1   3
HETATM    3  C6  UNL     1     -34.245   6.574   3.160  1.00 20.00     0.056 A 
HETATM    4  C2  UNL     1     -34.263   5.219   3.814  1.00 20.00     0.013 A 
HETATM    5  C3  UNL     1     -35.393   6.176   4.049  1.00 20.00     0.013 A 
ENDBRANCH   1   3
BRANCH   1   6
HETATM    6  C7  UNL     1     -32.141   7.907   2.712  1.00 20.00     0.056 A 
HETATM    7  C4  UNL     1     -31.984   7.097   1.475  1.00 20.00     0.013 A 
HETATM    8  C5  UNL     1     -32.449   8.520   1.392  1.00 20.00     0.013 A 
ENDBRANCH   1   6
TORSDOF 2
ENDMDL
MODEL 8
REMARK VINA RESULT:      -1.7      1.538      2.319
REMARK  2 active torsions:
REMARK  status: ('A' for Active; 'I' for Inactive)
REMARK    1  A    between atoms: C1_1  and  C6_6 
REMARK    2  A    between atoms: C1_1  and  C7_7 
ROOT
HETATM    1  C1  UNL     1     -32.900   7.208   2.364  1.00 20.00     0.135 C 
HETATM    2  O8  UNL     1     -32.021   7.997   2.020  1.00 20.00    -0.297 OA
ENDROOT
BRANCH   1   3
HETATM    3  C6  UNL     1     -34.054   7.641   3.159  1.00 20.00     0.056 A 
HETATM    4  C2  UNL     1     -34.836   6.622   3.943  1.00 20.00     0.013 A 
HETATM    5  C3  UNL     1     -33.967   7.610   4.662  1.00 20.00     0.013 A 
ENDBRANCH   1   3
BRANCH   1   6
HETATM    6  C7  UNL     1     -32.846   5.753   1.985  1.00 20.00     0.056 A 
HETATM    7  C4  UNL     1     -33.212   5.377   0.595  1.00 20.00     0.013 A 
HETATM    8  C5  UNL     1     -31.782   5.315   1.042  1.00 20.00     0.013 A 
ENDBRANCH   1   6
TORSDOF 2
ENDMDL
MODEL 9
REMARK VINA RESULT:      -1.6      1.913      2.667
REMARK  2 active torsions:
REMARK  status: ('A' for Active; 'I' for Inactive)
REMARK    1  A    between atoms: C1_1  and  C6_6 
REMARK    2  A    between atoms: C1_1  and  C7_7 
ROOT
HETATM    1  C1  UNL     1     -32.077   8.146   1.698  1.00 20.00     0.135 C 
HETATM    2  O8  UNL     1     -31.825   8.313   2.891  1.00 20.00    -0.297 OA
ENDROOT
BRANCH   1   3
HETATM    3  C6  UNL     1     -32.722   6.922   1.212  1.00 20.00     0.056 A 
HETATM    4  C2  UNL     1     -32.029   5.599   1.394  1.00 20.00     0.013 A 
HETATM    5  C3  UNL     1     -33.247   5.921   2.206  1.00 20.00     0.013 A 
ENDBRANCH   1   3
BRANCH   1   6
HETATM    6  C7  UNL     1     -31.743   9.191   0.668  1.00 20.00     0.056 A 
HETATM    7  C4  UNL     1     -32.670   9.363  -0.481  1.00 20.00     0.013 A 
HETATM    8  C5  UNL     1     -32.603  10.402   0.597  1.00 20.00     0.013 A 
ENDBRANCH   1   6
TORSDOF 2
ENDMDL
