MODEL 1
REMARK VINA RESULT:      -1.4      0.000      0.000
REMARK  2 active torsions:
REMARK  status: ('A' for Active; 'I' for Inactive)
REMARK    1  A    between atoms: C4_4  and  C5_5 
REMARK    2  A    between atoms: C4_4  and  C6_6 
ROOT
HETATM    1  C1  UNL     1     -34.159   5.108   3.932  1.00 20.00     0.068 C 
HETATM    2  C2  UNL     1     -35.725   6.830   3.160  1.00 20.00     0.031 C 
HETATM    3  C3  UNL     1     -33.776   7.447   4.599  1.00 20.00     0.031 C 
HETATM    4  C6  UNL     1     -34.250   6.514   3.474  1.00 20.00     0.043 C 
HETATM    5  N7  UNL     1     -34.088   4.007   4.291  1.00 20.00    -0.196 NA
ENDROOT
BRANCH   4   6
HETATM    6  C4  UNL     1     -33.418   6.712   2.179  1.00 20.00     0.039 C 
BRANCH   6   7
HETATM    7  C5  UNL     1     -32.257   7.699   2.301  1.00 20.00     0.116 C 
HETATM    8 CL8  UNL     1     -32.318   8.887   0.974  1.00 20.00    -0.130 Cl
ENDBRANCH   6   7
ENDBRANCH   4   6
TORSDOF 2
ENDMDL
MODEL 2
REMARK VINA RESULT:      -1.4      2.983      3.733
REMARK  2 active torsions:
REMARK  status: ('A' for Active; 'I' for Inactive)
REMARK    1  A    between atoms: C4_4  and  C5_5 
REMARK    2  A    between atoms: C4_4  and  C6_6 
ROOT
HETATM    1  C1  UNL     1     -33.561   6.259   2.540  1.00 20.00     0.068 C 
HETATM    2  C2  UNL     1     -33.983   7.545   4.584  1.00 20.00     0.031 C 
HETATM    3  C3  UNL     1     -35.888   6.775   3.159  1.00 20.00     0.031 C 
HETATM    4  C6  UNL     1     -34.492   6.403   3.683  1.00 20.00     0.043 C 
HETATM    5  N7  UNL     1     -32.833   6.146   1.644  1.00 20.00    -0.196 NA
ENDROOT
BRANCH   4   6
HETATM    6  C4  UNL     1     -34.525   5.096   4.517  1.00 20.00     0.039 C 
BRANCH   6   7
HETATM    7  C5  UNL     1     -33.878   3.884   3.845  1.00 20.00     0.116 C 
HETATM    8 CL8  UNL     1     -33.033   2.888   5.058  1.00 20.00    -0.130 Cl
ENDBRANCH   6   7
ENDBRANCH   4   6
TORSDOF 2
ENDMDL
MODEL 3
REMARK VINA RESULT:      -1.1      3.401      4.314
REMARK  2 active torsions:
REMARK  status: ('A' for Active; 'I' for Inactive)
REMARK    1  A    between atoms: C4_4  and  C5_5 
REMARK    2  A    between atoms: C4_4  and  C6_6 
ROOT
HETATM    1  C1  UNL     1     -32.379   8.998   0.919  1.00 20.00     0.068 C 
HETATM    2  C2  UNL     1     -31.944   6.648   1.469  1.00 20.00     0.031 C 
HETATM    3  C3  UNL     1     -31.441   8.449   3.129  1.00 20.00     0.031 C 
HETATM    4  C6  UNL     1     -32.411   8.009   2.021  1.00 20.00     0.043 C 
HETATM    5  N7  UNL     1     -32.354   9.773   0.056  1.00 20.00    -0.196 NA
ENDROOT
BRANCH   4   6
HETATM    6  C4  UNL     1     -33.858   7.851   2.560  1.00 20.00     0.039 C 
BRANCH   6   7
HETATM    7  C5  UNL     1     -33.962   7.300   3.982  1.00 20.00     0.116 C 
HETATM    8 CL8  UNL     1     -35.320   6.152   4.098  1.00 20.00    -0.130 Cl
ENDBRANCH   6   7
ENDBRANCH   4   6
TORSDOF 2
ENDMDL
MODEL 4
REMARK VINA RESULT:      -0.8      3.120      3.780
REMARK  2 active torsions:
REMARK  status: ('A' for Active; 'I' for Inactive)
REMARK    1  A    between atoms: C4_4  and  C5_5 
REMARK    2  A    between atoms: C4_4  and  C6_6 
ROOT
HETATM    1  C1  UNL     1     -33.845   7.421   4.388  1.00 20.00     0.068 C 
HETATM    2  C2  UNL     1     -35.867   6.748   3.175  1.00 20.00     0.031 C 
HETATM    3  C3  UNL     1     -33.606   6.125   2.308  1.00 20.00     0.031 C 
HETATM    4  C6  UNL     1     -34.440   6.330   3.582  1.00 20.00     0.043 C 
HETATM    5  N7  UNL     1     -33.378   8.276   5.019  1.00 20.00    -0.196 NA
ENDROOT
BRANCH   4   6
HETATM    6  C4  UNL     1     -34.529   5.029   4.422  1.00 20.00     0.039 C 
BRANCH   6   7
HETATM    7  C5  UNL     1     -33.817   3.819   3.816  1.00 20.00     0.116 C 
HETATM    8 CL8  UNL     1     -32.993   2.888   5.093  1.00 20.00    -0.130 Cl
ENDBRANCH   6   7
ENDBRANCH   4   6
TORSDOF 2
ENDMDL
MODEL 5
REMARK VINA RESULT:      -0.7      2.558      3.678
REMARK  2 active torsions:
REMARK  status: ('A' for Active; 'I' for Inactive)
REMARK    1  A    between atoms: C4_4  and  C5_5 
REMARK    2  A    between atoms: C4_4  and  C6_6 
ROOT
HETATM    1  C1  UNL     1     -32.280   6.598   1.596  1.00 20.00     0.068 C 
HETATM    2  C2  UNL     1     -31.231   8.364   2.934  1.00 20.00     0.031 C 
HETATM    3  C3  UNL     1     -32.334   8.913   0.758  1.00 20.00     0.031 C 
HETATM    4  C6  UNL     1     -32.409   8.016   2.004  1.00 20.00     0.043 C 
HETATM    5  N7  UNL     1     -32.179   5.487   1.276  1.00 20.00    -0.196 NA
ENDROOT
BRANCH   4   6
HETATM    6  C4  UNL     1     -33.733   8.232   2.783  1.00 20.00     0.039 C 
BRANCH   6   7
HETATM    7  C5  UNL     1     -33.879   7.395   4.054  1.00 20.00     0.116 C 
HETATM    8 CL8  UNL     1     -35.296   6.322   3.924  1.00 20.00    -0.130 Cl
ENDBRANCH   6   7
ENDBRANCH   4   6
TORSDOF 2
ENDMDL
MODEL 6
REMARK VINA RESULT:      -0.7      3.123      3.977
REMARK  2 active torsions:
REMARK  status: ('A' for Active; 'I' for Inactive)
REMARK    1  A    between atoms: C4_4  and  C5_5 
REMARK    2  A    between atoms: C4_4  and  C6_6 
ROOT
HETATM    1  C1  UNL     1     -32.208   7.292   1.549  1.00 20.00     0.068 C 
HETATM    2  C2  UNL     1     -33.731   5.760   0.389  1.00 20.00     0.031 C 
HETATM    3  C3  UNL     1     -31.500   4.961   1.187  1.00 20.00     0.031 C 
HETATM    4  C6  UNL     1     -32.682   5.889   1.510  1.00 20.00     0.043 C 
HETATM    5  N7  UNL     1     -31.835   8.391   1.579  1.00 20.00    -0.196 NA
ENDROOT
BRANCH   4   6
HETATM    6  C4  UNL     1     -33.352   5.511   2.857  1.00 20.00     0.039 C 
BRANCH   6   7
HETATM    7  C5  UNL     1     -34.129   6.642   3.532  1.00 20.00     0.116 C 
HETATM    8 CL8  UNL     1     -35.621   6.006   4.272  1.00 20.00    -0.130 Cl
ENDBRANCH   6   7
ENDBRANCH   4   6
TORSDOF 2
ENDMDL
MODEL 7
REMARK VINA RESULT:      -0.7      1.651      2.787
REMARK  2 active torsions:
REMARK  status: ('A' for Active; 'I' for Inactive)
REMARK    1  A    between atoms: C4_4  and  C5_5 
REMARK    2  A    between atoms: C4_4  and  C6_6 
ROOT
HETATM    1  C1  UNL     1     -33.734   6.502   2.887  1.00 20.00     0.068 C 
HETATM    2  C2  UNL     1     -31.812   5.452   1.784  1.00 20.00     0.031 C 
HETATM    3  C3  UNL     1     -33.618   6.525   0.427  1.00 20.00     0.031 C 
HETATM    4  C6  UNL     1     -32.813   6.623   1.733  1.00 20.00     0.043 C 
HETATM    5  N7  UNL     1     -34.456   6.408   3.791  1.00 20.00    -0.196 NA
ENDROOT
BRANCH   4   6
HETATM    6  C4  UNL     1     -32.019   7.953   1.816  1.00 20.00     0.039 C 
BRANCH   6   7
HETATM    7  C5  UNL     1     -31.823   8.672   0.481  1.00 20.00     0.116 C 
HETATM    8 CL8  UNL     1     -32.653  10.249   0.505  1.00 20.00    -0.130 Cl
ENDBRANCH   6   7
ENDBRANCH   4   6
TORSDOF 2
ENDMDL
MODEL 8
REMARK VINA RESULT:      -0.5      1.588      2.216
REMARK  2 active torsions:
REMARK  status: ('A' for Active; 'I' for Inactive)
REMARK    1  A    between atoms: C4_4  and  C5_5 
REMARK    2  A    between atoms: C4_4  and  C6_6 
ROOT
HETATM    1  C1  UNL     1     -33.650   7.424   4.317  1.00 20.00     0.068 C 
HETATM    2  C2  UNL     1     -33.870   5.006   3.979  1.00 20.00     0.031 C 
HETATM    3  C3  UNL     1     -35.747   6.543   3.374  1.00 20.00     0.031 C 
HETATM    4  C6  UNL     1     -34.217   6.397   3.414  1.00 20.00     0.043 C 
HETATM    5  N7  UNL     1     -33.206   8.230   5.024  1.00 20.00    -0.196 NA
ENDROOT
BRANCH   4   6
HETATM    6  C4  UNL     1     -33.595   6.522   1.998  1.00 20.00     0.039 C 
BRANCH   6   7
HETATM    7  C5  UNL     1     -32.176   7.090   1.965  1.00 20.00     0.116 C 
HETATM    8 CL8  UNL     1     -32.174   8.693   1.184  1.00 20.00    -0.130 Cl
ENDBRANCH   6   7
ENDBRANCH   4   6
TORSDOF 2
ENDMDL
MODEL 9
REMARK VINA RESULT:      -0.2      3.235      4.074
REMARK  2 active torsions:
REMARK  status: ('A' for Active; 'I' for Inactive)
REMARK    1  A    between atoms: C4_4  and  C5_5 
REMARK    2  A    between atoms: C4_4  and  C6_6 
ROOT
HETATM    1  C1  UNL     1     -32.349   7.933   1.398  1.00 20.00     0.068 C 
HETATM    2  C2  UNL     1     -33.981   6.162   0.938  1.00 20.00     0.031 C 
HETATM    3  C3  UNL     1     -31.696   5.588   1.774  1.00 20.00     0.031 C 
HETATM    4  C6  UNL     1     -32.836   6.614   1.865  1.00 20.00     0.043 C 
HETATM    5  N7  UNL     1     -31.966   8.965   1.033  1.00 20.00    -0.196 NA
ENDROOT
BRANCH   4   6
HETATM    6  C4  UNL     1     -33.388   6.727   3.311  1.00 20.00     0.039 C 
BRANCH   6   7
HETATM    7  C5  UNL     1     -34.623   5.872   3.599  1.00 20.00     0.116 C 
HETATM    8 CL8  UNL     1     -34.132   4.237   4.111  1.00 20.00    -0.130 Cl
ENDBRANCH   6   7
ENDBRANCH   4   6
TORSDOF 2
ENDMDL
