MODEL 1
REMARK VINA RESULT:      -1.3      0.000      0.000
REMARK  3 active torsions:
REMARK  status: ('A' for Active; 'I' for Inactive)
REMARK    1  A    between atoms: C2_2  and  C6_6 
REMARK    2  A    between atoms: C2_2  and  C7_7 
REMARK    3  A    between atoms: C6_6  and  C8_8 
ROOT
HETATM    1  C6  UNL     1     -33.945   6.686   2.051  1.00 20.00     0.042 C 
ENDROOT
BRANCH   1   2
HETATM    2  C2  UNL     1     -32.481   6.653   1.657  1.00 20.00    -0.075 C 
HETATM    3  C1  UNL     1     -31.897   5.515   1.248  1.00 20.00     0.015 C 
BRANCH   2   4
HETATM    4  C7  UNL     1     -31.679   7.919   1.789  1.00 20.00     0.147 C 
HETATM    5 CL9  UNL     1     -32.347   9.193   0.743  1.00 20.00    -0.126 Cl
ENDBRANCH   2   4
ENDBRANCH   1   2
BRANCH   1   6
HETATM    6  C8  UNL     1     -34.296   6.415   3.544  1.00 20.00    -0.048 C 
HETATM    7  C3  UNL     1     -33.714   7.502   4.465  1.00 20.00     0.015 C 
HETATM    8  C4  UNL     1     -35.833   6.439   3.681  1.00 20.00     0.015 C 
HETATM    9  C5  UNL     1     -33.792   5.041   4.012  1.00 20.00     0.015 C 
ENDBRANCH   1   6
TORSDOF 3
ENDMDL
MODEL 2
REMARK VINA RESULT:      -1.2      0.057      1.438
REMARK  3 active torsions:
REMARK  status: ('A' for Active; 'I' for Inactive)
REMARK    1  A    between atoms: C2_2  and  C6_6 
REMARK    2  A    between atoms: C2_2  and  C7_7 
REMARK    3  A    between atoms: C6_6  and  C8_8 
ROOT
HETATM    1  C6  UNL     1     -33.936   6.709   2.046  1.00 20.00     0.042 C 
ENDROOT
BRANCH   1   2
HETATM    2  C2  UNL     1     -32.474   6.659   1.646  1.00 20.00    -0.075 C 
HETATM    3  C1  UNL     1     -31.903   5.513   1.240  1.00 20.00     0.015 C 
BRANCH   2   4
HETATM    4  C7  UNL     1     -31.660   7.918   1.767  1.00 20.00     0.147 C 
HETATM    5 CL9  UNL     1     -32.341   9.204   0.743  1.00 20.00    -0.126 Cl
ENDBRANCH   2   4
ENDBRANCH   1   2
BRANCH   1   6
HETATM    6  C8  UNL     1     -34.289   6.387   3.528  1.00 20.00    -0.048 C 
HETATM    7  C3  UNL     1     -33.708   5.030   3.962  1.00 20.00     0.015 C 
HETATM    8  C4  UNL     1     -33.664   7.485   4.413  1.00 20.00     0.015 C 
HETATM    9  C5  UNL     1     -35.807   6.380   3.767  1.00 20.00     0.015 C 
ENDBRANCH   1   6
TORSDOF 3
ENDMDL
MODEL 3
REMARK VINA RESULT:      -1.2      0.051      1.445
REMARK  3 active torsions:
REMARK  status: ('A' for Active; 'I' for Inactive)
REMARK    1  A    between atoms: C2_2  and  C6_6 
REMARK    2  A    between atoms: C2_2  and  C7_7 
REMARK    3  A    between atoms: C6_6  and  C8_8 
ROOT
HETATM    1  C6  UNL     1     -33.935   6.630   2.022  1.00 20.00     0.042 C 
ENDROOT
BRANCH   1   2
HETATM    2  C2  UNL     1     -32.467   6.621   1.645  1.00 20.00    -0.075 C 
HETATM    3  C1  UNL     1     -31.862   5.494   1.233  1.00 20.00     0.015 C 
BRANCH   2   4
HETATM    4  C7  UNL     1     -31.684   7.897   1.796  1.00 20.00     0.147 C 
HETATM    5 CL9  UNL     1     -32.365   9.173   0.759  1.00 20.00    -0.126 Cl
ENDBRANCH   2   4
ENDBRANCH   1   2
BRANCH   1   6
HETATM    6  C8  UNL     1     -34.295   6.423   3.523  1.00 20.00    -0.048 C 
HETATM    7  C3  UNL     1     -35.818   6.411   3.738  1.00 20.00     0.015 C 
HETATM    8  C4  UNL     1     -33.735   5.053   3.959  1.00 20.00     0.015 C 
HETATM    9  C5  UNL     1     -33.672   7.505   4.417  1.00 20.00     0.015 C 
ENDBRANCH   1   6
TORSDOF 3
ENDMDL
MODEL 4
REMARK VINA RESULT:      -0.8      2.189      4.099
REMARK  3 active torsions:
REMARK  status: ('A' for Active; 'I' for Inactive)
REMARK    1  A    between atoms: C2_2  and  C6_6 
REMARK    2  A    between atoms: C2_2  and  C7_7 
REMARK    3  A    between atoms: C6_6  and  C8_8 
ROOT
HETATM    1  C6  UNL     1     -33.743   8.216   2.596  1.00 20.00     0.042 C 
ENDROOT
BRANCH   1   2
HETATM    2  C2  UNL     1     -34.068   7.490   3.886  1.00 20.00    -0.075 C 
HETATM    3  C1  UNL     1     -33.461   7.815   5.040  1.00 20.00     0.015 C 
BRANCH   2   4
HETATM    4  C7  UNL     1     -35.052   6.353   3.834  1.00 20.00     0.147 C 
HETATM    5 CL9  UNL     1     -34.216   4.795   4.032  1.00 20.00    -0.126 Cl
ENDBRANCH   2   4
ENDBRANCH   1   2
BRANCH   1   6
HETATM    6  C8  UNL     1     -32.365   7.924   1.932  1.00 20.00    -0.048 C 
HETATM    7  C3  UNL     1     -32.240   6.445   1.525  1.00 20.00     0.015 C 
HETATM    8  C4  UNL     1     -32.261   8.787   0.657  1.00 20.00     0.015 C 
HETATM    9  C5  UNL     1     -31.193   8.288   2.856  1.00 20.00     0.015 C 
ENDBRANCH   1   6
TORSDOF 3
ENDMDL
MODEL 5
REMARK VINA RESULT:      -0.8      2.182      4.045
REMARK  3 active torsions:
REMARK  status: ('A' for Active; 'I' for Inactive)
REMARK    1  A    between atoms: C2_2  and  C6_6 
REMARK    2  A    between atoms: C2_2  and  C7_7 
REMARK    3  A    between atoms: C6_6  and  C8_8 
ROOT
HETATM    1  C6  UNL     1     -33.818   8.095   2.531  1.00 20.00     0.042 C 
ENDROOT
BRANCH   1   2
HETATM    2  C2  UNL     1     -34.108   7.438   3.867  1.00 20.00    -0.075 C 
HETATM    3  C1  UNL     1     -33.488   7.840   4.988  1.00 20.00     0.015 C 
BRANCH   2   4
HETATM    4  C7  UNL     1     -35.070   6.282   3.897  1.00 20.00     0.147 C 
HETATM    5 CL9  UNL     1     -34.190   4.740   4.006  1.00 20.00    -0.126 Cl
ENDBRANCH   2   4
ENDBRANCH   1   2
BRANCH   1   6
HETATM    6  C8  UNL     1     -32.387   7.927   1.940  1.00 20.00    -0.048 C 
HETATM    7  C3  UNL     1     -31.307   8.301   2.970  1.00 20.00     0.015 C 
HETATM    8  C4  UNL     1     -32.202   6.442   1.563  1.00 20.00     0.015 C 
HETATM    9  C5  UNL     1     -32.186   8.775   0.675  1.00 20.00     0.015 C 
ENDBRANCH   1   6
TORSDOF 3
ENDMDL
MODEL 6
REMARK VINA RESULT:      -0.7      2.196      4.043
REMARK  3 active torsions:
REMARK  status: ('A' for Active; 'I' for Inactive)
REMARK    1  A    between atoms: C2_2  and  C6_6 
REMARK    2  A    between atoms: C2_2  and  C7_7 
REMARK    3  A    between atoms: C6_6  and  C8_8 
ROOT
HETATM    1  C6  UNL     1     -33.759   8.229   2.600  1.00 20.00     0.042 C 
ENDROOT
BRANCH   1   2
HETATM    2  C2  UNL     1     -34.074   7.488   3.885  1.00 20.00    -0.075 C 
HETATM    3  C1  UNL     1     -33.456   7.799   5.036  1.00 20.00     0.015 C 
BRANCH   2   4
HETATM    4  C7  UNL     1     -35.059   6.352   3.828  1.00 20.00     0.147 C 
HETATM    5 CL9  UNL     1     -34.229   4.795   4.053  1.00 20.00    -0.126 Cl
ENDBRANCH   2   4
ENDBRANCH   1   2
BRANCH   1   6
HETATM    6  C8  UNL     1     -32.398   7.925   1.907  1.00 20.00    -0.048 C 
HETATM    7  C3  UNL     1     -32.214   8.771   0.635  1.00 20.00     0.015 C 
HETATM    8  C4  UNL     1     -31.271   8.289   2.897  1.00 20.00     0.015 C 
HETATM    9  C5  UNL     1     -32.258   6.439   1.543  1.00 20.00     0.015 C 
ENDBRANCH   1   6
TORSDOF 3
ENDMDL
MODEL 7
REMARK VINA RESULT:      -0.7      2.385      4.105
REMARK  3 active torsions:
REMARK  status: ('A' for Active; 'I' for Inactive)
REMARK    1  A    between atoms: C2_2  and  C6_6 
REMARK    2  A    between atoms: C2_2  and  C7_7 
REMARK    3  A    between atoms: C6_6  and  C8_8 
ROOT
HETATM    1  C6  UNL     1     -33.092   5.932   3.033  1.00 20.00     0.042 C 
ENDROOT
BRANCH   1   2
HETATM    2  C2  UNL     1     -34.114   6.843   3.685  1.00 20.00    -0.075 C 
HETATM    3  C1  UNL     1     -33.778   8.072   4.112  1.00 20.00     0.015 C 
BRANCH   2   4
HETATM    4  C7  UNL     1     -35.508   6.316   3.893  1.00 20.00     0.147 C 
HETATM    5 CL9  UNL     1     -35.464   4.756   4.746  1.00 20.00    -0.126 Cl
ENDBRANCH   2   4
ENDBRANCH   1   2
BRANCH   1   6
HETATM    6  C8  UNL     1     -32.654   6.265   1.577  1.00 20.00    -0.048 C 
HETATM    7  C3  UNL     1     -31.933   7.623   1.503  1.00 20.00     0.015 C 
HETATM    8  C4  UNL     1     -31.669   5.170   1.116  1.00 20.00     0.015 C 
HETATM    9  C5  UNL     1     -33.846   6.280   0.607  1.00 20.00     0.015 C 
ENDBRANCH   1   6
TORSDOF 3
ENDMDL
MODEL 8
REMARK VINA RESULT:      -0.7      1.754      3.616
REMARK  3 active torsions:
REMARK  status: ('A' for Active; 'I' for Inactive)
REMARK    1  A    between atoms: C2_2  and  C6_6 
REMARK    2  A    between atoms: C2_2  and  C7_7 
REMARK    3  A    between atoms: C6_6  and  C8_8 
ROOT
HETATM    1  C6  UNL     1     -33.228   5.639   3.040  1.00 20.00     0.042 C 
ENDROOT
BRANCH   1   2
HETATM    2  C2  UNL     1     -34.334   6.456   3.677  1.00 20.00    -0.075 C 
HETATM    3  C1  UNL     1     -35.504   5.892   4.023  1.00 20.00     0.015 C 
BRANCH   2   4
HETATM    4  C7  UNL     1     -34.113   7.932   3.864  1.00 20.00     0.147 C 
HETATM    5 CL9  UNL     1     -32.999   8.229   5.219  1.00 20.00    -0.126 Cl
ENDBRANCH   2   4
ENDBRANCH   1   2
BRANCH   1   6
HETATM    6  C8  UNL     1     -32.730   6.075   1.630  1.00 20.00    -0.048 C 
HETATM    7  C3  UNL     1     -32.042   7.450   1.678  1.00 20.00     0.015 C 
HETATM    8  C4  UNL     1     -31.696   5.034   1.150  1.00 20.00     0.015 C 
HETATM    9  C5  UNL     1     -33.875   6.125   0.607  1.00 20.00     0.015 C 
ENDBRANCH   1   6
TORSDOF 3
ENDMDL
MODEL 9
REMARK VINA RESULT:      -0.6      1.786      3.626
REMARK  3 active torsions:
REMARK  status: ('A' for Active; 'I' for Inactive)
REMARK    1  A    between atoms: C2_2  and  C6_6 
REMARK    2  A    between atoms: C2_2  and  C7_7 
REMARK    3  A    between atoms: C6_6  and  C8_8 
ROOT
HETATM    1  C6  UNL     1     -33.232   5.592   3.000  1.00 20.00     0.042 C 
ENDROOT
BRANCH   1   2
HETATM    2  C2  UNL     1     -34.295   6.464   3.638  1.00 20.00    -0.075 C 
HETATM    3  C1  UNL     1     -35.485   5.957   4.001  1.00 20.00     0.015 C 
BRANCH   2   4
HETATM    4  C7  UNL     1     -34.006   7.931   3.807  1.00 20.00     0.147 C 
HETATM    5 CL9  UNL     1     -33.092   8.220   5.306  1.00 20.00    -0.126 Cl
ENDBRANCH   2   4
ENDBRANCH   1   2
BRANCH   1   6
HETATM    6  C8  UNL     1     -32.689   6.021   1.605  1.00 20.00    -0.048 C 
HETATM    7  C3  UNL     1     -31.673   5.003   1.060  1.00 20.00     0.015 C 
HETATM    8  C4  UNL     1     -33.884   6.081   0.630  1.00 20.00     0.015 C 
HETATM    9  C5  UNL     1     -32.032   7.409   1.647  1.00 20.00     0.015 C 
ENDBRANCH   1   6
TORSDOF 3
ENDMDL
