MODEL 1
REMARK VINA RESULT:      -1.6      0.000      0.000
REMARK  1 active torsions:
REMARK  status: ('A' for Active; 'I' for Inactive)
REMARK    1  A    between atoms: C1_1  and  O7_7 
ROOT
HETATM    1  C1  UNL     1     -32.546   8.726   1.815  1.00 20.00     0.294 A 
HETATM    2  C2  UNL     1     -32.870   7.356   2.370  1.00 20.00     0.106 A 
HETATM    3  C3  UNL     1     -33.832   7.244   3.509  1.00 20.00     0.051 C 
HETATM    4  C4  UNL     1     -32.659   6.125   1.544  1.00 20.00     0.051 C 
HETATM    5  O6  UNL     1     -31.653   8.039   2.705  1.00 20.00    -0.343 OA
ENDROOT
BRANCH   1   6
HETATM    6  O7  UNL     1     -32.128   8.803   0.444  1.00 20.00    -0.363 OA
HETATM    7  C5  UNL     1     -32.519  10.033  -0.137  1.00 20.00     0.204 C 
ENDBRANCH   1   6
TORSDOF 1
ENDMDL
MODEL 2
REMARK VINA RESULT:      -1.5      3.360      4.750
REMARK  1 active torsions:
REMARK  status: ('A' for Active; 'I' for Inactive)
REMARK    1  A    between atoms: C1_1  and  O7_7 
ROOT
HETATM    1  C1  UNL     1     -34.577   5.285   4.391  1.00 20.00     0.294 A 
HETATM    2  C2  UNL     1     -34.138   6.499   3.600  1.00 20.00     0.106 A 
HETATM    3  C3  UNL     1     -33.880   7.781   4.325  1.00 20.00     0.051 C 
HETATM    4  C4  UNL     1     -33.501   6.348   2.254  1.00 20.00     0.051 C 
HETATM    5  O6  UNL     1     -35.509   6.078   3.639  1.00 20.00    -0.343 OA
ENDROOT
BRANCH   1   6
HETATM    6  O7  UNL     1     -34.269   3.994   3.846  1.00 20.00    -0.363 OA
HETATM    7  C5  UNL     1     -33.439   3.257   4.724  1.00 20.00     0.204 C 
ENDBRANCH   1   6
TORSDOF 1
ENDMDL
MODEL 3
REMARK VINA RESULT:      -1.0      1.750      2.307
REMARK  1 active torsions:
REMARK  status: ('A' for Active; 'I' for Inactive)
REMARK    1  A    between atoms: C1_1  and  O7_7 
ROOT
HETATM    1  C1  UNL     1     -33.642   7.326   2.660  1.00 20.00     0.294 A 
HETATM    2  C2  UNL     1     -34.212   6.238   3.545  1.00 20.00     0.106 A 
HETATM    3  C3  UNL     1     -35.644   6.323   3.967  1.00 20.00     0.051 C 
HETATM    4  C4  UNL     1     -33.572   4.886   3.606  1.00 20.00     0.051 C 
HETATM    5  O6  UNL     1     -33.390   7.288   4.073  1.00 20.00    -0.343 OA
ENDROOT
BRANCH   1   6
HETATM    6  O7  UNL     1     -32.535   6.980   1.816  1.00 20.00    -0.363 OA
HETATM    7  C5  UNL     1     -31.727   8.111   1.548  1.00 20.00     0.204 C 
ENDBRANCH   1   6
TORSDOF 1
ENDMDL
MODEL 4
REMARK VINA RESULT:      -0.9      2.042      2.899
REMARK  1 active torsions:
REMARK  status: ('A' for Active; 'I' for Inactive)
REMARK    1  A    between atoms: C1_1  and  O7_7 
ROOT
HETATM    1  C1  UNL     1     -32.887   6.279   2.737  1.00 20.00     0.294 A 
HETATM    2  C2  UNL     1     -34.094   5.647   3.397  1.00 20.00     0.106 A 
HETATM    3  C3  UNL     1     -33.958   4.287   4.005  1.00 20.00     0.051 C 
HETATM    4  C4  UNL     1     -35.231   6.490   3.882  1.00 20.00     0.051 C 
HETATM    5  O6  UNL     1     -33.933   5.662   1.972  1.00 20.00    -0.343 OA
ENDROOT
BRANCH   1   6
HETATM    6  O7  UNL     1     -32.835   7.712   2.687  1.00 20.00    -0.363 OA
HETATM    7  C5  UNL     1     -31.967   8.153   1.659  1.00 20.00     0.204 C 
ENDBRANCH   1   6
TORSDOF 1
ENDMDL
MODEL 5
REMARK VINA RESULT:      -0.7      1.542      3.365
REMARK  1 active torsions:
REMARK  status: ('A' for Active; 'I' for Inactive)
REMARK    1  A    between atoms: C1_1  and  O7_7 
ROOT
HETATM    1  C1  UNL     1     -33.267   6.921   2.078  1.00 20.00     0.294 A 
HETATM    2  C2  UNL     1     -32.237   8.020   1.927  1.00 20.00     0.106 A 
HETATM    3  C3  UNL     1     -32.319   8.933   0.746  1.00 20.00     0.051 C 
HETATM    4  C4  UNL     1     -31.472   8.522   3.112  1.00 20.00     0.051 C 
HETATM    5  O6  UNL     1     -31.944   6.657   1.588  1.00 20.00    -0.343 OA
ENDROOT
BRANCH   1   6
HETATM    6  O7  UNL     1     -33.547   6.455   3.406  1.00 20.00    -0.363 OA
HETATM    7  C5  UNL     1     -34.924   6.586   3.710  1.00 20.00     0.204 C 
ENDBRANCH   1   6
TORSDOF 1
ENDMDL
MODEL 6
REMARK VINA RESULT:      -0.4      1.858      3.474
REMARK  1 active torsions:
REMARK  status: ('A' for Active; 'I' for Inactive)
REMARK    1  A    between atoms: C1_1  and  O7_7 
ROOT
HETATM    1  C1  UNL     1     -33.371   7.163   3.466  1.00 20.00     0.294 A 
HETATM    2  C2  UNL     1     -32.635   7.133   2.144  1.00 20.00     0.106 A 
HETATM    3  C3  UNL     1     -31.481   8.061   1.937  1.00 20.00     0.051 C 
HETATM    4  C4  UNL     1     -32.697   5.928   1.259  1.00 20.00     0.051 C 
HETATM    5  O6  UNL     1     -33.896   7.802   2.293  1.00 20.00    -0.343 OA
ENDROOT
BRANCH   1   6
HETATM    6  O7  UNL     1     -34.040   5.962   3.878  1.00 20.00    -0.363 OA
HETATM    7  C5  UNL     1     -35.424   6.192   4.072  1.00 20.00     0.204 C 
ENDBRANCH   1   6
TORSDOF 1
ENDMDL
MODEL 7
REMARK VINA RESULT:      -0.4      1.482      2.502
REMARK  1 active torsions:
REMARK  status: ('A' for Active; 'I' for Inactive)
REMARK    1  A    between atoms: C1_1  and  O7_7 
ROOT
HETATM    1  C1  UNL     1     -33.338   7.219   2.534  1.00 20.00     0.294 A 
HETATM    2  C2  UNL     1     -34.057   7.241   3.866  1.00 20.00     0.106 A 
HETATM    3  C3  UNL     1     -35.044   6.162   4.175  1.00 20.00     0.051 C 
HETATM    4  C4  UNL     1     -33.484   7.983   5.033  1.00 20.00     0.051 C 
HETATM    5  O6  UNL     1     -34.451   8.093   2.780  1.00 20.00    -0.343 OA
ENDROOT
BRANCH   1   6
HETATM    6  O7  UNL     1     -32.050   7.848   2.466  1.00 20.00    -0.363 OA
HETATM    7  C5  UNL     1     -31.891   8.551   1.248  1.00 20.00     0.204 C 
ENDBRANCH   1   6
TORSDOF 1
ENDMDL
MODEL 8
REMARK VINA RESULT:       0.1      2.305      4.029
REMARK  1 active torsions:
REMARK  status: ('A' for Active; 'I' for Inactive)
REMARK    1  A    between atoms: C1_1  and  O7_7 
ROOT
HETATM    1  C1  UNL     1     -34.337   6.578   2.870  1.00 20.00     0.294 A 
HETATM    2  C2  UNL     1     -33.110   7.422   3.140  1.00 20.00     0.106 A 
HETATM    3  C3  UNL     1     -32.361   8.003   1.984  1.00 20.00     0.051 C 
HETATM    4  C4  UNL     1     -32.909   8.080   4.470  1.00 20.00     0.051 C 
HETATM    5  O6  UNL     1     -33.069   5.989   3.196  1.00 20.00    -0.343 OA
ENDROOT
BRANCH   1   6
HETATM    6  O7  UNL     1     -35.338   6.519   3.896  1.00 20.00    -0.363 OA
HETATM    7  C5  UNL     1     -35.379   5.235   4.492  1.00 20.00     0.204 C 
ENDBRANCH   1   6
TORSDOF 1
ENDMDL
MODEL 9
REMARK VINA RESULT:       0.1      2.542      3.786
REMARK  1 active torsions:
REMARK  status: ('A' for Active; 'I' for Inactive)
REMARK    1  A    between atoms: C1_1  and  O7_7 
ROOT
HETATM    1  C1  UNL     1     -33.816   5.642   2.699  1.00 20.00     0.294 A 
HETATM    2  C2  UNL     1     -32.733   5.995   1.702  1.00 20.00     0.106 A 
HETATM    3  C3  UNL     1     -32.661   5.239   0.413  1.00 20.00     0.051 C 
HETATM    4  C4  UNL     1     -32.070   7.336   1.732  1.00 20.00     0.051 C 
HETATM    5  O6  UNL     1     -32.462   5.192   2.860  1.00 20.00    -0.343 OA
ENDROOT
BRANCH   1   6
HETATM    6  O7  UNL     1     -34.245   6.673   3.600  1.00 20.00    -0.363 OA
HETATM    7  C5  UNL     1     -35.462   6.320   4.232  1.00 20.00     0.204 C 
ENDBRANCH   1   6
TORSDOF 1
ENDMDL
