MODEL 1
REMARK VINA RESULT:      -0.4      0.000      0.000
REMARK  1 active torsions:
REMARK  status: ('A' for Active; 'I' for Inactive)
REMARK    1  A    between atoms: C1_1  and  C8_8 
ROOT
HETATM    1  C1  UNL     1     -33.473   6.333   2.640  1.00 20.00     0.139 C 
HETATM    2  C2  UNL     1     -31.720   6.571   1.351  1.00 20.00     0.209 C 
HETATM    3  C3  UNL     1     -32.110   7.899   1.989  1.00 20.00     0.070 C 
HETATM    4  C4  UNL     1     -30.934   8.564   2.697  1.00 20.00     0.042 C 
HETATM    5  C5  UNL     1     -32.737   8.857   0.972  1.00 20.00     0.042 C 
HETATM    6  N9  UNL     1     -33.143   7.537   2.980  1.00 20.00    -0.258 NA
HETATM    7  O10 UNL     1     -32.820   5.714   1.631  1.00 20.00    -0.335 OA
ENDROOT
BRANCH   1   8
HETATM    8  C8  UNL     1     -34.540   5.524   3.280  1.00 20.00     0.054 C 
HETATM    9  C6  UNL     1     -33.945   4.319   4.012  1.00 20.00     0.018 C 
HETATM   10  C7  UNL     1     -35.378   6.370   4.243  1.00 20.00     0.018 C 
ENDBRANCH   1   8
TORSDOF 1
ENDMDL
MODEL 2
REMARK VINA RESULT:       0.0      1.471      3.936
REMARK  1 active torsions:
REMARK  status: ('A' for Active; 'I' for Inactive)
REMARK    1  A    between atoms: C1_1  and  C8_8 
ROOT
HETATM    1  C1  UNL     1     -33.106   7.149   2.799  1.00 20.00     0.139 C 
HETATM    2  C2  UNL     1     -34.266   7.455   4.631  1.00 20.00     0.209 C 
HETATM    3  C3  UNL     1     -34.863   6.332   3.790  1.00 20.00     0.070 C 
HETATM    4  C4  UNL     1     -35.055   5.051   4.595  1.00 20.00     0.042 C 
HETATM    5  C5  UNL     1     -36.177   6.754   3.127  1.00 20.00     0.042 C 
HETATM    6  N9  UNL     1     -33.863   6.102   2.728  1.00 20.00    -0.258 NA
HETATM    7  O10 UNL     1     -33.317   8.069   3.767  1.00 20.00    -0.335 OA
ENDROOT
BRANCH   1   8
HETATM    8  C8  UNL     1     -31.975   7.452   1.888  1.00 20.00     0.054 C 
HETATM    9  C6  UNL     1     -31.713   6.280   0.938  1.00 20.00     0.018 C 
HETATM   10  C7  UNL     1     -32.228   8.736   1.092  1.00 20.00     0.018 C 
ENDBRANCH   1   8
TORSDOF 1
ENDMDL
MODEL 3
REMARK VINA RESULT:       0.7      1.224      1.781
REMARK  1 active torsions:
REMARK  status: ('A' for Active; 'I' for Inactive)
REMARK    1  A    between atoms: C1_1  and  C8_8 
ROOT
HETATM    1  C1  UNL     1     -33.586   6.645   2.904  1.00 20.00     0.139 C 
HETATM    2  C2  UNL     1     -32.533   8.538   3.224  1.00 20.00     0.209 C 
HETATM    3  C3  UNL     1     -32.253   7.989   1.829  1.00 20.00     0.070 C 
HETATM    4  C4  UNL     1     -32.532   9.019   0.739  1.00 20.00     0.042 C 
HETATM    5  C5  UNL     1     -30.826   7.449   1.706  1.00 20.00     0.042 C 
HETATM    6  N9  UNL     1     -33.190   6.856   1.690  1.00 20.00    -0.258 NA
HETATM    7  O10 UNL     1     -33.173   7.463   3.898  1.00 20.00    -0.335 OA
ENDROOT
BRANCH   1   8
HETATM    8  C8  UNL     1     -34.493   5.551   3.331  1.00 20.00     0.054 C 
HETATM    9  C6  UNL     1     -33.695   4.369   3.887  1.00 20.00     0.018 C 
HETATM   10  C7  UNL     1     -35.509   6.042   4.366  1.00 20.00     0.018 C 
ENDBRANCH   1   8
TORSDOF 1
ENDMDL
MODEL 4
REMARK VINA RESULT:       0.8      1.704      2.735
REMARK  1 active torsions:
REMARK  status: ('A' for Active; 'I' for Inactive)
REMARK    1  A    between atoms: C1_1  and  C8_8 
ROOT
HETATM    1  C1  UNL     1     -33.489   6.866   2.809  1.00 20.00     0.139 C 
HETATM    2  C2  UNL     1     -32.060   7.093   1.166  1.00 20.00     0.209 C 
HETATM    3  C3  UNL     1     -32.438   5.629   1.359  1.00 20.00     0.070 C 
HETATM    4  C4  UNL     1     -32.912   4.983   0.061  1.00 20.00     0.042 C 
HETATM    5  C5  UNL     1     -31.293   4.821   1.975  1.00 20.00     0.042 C 
HETATM    6  N9  UNL     1     -33.552   5.666   2.328  1.00 20.00    -0.258 NA
HETATM    7  O10 UNL     1     -32.585   7.742   2.317  1.00 20.00    -0.335 OA
ENDROOT
BRANCH   1   8
HETATM    8  C8  UNL     1     -34.353   7.401   3.890  1.00 20.00     0.054 C 
HETATM    9  C6  UNL     1     -35.307   6.322   4.408  1.00 20.00     0.018 C 
HETATM   10  C7  UNL     1     -33.518   7.971   5.040  1.00 20.00     0.018 C 
ENDBRANCH   1   8
TORSDOF 1
ENDMDL
MODEL 5
REMARK VINA RESULT:       1.1      1.553      4.066
REMARK  1 active torsions:
REMARK  status: ('A' for Active; 'I' for Inactive)
REMARK    1  A    between atoms: C1_1  and  C8_8 
ROOT
HETATM    1  C1  UNL     1     -32.579   8.482   1.637  1.00 20.00     0.139 C 
HETATM    2  C2  UNL     1     -32.624   6.472   2.504  1.00 20.00     0.209 C 
HETATM    3  C3  UNL     1     -33.516   7.425   3.293  1.00 20.00     0.070 C 
HETATM    4  C4  UNL     1     -34.930   6.880   3.463  1.00 20.00     0.042 C 
HETATM    5  C5  UNL     1     -32.908   7.779   4.653  1.00 20.00     0.042 C 
HETATM    6  N9  UNL     1     -33.555   8.651   2.471  1.00 20.00    -0.258 NA
HETATM    7  O10 UNL     1     -31.879   7.325   1.644  1.00 20.00    -0.335 OA
ENDROOT
BRANCH   1   8
HETATM    8  C8  UNL     1     -32.136   9.473   0.626  1.00 20.00     0.054 C 
HETATM    9  C6  UNL     1     -32.433   8.975  -0.791  1.00 20.00     0.018 C 
HETATM   10  C7  UNL     1     -32.791  10.838   0.858  1.00 20.00     0.018 C 
ENDBRANCH   1   8
TORSDOF 1
ENDMDL
MODEL 6
REMARK VINA RESULT:       1.4      1.809      2.640
REMARK  1 active torsions:
REMARK  status: ('A' for Active; 'I' for Inactive)
REMARK    1  A    between atoms: C1_1  and  C8_8 
ROOT
HETATM    1  C1  UNL     1     -32.439   7.963   1.764  1.00 20.00     0.139 C 
HETATM    2  C2  UNL     1     -30.970   9.093   0.600  1.00 20.00     0.209 C 
HETATM    3  C3  UNL     1     -32.329   9.784   0.579  1.00 20.00     0.070 C 
HETATM    4  C4  UNL     1     -32.235  11.248   0.996  1.00 20.00     0.042 C 
HETATM    5  C5  UNL     1     -33.011   9.656  -0.786  1.00 20.00     0.042 C 
HETATM    6  N9  UNL     1     -33.131   9.039   1.569  1.00 20.00    -0.258 NA
HETATM    7  O10 UNL     1     -31.239   7.814   1.159  1.00 20.00    -0.335 OA
ENDROOT
BRANCH   1   8
HETATM    8  C8  UNL     1     -32.847   6.828   2.629  1.00 20.00     0.054 C 
HETATM    9  C6  UNL     1     -34.053   7.207   3.492  1.00 20.00     0.018 C 
HETATM   10  C7  UNL     1     -33.158   5.579   1.799  1.00 20.00     0.018 C 
ENDBRANCH   1   8
TORSDOF 1
ENDMDL
MODEL 7
REMARK VINA RESULT:       1.5      0.778      3.908
REMARK  1 active torsions:
REMARK  status: ('A' for Active; 'I' for Inactive)
REMARK    1  A    between atoms: C1_1  and  C8_8 
ROOT
HETATM    1  C1  UNL     1     -32.708   7.089   2.303  1.00 20.00     0.139 C 
HETATM    2  C2  UNL     1     -34.099   5.468   1.827  1.00 20.00     0.209 C 
HETATM    3  C3  UNL     1     -34.158   5.816   3.310  1.00 20.00     0.070 C 
HETATM    4  C4  UNL     1     -35.582   6.095   3.779  1.00 20.00     0.042 C 
HETATM    5  C5  UNL     1     -33.509   4.733   4.176  1.00 20.00     0.042 C 
HETATM    6  N9  UNL     1     -33.350   7.047   3.426  1.00 20.00    -0.258 NA
HETATM    7  O10 UNL     1     -32.952   6.160   1.352  1.00 20.00    -0.335 OA
ENDROOT
BRANCH   1   8
HETATM    8  C8  UNL     1     -31.690   8.105   1.937  1.00 20.00     0.054 C 
HETATM    9  C6  UNL     1     -32.214   9.027   0.834  1.00 20.00     0.018 C 
HETATM   10  C7  UNL     1     -31.257   8.925   3.156  1.00 20.00     0.018 C 
ENDBRANCH   1   8
TORSDOF 1
ENDMDL
MODEL 8
REMARK VINA RESULT:       1.9      1.843      4.255
REMARK  1 active torsions:
REMARK  status: ('A' for Active; 'I' for Inactive)
REMARK    1  A    between atoms: C1_1  and  C8_8 
ROOT
HETATM    1  C1  UNL     1     -32.246   8.675   1.124  1.00 20.00     0.139 C 
HETATM    2  C2  UNL     1     -31.408   7.146   2.448  1.00 20.00     0.209 C 
HETATM    3  C3  UNL     1     -32.786   6.732   1.943  1.00 20.00     0.070 C 
HETATM    4  C4  UNL     1     -32.774   5.342   1.317  1.00 20.00     0.042 C 
HETATM    5  C5  UNL     1     -33.846   6.818   3.045  1.00 20.00     0.042 C 
HETATM    6  N9  UNL     1     -33.111   7.736   0.910  1.00 20.00    -0.258 NA
HETATM    7  O10 UNL     1     -31.296   8.513   2.072  1.00 20.00    -0.335 OA
ENDROOT
BRANCH   1   8
HETATM    8  C8  UNL     1     -32.186   9.966   0.395  1.00 20.00     0.054 C 
HETATM    9  C6  UNL     1     -32.815   9.836  -0.995  1.00 20.00     0.018 C 
HETATM   10  C7  UNL     1     -32.870  11.085   1.186  1.00 20.00     0.018 C 
ENDBRANCH   1   8
TORSDOF 1
ENDMDL
MODEL 9
REMARK VINA RESULT:       2.2      1.415      3.701
REMARK  1 active torsions:
REMARK  status: ('A' for Active; 'I' for Inactive)
REMARK    1  A    between atoms: C1_1  and  C8_8 
ROOT
HETATM    1  C1  UNL     1     -33.060   5.880   2.529  1.00 20.00     0.139 C 
HETATM    2  C2  UNL     1     -34.454   5.079   4.015  1.00 20.00     0.209 C 
HETATM    3  C3  UNL     1     -34.750   6.546   3.728  1.00 20.00     0.070 C 
HETATM    4  C4  UNL     1     -36.212   6.776   3.359  1.00 20.00     0.042 C 
HETATM    5  C5  UNL     1     -34.341   7.449   4.895  1.00 20.00     0.042 C 
HETATM    6  N9  UNL     1     -33.893   6.870   2.570  1.00 20.00    -0.258 NA
HETATM    7  O10 UNL     1     -33.195   4.850   3.395  1.00 20.00    -0.335 OA
ENDROOT
BRANCH   1   8
HETATM    8  C8  UNL     1     -31.926   5.754   1.581  1.00 20.00     0.054 C 
HETATM    9  C6  UNL     1     -32.265   4.776   0.454  1.00 20.00     0.018 C 
HETATM   10  C7  UNL     1     -31.528   7.116   1.003  1.00 20.00     0.018 C 
ENDBRANCH   1   8
TORSDOF 1
ENDMDL
