MODEL 1
REMARK VINA RESULT:      -1.6      0.000      0.000
REMARK  0 active torsions:
REMARK  status: ('A' for Active; 'I' for Inactive)
ROOT
HETATM    1  C1  UNL     1     -34.302   5.613   3.717  1.00 20.00    -0.089 C 
HETATM    2  C2  UNL     1     -34.985   4.735   4.470  1.00 20.00     0.014 C 
HETATM    3  C3  UNL     1     -34.728   7.059   3.670  1.00 20.00     0.033 C 
HETATM    4  C4  UNL     1     -33.132   5.137   2.883  1.00 20.00     0.033 C 
HETATM    5  C5  UNL     1     -33.744   8.056   4.280  1.00 20.00     0.004 C 
HETATM    6  C6  UNL     1     -32.994   5.770   1.493  1.00 20.00     0.004 C 
HETATM    7  C7  UNL     1     -32.358   8.149   3.640  1.00 20.00     0.000 C 
HETATM    8  C8  UNL     1     -31.984   6.919   1.410  1.00 20.00     0.000 C 
HETATM    9  C9  UNL     1     -32.359   8.226   2.113  1.00 20.00     0.000 C 
ENDROOT
TORSDOF 0
ENDMDL
MODEL 2
REMARK VINA RESULT:      -1.6      0.828      3.212
REMARK  0 active torsions:
REMARK  status: ('A' for Active; 'I' for Inactive)
ROOT
HETATM    1  C1  UNL     1     -32.680   7.282   2.298  1.00 20.00    -0.089 C 
HETATM    2  C2  UNL     1     -32.104   8.214   1.518  1.00 20.00     0.014 C 
HETATM    3  C3  UNL     1     -33.039   7.609   3.725  1.00 20.00     0.033 C 
HETATM    4  C4  UNL     1     -32.925   5.893   1.749  1.00 20.00     0.033 C 
HETATM    5  C5  UNL     1     -34.534   7.629   4.039  1.00 20.00     0.004 C 
HETATM    6  C6  UNL     1     -32.682   4.732   2.722  1.00 20.00     0.004 C 
HETATM    7  C7  UNL     1     -35.305   6.322   3.846  1.00 20.00     0.000 C 
HETATM    8  C8  UNL     1     -33.945   4.185   3.394  1.00 20.00     0.000 C 
HETATM    9  C9  UNL     1     -34.626   5.082   4.429  1.00 20.00     0.000 C 
ENDROOT
TORSDOF 0
ENDMDL
MODEL 3
REMARK VINA RESULT:      -1.2      0.722      2.489
REMARK  0 active torsions:
REMARK  status: ('A' for Active; 'I' for Inactive)
ROOT
HETATM    1  C1  UNL     1     -34.400   6.097   3.765  1.00 20.00    -0.089 C 
HETATM    2  C2  UNL     1     -35.477   5.485   4.288  1.00 20.00     0.014 C 
HETATM    3  C3  UNL     1     -33.328   5.287   3.082  1.00 20.00     0.033 C 
HETATM    4  C4  UNL     1     -34.250   7.597   3.905  1.00 20.00     0.033 C 
HETATM    5  C5  UNL     1     -33.182   5.523   1.579  1.00 20.00     0.004 C 
HETATM    6  C6  UNL     1     -32.830   8.109   4.177  1.00 20.00     0.004 C 
HETATM    7  C7  UNL     1     -32.800   6.934   1.129  1.00 20.00     0.000 C 
HETATM    8  C8  UNL     1     -32.083   8.617   2.940  1.00 20.00     0.000 C 
HETATM    9  C9  UNL     1     -31.650   7.571   1.911  1.00 20.00     0.000 C 
ENDROOT
TORSDOF 0
ENDMDL
MODEL 4
REMARK VINA RESULT:      -0.8      0.858      3.860
REMARK  0 active torsions:
REMARK  status: ('A' for Active; 'I' for Inactive)
ROOT
HETATM    1  C1  UNL     1     -32.713   7.314   2.291  1.00 20.00    -0.089 C 
HETATM    2  C2  UNL     1     -31.855   8.193   1.743  1.00 20.00     0.014 C 
HETATM    3  C3  UNL     1     -33.033   6.026   1.575  1.00 20.00     0.033 C 
HETATM    4  C4  UNL     1     -33.387   7.644   3.605  1.00 20.00     0.033 C 
HETATM    5  C5  UNL     1     -32.553   4.752   2.267  1.00 20.00     0.004 C 
HETATM    6  C6  UNL     1     -34.856   7.223   3.733  1.00 20.00     0.004 C 
HETATM    7  C7  UNL     1     -33.124   4.454   3.655  1.00 20.00     0.000 C 
HETATM    8  C8  UNL     1     -35.083   5.905   4.481  1.00 20.00     0.000 C 
HETATM    9  C9  UNL     1     -34.640   4.621   3.777  1.00 20.00     0.000 C 
ENDROOT
TORSDOF 0
ENDMDL
MODEL 5
REMARK VINA RESULT:       0.4      0.888      3.025
REMARK  0 active torsions:
REMARK  status: ('A' for Active; 'I' for Inactive)
ROOT
HETATM    1  C1  UNL     1     -32.491   5.596   1.452  1.00 20.00    -0.089 C 
HETATM    2  C2  UNL     1     -32.044   4.840   0.435  1.00 20.00     0.014 C 
HETATM    3  C3  UNL     1     -31.613   6.675   2.034  1.00 20.00     0.033 C 
HETATM    4  C4  UNL     1     -33.861   5.330   2.039  1.00 20.00     0.033 C 
HETATM    5  C5  UNL     1     -32.102   8.107   1.824  1.00 20.00     0.004 C 
HETATM    6  C6  UNL     1     -33.977   5.458   3.563  1.00 20.00     0.004 C 
HETATM    7  C7  UNL     1     -33.452   8.480   2.439  1.00 20.00     0.000 C 
HETATM    8  C8  UNL     1     -34.540   6.796   4.053  1.00 20.00     0.000 C 
HETATM    9  C9  UNL     1     -33.647   8.027   3.887  1.00 20.00     0.000 C 
ENDROOT
TORSDOF 0
ENDMDL
MODEL 6
REMARK VINA RESULT:       1.2      0.961      3.040
REMARK  0 active torsions:
REMARK  status: ('A' for Active; 'I' for Inactive)
ROOT
HETATM    1  C1  UNL     1     -32.299   5.622   1.291  1.00 20.00    -0.089 C 
HETATM    2  C2  UNL     1     -31.698   4.692   0.531  1.00 20.00     0.014 C 
HETATM    3  C3  UNL     1     -33.762   5.491   1.631  1.00 20.00     0.033 C 
HETATM    4  C4  UNL     1     -31.511   6.824   1.769  1.00 20.00     0.033 C 
HETATM    5  C5  UNL     1     -34.077   5.249   3.106  1.00 20.00     0.004 C 
HETATM    6  C6  UNL     1     -32.261   8.162   1.773  1.00 20.00     0.004 C 
HETATM    7  C7  UNL     1     -33.654   6.336   4.096  1.00 20.00     0.000 C 
HETATM    8  C8  UNL     1     -32.826   8.575   3.136  1.00 20.00     0.000 C 
HETATM    9  C9  UNL     1     -34.005   7.763   3.674  1.00 20.00     0.000 C 
ENDROOT
TORSDOF 0
ENDMDL
