MODEL 1
REMARK VINA RESULT:      -2.4      0.000      0.000
REMARK  2 active torsions:
REMARK  status: ('A' for Active; 'I' for Inactive)
REMARK    1  A    between atoms: C1_1  and  C7_7 
REMARK       I    between atoms: C1_1  and  N9_9 
REMARK    2  A    between atoms: C7_7  and  C8_8 
ROOT
HETATM    1  C1  UNL     1     -32.388   6.749   1.971  1.00 20.00     0.219 C 
HETATM    2  C2  UNL     1     -34.702   4.992   4.223  1.00 20.00     0.021 C 
HETATM    3  C3  UNL     1     -35.334   6.379   4.185  1.00 20.00     0.021 C 
HETATM    4  C4  UNL     1     -33.819   4.988   2.986  1.00 20.00     0.126 C 
HETATM    5  C5  UNL     1     -34.196   7.257   3.681  1.00 20.00     0.126 C 
HETATM    6  N9  UNL     1     -33.406   6.375   2.829  1.00 20.00    -0.352 N 
HETATM    7  O10 UNL     1     -31.749   5.959   1.273  1.00 20.00    -0.273 OA
ENDROOT
BRANCH   1   8
HETATM    8  C7  UNL     1     -32.089   8.226   1.922  1.00 20.00     0.103 C 
BRANCH   8   9
HETATM    9  C8  UNL     1     -32.018   8.705   0.481  1.00 20.00     0.005 C 
HETATM   10  C6  UNL     1     -32.513  10.134   0.308  1.00 20.00     0.005 C 
ENDBRANCH   8   9
ENDBRANCH   1   8
TORSDOF 2
ENDMDL
MODEL 2
REMARK VINA RESULT:      -1.2      1.926      4.821
REMARK  2 active torsions:
REMARK  status: ('A' for Active; 'I' for Inactive)
REMARK    1  A    between atoms: C1_1  and  C7_7 
REMARK       I    between atoms: C1_1  and  N9_9 
REMARK    2  A    between atoms: C7_7  and  C8_8 
ROOT
HETATM    1  C1  UNL     1     -34.358   6.123   3.717  1.00 20.00     0.219 C 
HETATM    2  C2  UNL     1     -31.808   7.992   1.842  1.00 20.00     0.021 C 
HETATM    3  C3  UNL     1     -31.976   6.765   0.955  1.00 20.00     0.021 C 
HETATM    4  C4  UNL     1     -33.078   7.982   2.678  1.00 20.00     0.126 C 
HETATM    5  C5  UNL     1     -32.632   5.757   1.889  1.00 20.00     0.126 C 
HETATM    6  N9  UNL     1     -33.414   6.573   2.813  1.00 20.00    -0.352 N 
HETATM    7  O10 UNL     1     -34.989   6.857   4.479  1.00 20.00    -0.273 OA
ENDROOT
BRANCH   1   8
HETATM    8  C7  UNL     1     -34.592   4.632   3.725  1.00 20.00     0.103 C 
BRANCH   8   9
HETATM    9  C8  UNL     1     -33.891   3.991   4.911  1.00 20.00     0.005 C 
HETATM   10  C6  UNL     1     -33.143   2.719   4.538  1.00 20.00     0.005 C 
ENDBRANCH   8   9
ENDBRANCH   1   8
TORSDOF 2
ENDMDL
MODEL 3
REMARK VINA RESULT:      -0.7      1.282      4.517
REMARK  2 active torsions:
REMARK  status: ('A' for Active; 'I' for Inactive)
REMARK    1  A    between atoms: C1_1  and  C7_7 
REMARK       I    between atoms: C1_1  and  N9_9 
REMARK    2  A    between atoms: C7_7  and  C8_8 
ROOT
HETATM    1  C1  UNL     1     -32.363   7.452   1.952  1.00 20.00     0.219 C 
HETATM    2  C2  UNL     1     -32.214  10.060  -0.634  1.00 20.00     0.021 C 
HETATM    3  C3  UNL     1     -32.588  10.888   0.589  1.00 20.00     0.021 C 
HETATM    4  C4  UNL     1     -31.655   8.785  -0.022  1.00 20.00     0.126 C 
HETATM    5  C5  UNL     1     -33.126   9.842   1.556  1.00 20.00     0.126 C 
HETATM    6  N9  UNL     1     -32.391   8.626   1.223  1.00 20.00    -0.352 N 
HETATM    7  O10 UNL     1     -31.726   6.450   1.622  1.00 20.00    -0.273 OA
ENDROOT
BRANCH   1   8
HETATM    8  C7  UNL     1     -33.176   7.455   3.223  1.00 20.00     0.103 C 
BRANCH   8   9
HETATM    9  C8  UNL     1     -33.964   6.163   3.352  1.00 20.00     0.005 C 
HETATM   10  C6  UNL     1     -35.324   6.363   4.008  1.00 20.00     0.005 C 
ENDBRANCH   8   9
ENDBRANCH   1   8
TORSDOF 2
ENDMDL
MODEL 4
REMARK VINA RESULT:      -0.5      1.385      1.853
REMARK  2 active torsions:
REMARK  status: ('A' for Active; 'I' for Inactive)
REMARK    1  A    between atoms: C1_1  and  C7_7 
REMARK       I    between atoms: C1_1  and  N9_9 
REMARK    2  A    between atoms: C7_7  and  C8_8 
ROOT
HETATM    1  C1  UNL     1     -32.368   8.103   2.444  1.00 20.00     0.219 C 
HETATM    2  C2  UNL     1     -35.070   6.317   4.182  1.00 20.00     0.021 C 
HETATM    3  C3  UNL     1     -34.367   5.162   3.479  1.00 20.00     0.021 C 
HETATM    4  C4  UNL     1     -34.016   7.412   4.171  1.00 20.00     0.126 C 
HETATM    5  C5  UNL     1     -33.566   5.864   2.390  1.00 20.00     0.126 C 
HETATM    6  N9  UNL     1     -33.255   7.174   2.954  1.00 20.00    -0.352 N 
HETATM    7  O10 UNL     1     -32.144   9.199   2.961  1.00 20.00    -0.273 OA
ENDROOT
BRANCH   1   8
HETATM    8  C7  UNL     1     -31.655   7.696   1.179  1.00 20.00     0.103 C 
BRANCH   8   9
HETATM    9  C8  UNL     1     -31.322   8.918   0.340  1.00 20.00     0.005 C 
HETATM   10  C6  UNL     1     -32.562   9.671  -0.124  1.00 20.00     0.005 C 
ENDBRANCH   8   9
ENDBRANCH   1   8
TORSDOF 2
ENDMDL
MODEL 5
REMARK VINA RESULT:      -0.3      1.426      1.918
REMARK  2 active torsions:
REMARK  status: ('A' for Active; 'I' for Inactive)
REMARK    1  A    between atoms: C1_1  and  C7_7 
REMARK       I    between atoms: C1_1  and  N9_9 
REMARK    2  A    between atoms: C7_7  and  C8_8 
ROOT
HETATM    1  C1  UNL     1     -33.306   7.570   2.728  1.00 20.00     0.219 C 
HETATM    2  C2  UNL     1     -35.325   5.005   4.417  1.00 20.00     0.021 C 
HETATM    3  C3  UNL     1     -34.075   4.206   4.071  1.00 20.00     0.021 C 
HETATM    4  C4  UNL     1     -34.845   6.444   4.322  1.00 20.00     0.126 C 
HETATM    5  C5  UNL     1     -33.426   5.045   2.979  1.00 20.00     0.126 C 
HETATM    6  N9  UNL     1     -33.814   6.416   3.296  1.00 20.00    -0.352 N 
HETATM    7  O10 UNL     1     -33.672   8.707   3.031  1.00 20.00    -0.273 OA
ENDROOT
BRANCH   1   8
HETATM    8  C7  UNL     1     -32.237   7.366   1.684  1.00 20.00     0.103 C 
BRANCH   8   9
HETATM    9  C8  UNL     1     -31.605   8.694   1.304  1.00 20.00     0.005 C 
HETATM   10  C6  UNL     1     -32.327   9.386   0.157  1.00 20.00     0.005 C 
ENDBRANCH   8   9
ENDBRANCH   1   8
TORSDOF 2
ENDMDL
