MODEL 1
REMARK VINA RESULT:      -0.9      0.000      0.000
REMARK  3 active torsions:
REMARK  status: ('A' for Active; 'I' for Inactive)
REMARK    1  A    between atoms: C4_4  and  C10_10 
REMARK    2  A    between atoms: C5_5  and  C11_11 
REMARK    3  A    between atoms: C6_6  and  C12_12 
ROOT
HETATM    1  C7  UNL     1     -32.623   6.331   0.867  1.00 20.00     0.009 C 
HETATM    2  C8  UNL     1     -33.038   5.280   1.894  1.00 20.00     0.010 C 
HETATM    3  C9  UNL     1     -32.882   8.141   2.605  1.00 20.00     0.017 C 
HETATM    4  C10 UNL     1     -31.959   7.537   1.538  1.00 20.00     0.008 C 
HETATM    5  C11 UNL     1     -33.956   5.866   2.978  1.00 20.00     0.015 C 
HETATM    6  C12 UNL     1     -33.307   7.097   3.652  1.00 20.00     0.015 C 
ENDROOT
BRANCH   4   7
HETATM    7  C4  UNL     1     -31.579   8.562   0.515  1.00 20.00    -0.032 C 
HETATM    8  C1  UNL     1     -32.299   9.658   0.248  1.00 20.00     0.007 C 
ENDBRANCH   4   7
BRANCH   6   9
HETATM    9  C6  UNL     1     -34.227   7.736   4.652  1.00 20.00    -0.031 C 
HETATM   10  C3  UNL     1     -33.815   8.523   5.652  1.00 20.00     0.007 C 
ENDBRANCH   6   9
BRANCH   5  11
HETATM   11  C5  UNL     1     -34.295   4.787   3.966  1.00 20.00    -0.031 C 
HETATM   12  C2  UNL     1     -33.592   3.660   4.116  1.00 20.00     0.007 C 
ENDBRANCH   5  11
TORSDOF 3
ENDMDL
MODEL 2
REMARK VINA RESULT:      -0.7      0.957      1.221
REMARK  3 active torsions:
REMARK  status: ('A' for Active; 'I' for Inactive)
REMARK    1  A    between atoms: C4_4  and  C10_10 
REMARK    2  A    between atoms: C5_5  and  C11_11 
REMARK    3  A    between atoms: C6_6  and  C12_12 
ROOT
HETATM    1  C7  UNL     1     -31.979   6.143   1.047  1.00 20.00     0.009 C 
HETATM    2  C8  UNL     1     -32.337   4.993   1.986  1.00 20.00     0.010 C 
HETATM    3  C9  UNL     1     -33.225   7.755   2.536  1.00 20.00     0.017 C 
HETATM    4  C10 UNL     1     -31.909   7.476   1.797  1.00 20.00     0.008 C 
HETATM    5  C11 UNL     1     -33.648   5.256   2.744  1.00 20.00     0.015 C 
HETATM    6  C12 UNL     1     -33.599   6.609   3.491  1.00 20.00     0.015 C 
ENDROOT
BRANCH   4   7
HETATM    7  C4  UNL     1     -31.576   8.590   0.854  1.00 20.00    -0.032 C 
HETATM    8  C1  UNL     1     -32.433   9.555   0.501  1.00 20.00     0.007 C 
ENDBRANCH   4   7
BRANCH   6   9
HETATM    9  C6  UNL     1     -34.904   6.923   4.164  1.00 20.00    -0.031 C 
HETATM   10  C3  UNL     1     -36.101   6.612   3.656  1.00 20.00     0.007 C 
ENDBRANCH   6   9
BRANCH   5  11
HETATM   11  C5  UNL     1     -33.918   4.103   3.668  1.00 20.00    -0.031 C 
HETATM   12  C2  UNL     1     -32.976   3.481   4.385  1.00 20.00     0.007 C 
ENDBRANCH   5  11
TORSDOF 3
ENDMDL
MODEL 3
REMARK VINA RESULT:      -0.4      1.068      3.004
REMARK  3 active torsions:
REMARK  status: ('A' for Active; 'I' for Inactive)
REMARK    1  A    between atoms: C4_4  and  C10_10 
REMARK    2  A    between atoms: C5_5  and  C11_11 
REMARK    3  A    between atoms: C6_6  and  C12_12 
ROOT
HETATM    1  C7  UNL     1     -33.375   8.200   3.247  1.00 20.00     0.009 C 
HETATM    2  C8  UNL     1     -34.107   6.921   3.647  1.00 20.00     0.010 C 
HETATM    3  C9  UNL     1     -32.212   6.959   1.384  1.00 20.00     0.017 C 
HETATM    4  C10 UNL     1     -33.030   8.203   1.755  1.00 20.00     0.008 C 
HETATM    5  C11 UNL     1     -33.310   5.661   3.277  1.00 20.00     0.015 C 
HETATM    6  C12 UNL     1     -32.937   5.660   1.776  1.00 20.00     0.015 C 
ENDROOT
BRANCH   4   7
HETATM    7  C4  UNL     1     -32.295   9.456   1.391  1.00 20.00    -0.032 C 
HETATM    8  C1  UNL     1     -32.366  10.044   0.191  1.00 20.00     0.007 C 
ENDBRANCH   4   7
BRANCH   6   9
HETATM    9  C6  UNL     1     -32.082   4.480   1.414  1.00 20.00    -0.031 C 
HETATM   10  C3  UNL     1     -31.407   4.369   0.265  1.00 20.00     0.007 C 
ENDBRANCH   6   9
BRANCH   5  11
HETATM   11  C5  UNL     1     -34.103   4.448   3.669  1.00 20.00    -0.031 C 
HETATM   12  C2  UNL     1     -33.627   3.456   4.429  1.00 20.00     0.007 C 
ENDBRANCH   5  11
TORSDOF 3
ENDMDL
MODEL 4
REMARK VINA RESULT:      -0.0      0.835      4.140
REMARK  3 active torsions:
REMARK  status: ('A' for Active; 'I' for Inactive)
REMARK    1  A    between atoms: C4_4  and  C10_10 
REMARK    2  A    between atoms: C5_5  and  C11_11 
REMARK    3  A    between atoms: C6_6  and  C12_12 
ROOT
HETATM    1  C7  UNL     1     -32.513   4.810   2.190  1.00 20.00     0.009 C 
HETATM    2  C8  UNL     1     -32.486   6.138   1.437  1.00 20.00     0.010 C 
HETATM    3  C9  UNL     1     -33.872   5.874   4.031  1.00 20.00     0.017 C 
HETATM    4  C10 UNL     1     -33.766   4.688   3.063  1.00 20.00     0.008 C 
HETATM    5  C11 UNL     1     -32.600   7.341   2.387  1.00 20.00     0.015 C 
HETATM    6  C12 UNL     1     -33.851   7.222   3.289  1.00 20.00     0.015 C 
ENDROOT
BRANCH   4   7
HETATM    7  C4  UNL     1     -33.761   3.388   3.806  1.00 20.00    -0.032 C 
HETATM    8  C1  UNL     1     -33.032   3.155   4.903  1.00 20.00     0.007 C 
ENDBRANCH   4   7
BRANCH   6   9
HETATM    9  C6  UNL     1     -33.930   8.343   4.284  1.00 20.00    -0.031 C 
HETATM   10  C3  UNL     1     -33.171   8.424   5.382  1.00 20.00     0.007 C 
ENDBRANCH   6   9
BRANCH   5  11
HETATM   11  C5  UNL     1     -32.599   8.605   1.577  1.00 20.00    -0.031 C 
HETATM   12  C2  UNL     1     -31.864   8.788   0.475  1.00 20.00     0.007 C 
ENDBRANCH   5  11
TORSDOF 3
ENDMDL
MODEL 5
REMARK VINA RESULT:       0.7      1.191      5.143
REMARK  3 active torsions:
REMARK  status: ('A' for Active; 'I' for Inactive)
REMARK    1  A    between atoms: C4_4  and  C10_10 
REMARK    2  A    between atoms: C5_5  and  C11_11 
REMARK    3  A    between atoms: C6_6  and  C12_12 
ROOT
HETATM    1  C7  UNL     1     -34.302   6.631   3.725  1.00 20.00     0.009 C 
HETATM    2  C8  UNL     1     -33.477   7.764   3.120  1.00 20.00     0.010 C 
HETATM    3  C9  UNL     1     -32.899   4.940   2.485  1.00 20.00     0.017 C 
HETATM    4  C10 UNL     1     -33.479   5.344   3.846  1.00 20.00     0.008 C 
HETATM    5  C11 UNL     1     -32.878   7.377   1.759  1.00 20.00     0.015 C 
HETATM    6  C12 UNL     1     -32.060   6.069   1.862  1.00 20.00     0.015 C 
ENDROOT
BRANCH   4   7
HETATM    7  C4  UNL     1     -34.313   4.243   4.423  1.00 20.00    -0.032 C 
HETATM    8  C1  UNL     1     -33.832   3.047   4.780  1.00 20.00     0.007 C 
ENDBRANCH   4   7
BRANCH   6   9
HETATM    9  C6  UNL     1     -31.542   5.628   0.523  1.00 20.00    -0.031 C 
HETATM   10  C3  UNL     1     -31.429   4.349   0.149  1.00 20.00     0.007 C 
ENDBRANCH   6   9
BRANCH   5  11
HETATM   11  C5  UNL     1     -32.058   8.524   1.242  1.00 20.00    -0.031 C 
HETATM   12  C2  UNL     1     -32.542   9.504   0.472  1.00 20.00     0.007 C 
ENDBRANCH   5  11
TORSDOF 3
ENDMDL
MODEL 6
REMARK VINA RESULT:       1.0      1.329      3.595
REMARK  3 active torsions:
REMARK  status: ('A' for Active; 'I' for Inactive)
REMARK    1  A    between atoms: C4_4  and  C10_10 
REMARK    2  A    between atoms: C5_5  and  C11_11 
REMARK    3  A    between atoms: C6_6  and  C12_12 
ROOT
HETATM    1  C7  UNL     1     -33.563   5.036   2.149  1.00 20.00     0.009 C 
HETATM    2  C8  UNL     1     -33.791   5.962   3.342  1.00 20.00     0.010 C 
HETATM    3  C9  UNL     1     -32.134   6.799   1.046  1.00 20.00     0.017 C 
HETATM    4  C10 UNL     1     -32.223   5.326   1.465  1.00 20.00     0.008 C 
HETATM    5  C11 UNL     1     -33.697   7.444   2.947  1.00 20.00     0.015 C 
HETATM    6  C12 UNL     1     -32.357   7.747   2.238  1.00 20.00     0.015 C 
ENDROOT
BRANCH   4   7
HETATM    7  C4  UNL     1     -32.030   4.421   0.288  1.00 20.00    -0.032 C 
HETATM    8  C1  UNL     1     -30.868   3.837  -0.026  1.00 20.00     0.007 C 
ENDBRANCH   4   7
BRANCH   6   9
HETATM    9  C6  UNL     1     -32.286   9.171   1.765  1.00 20.00    -0.031 C 
HETATM   10  C3  UNL     1     -32.333   9.536   0.479  1.00 20.00     0.007 C 
ENDBRANCH   6   9
BRANCH   5  11
HETATM   11  C5  UNL     1     -33.900   8.289   4.171  1.00 20.00    -0.031 C 
HETATM   12  C2  UNL     1     -33.156   8.195   5.278  1.00 20.00     0.007 C 
ENDBRANCH   5  11
TORSDOF 3
ENDMDL
MODEL 7
REMARK VINA RESULT:       1.2      0.780      4.174
REMARK  3 active torsions:
REMARK  status: ('A' for Active; 'I' for Inactive)
REMARK    1  A    between atoms: C4_4  and  C10_10 
REMARK    2  A    between atoms: C5_5  and  C11_11 
REMARK    3  A    between atoms: C6_6  and  C12_12 
ROOT
HETATM    1  C7  UNL     1     -33.259   5.180   1.979  1.00 20.00     0.009 C 
HETATM    2  C8  UNL     1     -32.801   6.312   1.062  1.00 20.00     0.010 C 
HETATM    3  C9  UNL     1     -33.379   6.789   3.918  1.00 20.00     0.017 C 
HETATM    4  C10 UNL     1     -34.125   5.706   3.127  1.00 20.00     0.008 C 
HETATM    5  C11 UNL     1     -32.060   7.414   1.835  1.00 20.00     0.015 C 
HETATM    6  C12 UNL     1     -32.915   7.942   3.011  1.00 20.00     0.015 C 
ENDROOT
BRANCH   4   7
HETATM    7  C4  UNL     1     -34.545   4.581   4.023  1.00 20.00    -0.032 C 
HETATM    8  C1  UNL     1     -33.755   3.555   4.357  1.00 20.00     0.007 C 
ENDBRANCH   4   7
BRANCH   6   9
HETATM    9  C6  UNL     1     -32.171   8.956   3.831  1.00 20.00    -0.031 C 
HETATM   10  C3  UNL     1     -32.068   8.910   5.163  1.00 20.00     0.007 C 
ENDBRANCH   6   9
BRANCH   5  11
HETATM   11  C5  UNL     1     -31.670   8.504   0.878  1.00 20.00    -0.031 C 
HETATM   12  C2  UNL     1     -32.523   9.406   0.383  1.00 20.00     0.007 C 
ENDBRANCH   5  11
TORSDOF 3
ENDMDL
MODEL 8
REMARK VINA RESULT:       1.8      1.121      3.490
REMARK  3 active torsions:
REMARK  status: ('A' for Active; 'I' for Inactive)
REMARK    1  A    between atoms: C4_4  and  C10_10 
REMARK    2  A    between atoms: C5_5  and  C11_11 
REMARK    3  A    between atoms: C6_6  and  C12_12 
ROOT
HETATM    1  C7  UNL     1     -31.935   6.820   1.411  1.00 20.00     0.009 C 
HETATM    2  C8  UNL     1     -32.804   7.691   2.314  1.00 20.00     0.010 C 
HETATM    3  C9  UNL     1     -33.176   4.765   2.187  1.00 20.00     0.017 C 
HETATM    4  C10 UNL     1     -32.678   5.555   0.969  1.00 20.00     0.008 C 
HETATM    5  C11 UNL     1     -33.323   6.917   3.535  1.00 20.00     0.015 C 
HETATM    6  C12 UNL     1     -34.059   5.627   3.106  1.00 20.00     0.015 C 
ENDROOT
BRANCH   4   7
HETATM    7  C4  UNL     1     -31.799   4.708   0.102  1.00 20.00    -0.032 C 
HETATM    8  C1  UNL     1     -30.804   3.942   0.564  1.00 20.00     0.007 C 
ENDBRANCH   4   7
BRANCH   6   9
HETATM    9  C6  UNL     1     -34.494   4.812   4.290  1.00 20.00    -0.031 C 
HETATM   10  C3  UNL     1     -33.939   3.647   4.641  1.00 20.00     0.007 C 
ENDBRANCH   6   9
BRANCH   5  11
HETATM   11  C5  UNL     1     -34.193   7.825   4.356  1.00 20.00    -0.031 C 
HETATM   12  C2  UNL     1     -33.783   8.457   5.461  1.00 20.00     0.007 C 
ENDBRANCH   5  11
TORSDOF 3
ENDMDL
MODEL 9
REMARK VINA RESULT:       1.8      1.071      3.896
REMARK  3 active torsions:
REMARK  status: ('A' for Active; 'I' for Inactive)
REMARK    1  A    between atoms: C4_4  and  C10_10 
REMARK    2  A    between atoms: C5_5  and  C11_11 
REMARK    3  A    between atoms: C6_6  and  C12_12 
ROOT
HETATM    1  C7  UNL     1     -33.851   5.839   3.941  1.00 20.00     0.009 C 
HETATM    2  C8  UNL     1     -33.668   5.120   2.606  1.00 20.00     0.010 C 
HETATM    3  C9  UNL     1     -32.949   7.966   2.927  1.00 20.00     0.017 C 
HETATM    4  C10 UNL     1     -34.089   7.339   3.740  1.00 20.00     0.008 C 
HETATM    5  C11 UNL     1     -32.536   5.738   1.770  1.00 20.00     0.015 C 
HETATM    6  C12 UNL     1     -32.753   7.256   1.575  1.00 20.00     0.015 C 
ENDROOT
BRANCH   4   7
HETATM    7  C4  UNL     1     -34.246   8.025   5.061  1.00 20.00    -0.032 C 
HETATM    8  C1  UNL     1     -33.226   8.505   5.782  1.00 20.00     0.007 C 
ENDBRANCH   4   7
BRANCH   6   9
HETATM    9  C6  UNL     1     -31.610   7.893   0.837  1.00 20.00    -0.031 C 
HETATM   10  C3  UNL     1     -31.646   9.127   0.324  1.00 20.00     0.007 C 
ENDBRANCH   6   9
BRANCH   5  11
HETATM   11  C5  UNL     1     -32.436   5.003   0.465  1.00 20.00    -0.031 C 
HETATM   12  C2  UNL     1     -31.430   4.183   0.141  1.00 20.00     0.007 C 
ENDBRANCH   5  11
TORSDOF 3
ENDMDL
