MODEL 1
REMARK VINA RESULT:      -2.1      0.000      0.000
REMARK  2 active torsions:
REMARK  status: ('A' for Active; 'I' for Inactive)
REMARK    1  A    between atoms: C1_1  and  C2_2 
REMARK    2  A    between atoms: C3_3  and  C4_4 
ROOT
HETATM    1  C1  UNL     1     -32.898   5.580   2.255  1.00 20.00     0.051 C 
HETATM    2  C3  UNL     1     -33.726   5.364   3.290  1.00 20.00    -0.014 C 
HETATM    3  C5  UNL     1     -33.910   4.074   4.041  1.00 20.00     0.052 C 
ENDROOT
BRANCH   2   4
HETATM    4  C4  UNL     1     -34.588   6.499   3.795  1.00 20.00     0.151 C 
HETATM    5  C6  UNL     1     -33.950   7.706   4.438  1.00 20.00     0.096 C 
HETATM    6  O8  UNL     1     -35.814   6.439   3.681  1.00 20.00    -0.293 OA
ENDBRANCH   2   4
BRANCH   1   7
HETATM    7  C2  UNL     1     -32.751   6.872   1.546  1.00 20.00     0.259 C 
HETATM    8  O7  UNL     1     -31.758   7.575   1.693  1.00 20.00    -0.302 OA
ENDBRANCH   1   7
TORSDOF 2
ENDMDL
MODEL 2
REMARK VINA RESULT:      -2.0      1.705      2.930
REMARK  2 active torsions:
REMARK  status: ('A' for Active; 'I' for Inactive)
REMARK    1  A    between atoms: C1_1  and  C2_2 
REMARK    2  A    between atoms: C3_3  and  C4_4 
ROOT
HETATM    1  C1  UNL     1     -33.276   4.467   3.200  1.00 20.00     0.051 C 
HETATM    2  C3  UNL     1     -33.531   5.740   2.856  1.00 20.00    -0.014 C 
HETATM    3  C5  UNL     1     -33.001   6.470   1.652  1.00 20.00     0.052 C 
ENDROOT
BRANCH   2   4
HETATM    4  C4  UNL     1     -34.435   6.575   3.733  1.00 20.00     0.151 C 
HETATM    5  C6  UNL     1     -33.903   7.816   4.408  1.00 20.00     0.096 C 
HETATM    6  O8  UNL     1     -35.611   6.242   3.899  1.00 20.00    -0.293 OA
ENDBRANCH   2   4
BRANCH   1   7
HETATM    7  C2  UNL     1     -33.824   3.791   4.399  1.00 20.00     0.259 C 
HETATM    8  O7  UNL     1     -33.220   2.880   4.953  1.00 20.00    -0.302 OA
ENDBRANCH   1   7
TORSDOF 2
ENDMDL
MODEL 3
REMARK VINA RESULT:      -2.0      1.633      3.469
REMARK  2 active torsions:
REMARK  status: ('A' for Active; 'I' for Inactive)
REMARK    1  A    between atoms: C1_1  and  C2_2 
REMARK    2  A    between atoms: C3_3  and  C4_4 
ROOT
HETATM    1  C1  UNL     1     -33.755   6.486   2.955  1.00 20.00     0.051 C 
HETATM    2  C3  UNL     1     -32.766   6.639   2.059  1.00 20.00    -0.014 C 
HETATM    3  C5  UNL     1     -32.218   5.587   1.135  1.00 20.00     0.052 C 
ENDROOT
BRANCH   2   4
HETATM    4  C4  UNL     1     -32.098   7.988   1.921  1.00 20.00     0.151 C 
HETATM    5  C6  UNL     1     -32.467   8.904   0.779  1.00 20.00     0.096 C 
HETATM    6  O8  UNL     1     -31.250   8.342   2.743  1.00 20.00    -0.293 OA
ENDBRANCH   2   4
BRANCH   1   7
HETATM    7  C2  UNL     1     -34.262   7.556   3.844  1.00 20.00     0.259 C 
HETATM    8  O7  UNL     1     -33.718   7.814   4.911  1.00 20.00    -0.302 OA
ENDBRANCH   1   7
TORSDOF 2
ENDMDL
MODEL 4
REMARK VINA RESULT:      -1.9      1.066      2.198
REMARK  2 active torsions:
REMARK  status: ('A' for Active; 'I' for Inactive)
REMARK    1  A    between atoms: C1_1  and  C2_2 
REMARK    2  A    between atoms: C3_3  and  C4_4 
ROOT
HETATM    1  C1  UNL     1     -32.874   7.228   2.601  1.00 20.00     0.051 C 
HETATM    2  C3  UNL     1     -33.675   7.195   3.678  1.00 20.00    -0.014 C 
HETATM    3  C5  UNL     1     -33.668   8.158   4.833  1.00 20.00     0.052 C 
ENDROOT
BRANCH   2   4
HETATM    4  C4  UNL     1     -34.709   6.099   3.796  1.00 20.00     0.151 C 
HETATM    5  C6  UNL     1     -34.284   4.687   4.120  1.00 20.00     0.096 C 
HETATM    6  O8  UNL     1     -35.902   6.357   3.627  1.00 20.00    -0.293 OA
ENDBRANCH   2   4
BRANCH   1   7
HETATM    7  C2  UNL     1     -32.919   6.254   1.485  1.00 20.00     0.259 C 
HETATM    8  O7  UNL     1     -32.067   5.382   1.361  1.00 20.00    -0.302 OA
ENDBRANCH   1   7
TORSDOF 2
ENDMDL
MODEL 5
REMARK VINA RESULT:      -1.7      1.794      3.433
REMARK  2 active torsions:
REMARK  status: ('A' for Active; 'I' for Inactive)
REMARK    1  A    between atoms: C1_1  and  C2_2 
REMARK    2  A    between atoms: C3_3  and  C4_4 
ROOT
HETATM    1  C1  UNL     1     -34.357   5.420   4.073  1.00 20.00     0.051 C 
HETATM    2  C3  UNL     1     -33.998   6.564   3.468  1.00 20.00    -0.014 C 
HETATM    3  C5  UNL     1     -34.450   7.952   3.830  1.00 20.00     0.052 C 
ENDROOT
BRANCH   2   4
HETATM    4  C4  UNL     1     -33.044   6.512   2.297  1.00 20.00     0.151 C 
HETATM    5  C6  UNL     1     -32.124   7.676   2.017  1.00 20.00     0.096 C 
HETATM    6  O8  UNL     1     -33.017   5.518   1.569  1.00 20.00    -0.293 OA
ENDBRANCH   2   4
BRANCH   1   7
HETATM    7  C2  UNL     1     -33.883   4.073   3.680  1.00 20.00     0.259 C 
HETATM    8  O7  UNL     1     -33.757   3.172   4.501  1.00 20.00    -0.302 OA
ENDBRANCH   1   7
TORSDOF 2
ENDMDL
MODEL 6
REMARK VINA RESULT:      -1.6      1.408      3.923
REMARK  2 active torsions:
REMARK  status: ('A' for Active; 'I' for Inactive)
REMARK    1  A    between atoms: C1_1  and  C2_2 
REMARK    2  A    between atoms: C3_3  and  C4_4 
ROOT
HETATM    1  C1  UNL     1     -33.595   7.276   3.175  1.00 20.00     0.051 C 
HETATM    2  C3  UNL     1     -32.762   7.215   2.122  1.00 20.00    -0.014 C 
HETATM    3  C5  UNL     1     -31.967   8.350   1.537  1.00 20.00     0.052 C 
ENDROOT
BRANCH   2   4
HETATM    4  C4  UNL     1     -32.565   5.895   1.413  1.00 20.00     0.151 C 
HETATM    5  C6  UNL     1     -33.614   5.386   0.453  1.00 20.00     0.096 C 
HETATM    6  O8  UNL     1     -31.547   5.232   1.617  1.00 20.00    -0.293 OA
ENDBRANCH   2   4
BRANCH   1   7
HETATM    7  C2  UNL     1     -34.357   6.127   3.715  1.00 20.00     0.259 C 
HETATM    8  O7  UNL     1     -35.532   6.236   4.048  1.00 20.00    -0.302 OA
ENDBRANCH   1   7
TORSDOF 2
ENDMDL
MODEL 7
REMARK VINA RESULT:      -1.5      2.253      3.006
REMARK  2 active torsions:
REMARK  status: ('A' for Active; 'I' for Inactive)
REMARK    1  A    between atoms: C1_1  and  C2_2 
REMARK    2  A    between atoms: C3_3  and  C4_4 
ROOT
HETATM    1  C1  UNL     1     -32.135   8.088   0.700  1.00 20.00     0.051 C 
HETATM    2  C3  UNL     1     -32.361   7.205   1.686  1.00 20.00    -0.014 C 
HETATM    3  C5  UNL     1     -32.256   5.707   1.593  1.00 20.00     0.052 C 
ENDROOT
BRANCH   2   4
HETATM    4  C4  UNL     1     -32.765   7.710   3.052  1.00 20.00     0.151 C 
HETATM    5  C6  UNL     1     -34.081   7.287   3.658  1.00 20.00     0.096 C 
HETATM    6  O8  UNL     1     -32.018   8.470   3.673  1.00 20.00    -0.293 OA
ENDBRANCH   2   4
BRANCH   1   7
HETATM    7  C2  UNL     1     -32.251   9.558   0.841  1.00 20.00     0.259 C 
HETATM    8  O7  UNL     1     -32.592  10.268  -0.098  1.00 20.00    -0.302 OA
ENDBRANCH   1   7
TORSDOF 2
ENDMDL
MODEL 8
REMARK VINA RESULT:      -1.5      1.566      2.467
REMARK  2 active torsions:
REMARK  status: ('A' for Active; 'I' for Inactive)
REMARK    1  A    between atoms: C1_1  and  C2_2 
REMARK    2  A    between atoms: C3_3  and  C4_4 
ROOT
HETATM    1  C1  UNL     1     -33.494   7.722   3.156  1.00 20.00     0.051 C 
HETATM    2  C3  UNL     1     -34.132   6.566   3.405  1.00 20.00    -0.014 C 
HETATM    3  C5  UNL     1     -35.443   6.398   4.123  1.00 20.00     0.052 C 
ENDROOT
BRANCH   2   4
HETATM    4  C4  UNL     1     -33.514   5.268   2.939  1.00 20.00     0.151 C 
HETATM    5  C6  UNL     1     -33.608   4.031   3.800  1.00 20.00     0.096 C 
HETATM    6  O8  UNL     1     -32.932   5.217   1.853  1.00 20.00    -0.293 OA
ENDBRANCH   2   4
BRANCH   1   7
HETATM    7  C2  UNL     1     -32.201   7.836   2.443  1.00 20.00     0.259 C 
HETATM    8  O7  UNL     1     -32.110   8.423   1.371  1.00 20.00    -0.302 OA
ENDBRANCH   1   7
TORSDOF 2
ENDMDL
MODEL 9
REMARK VINA RESULT:      -1.5      1.918      3.124
REMARK  2 active torsions:
REMARK  status: ('A' for Active; 'I' for Inactive)
REMARK    1  A    between atoms: C1_1  and  C2_2 
REMARK    2  A    between atoms: C3_3  and  C4_4 
ROOT
HETATM    1  C1  UNL     1     -33.200   4.514   3.055  1.00 20.00     0.051 C 
HETATM    2  C3  UNL     1     -33.347   5.812   2.743  1.00 20.00    -0.014 C 
HETATM    3  C5  UNL     1     -32.749   6.527   1.563  1.00 20.00     0.052 C 
ENDROOT
BRANCH   2   4
HETATM    4  C4  UNL     1     -34.189   6.694   3.636  1.00 20.00     0.151 C 
HETATM    5  C6  UNL     1     -35.618   6.318   3.943  1.00 20.00     0.096 C 
HETATM    6  O8  UNL     1     -33.708   7.723   4.116  1.00 20.00    -0.293 OA
ENDBRANCH   2   4
BRANCH   1   7
HETATM    7  C2  UNL     1     -33.811   3.853   4.231  1.00 20.00     0.259 C 
HETATM    8  O7  UNL     1     -33.212   2.994   4.868  1.00 20.00    -0.302 OA
ENDBRANCH   1   7
TORSDOF 2
ENDMDL
