MODEL 1
REMARK VINA RESULT:      -0.9      0.000      0.000
REMARK  2 active torsions:
REMARK  status: ('A' for Active; 'I' for Inactive)
REMARK    1  A    between atoms: C5_5  and  C9_9 
REMARK    2  A    between atoms: C9_9  and  O10_10 
ROOT
HETATM    1  C1  UNL     1     -34.624   6.383   4.128  1.00 20.00    -0.024 C 
HETATM    2  C2  UNL     1     -33.970   5.317   3.649  1.00 20.00    -0.087 C 
HETATM    3  C3  UNL     1     -34.146   7.653   3.503  1.00 20.00     0.035 C 
HETATM    4  C4  UNL     1     -32.952   5.710   2.624  1.00 20.00     0.041 C 
HETATM    5  C5  UNL     1     -33.366   7.148   2.282  1.00 20.00     0.026 C 
HETATM    6  C6  UNL     1     -34.144   3.901   4.060  1.00 20.00     0.043 C 
ENDROOT
BRANCH   5   7
HETATM    7  C9  UNL     1     -32.189   8.038   1.916  1.00 20.00     0.055 C 
HETATM    8  C7  UNL     1     -31.621   8.730   3.156  1.00 20.00     0.045 C 
HETATM    9  C8  UNL     1     -32.588   9.076   0.864  1.00 20.00     0.045 C 
BRANCH   7  10
HETATM   10  O10 UNL     1     -31.147   7.224   1.369  1.00 20.00    -0.390 OA
HETATM   11  H26 UNL     1     -30.488   7.120   2.071  1.00 20.00     0.210 HD
ENDBRANCH   7  10
ENDBRANCH   5   7
TORSDOF 2
ENDMDL
MODEL 2
REMARK VINA RESULT:      -0.6      2.001      4.126
REMARK  2 active torsions:
REMARK  status: ('A' for Active; 'I' for Inactive)
REMARK    1  A    between atoms: C5_5  and  C9_9 
REMARK    2  A    between atoms: C9_9  and  O10_10 
ROOT
HETATM    1  C1  UNL     1     -31.945   6.332   1.184  1.00 20.00    -0.024 C 
HETATM    2  C2  UNL     1     -32.065   7.642   1.435  1.00 20.00    -0.087 C 
HETATM    3  C3  UNL     1     -32.937   5.528   1.959  1.00 20.00     0.035 C 
HETATM    4  C4  UNL     1     -33.161   7.918   2.416  1.00 20.00     0.041 C 
HETATM    5  C5  UNL     1     -33.937   6.594   2.424  1.00 20.00     0.026 C 
HETATM    6  C6  UNL     1     -31.230   8.739   0.882  1.00 20.00     0.043 C 
ENDROOT
BRANCH   5   7
HETATM    7  C9  UNL     1     -34.564   6.276   3.772  1.00 20.00     0.055 C 
HETATM    8  C7  UNL     1     -34.168   7.321   4.818  1.00 20.00     0.045 C 
HETATM    9  C8  UNL     1     -34.174   4.875   4.247  1.00 20.00     0.045 C 
BRANCH   7  10
HETATM   10  O10 UNL     1     -35.988   6.325   3.643  1.00 20.00    -0.390 OA
HETATM   11  H26 UNL     1     -36.347   6.101   4.513  1.00 20.00     0.210 HD
ENDBRANCH   7  10
ENDBRANCH   5   7
TORSDOF 2
ENDMDL
MODEL 3
REMARK VINA RESULT:      -0.4      0.921      1.374
REMARK  2 active torsions:
REMARK  status: ('A' for Active; 'I' for Inactive)
REMARK    1  A    between atoms: C5_5  and  C9_9 
REMARK    2  A    between atoms: C9_9  and  O10_10 
ROOT
HETATM    1  C1  UNL     1     -34.639   6.338   4.180  1.00 20.00    -0.024 C 
HETATM    2  C2  UNL     1     -33.988   5.286   3.668  1.00 20.00    -0.087 C 
HETATM    3  C3  UNL     1     -34.183   7.623   3.568  1.00 20.00     0.035 C 
HETATM    4  C4  UNL     1     -32.994   5.704   2.631  1.00 20.00     0.041 C 
HETATM    5  C5  UNL     1     -33.424   7.145   2.323  1.00 20.00     0.026 C 
HETATM    6  C6  UNL     1     -34.146   3.861   4.057  1.00 20.00     0.043 C 
ENDROOT
BRANCH   5   7
HETATM    7  C9  UNL     1     -32.260   8.050   1.950  1.00 20.00     0.055 C 
HETATM    8  C7  UNL     1     -31.199   7.278   1.164  1.00 20.00     0.045 C 
HETATM    9  C8  UNL     1     -31.639   8.691   3.193  1.00 20.00     0.045 C 
BRANCH   7  10
HETATM   10  O10 UNL     1     -32.742   9.095   1.099  1.00 20.00    -0.390 OA
HETATM   11  H26 UNL     1     -33.692   9.166   1.269  1.00 20.00     0.210 HD
ENDBRANCH   7  10
ENDBRANCH   5   7
TORSDOF 2
ENDMDL
MODEL 4
REMARK VINA RESULT:      -0.2      1.577      2.202
REMARK  2 active torsions:
REMARK  status: ('A' for Active; 'I' for Inactive)
REMARK    1  A    between atoms: C5_5  and  C9_9 
REMARK    2  A    between atoms: C9_9  and  O10_10 
ROOT
HETATM    1  C1  UNL     1     -35.106   4.745   4.566  1.00 20.00    -0.024 C 
HETATM    2  C2  UNL     1     -33.936   4.208   4.198  1.00 20.00    -0.087 C 
HETATM    3  C3  UNL     1     -35.201   6.185   4.180  1.00 20.00     0.035 C 
HETATM    4  C4  UNL     1     -33.065   5.209   3.505  1.00 20.00     0.041 C 
HETATM    5  C5  UNL     1     -34.054   6.334   3.172  1.00 20.00     0.026 C 
HETATM    6  C6  UNL     1     -33.471   2.820   4.446  1.00 20.00     0.043 C 
ENDROOT
BRANCH   5   7
HETATM    7  C9  UNL     1     -33.418   7.714   3.191  1.00 20.00     0.055 C 
HETATM    8  C7  UNL     1     -32.288   7.809   2.164  1.00 20.00     0.045 C 
HETATM    9  C8  UNL     1     -32.898   8.064   4.587  1.00 20.00     0.045 C 
BRANCH   7  10
HETATM   10  O10 UNL     1     -34.406   8.683   2.825  1.00 20.00    -0.390 OA
HETATM   11  H26 UNL     1     -33.928   9.407   2.394  1.00 20.00     0.210 HD
ENDBRANCH   7  10
ENDBRANCH   5   7
TORSDOF 2
ENDMDL
MODEL 5
REMARK VINA RESULT:      -0.1      1.894      4.085
REMARK  2 active torsions:
REMARK  status: ('A' for Active; 'I' for Inactive)
REMARK    1  A    between atoms: C5_5  and  C9_9 
REMARK    2  A    between atoms: C9_9  and  O10_10 
ROOT
HETATM    1  C1  UNL     1     -31.796   6.535   1.061  1.00 20.00    -0.024 C 
HETATM    2  C2  UNL     1     -31.968   7.845   1.277  1.00 20.00    -0.087 C 
HETATM    3  C3  UNL     1     -32.732   5.711   1.884  1.00 20.00     0.035 C 
HETATM    4  C4  UNL     1     -33.051   8.102   2.278  1.00 20.00     0.041 C 
HETATM    5  C5  UNL     1     -33.767   6.746   2.345  1.00 20.00     0.026 C 
HETATM    6  C6  UNL     1     -31.197   8.960   0.671  1.00 20.00     0.043 C 
ENDROOT
BRANCH   5   7
HETATM    7  C9  UNL     1     -34.345   6.442   3.717  1.00 20.00     0.055 C 
HETATM    8  C7  UNL     1     -35.873   6.376   3.664  1.00 20.00     0.045 C 
HETATM    9  C8  UNL     1     -33.894   7.478   4.749  1.00 20.00     0.045 C 
BRANCH   7  10
HETATM   10  O10 UNL     1     -33.880   5.157   4.141  1.00 20.00    -0.390 OA
HETATM   11  H26 UNL     1     -33.969   4.571   3.375  1.00 20.00     0.210 HD
ENDBRANCH   7  10
ENDBRANCH   5   7
TORSDOF 2
ENDMDL
MODEL 6
REMARK VINA RESULT:       0.1      1.851      3.333
REMARK  2 active torsions:
REMARK  status: ('A' for Active; 'I' for Inactive)
REMARK    1  A    between atoms: C5_5  and  C9_9 
REMARK    2  A    between atoms: C9_9  and  O10_10 
ROOT
HETATM    1  C1  UNL     1     -31.801   7.005   1.116  1.00 20.00    -0.024 C 
HETATM    2  C2  UNL     1     -32.263   5.756   1.252  1.00 20.00    -0.087 C 
HETATM    3  C3  UNL     1     -32.361   7.919   2.157  1.00 20.00     0.035 C 
HETATM    4  C4  UNL     1     -33.205   5.640   2.410  1.00 20.00     0.041 C 
HETATM    5  C5  UNL     1     -32.937   6.937   3.185  1.00 20.00     0.026 C 
HETATM    6  C6  UNL     1     -31.961   4.590   0.383  1.00 20.00     0.043 C 
ENDROOT
BRANCH   5   7
HETATM    7  C9  UNL     1     -34.168   7.473   3.898  1.00 20.00     0.055 C 
HETATM    8  C7  UNL     1     -33.796   8.067   5.258  1.00 20.00     0.045 C 
HETATM    9  C8  UNL     1     -35.228   6.382   4.067  1.00 20.00     0.045 C 
BRANCH   7  10
HETATM   10  O10 UNL     1     -34.733   8.529   3.114  1.00 20.00    -0.390 OA
HETATM   11  H26 UNL     1     -34.362   8.434   2.225  1.00 20.00     0.210 HD
ENDBRANCH   7  10
ENDBRANCH   5   7
TORSDOF 2
ENDMDL
MODEL 7
REMARK VINA RESULT:       0.3      1.546      2.448
REMARK  2 active torsions:
REMARK  status: ('A' for Active; 'I' for Inactive)
REMARK    1  A    between atoms: C5_5  and  C9_9 
REMARK    2  A    between atoms: C9_9  and  O10_10 
ROOT
HETATM    1  C1  UNL     1     -33.084   5.933   2.262  1.00 20.00    -0.024 C 
HETATM    2  C2  UNL     1     -33.790   6.806   2.991  1.00 20.00    -0.087 C 
HETATM    3  C3  UNL     1     -32.251   6.620   1.230  1.00 20.00     0.035 C 
HETATM    4  C4  UNL     1     -33.535   8.217   2.561  1.00 20.00     0.041 C 
HETATM    5  C5  UNL     1     -32.267   8.078   1.708  1.00 20.00     0.026 C 
HETATM    6  C6  UNL     1     -34.754   6.492   4.077  1.00 20.00     0.043 C 
ENDROOT
BRANCH   5   7
HETATM    7  C9  UNL     1     -32.201   9.081   0.567  1.00 20.00     0.055 C 
HETATM    8  C7  UNL     1     -30.799   9.120  -0.044  1.00 20.00     0.045 C 
HETATM    9  C8  UNL     1     -32.617  10.477   1.034  1.00 20.00     0.045 C 
BRANCH   7  10
HETATM   10  O10 UNL     1     -33.102   8.667  -0.465  1.00 20.00    -0.390 OA
HETATM   11  H26 UNL     1     -33.607   7.925  -0.102  1.00 20.00     0.210 HD
ENDBRANCH   7  10
ENDBRANCH   5   7
TORSDOF 2
ENDMDL
MODEL 8
REMARK VINA RESULT:       1.1      1.666      4.222
REMARK  2 active torsions:
REMARK  status: ('A' for Active; 'I' for Inactive)
REMARK    1  A    between atoms: C5_5  and  C9_9 
REMARK    2  A    between atoms: C9_9  and  O10_10 
ROOT
HETATM    1  C1  UNL     1     -32.361   9.438   2.070  1.00 20.00    -0.024 C 
HETATM    2  C2  UNL     1     -32.396   9.423   0.732  1.00 20.00    -0.087 C 
HETATM    3  C3  UNL     1     -32.357   8.056   2.639  1.00 20.00     0.035 C 
HETATM    4  C4  UNL     1     -32.418   8.025   0.196  1.00 20.00     0.041 C 
HETATM    5  C5  UNL     1     -32.002   7.197   1.419  1.00 20.00     0.026 C 
HETATM    6  C6  UNL     1     -32.449  10.598  -0.175  1.00 20.00     0.043 C 
ENDROOT
BRANCH   5   7
HETATM    7  C9  UNL     1     -32.642   5.818   1.454  1.00 20.00     0.055 C 
HETATM    8  C7  UNL     1     -33.449   5.623   2.739  1.00 20.00     0.045 C 
HETATM    9  C8  UNL     1     -31.589   4.716   1.315  1.00 20.00     0.045 C 
BRANCH   7  10
HETATM   10  O10 UNL     1     -33.555   5.705   0.358  1.00 20.00    -0.390 OA
HETATM   11  H26 UNL     1     -33.071   5.992  -0.429  1.00 20.00     0.210 HD
ENDBRANCH   7  10
ENDBRANCH   5   7
TORSDOF 2
ENDMDL
MODEL 9
REMARK VINA RESULT:       1.4      1.621      2.707
REMARK  2 active torsions:
REMARK  status: ('A' for Active; 'I' for Inactive)
REMARK    1  A    between atoms: C5_5  and  C9_9 
REMARK    2  A    between atoms: C9_9  and  O10_10 
ROOT
HETATM    1  C1  UNL     1     -34.893   6.695   4.138  1.00 20.00    -0.024 C 
HETATM    2  C2  UNL     1     -33.954   7.602   4.432  1.00 20.00    -0.087 C 
HETATM    3  C3  UNL     1     -34.532   5.895   2.929  1.00 20.00     0.035 C 
HETATM    4  C4  UNL     1     -32.813   7.548   3.464  1.00 20.00     0.041 C 
HETATM    5  C5  UNL     1     -33.038   6.200   2.765  1.00 20.00     0.026 C 
HETATM    6  C6  UNL     1     -33.984   8.597   5.534  1.00 20.00     0.043 C 
ENDROOT
BRANCH   5   7
HETATM    7  C9  UNL     1     -32.584   6.197   1.314  1.00 20.00     0.055 C 
HETATM    8  C7  UNL     1     -31.663   5.008   1.033  1.00 20.00     0.045 C 
HETATM    9  C8  UNL     1     -31.885   7.508   0.950  1.00 20.00     0.045 C 
BRANCH   7  10
HETATM   10  O10 UNL     1     -33.731   6.052   0.471  1.00 20.00    -0.390 OA
HETATM   11  H26 UNL     1     -34.323   6.786   0.690  1.00 20.00     0.210 HD
ENDBRANCH   7  10
ENDBRANCH   5   7
TORSDOF 2
ENDMDL
