MODEL 1
REMARK VINA RESULT:       0.7      0.000      0.000
REMARK  0 active torsions:
REMARK  status: ('A' for Active; 'I' for Inactive)
ROOT
HETATM    1  C1  UNL     1     -31.468   6.694   1.675  1.00 20.00     0.005 C 
HETATM    2  C2  UNL     1     -32.212   8.024   1.859  1.00 20.00     0.008 C 
HETATM    3  C3  UNL     1     -33.757   6.415   1.091  1.00 20.00     0.012 C 
HETATM    4  C4  UNL     1     -33.071   5.525   3.208  1.00 20.00     0.047 C 
HETATM    5  C5  UNL     1     -32.600   5.657   1.742  1.00 20.00    -0.011 C 
HETATM    6  C6  UNL     1     -33.672   7.579   2.087  1.00 20.00     0.025 C 
HETATM    7  C7  UNL     1     -33.844   6.842   3.442  1.00 20.00     0.117 C 
HETATM    8 CL8  UNL     1     -33.217   7.752   4.838  1.00 20.00    -0.101 Cl
HETATM    9 CL9  UNL     1     -35.581   6.504   3.751  1.00 20.00    -0.101 Cl
ENDROOT
TORSDOF 0
ENDMDL
MODEL 2
REMARK VINA RESULT:       1.9      1.868      2.543
REMARK  0 active torsions:
REMARK  status: ('A' for Active; 'I' for Inactive)
ROOT
HETATM    1  C1  UNL     1     -31.992   8.246   3.469  1.00 20.00     0.005 C 
HETATM    2  C2  UNL     1     -33.465   7.838   3.608  1.00 20.00     0.008 C 
HETATM    3  C3  UNL     1     -33.030   8.260   1.328  1.00 20.00     0.012 C 
HETATM    4  C4  UNL     1     -31.586   6.409   1.811  1.00 20.00     0.047 C 
HETATM    5  C5  UNL     1     -31.691   7.940   1.993  1.00 20.00    -0.011 C 
HETATM    6  C6  UNL     1     -33.805   7.274   2.213  1.00 20.00     0.025 C 
HETATM    7  C7  UNL     1     -33.055   5.945   1.931  1.00 20.00     0.117 C 
HETATM    8 CL8  UNL     1     -33.273   4.715   3.199  1.00 20.00    -0.101 Cl
HETATM    9 CL9  UNL     1     -33.616   5.231   0.380  1.00 20.00    -0.101 Cl
ENDROOT
TORSDOF 0
ENDMDL
MODEL 3
REMARK VINA RESULT:       1.9      2.020      3.355
REMARK  0 active torsions:
REMARK  status: ('A' for Active; 'I' for Inactive)
ROOT
HETATM    1  C1  UNL     1     -35.418   5.723   4.052  1.00 20.00     0.005 C 
HETATM    2  C2  UNL     1     -35.701   6.899   3.106  1.00 20.00     0.008 C 
HETATM    3  C3  UNL     1     -33.762   7.404   4.351  1.00 20.00     0.012 C 
HETATM    4  C4  UNL     1     -33.107   5.458   3.115  1.00 20.00     0.047 C 
HETATM    5  C5  UNL     1     -33.920   5.884   4.358  1.00 20.00    -0.011 C 
HETATM    6  C6  UNL     1     -34.311   7.544   2.924  1.00 20.00     0.025 C 
HETATM    7  C7  UNL     1     -33.349   6.623   2.129  1.00 20.00     0.117 C 
HETATM    8 CL8  UNL     1     -34.012   6.063   0.574  1.00 20.00    -0.101 Cl
HETATM    9 CL9  UNL     1     -31.808   7.481   1.783  1.00 20.00    -0.101 Cl
ENDROOT
TORSDOF 0
ENDMDL
MODEL 4
REMARK VINA RESULT:       2.1      2.604      3.463
REMARK  0 active torsions:
REMARK  status: ('A' for Active; 'I' for Inactive)
ROOT
HETATM    1  C1  UNL     1     -33.736   7.010   2.850  1.00 20.00     0.005 C 
HETATM    2  C2  UNL     1     -32.721   8.059   3.325  1.00 20.00     0.008 C 
HETATM    3  C3  UNL     1     -31.605   6.543   1.902  1.00 20.00     0.012 C 
HETATM    4  C4  UNL     1     -33.234   7.534   0.450  1.00 20.00     0.047 C 
HETATM    5  C5  UNL     1     -33.093   6.471   1.562  1.00 20.00    -0.011 C 
HETATM    6  C6  UNL     1     -31.657   8.047   2.207  1.00 20.00     0.025 C 
HETATM    7  C7  UNL     1     -32.215   8.616   0.876  1.00 20.00     0.117 C 
HETATM    8 CL8  UNL     1     -32.966  10.221   1.040  1.00 20.00    -0.101 Cl
HETATM    9 CL9  UNL     1     -30.901   8.753  -0.342  1.00 20.00    -0.101 Cl
ENDROOT
TORSDOF 0
ENDMDL
MODEL 5
REMARK VINA RESULT:       2.1      0.821      2.442
REMARK  0 active torsions:
REMARK  status: ('A' for Active; 'I' for Inactive)
ROOT
HETATM    1  C1  UNL     1     -33.115   6.942   0.685  1.00 20.00     0.005 C 
HETATM    2  C2  UNL     1     -32.915   5.808   1.699  1.00 20.00     0.008 C 
HETATM    3  C3  UNL     1     -31.618   7.652   2.392  1.00 20.00     0.012 C 
HETATM    4  C4  UNL     1     -33.855   8.505   2.500  1.00 20.00     0.047 C 
HETATM    5  C5  UNL     1     -32.728   8.193   1.490  1.00 20.00    -0.011 C 
HETATM    6  C6  UNL     1     -32.514   6.556   2.987  1.00 20.00     0.025 C 
HETATM    7  C7  UNL     1     -33.690   7.391   3.558  1.00 20.00     0.117 C 
HETATM    8 CL8  UNL     1     -35.187   6.456   3.792  1.00 20.00    -0.101 Cl
HETATM    9 CL9  UNL     1     -33.239   8.098   5.147  1.00 20.00    -0.101 Cl
ENDROOT
TORSDOF 0
ENDMDL
MODEL 6
REMARK VINA RESULT:       2.1      1.329      2.099
REMARK  0 active torsions:
REMARK  status: ('A' for Active; 'I' for Inactive)
ROOT
HETATM    1  C1  UNL     1     -32.585   8.338   1.333  1.00 20.00     0.005 C 
HETATM    2  C2  UNL     1     -33.505   7.277   0.714  1.00 20.00     0.008 C 
HETATM    3  C3  UNL     1     -31.769   6.168   1.863  1.00 20.00     0.012 C 
HETATM    4  C4  UNL     1     -32.896   7.350   3.616  1.00 20.00     0.047 C 
HETATM    5  C5  UNL     1     -31.888   7.567   2.466  1.00 20.00    -0.011 C 
HETATM    6  C6  UNL     1     -33.280   6.048   1.618  1.00 20.00     0.025 C 
HETATM    7  C7  UNL     1     -33.845   6.272   3.046  1.00 20.00     0.117 C 
HETATM    8 CL8  UNL     1     -35.548   6.791   3.070  1.00 20.00    -0.101 Cl
HETATM    9 CL9  UNL     1     -33.726   4.759   4.008  1.00 20.00    -0.101 Cl
ENDROOT
TORSDOF 0
ENDMDL
MODEL 7
REMARK VINA RESULT:       2.2      2.186      3.115
REMARK  0 active torsions:
REMARK  status: ('A' for Active; 'I' for Inactive)
ROOT
HETATM    1  C1  UNL     1     -34.768   7.683   4.104  1.00 20.00     0.005 C 
HETATM    2  C2  UNL     1     -33.260   7.631   4.388  1.00 20.00     0.008 C 
HETATM    3  C3  UNL     1     -33.984   5.451   3.850  1.00 20.00     0.012 C 
HETATM    4  C4  UNL     1     -34.428   6.671   1.836  1.00 20.00     0.047 C 
HETATM    5  C5  UNL     1     -34.998   6.425   3.251  1.00 20.00    -0.011 C 
HETATM    6  C6  UNL     1     -32.797   6.391   3.596  1.00 20.00     0.025 C 
HETATM    7  C7  UNL     1     -32.901   6.616   2.064  1.00 20.00     0.117 C 
HETATM    8 CL8  UNL     1     -32.081   8.090   1.497  1.00 20.00    -0.101 Cl
HETATM    9 CL9  UNL     1     -32.185   5.224   1.180  1.00 20.00    -0.101 Cl
ENDROOT
TORSDOF 0
ENDMDL
MODEL 8
REMARK VINA RESULT:       2.2      2.120      2.723
REMARK  0 active torsions:
REMARK  status: ('A' for Active; 'I' for Inactive)
ROOT
HETATM    1  C1  UNL     1     -32.887   5.208   2.837  1.00 20.00     0.005 C 
HETATM    2  C2  UNL     1     -31.732   5.427   1.850  1.00 20.00     0.008 C 
HETATM    3  C3  UNL     1     -33.692   6.342   0.907  1.00 20.00     0.012 C 
HETATM    4  C4  UNL     1     -33.384   7.665   2.882  1.00 20.00     0.047 C 
HETATM    5  C5  UNL     1     -33.902   6.284   2.420  1.00 20.00    -0.011 C 
HETATM    6  C6  UNL     1     -32.195   6.655   1.038  1.00 20.00     0.025 C 
HETATM    7  C7  UNL     1     -32.220   7.942   1.905  1.00 20.00     0.117 C 
HETATM    8 CL8  UNL     1     -30.689   8.265   2.755  1.00 20.00    -0.101 Cl
HETATM    9 CL9  UNL     1     -32.585   9.374   0.883  1.00 20.00    -0.101 Cl
ENDROOT
TORSDOF 0
ENDMDL
MODEL 9
REMARK VINA RESULT:       2.5      2.291      3.301
REMARK  0 active torsions:
REMARK  status: ('A' for Active; 'I' for Inactive)
ROOT
HETATM    1  C1  UNL     1     -34.025   6.506   4.627  1.00 20.00     0.005 C 
HETATM    2  C2  UNL     1     -34.462   6.035   3.233  1.00 20.00     0.008 C 
HETATM    3  C3  UNL     1     -34.623   8.388   3.300  1.00 20.00     0.012 C 
HETATM    4  C4  UNL     1     -32.280   8.006   3.630  1.00 20.00     0.047 C 
HETATM    5  C5  UNL     1     -33.628   7.971   4.384  1.00 20.00    -0.011 C 
HETATM    6  C6  UNL     1     -34.188   7.267   2.346  1.00 20.00     0.025 C 
HETATM    7  C7  UNL     1     -32.669   7.549   2.206  1.00 20.00     0.117 C 
HETATM    8 CL8  UNL     1     -31.724   6.139   1.668  1.00 20.00    -0.101 Cl
HETATM    9 CL9  UNL     1     -32.387   8.873   1.024  1.00 20.00    -0.101 Cl
ENDROOT
TORSDOF 0
ENDMDL
