MODEL 1
REMARK VINA RESULT:      -1.8      0.000      0.000
REMARK  2 active torsions:
REMARK  status: ('A' for Active; 'I' for Inactive)
REMARK    1  A    between atoms: C2_2  and  C3_3 
REMARK    2  A    between atoms: C2_2  and  S5_5 
ROOT
HETATM    1  C1  UNL     1     -32.255   9.133   0.809  1.00 20.00     0.133 C 
HETATM    2  N4  UNL     1     -32.636   9.927   0.055  1.00 20.00    -0.184 NA
HETATM    3  S5  UNL     1     -31.687   7.980   1.907  1.00 20.00    -0.050 SA
ENDROOT
BRANCH   3   4
HETATM    4  C2  UNL     1     -33.253   7.106   2.204  1.00 20.00     0.105 C 
BRANCH   4   5
HETATM    5  C3  UNL     1     -33.797   7.346   3.605  1.00 20.00     0.126 C 
HETATM    6 CL6  UNL     1     -35.250   6.372   3.938  1.00 20.00    -0.130 Cl
ENDBRANCH   4   5
ENDBRANCH   3   4
TORSDOF 2
ENDMDL
MODEL 2
REMARK VINA RESULT:      -1.8      4.220      4.801
REMARK  2 active torsions:
REMARK  status: ('A' for Active; 'I' for Inactive)
REMARK    1  A    between atoms: C2_2  and  C3_3 
REMARK    2  A    between atoms: C2_2  and  S5_5 
ROOT
HETATM    1  C1  UNL     1     -34.442   4.681   4.178  1.00 20.00     0.133 C 
HETATM    2  N4  UNL     1     -33.909   3.656   4.283  1.00 20.00    -0.184 NA
HETATM    3  S5  UNL     1     -35.230   6.168   4.028  1.00 20.00    -0.050 SA
ENDROOT
BRANCH   3   4
HETATM    4  C2  UNL     1     -33.794   7.180   3.559  1.00 20.00     0.105 C 
BRANCH   4   5
HETATM    5  C3  UNL     1     -33.103   6.664   2.306  1.00 20.00     0.126 C 
HETATM    6 CL6  UNL     1     -31.912   7.825   1.669  1.00 20.00    -0.130 Cl
ENDBRANCH   4   5
ENDBRANCH   3   4
TORSDOF 2
ENDMDL
MODEL 3
REMARK VINA RESULT:      -1.7      3.476      4.093
REMARK  2 active torsions:
REMARK  status: ('A' for Active; 'I' for Inactive)
REMARK    1  A    between atoms: C2_2  and  C3_3 
REMARK    2  A    between atoms: C2_2  and  S5_5 
ROOT
HETATM    1  C1  UNL     1     -34.031   6.546   3.174  1.00 20.00     0.133 C 
HETATM    2  N4  UNL     1     -34.844   6.663   3.993  1.00 20.00    -0.184 NA
HETATM    3  S5  UNL     1     -32.851   6.362   1.979  1.00 20.00    -0.050 SA
ENDROOT
BRANCH   3   4
HETATM    4  C2  UNL     1     -32.141   8.034   2.051  1.00 20.00     0.105 C 
BRANCH   4   5
HETATM    5  C3  UNL     1     -31.862   8.607   0.668  1.00 20.00     0.126 C 
HETATM    6 CL6  UNL     1     -32.594  10.215   0.447  1.00 20.00    -0.130 Cl
ENDBRANCH   4   5
ENDBRANCH   3   4
TORSDOF 2
ENDMDL
MODEL 4
REMARK VINA RESULT:      -1.5      3.842      4.401
REMARK  2 active torsions:
REMARK  status: ('A' for Active; 'I' for Inactive)
REMARK    1  A    between atoms: C2_2  and  C3_3 
REMARK    2  A    between atoms: C2_2  and  S5_5 
ROOT
HETATM    1  C1  UNL     1     -34.817   6.165   4.085  1.00 20.00     0.133 C 
HETATM    2  N4  UNL     1     -35.443   5.216   4.318  1.00 20.00    -0.184 NA
HETATM    3  S5  UNL     1     -33.910   7.552   3.756  1.00 20.00    -0.050 SA
ENDROOT
BRANCH   3   4
HETATM    4  C2  UNL     1     -33.105   6.984   2.228  1.00 20.00     0.105 C 
BRANCH   4   5
HETATM    5  C3  UNL     1     -31.909   7.844   1.846  1.00 20.00     0.126 C 
HETATM    6 CL6  UNL     1     -32.359   9.171   0.747  1.00 20.00    -0.130 Cl
ENDBRANCH   4   5
ENDBRANCH   3   4
TORSDOF 2
ENDMDL
MODEL 5
REMARK VINA RESULT:      -1.5      2.121      2.306
REMARK  2 active torsions:
REMARK  status: ('A' for Active; 'I' for Inactive)
REMARK    1  A    between atoms: C2_2  and  C3_3 
REMARK    2  A    between atoms: C2_2  and  S5_5 
ROOT
HETATM    1  C1  UNL     1     -32.335   7.396   1.797  1.00 20.00     0.133 C 
HETATM    2  N4  UNL     1     -31.785   8.390   1.562  1.00 20.00    -0.184 NA
HETATM    3  S5  UNL     1     -33.128   5.941   2.128  1.00 20.00    -0.050 SA
ENDROOT
BRANCH   3   4
HETATM    4  C2  UNL     1     -34.178   6.521   3.495  1.00 20.00     0.105 C 
BRANCH   4   5
HETATM    5  C3  UNL     1     -34.915   5.381   4.185  1.00 20.00     0.126 C 
HETATM    6 CL6  UNL     1     -33.948   3.886   4.229  1.00 20.00    -0.130 Cl
ENDBRANCH   4   5
ENDBRANCH   3   4
TORSDOF 2
ENDMDL
MODEL 6
REMARK VINA RESULT:      -1.3      2.466      2.739
REMARK  2 active torsions:
REMARK  status: ('A' for Active; 'I' for Inactive)
REMARK    1  A    between atoms: C2_2  and  C3_3 
REMARK    2  A    between atoms: C2_2  and  S5_5 
ROOT
HETATM    1  C1  UNL     1     -32.846   7.645   2.742  1.00 20.00     0.133 C 
HETATM    2  N4  UNL     1     -32.157   7.676   1.809  1.00 20.00    -0.184 NA
HETATM    3  S5  UNL     1     -33.841   7.611   4.107  1.00 20.00    -0.050 SA
ENDROOT
BRANCH   3   4
HETATM    4  C2  UNL     1     -35.011   6.336   3.546  1.00 20.00     0.105 C 
BRANCH   4   5
HETATM    5  C3  UNL     1     -35.108   5.169   4.518  1.00 20.00     0.126 C 
HETATM    6 CL6  UNL     1     -33.917   3.895   4.159  1.00 20.00    -0.130 Cl
ENDBRANCH   4   5
ENDBRANCH   3   4
TORSDOF 2
ENDMDL
MODEL 7
REMARK VINA RESULT:      -1.2      1.564      1.569
REMARK  2 active torsions:
REMARK  status: ('A' for Active; 'I' for Inactive)
REMARK    1  A    between atoms: C2_2  and  C3_3 
REMARK    2  A    between atoms: C2_2  and  S5_5 
ROOT
HETATM    1  C1  UNL     1     -32.253   9.331   0.736  1.00 20.00     0.133 C 
HETATM    2  N4  UNL     1     -32.665  10.203   0.092  1.00 20.00    -0.184 NA
HETATM    3  S5  UNL     1     -31.641   8.060   1.667  1.00 20.00    -0.050 SA
ENDROOT
BRANCH   3   4
HETATM    4  C2  UNL     1     -33.040   7.877   2.814  1.00 20.00     0.105 C 
BRANCH   4   5
HETATM    5  C3  UNL     1     -33.599   6.461   2.827  1.00 20.00     0.126 C 
HETATM    6 CL6  UNL     1     -32.891   5.448   1.545  1.00 20.00    -0.130 Cl
ENDBRANCH   4   5
ENDBRANCH   3   4
TORSDOF 2
ENDMDL
MODEL 8
REMARK VINA RESULT:      -1.2      2.029      2.131
REMARK  2 active torsions:
REMARK  status: ('A' for Active; 'I' for Inactive)
REMARK    1  A    between atoms: C2_2  and  C3_3 
REMARK    2  A    between atoms: C2_2  and  S5_5 
ROOT
HETATM    1  C1  UNL     1     -32.300   7.239   1.730  1.00 20.00     0.133 C 
HETATM    2  N4  UNL     1     -31.846   8.304   1.807  1.00 20.00    -0.184 NA
HETATM    3  S5  UNL     1     -32.956   5.686   1.606  1.00 20.00    -0.050 SA
ENDROOT
BRANCH   3   4
HETATM    4  C2  UNL     1     -33.652   5.560   3.281  1.00 20.00     0.105 C 
BRANCH   4   5
HETATM    5  C3  UNL     1     -34.616   6.695   3.597  1.00 20.00     0.126 C 
HETATM    6 CL6  UNL     1     -33.901   7.896   4.701  1.00 20.00    -0.130 Cl
ENDBRANCH   4   5
ENDBRANCH   3   4
TORSDOF 2
ENDMDL
MODEL 9
REMARK VINA RESULT:      -1.1      2.467      2.619
REMARK  2 active torsions:
REMARK  status: ('A' for Active; 'I' for Inactive)
REMARK    1  A    between atoms: C2_2  and  C3_3 
REMARK    2  A    between atoms: C2_2  and  S5_5 
ROOT
HETATM    1  C1  UNL     1     -32.710   6.384   1.849  1.00 20.00     0.133 C 
HETATM    2  N4  UNL     1     -32.637   5.342   1.344  1.00 20.00    -0.184 NA
HETATM    3  S5  UNL     1     -32.809   7.907   2.574  1.00 20.00    -0.050 SA
ENDROOT
BRANCH   3   4
HETATM    4  C2  UNL     1     -33.794   7.442   4.030  1.00 20.00     0.105 C 
BRANCH   4   5
HETATM    5  C3  UNL     1     -35.025   6.625   3.662  1.00 20.00     0.126 C 
HETATM    6 CL6  UNL     1     -34.989   4.996   4.379  1.00 20.00    -0.130 Cl
ENDBRANCH   4   5
ENDBRANCH   3   4
TORSDOF 2
ENDMDL
