MODEL 1
REMARK VINA RESULT:       1.1      0.000      0.000
REMARK  0 active torsions:
REMARK  status: ('A' for Active; 'I' for Inactive)
ROOT
HETATM    1  C1  UNL     1     -33.117   5.247   2.994  1.00 20.00     0.005 C 
HETATM    2  C2  UNL     1     -33.921   6.482   3.422  1.00 20.00     0.008 C 
HETATM    3  C3  UNL     1     -33.864   6.422   1.064  1.00 20.00     0.012 C 
HETATM    4  C4  UNL     1     -31.551   6.666   1.646  1.00 20.00     0.047 C 
HETATM    5  C5  UNL     1     -32.672   5.606   1.567  1.00 20.00    -0.011 C 
HETATM    6  C6  UNL     1     -33.771   7.432   2.216  1.00 20.00     0.025 C 
HETATM    7  C7  UNL     1     -32.313   7.945   2.065  1.00 20.00     0.117 C 
HETATM    8 CL8  UNL     1     -32.220   9.184   0.766  1.00 20.00    -0.101 Cl
HETATM    9 CL9  UNL     1     -31.649   8.670   3.549  1.00 20.00    -0.101 Cl
ENDROOT
TORSDOF 0
ENDMDL
MODEL 2
REMARK VINA RESULT:       1.3      2.354      3.065
REMARK  0 active torsions:
REMARK  status: ('A' for Active; 'I' for Inactive)
ROOT
HETATM    1  C1  UNL     1     -31.367   6.796   1.835  1.00 20.00     0.005 C 
HETATM    2  C2  UNL     1     -32.288   5.697   1.289  1.00 20.00     0.008 C 
HETATM    3  C3  UNL     1     -33.527   7.700   1.415  1.00 20.00     0.012 C 
HETATM    4  C4  UNL     1     -32.963   7.278   3.707  1.00 20.00     0.047 C 
HETATM    5  C5  UNL     1     -32.360   7.827   2.395  1.00 20.00    -0.011 C 
HETATM    6  C6  UNL     1     -33.696   6.196   1.674  1.00 20.00     0.025 C 
HETATM    7  C7  UNL     1     -33.917   6.166   3.210  1.00 20.00     0.117 C 
HETATM    8 CL8  UNL     1     -35.621   6.581   3.602  1.00 20.00    -0.101 Cl
HETATM    9 CL9  UNL     1     -33.561   4.590   3.957  1.00 20.00    -0.101 Cl
ENDROOT
TORSDOF 0
ENDMDL
MODEL 3
REMARK VINA RESULT:       1.6      1.827      2.879
REMARK  0 active torsions:
REMARK  status: ('A' for Active; 'I' for Inactive)
ROOT
HETATM    1  C1  UNL     1     -35.421   5.683   4.053  1.00 20.00     0.005 C 
HETATM    2  C2  UNL     1     -34.029   5.039   4.108  1.00 20.00     0.008 C 
HETATM    3  C3  UNL     1     -33.796   7.339   4.579  1.00 20.00     0.012 C 
HETATM    4  C4  UNL     1     -34.647   7.338   2.338  1.00 20.00     0.047 C 
HETATM    5  C5  UNL     1     -35.103   7.166   3.804  1.00 20.00    -0.011 C 
HETATM    6  C6  UNL     1     -33.085   6.221   3.804  1.00 20.00     0.025 C 
HETATM    7  C7  UNL     1     -33.233   6.713   2.339  1.00 20.00     0.117 C 
HETATM    8 CL8  UNL     1     -31.995   7.964   1.975  1.00 20.00    -0.101 Cl
HETATM    9 CL9  UNL     1     -33.066   5.420   1.126  1.00 20.00    -0.101 Cl
ENDROOT
TORSDOF 0
ENDMDL
MODEL 4
REMARK VINA RESULT:       2.1      1.724      2.721
REMARK  0 active torsions:
REMARK  status: ('A' for Active; 'I' for Inactive)
ROOT
HETATM    1  C1  UNL     1     -33.142   5.278   0.797  1.00 20.00     0.005 C 
HETATM    2  C2  UNL     1     -33.939   6.588   0.725  1.00 20.00     0.008 C 
HETATM    3  C3  UNL     1     -31.900   7.025   1.830  1.00 20.00     0.012 C 
HETATM    4  C4  UNL     1     -32.972   5.455   3.291  1.00 20.00     0.047 C 
HETATM    5  C5  UNL     1     -32.178   5.528   1.968  1.00 20.00    -0.011 C 
HETATM    6  C6  UNL     1     -33.387   7.398   1.916  1.00 20.00     0.025 C 
HETATM    7  C7  UNL     1     -33.789   6.768   3.277  1.00 20.00     0.117 C 
HETATM    8 CL8  UNL     1     -33.284   7.835   4.632  1.00 20.00    -0.101 Cl
HETATM    9 CL9  UNL     1     -35.537   6.475   3.445  1.00 20.00    -0.101 Cl
ENDROOT
TORSDOF 0
ENDMDL
MODEL 5
REMARK VINA RESULT:       2.2      2.026      3.073
REMARK  0 active torsions:
REMARK  status: ('A' for Active; 'I' for Inactive)
ROOT
HETATM    1  C1  UNL     1     -32.550   7.942   0.906  1.00 20.00     0.005 C 
HETATM    2  C2  UNL     1     -31.935   7.950   2.312  1.00 20.00     0.008 C 
HETATM    3  C3  UNL     1     -31.946   5.725   1.527  1.00 20.00     0.012 C 
HETATM    4  C4  UNL     1     -34.278   6.270   1.615  1.00 20.00     0.047 C 
HETATM    5  C5  UNL     1     -33.018   6.486   0.747  1.00 20.00    -0.011 C 
HETATM    6  C6  UNL     1     -32.198   6.517   2.818  1.00 20.00     0.025 C 
HETATM    7  C7  UNL     1     -33.710   6.258   3.053  1.00 20.00     0.117 C 
HETATM    8 CL8  UNL     1     -33.956   4.646   3.809  1.00 20.00    -0.101 Cl
HETATM    9 CL9  UNL     1     -34.493   7.468   4.097  1.00 20.00    -0.101 Cl
ENDROOT
TORSDOF 0
ENDMDL
MODEL 6
REMARK VINA RESULT:       2.3      2.035      2.786
REMARK  0 active torsions:
REMARK  status: ('A' for Active; 'I' for Inactive)
ROOT
HETATM    1  C1  UNL     1     -32.926   7.603   4.382  1.00 20.00     0.005 C 
HETATM    2  C2  UNL     1     -32.228   8.143   3.126  1.00 20.00     0.008 C 
HETATM    3  C3  UNL     1     -34.506   7.802   2.613  1.00 20.00     0.012 C 
HETATM    4  C4  UNL     1     -33.739   5.590   3.129  1.00 20.00     0.047 C 
HETATM    5  C5  UNL     1     -34.172   6.908   3.808  1.00 20.00    -0.011 C 
HETATM    6  C6  UNL     1     -33.119   7.623   1.979  1.00 20.00     0.025 C 
HETATM    7  C7  UNL     1     -33.036   6.078   1.841  1.00 20.00     0.117 C 
HETATM    8 CL8  UNL     1     -33.941   5.533   0.388  1.00 20.00    -0.101 Cl
HETATM    9 CL9  UNL     1     -31.373   5.457   1.705  1.00 20.00    -0.101 Cl
ENDROOT
TORSDOF 0
ENDMDL
MODEL 7
REMARK VINA RESULT:       2.3      1.896      2.612
REMARK  0 active torsions:
REMARK  status: ('A' for Active; 'I' for Inactive)
ROOT
HETATM    1  C1  UNL     1     -33.863   7.263   4.833  1.00 20.00     0.005 C 
HETATM    2  C2  UNL     1     -33.849   8.245   3.653  1.00 20.00     0.008 C 
HETATM    3  C3  UNL     1     -35.371   6.513   3.152  1.00 20.00     0.012 C 
HETATM    4  C4  UNL     1     -33.280   5.352   3.318  1.00 20.00     0.047 C 
HETATM    5  C5  UNL     1     -34.393   5.969   4.194  1.00 20.00    -0.011 C 
HETATM    6  C6  UNL     1     -34.299   7.370   2.464  1.00 20.00     0.025 C 
HETATM    7  C7  UNL     1     -33.232   6.303   2.099  1.00 20.00     0.117 C 
HETATM    8 CL8  UNL     1     -33.712   5.428   0.604  1.00 20.00    -0.101 Cl
HETATM    9 CL9  UNL     1     -31.605   6.974   1.832  1.00 20.00    -0.101 Cl
ENDROOT
TORSDOF 0
ENDMDL
MODEL 8
REMARK VINA RESULT:       2.4      2.088      3.022
REMARK  0 active torsions:
REMARK  status: ('A' for Active; 'I' for Inactive)
ROOT
HETATM    1  C1  UNL     1     -34.818   7.767   3.731  1.00 20.00     0.005 C 
HETATM    2  C2  UNL     1     -35.191   6.311   3.419  1.00 20.00     0.008 C 
HETATM    3  C3  UNL     1     -32.982   6.343   4.247  1.00 20.00     0.012 C 
HETATM    4  C4  UNL     1     -32.814   7.630   2.231  1.00 20.00     0.047 C 
HETATM    5  C5  UNL     1     -33.281   7.739   3.700  1.00 20.00    -0.011 C 
HETATM    6  C6  UNL     1     -33.823   5.644   3.168  1.00 20.00     0.025 C 
HETATM    7  C7  UNL     1     -33.157   6.167   1.867  1.00 20.00     0.117 C 
HETATM    8 CL8  UNL     1     -31.658   5.240   1.518  1.00 20.00    -0.101 Cl
HETATM    9 CL9  UNL     1     -34.204   6.059   0.431  1.00 20.00    -0.101 Cl
ENDROOT
TORSDOF 0
ENDMDL
MODEL 9
REMARK VINA RESULT:       2.5      2.072      3.325
REMARK  0 active torsions:
REMARK  status: ('A' for Active; 'I' for Inactive)
ROOT
HETATM    1  C1  UNL     1     -31.398   8.645   0.646  1.00 20.00     0.005 C 
HETATM    2  C2  UNL     1     -32.907   8.889   0.787  1.00 20.00     0.008 C 
HETATM    3  C3  UNL     1     -32.059   8.271   2.901  1.00 20.00     0.012 C 
HETATM    4  C4  UNL     1     -31.632   6.326   1.567  1.00 20.00     0.047 C 
HETATM    5  C5  UNL     1     -31.083   7.742   1.849  1.00 20.00    -0.011 C 
HETATM    6  C6  UNL     1     -33.287   8.030   2.011  1.00 20.00     0.025 C 
HETATM    7  C7  UNL     1     -33.161   6.512   1.710  1.00 20.00     0.117 C 
HETATM    8 CL8  UNL     1     -33.782   5.549   3.095  1.00 20.00    -0.101 Cl
HETATM    9 CL9  UNL     1     -34.043   5.992   0.254  1.00 20.00    -0.101 Cl
ENDROOT
TORSDOF 0
ENDMDL
