MODEL 1
REMARK VINA RESULT:      -1.0      0.000      0.000
REMARK  0 active torsions:
REMARK  status: ('A' for Active; 'I' for Inactive)
ROOT
HETATM    1  C1  UNL     1     -33.118   9.313   2.035  1.00 20.00     0.053 A 
HETATM    2  C2  UNL     1     -33.011   8.129   2.642  1.00 20.00    -0.072 A 
HETATM    3  C3  UNL     1     -32.294   9.206   0.823  1.00 20.00     0.150 A 
HETATM    4  C4  UNL     1     -33.717   7.687   3.882  1.00 20.00     0.034 C 
HETATM    5  C5  UNL     1     -31.670   7.845   0.680  1.00 20.00     0.092 A 
HETATM    6  C6  UNL     1     -34.456   6.372   3.624  1.00 20.00     0.004 C 
HETATM    7  C7  UNL     1     -33.556   5.314   2.973  1.00 20.00     0.001 C 
HETATM    8  C8  UNL     1     -32.904   5.837   1.688  1.00 20.00     0.009 C 
HETATM    9  C9  UNL     1     -32.127   7.130   1.952  1.00 20.00     0.022 A 
HETATM   10  O10 UNL     1     -32.153  10.124   0.030  1.00 20.00    -0.293 OA
ENDROOT
TORSDOF 0
ENDMDL
MODEL 2
REMARK VINA RESULT:      -0.2      2.384      4.117
REMARK  0 active torsions:
REMARK  status: ('A' for Active; 'I' for Inactive)
ROOT
HETATM    1  C1  UNL     1     -34.046   5.492   2.872  1.00 20.00     0.053 A 
HETATM    2  C2  UNL     1     -32.997   6.250   2.548  1.00 20.00    -0.072 A 
HETATM    3  C3  UNL     1     -34.777   6.253   3.894  1.00 20.00     0.150 A 
HETATM    4  C4  UNL     1     -31.973   5.969   1.497  1.00 20.00     0.034 C 
HETATM    5  C5  UNL     1     -34.131   7.580   4.183  1.00 20.00     0.092 A 
HETATM    6  C6  UNL     1     -31.868   7.156   0.537  1.00 20.00     0.004 C 
HETATM    7  C7  UNL     1     -31.697   8.490   1.274  1.00 20.00     0.001 C 
HETATM    8  C8  UNL     1     -32.809   8.716   2.305  1.00 20.00     0.009 C 
HETATM    9  C9  UNL     1     -32.888   7.550   3.294  1.00 20.00     0.022 A 
HETATM   10  O10 UNL     1     -35.796   5.843   4.429  1.00 20.00    -0.293 OA
ENDROOT
TORSDOF 0
ENDMDL
MODEL 3
REMARK VINA RESULT:      -0.0      1.271      2.589
REMARK  0 active torsions:
REMARK  status: ('A' for Active; 'I' for Inactive)
ROOT
HETATM    1  C1  UNL     1     -32.013   6.129   1.771  1.00 20.00     0.053 A 
HETATM    2  C2  UNL     1     -33.198   5.816   2.297  1.00 20.00    -0.072 A 
HETATM    3  C3  UNL     1     -31.972   7.597   1.746  1.00 20.00     0.150 A 
HETATM    4  C4  UNL     1     -33.711   4.448   2.611  1.00 20.00     0.034 C 
HETATM    5  C5  UNL     1     -33.217   8.209   2.327  1.00 20.00     0.092 A 
HETATM    6  C6  UNL     1     -34.158   4.379   4.073  1.00 20.00     0.004 C 
HETATM    7  C7  UNL     1     -35.098   5.531   4.450  1.00 20.00     0.001 C 
HETATM    8  C8  UNL     1     -34.480   6.897   4.131  1.00 20.00     0.009 C 
HETATM    9  C9  UNL     1     -34.071   6.985   2.658  1.00 20.00     0.022 A 
HETATM   10  O10 UNL     1     -31.024   8.230   1.309  1.00 20.00    -0.293 OA
ENDROOT
TORSDOF 0
ENDMDL
MODEL 4
REMARK VINA RESULT:       0.0      2.774      4.099
REMARK  0 active torsions:
REMARK  status: ('A' for Active; 'I' for Inactive)
ROOT
HETATM    1  C1  UNL     1     -34.236   5.777   4.209  1.00 20.00     0.053 A 
HETATM    2  C2  UNL     1     -33.852   6.575   3.212  1.00 20.00    -0.072 A 
HETATM    3  C3  UNL     1     -33.938   4.412   3.753  1.00 20.00     0.150 A 
HETATM    4  C4  UNL     1     -33.870   8.069   3.197  1.00 20.00     0.034 C 
HETATM    5  C5  UNL     1     -33.302   4.396   2.390  1.00 20.00     0.092 A 
HETATM    6  C6  UNL     1     -32.482   8.606   2.836  1.00 20.00     0.004 C 
HETATM    7  C7  UNL     1     -31.913   7.948   1.574  1.00 20.00     0.001 C 
HETATM    8  C8  UNL     1     -31.895   6.420   1.688  1.00 20.00     0.009 C 
HETATM    9  C9  UNL     1     -33.290   5.875   2.007  1.00 20.00     0.022 A 
HETATM   10  O10 UNL     1     -34.177   3.419   4.422  1.00 20.00    -0.293 OA
ENDROOT
TORSDOF 0
ENDMDL
MODEL 5
REMARK VINA RESULT:       0.3      2.005      2.980
REMARK  0 active torsions:
REMARK  status: ('A' for Active; 'I' for Inactive)
ROOT
HETATM    1  C1  UNL     1     -33.303   5.332   1.969  1.00 20.00     0.053 A 
HETATM    2  C2  UNL     1     -33.697   6.438   2.602  1.00 20.00    -0.072 A 
HETATM    3  C3  UNL     1     -32.096   5.717   1.225  1.00 20.00     0.150 A 
HETATM    4  C4  UNL     1     -34.838   6.570   3.558  1.00 20.00     0.034 C 
HETATM    5  C5  UNL     1     -31.724   7.156   1.454  1.00 20.00     0.092 A 
HETATM    6  C6  UNL     1     -34.352   7.184   4.873  1.00 20.00     0.004 C 
HETATM    7  C7  UNL     1     -33.533   8.462   4.653  1.00 20.00     0.001 C 
HETATM    8  C8  UNL     1     -32.362   8.229   3.692  1.00 20.00     0.009 C 
HETATM    9  C9  UNL     1     -32.850   7.655   2.359  1.00 20.00     0.022 A 
HETATM   10  O10 UNL     1     -31.475   4.941   0.515  1.00 20.00    -0.293 OA
ENDROOT
TORSDOF 0
ENDMDL
MODEL 6
REMARK VINA RESULT:       0.5      2.072      4.124
REMARK  0 active torsions:
REMARK  status: ('A' for Active; 'I' for Inactive)
ROOT
HETATM    1  C1  UNL     1     -32.774   6.272   1.860  1.00 20.00     0.053 A 
HETATM    2  C2  UNL     1     -32.281   7.488   1.616  1.00 20.00    -0.072 A 
HETATM    3  C3  UNL     1     -33.599   6.421   3.067  1.00 20.00     0.150 A 
HETATM    4  C4  UNL     1     -31.435   7.899   0.455  1.00 20.00     0.034 C 
HETATM    5  C5  UNL     1     -33.623   7.839   3.566  1.00 20.00     0.092 A 
HETATM    6  C6  UNL     1     -32.067   9.101  -0.253  1.00 20.00     0.004 C 
HETATM    7  C7  UNL     1     -32.430  10.228   0.722  1.00 20.00     0.001 C 
HETATM    8  C8  UNL     1     -33.329   9.727   1.859  1.00 20.00     0.009 C 
HETATM    9  C9  UNL     1     -32.681   8.553   2.597  1.00 20.00     0.022 A 
HETATM   10  O10 UNL     1     -34.197   5.490   3.584  1.00 20.00    -0.293 OA
ENDROOT
TORSDOF 0
ENDMDL
MODEL 7
REMARK VINA RESULT:       0.6      2.221      3.410
REMARK  0 active torsions:
REMARK  status: ('A' for Active; 'I' for Inactive)
ROOT
HETATM    1  C1  UNL     1     -32.600   8.386   3.801  1.00 20.00     0.053 A 
HETATM    2  C2  UNL     1     -32.787   7.657   2.700  1.00 20.00    -0.072 A 
HETATM    3  C3  UNL     1     -33.687   8.003   4.712  1.00 20.00     0.150 A 
HETATM    4  C4  UNL     1     -31.910   7.613   1.490  1.00 20.00     0.034 C 
HETATM    5  C5  UNL     1     -34.575   6.944   4.120  1.00 20.00     0.092 A 
HETATM    6  C6  UNL     1     -31.516   6.167   1.181  1.00 20.00     0.004 C 
HETATM    7  C7  UNL     1     -32.728   5.227   1.144  1.00 20.00     0.001 C 
HETATM    8  C8  UNL     1     -33.548   5.307   2.437  1.00 20.00     0.009 C 
HETATM    9  C9  UNL     1     -33.981   6.746   2.726  1.00 20.00     0.022 A 
HETATM   10  O10 UNL     1     -33.830   8.492   5.822  1.00 20.00    -0.293 OA
ENDROOT
TORSDOF 0
ENDMDL
MODEL 8
REMARK VINA RESULT:       1.2      2.471      3.741
REMARK  0 active torsions:
REMARK  status: ('A' for Active; 'I' for Inactive)
ROOT
HETATM    1  C1  UNL     1     -34.106   7.642   3.933  1.00 20.00     0.053 A 
HETATM    2  C2  UNL     1     -33.450   7.588   2.772  1.00 20.00    -0.072 A 
HETATM    3  C3  UNL     1     -34.758   6.333   4.074  1.00 20.00     0.150 A 
HETATM    4  C4  UNL     1     -32.561   8.639   2.191  1.00 20.00     0.034 C 
HETATM    5  C5  UNL     1     -34.445   5.417   2.924  1.00 20.00     0.092 A 
HETATM    6  C6  UNL     1     -31.193   8.039   1.853  1.00 20.00     0.004 C 
HETATM    7  C7  UNL     1     -31.308   6.752   1.028  1.00 20.00     0.001 C 
HETATM    8  C8  UNL     1     -32.205   5.715   1.714  1.00 20.00     0.009 C 
HETATM    9  C9  UNL     1     -33.589   6.298   2.014  1.00 20.00     0.022 A 
HETATM   10  O10 UNL     1     -35.461   6.038   5.029  1.00 20.00    -0.293 OA
ENDROOT
TORSDOF 0
ENDMDL
MODEL 9
REMARK VINA RESULT:       1.7      2.282      3.048
REMARK  0 active torsions:
REMARK  status: ('A' for Active; 'I' for Inactive)
ROOT
HETATM    1  C1  UNL     1     -32.878   6.542   1.657  1.00 20.00     0.053 A 
HETATM    2  C2  UNL     1     -33.406   6.335   2.864  1.00 20.00    -0.072 A 
HETATM    3  C3  UNL     1     -32.115   5.324   1.351  1.00 20.00     0.150 A 
HETATM    4  C4  UNL     1     -34.335   7.240   3.607  1.00 20.00     0.034 C 
HETATM    5  C5  UNL     1     -32.217   4.301   2.448  1.00 20.00     0.092 A 
HETATM    6  C6  UNL     1     -35.594   6.474   4.020  1.00 20.00     0.004 C 
HETATM    7  C7  UNL     1     -35.268   5.152   4.725  1.00 20.00     0.001 C 
HETATM    8  C8  UNL     1     -34.344   4.269   3.878  1.00 20.00     0.009 C 
HETATM    9  C9  UNL     1     -33.063   5.018   3.500  1.00 20.00     0.022 A 
HETATM   10  O10 UNL     1     -31.484   5.175   0.316  1.00 20.00    -0.293 OA
ENDROOT
TORSDOF 0
ENDMDL
