MODEL 1
REMARK VINA RESULT:       0.6      0.000      0.000
REMARK  0 active torsions:
REMARK  status: ('A' for Active; 'I' for Inactive)
ROOT
HETATM    1  C1  UNL     1     -31.949   7.816   1.583  1.00 20.00     0.000 C 
HETATM    2  C2  UNL     1     -32.046   8.096   3.080  1.00 20.00     0.003 C 
HETATM    3  C3  UNL     1     -32.416   6.405   1.235  1.00 20.00     0.003 C 
HETATM    4  C4  UNL     1     -34.262   4.293   4.359  1.00 20.00     0.029 C 
HETATM    5  C5  UNL     1     -33.452   7.824   3.605  1.00 20.00     0.038 C 
HETATM    6  C6  UNL     1     -33.808   6.114   1.794  1.00 20.00     0.038 C 
HETATM    7  C7  UNL     1     -33.202   5.349   4.161  1.00 20.00     0.040 C 
HETATM    8  C8  UNL     1     -35.514   5.130   4.477  1.00 20.00     0.168 C 
HETATM    9  C9  UNL     1     -33.923   6.395   3.303  1.00 20.00     0.061 C 
HETATM   10  O10 UNL     1     -35.320   6.291   3.659  1.00 20.00    -0.380 OA
ENDROOT
TORSDOF 0
ENDMDL
MODEL 2
REMARK VINA RESULT:       1.0      1.265      3.700
REMARK  0 active torsions:
REMARK  status: ('A' for Active; 'I' for Inactive)
ROOT
HETATM    1  C1  UNL     1     -35.284   4.954   4.595  1.00 20.00     0.000 C 
HETATM    2  C2  UNL     1     -35.754   6.212   3.872  1.00 20.00     0.003 C 
HETATM    3  C3  UNL     1     -34.055   4.339   3.930  1.00 20.00     0.003 C 
HETATM    4  C4  UNL     1     -32.263   6.678   0.939  1.00 20.00     0.029 C 
HETATM    5  C5  UNL     1     -34.624   7.228   3.735  1.00 20.00     0.038 C 
HETATM    6  C6  UNL     1     -32.934   5.363   3.753  1.00 20.00     0.038 C 
HETATM    7  C7  UNL     1     -33.628   6.425   1.529  1.00 20.00     0.040 C 
HETATM    8  C8  UNL     1     -31.749   7.795   1.815  1.00 20.00     0.168 C 
HETATM    9  C9  UNL     1     -33.394   6.642   3.029  1.00 20.00     0.061 C 
HETATM   10  O10 UNL     1     -32.318   7.601   3.117  1.00 20.00    -0.380 OA
ENDROOT
TORSDOF 0
ENDMDL
MODEL 3
REMARK VINA RESULT:       1.1      1.036      2.130
REMARK  0 active torsions:
REMARK  status: ('A' for Active; 'I' for Inactive)
ROOT
HETATM    1  C1  UNL     1     -31.761   8.078   1.600  1.00 20.00     0.000 C 
HETATM    2  C2  UNL     1     -32.606   7.044   0.862  1.00 20.00     0.003 C 
HETATM    3  C3  UNL     1     -32.392   8.491   2.927  1.00 20.00     0.003 C 
HETATM    4  C4  UNL     1     -35.691   6.196   4.145  1.00 20.00     0.029 C 
HETATM    5  C5  UNL     1     -32.897   5.835   1.745  1.00 20.00     0.038 C 
HETATM    6  C6  UNL     1     -32.723   7.280   3.798  1.00 20.00     0.038 C 
HETATM    7  C7  UNL     1     -35.029   6.663   2.872  1.00 20.00     0.040 C 
HETATM    8  C8  UNL     1     -34.966   4.899   4.413  1.00 20.00     0.168 C 
HETATM    9  C9  UNL     1     -33.573   6.224   3.067  1.00 20.00     0.061 C 
HETATM   10  O10 UNL     1     -33.632   5.053   3.911  1.00 20.00    -0.380 OA
ENDROOT
TORSDOF 0
ENDMDL
MODEL 4
REMARK VINA RESULT:       1.3      1.951      4.147
REMARK  0 active torsions:
REMARK  status: ('A' for Active; 'I' for Inactive)
ROOT
HETATM    1  C1  UNL     1     -34.303   6.263   3.718  1.00 20.00     0.000 C 
HETATM    2  C2  UNL     1     -33.958   7.703   4.086  1.00 20.00     0.003 C 
HETATM    3  C3  UNL     1     -34.146   6.001   2.223  1.00 20.00     0.003 C 
HETATM    4  C4  UNL     1     -32.301   9.075   0.038  1.00 20.00     0.029 C 
HETATM    5  C5  UNL     1     -32.565   8.082   3.593  1.00 20.00     0.038 C 
HETATM    6  C6  UNL     1     -32.766   6.417   1.717  1.00 20.00     0.038 C 
HETATM    7  C7  UNL     1     -33.173   8.902   1.257  1.00 20.00     0.040 C 
HETATM    8  C8  UNL     1     -30.916   8.961   0.630  1.00 20.00     0.168 C 
HETATM    9  C9  UNL     1     -32.400   7.867   2.082  1.00 20.00     0.061 C 
HETATM   10  O10 UNL     1     -31.009   8.063   1.743  1.00 20.00    -0.380 OA
ENDROOT
TORSDOF 0
ENDMDL
MODEL 5
REMARK VINA RESULT:       1.5      1.883      3.393
REMARK  0 active torsions:
REMARK  status: ('A' for Active; 'I' for Inactive)
ROOT
HETATM    1  C1  UNL     1     -34.076   7.619   4.034  1.00 20.00     0.000 C 
HETATM    2  C2  UNL     1     -33.416   8.265   2.819  1.00 20.00     0.003 C 
HETATM    3  C3  UNL     1     -34.564   6.205   3.734  1.00 20.00     0.003 C 
HETATM    4  C4  UNL     1     -33.334   4.615   0.048  1.00 20.00     0.029 C 
HETATM    5  C5  UNL     1     -32.296   7.390   2.265  1.00 20.00     0.038 C 
HETATM    6  C6  UNL     1     -33.456   5.336   3.141  1.00 20.00     0.038 C 
HETATM    7  C7  UNL     1     -33.664   5.952   0.665  1.00 20.00     0.040 C 
HETATM    8  C8  UNL     1     -31.859   4.492   0.346  1.00 20.00     0.168 C 
HETATM    9  C9  UNL     1     -32.778   5.975   1.916  1.00 20.00     0.061 C 
HETATM   10  O10 UNL     1     -31.625   5.169   1.588  1.00 20.00    -0.380 OA
ENDROOT
TORSDOF 0
ENDMDL
MODEL 6
REMARK VINA RESULT:       1.6      1.317      3.798
REMARK  0 active torsions:
REMARK  status: ('A' for Active; 'I' for Inactive)
ROOT
HETATM    1  C1  UNL     1     -35.379   4.902   4.456  1.00 20.00     0.000 C 
HETATM    2  C2  UNL     1     -33.903   4.518   4.427  1.00 20.00     0.003 C 
HETATM    3  C3  UNL     1     -35.591   6.384   4.159  1.00 20.00     0.003 C 
HETATM    4  C4  UNL     1     -32.191   8.460   2.832  1.00 20.00     0.029 C 
HETATM    5  C5  UNL     1     -33.250   4.925   3.110  1.00 20.00     0.038 C 
HETATM    6  C6  UNL     1     -34.904   6.805   2.860  1.00 20.00     0.038 C 
HETATM    7  C7  UNL     1     -32.545   7.297   3.726  1.00 20.00     0.040 C 
HETATM    8  C8  UNL     1     -32.032   7.784   1.491  1.00 20.00     0.168 C 
HETATM    9  C9  UNL     1     -33.414   6.422   2.814  1.00 20.00     0.061 C 
HETATM   10  O10 UNL     1     -32.942   6.676   1.472  1.00 20.00    -0.380 OA
ENDROOT
TORSDOF 0
ENDMDL
MODEL 7
REMARK VINA RESULT:       2.0      1.670      4.000
REMARK  0 active torsions:
REMARK  status: ('A' for Active; 'I' for Inactive)
ROOT
HETATM    1  C1  UNL     1     -34.602   5.630   3.952  1.00 20.00     0.000 C 
HETATM    2  C2  UNL     1     -33.443   5.036   3.156  1.00 20.00     0.003 C 
HETATM    3  C3  UNL     1     -34.434   7.130   4.174  1.00 20.00     0.003 C 
HETATM    4  C4  UNL     1     -31.310   8.933   2.024  1.00 20.00     0.029 C 
HETATM    5  C5  UNL     1     -33.238   5.779   1.840  1.00 20.00     0.038 C 
HETATM    6  C6  UNL     1     -34.187   7.873   2.862  1.00 20.00     0.038 C 
HETATM    7  C7  UNL     1     -31.650   7.602   2.650  1.00 20.00     0.040 C 
HETATM    8  C8  UNL     1     -31.884   8.778   0.636  1.00 20.00     0.168 C 
HETATM    9  C9  UNL     1     -33.023   7.285   2.045  1.00 20.00     0.061 C 
HETATM   10  O10 UNL     1     -33.032   7.927   0.751  1.00 20.00    -0.380 OA
ENDROOT
TORSDOF 0
ENDMDL
MODEL 8
REMARK VINA RESULT:       2.6      1.749      3.034
REMARK  0 active torsions:
REMARK  status: ('A' for Active; 'I' for Inactive)
ROOT
HETATM    1  C1  UNL     1     -33.575   8.309   4.407  1.00 20.00     0.000 C 
HETATM    2  C2  UNL     1     -34.320   6.977   4.400  1.00 20.00     0.003 C 
HETATM    3  C3  UNL     1     -32.301   8.256   3.568  1.00 20.00     0.003 C 
HETATM    4  C4  UNL     1     -31.824   4.801   1.230  1.00 20.00     0.029 C 
HETATM    5  C5  UNL     1     -34.604   6.509   2.976  1.00 20.00     0.038 C 
HETATM    6  C6  UNL     1     -32.575   7.748   2.153  1.00 20.00     0.038 C 
HETATM    7  C7  UNL     1     -32.448   5.220   2.538  1.00 20.00     0.040 C 
HETATM    8  C8  UNL     1     -32.954   5.039   0.257  1.00 20.00     0.168 C 
HETATM    9  C9  UNL     1     -33.329   6.406   2.128  1.00 20.00     0.061 C 
HETATM   10  O10 UNL     1     -33.711   6.148   0.759  1.00 20.00    -0.380 OA
ENDROOT
TORSDOF 0
ENDMDL
MODEL 9
REMARK VINA RESULT:       3.0      2.144      3.187
REMARK  0 active torsions:
REMARK  status: ('A' for Active; 'I' for Inactive)
ROOT
HETATM    1  C1  UNL     1     -31.716   9.412  -0.238  1.00 20.00     0.000 C 
HETATM    2  C2  UNL     1     -31.269   8.023   0.206  1.00 20.00     0.003 C 
HETATM    3  C3  UNL     1     -32.996   9.853   0.466  1.00 20.00     0.003 C 
HETATM    4  C4  UNL     1     -34.258   7.389   3.623  1.00 20.00     0.029 C 
HETATM    5  C5  UNL     1     -31.131   7.944   1.724  1.00 20.00     0.038 C 
HETATM    6  C6  UNL     1     -32.877   9.737   1.985  1.00 20.00     0.038 C 
HETATM    7  C7  UNL     1     -33.522   7.280   2.310  1.00 20.00     0.040 C 
HETATM    8  C8  UNL     1     -33.132   7.677   4.587  1.00 20.00     0.168 C 
HETATM    9  C9  UNL     1     -32.424   8.341   2.450  1.00 20.00     0.061 C 
HETATM   10  O10 UNL     1     -32.144   8.424   3.865  1.00 20.00    -0.380 OA
ENDROOT
TORSDOF 0
ENDMDL
