MODEL 1
REMARK VINA RESULT:      -2.8      0.000      0.000
REMARK  3 active torsions:
REMARK  status: ('A' for Active; 'I' for Inactive)
REMARK    1  A    between atoms: C1_1  and  C3_3 
REMARK    2  A    between atoms: C1_1  and  C4_4 
REMARK    3  A    between atoms: C4_4  and  C5_5 
ROOT
HETATM    1  C1  UNL     1     -33.072   7.091   2.549  1.00 20.00     0.127 C 
HETATM    2  O6  UNL     1     -33.153   6.050   1.900  1.00 20.00    -0.298 OA
ENDROOT
BRANCH   1   3
HETATM    3  C3  UNL     1     -33.995   7.388   3.720  1.00 20.00     0.074 C 
HETATM    4  C2  UNL     1     -35.078   6.339   3.894  1.00 20.00     0.013 C 
ENDBRANCH   1   3
BRANCH   1   5
HETATM    5  C4  UNL     1     -32.065   8.184   2.216  1.00 20.00     0.093 C 
BRANCH   5   6
HETATM    6  C5  UNL     1     -32.005   8.536   0.737  1.00 20.00     0.122 C 
HETATM    7 CL7  UNL     1     -32.586  10.194   0.443  1.00 20.00    -0.130 Cl
ENDBRANCH   5   6
ENDBRANCH   1   5
TORSDOF 3
ENDMDL
MODEL 2
REMARK VINA RESULT:      -2.4      2.658      3.926
REMARK  3 active torsions:
REMARK  status: ('A' for Active; 'I' for Inactive)
REMARK    1  A    between atoms: C1_1  and  C3_3 
REMARK    2  A    between atoms: C1_1  and  C4_4 
REMARK    3  A    between atoms: C4_4  and  C5_5 
ROOT
HETATM    1  C1  UNL     1     -32.948   6.993   2.375  1.00 20.00     0.127 C 
HETATM    2  O6  UNL     1     -33.121   5.981   1.698  1.00 20.00    -0.298 OA
ENDROOT
BRANCH   1   3
HETATM    3  C3  UNL     1     -31.907   8.040   2.016  1.00 20.00     0.074 C 
HETATM    4  C2  UNL     1     -32.358   8.955   0.892  1.00 20.00     0.013 C 
ENDBRANCH   1   3
BRANCH   1   5
HETATM    5  C4  UNL     1     -33.740   7.266   3.647  1.00 20.00     0.093 C 
BRANCH   5   6
HETATM    6  C5  UNL     1     -35.058   6.509   3.728  1.00 20.00     0.122 C 
HETATM    7 CL7  UNL     1     -34.819   4.862   4.364  1.00 20.00    -0.130 Cl
ENDBRANCH   5   6
ENDBRANCH   1   5
TORSDOF 3
ENDMDL
MODEL 3
REMARK VINA RESULT:      -2.4      1.407      1.779
REMARK  3 active torsions:
REMARK  status: ('A' for Active; 'I' for Inactive)
REMARK    1  A    between atoms: C1_1  and  C3_3 
REMARK    2  A    between atoms: C1_1  and  C4_4 
REMARK    3  A    between atoms: C4_4  and  C5_5 
ROOT
HETATM    1  C1  UNL     1     -33.836   7.203   3.604  1.00 20.00     0.127 C 
HETATM    2  O6  UNL     1     -33.377   7.960   4.458  1.00 20.00    -0.298 OA
ENDROOT
BRANCH   1   3
HETATM    3  C3  UNL     1     -35.114   6.412   3.827  1.00 20.00     0.074 C 
HETATM    4  C2  UNL     1     -34.851   4.998   4.312  1.00 20.00     0.013 C 
ENDBRANCH   1   3
BRANCH   1   5
HETATM    5  C4  UNL     1     -33.147   6.970   2.266  1.00 20.00     0.093 C 
BRANCH   5   6
HETATM    6  C5  UNL     1     -31.968   7.899   2.010  1.00 20.00     0.122 C 
HETATM    7 CL7  UNL     1     -32.380   9.148   0.809  1.00 20.00    -0.130 Cl
ENDBRANCH   5   6
ENDBRANCH   1   5
TORSDOF 3
ENDMDL
MODEL 4
REMARK VINA RESULT:      -2.3      3.603      4.637
REMARK  3 active torsions:
REMARK  status: ('A' for Active; 'I' for Inactive)
REMARK    1  A    between atoms: C1_1  and  C3_3 
REMARK    2  A    between atoms: C1_1  and  C4_4 
REMARK    3  A    between atoms: C4_4  and  C5_5 
ROOT
HETATM    1  C1  UNL     1     -34.021   6.513   3.531  1.00 20.00     0.127 C 
HETATM    2  O6  UNL     1     -34.238   7.618   4.024  1.00 20.00    -0.298 OA
ENDROOT
BRANCH   1   3
HETATM    3  C3  UNL     1     -33.205   6.340   2.260  1.00 20.00     0.074 C 
HETATM    4  C2  UNL     1     -32.334   7.545   1.954  1.00 20.00     0.013 C 
ENDBRANCH   1   3
BRANCH   1   5
HETATM    5  C4  UNL     1     -34.577   5.228   4.131  1.00 20.00     0.093 C 
BRANCH   5   6
HETATM    6  C5  UNL     1     -33.867   3.968   3.655  1.00 20.00     0.122 C 
HETATM    7 CL7  UNL     1     -33.156   3.072   5.021  1.00 20.00    -0.130 Cl
ENDBRANCH   5   6
ENDBRANCH   1   5
TORSDOF 3
ENDMDL
MODEL 5
REMARK VINA RESULT:      -2.2      2.706      3.338
REMARK  3 active torsions:
REMARK  status: ('A' for Active; 'I' for Inactive)
REMARK    1  A    between atoms: C1_1  and  C3_3 
REMARK    2  A    between atoms: C1_1  and  C4_4 
REMARK    3  A    between atoms: C4_4  and  C5_5 
ROOT
HETATM    1  C1  UNL     1     -34.534   5.012   4.019  1.00 20.00     0.127 C 
HETATM    2  O6  UNL     1     -35.546   4.876   4.704  1.00 20.00    -0.298 OA
ENDROOT
BRANCH   1   3
HETATM    3  C3  UNL     1     -33.609   3.849   3.702  1.00 20.00     0.074 C 
HETATM    4  C2  UNL     1     -33.222   3.054   4.936  1.00 20.00     0.013 C 
ENDBRANCH   1   3
BRANCH   1   5
HETATM    5  C4  UNL     1     -34.104   6.361   3.457  1.00 20.00     0.093 C 
BRANCH   5   6
HETATM    6  C5  UNL     1     -33.195   6.261   2.240  1.00 20.00     0.122 C 
HETATM    7 CL7  UNL     1     -32.247   7.753   2.017  1.00 20.00    -0.130 Cl
ENDBRANCH   5   6
ENDBRANCH   1   5
TORSDOF 3
ENDMDL
MODEL 6
REMARK VINA RESULT:      -2.2      2.622      3.984
REMARK  3 active torsions:
REMARK  status: ('A' for Active; 'I' for Inactive)
REMARK    1  A    between atoms: C1_1  and  C3_3 
REMARK    2  A    between atoms: C1_1  and  C4_4 
REMARK    3  A    between atoms: C4_4  and  C5_5 
ROOT
HETATM    1  C1  UNL     1     -32.144   8.064   2.062  1.00 20.00     0.127 C 
HETATM    2  O6  UNL     1     -31.390   8.515   2.923  1.00 20.00    -0.298 OA
ENDROOT
BRANCH   1   3
HETATM    3  C3  UNL     1     -32.053   8.488   0.605  1.00 20.00     0.074 C 
HETATM    4  C2  UNL     1     -32.481   9.927   0.385  1.00 20.00     0.013 C 
ENDBRANCH   1   3
BRANCH   1   5
HETATM    5  C4  UNL     1     -33.250   7.070   2.387  1.00 20.00     0.093 C 
BRANCH   5   6
HETATM    6  C5  UNL     1     -33.944   7.332   3.717  1.00 20.00     0.122 C 
HETATM    7 CL7  UNL     1     -35.334   6.242   3.946  1.00 20.00    -0.130 Cl
ENDBRANCH   5   6
ENDBRANCH   1   5
TORSDOF 3
ENDMDL
MODEL 7
REMARK VINA RESULT:      -2.1      3.025      3.980
REMARK  3 active torsions:
REMARK  status: ('A' for Active; 'I' for Inactive)
REMARK    1  A    between atoms: C1_1  and  C3_3 
REMARK    2  A    between atoms: C1_1  and  C4_4 
REMARK    3  A    between atoms: C4_4  and  C5_5 
ROOT
HETATM    1  C1  UNL     1     -33.049   7.208   2.602  1.00 20.00     0.127 C 
HETATM    2  O6  UNL     1     -32.286   8.109   2.257  1.00 20.00    -0.298 OA
ENDROOT
BRANCH   1   3
HETATM    3  C3  UNL     1     -33.200   5.925   1.801  1.00 20.00     0.074 C 
HETATM    4  C2  UNL     1     -31.908   5.498   1.128  1.00 20.00     0.013 C 
ENDBRANCH   1   3
BRANCH   1   5
HETATM    5  C4  UNL     1     -33.930   7.314   3.840  1.00 20.00     0.093 C 
BRANCH   5   6
HETATM    6  C5  UNL     1     -35.212   6.497   3.755  1.00 20.00     0.122 C 
HETATM    7 CL7  UNL     1     -35.007   4.893   4.503  1.00 20.00    -0.130 Cl
ENDBRANCH   5   6
ENDBRANCH   1   5
TORSDOF 3
ENDMDL
MODEL 8
REMARK VINA RESULT:      -2.0      1.983      2.288
REMARK  3 active torsions:
REMARK  status: ('A' for Active; 'I' for Inactive)
REMARK    1  A    between atoms: C1_1  and  C3_3 
REMARK    2  A    between atoms: C1_1  and  C4_4 
REMARK    3  A    between atoms: C4_4  and  C5_5 
ROOT
HETATM    1  C1  UNL     1     -33.957   5.464   3.201  1.00 20.00     0.127 C 
HETATM    2  O6  UNL     1     -33.719   4.422   3.808  1.00 20.00    -0.298 OA
ENDROOT
BRANCH   1   3
HETATM    3  C3  UNL     1     -34.826   6.564   3.789  1.00 20.00     0.074 C 
HETATM    4  C2  UNL     1     -34.014   7.714   4.355  1.00 20.00     0.013 C 
ENDBRANCH   1   3
BRANCH   1   5
HETATM    5  C4  UNL     1     -33.428   5.729   1.798  1.00 20.00     0.093 C 
BRANCH   5   6
HETATM    6  C5  UNL     1     -31.974   6.178   1.762  1.00 20.00     0.122 C 
HETATM    7 CL7  UNL     1     -31.848   7.946   1.580  1.00 20.00    -0.130 Cl
ENDBRANCH   5   6
ENDBRANCH   1   5
TORSDOF 3
ENDMDL
MODEL 9
REMARK VINA RESULT:      -1.8      2.392      2.579
REMARK  3 active torsions:
REMARK  status: ('A' for Active; 'I' for Inactive)
REMARK    1  A    between atoms: C1_1  and  C3_3 
REMARK    2  A    between atoms: C1_1  and  C4_4 
REMARK    3  A    between atoms: C4_4  and  C5_5 
ROOT
HETATM    1  C1  UNL     1     -33.926   7.464   3.832  1.00 20.00     0.127 C 
HETATM    2  O6  UNL     1     -33.430   7.883   4.877  1.00 20.00    -0.298 OA
ENDROOT
BRANCH   1   3
HETATM    3  C3  UNL     1     -35.077   6.471   3.824  1.00 20.00     0.074 C 
HETATM    4  C2  UNL     1     -34.647   5.071   4.223  1.00 20.00     0.013 C 
ENDBRANCH   1   3
BRANCH   1   5
HETATM    5  C4  UNL     1     -33.409   7.877   2.461  1.00 20.00     0.093 C 
BRANCH   5   6
HETATM    6  C5  UNL     1     -32.148   7.142   2.030  1.00 20.00     0.122 C 
HETATM    7 CL7  UNL     1     -32.537   5.562   1.305  1.00 20.00    -0.130 Cl
ENDBRANCH   5   6
ENDBRANCH   1   5
TORSDOF 3
ENDMDL
