MODEL 1
REMARK VINA RESULT:      -2.3      0.000      0.000
REMARK  2 active torsions:
REMARK  status: ('A' for Active; 'I' for Inactive)
REMARK    1  A    between atoms: C1_1  and  C3_3 
REMARK    2  A    between atoms: C2_2  and  C5_5 
ROOT
HETATM    1  C1  UNL     1     -32.651   7.195   2.231  1.00 20.00     0.003 C 
HETATM    2  C2  UNL     1     -33.715   7.384   3.022  1.00 20.00     0.041 C 
ENDROOT
BRANCH   1   3
HETATM    3  C3  UNL     1     -32.028   8.270   1.490  1.00 20.00    -0.004 C 
HETATM    4  C4  UNL     1     -32.721   9.152   0.755  1.00 20.00    -0.031 C 
HETATM    5  C6  UNL     1     -32.091  10.266  -0.014  1.00 20.00     0.036 C 
ENDBRANCH   1   3
BRANCH   2   6
HETATM    6  C5  UNL     1     -34.286   6.228   3.740  1.00 20.00     0.258 C 
HETATM    7  O7  UNL     1     -35.458   6.202   4.099  1.00 20.00    -0.302 OA
ENDBRANCH   2   6
TORSDOF 2
ENDMDL
MODEL 2
REMARK VINA RESULT:      -2.3      2.419      4.556
REMARK  2 active torsions:
REMARK  status: ('A' for Active; 'I' for Inactive)
REMARK    1  A    between atoms: C1_1  and  C3_3 
REMARK    2  A    between atoms: C2_2  and  C5_5 
ROOT
HETATM    1  C1  UNL     1     -33.067   7.829   2.598  1.00 20.00     0.003 C 
HETATM    2  C2  UNL     1     -32.172   7.744   1.606  1.00 20.00     0.041 C 
ENDROOT
BRANCH   1   3
HETATM    3  C3  UNL     1     -33.577   6.667   3.292  1.00 20.00    -0.004 C 
HETATM    4  C4  UNL     1     -34.831   6.583   3.759  1.00 20.00    -0.031 C 
HETATM    5  C6  UNL     1     -35.369   5.389   4.476  1.00 20.00     0.036 C 
ENDBRANCH   1   3
BRANCH   2   6
HETATM    6  C5  UNL     1     -31.707   8.983   0.953  1.00 20.00     0.258 C 
HETATM    7  O7  UNL     1     -32.484   9.761   0.412  1.00 20.00    -0.302 OA
ENDBRANCH   2   6
TORSDOF 2
ENDMDL
MODEL 3
REMARK VINA RESULT:      -2.3      1.230      1.766
REMARK  2 active torsions:
REMARK  status: ('A' for Active; 'I' for Inactive)
REMARK    1  A    between atoms: C1_1  and  C3_3 
REMARK    2  A    between atoms: C2_2  and  C5_5 
ROOT
HETATM    1  C1  UNL     1     -33.668   6.604   3.367  1.00 20.00     0.003 C 
HETATM    2  C2  UNL     1     -34.923   6.472   3.814  1.00 20.00     0.041 C 
ENDROOT
BRANCH   1   3
HETATM    3  C3  UNL     1     -33.207   7.783   2.669  1.00 20.00    -0.004 C 
HETATM    4  C4  UNL     1     -32.277   7.749   1.704  1.00 20.00    -0.031 C 
HETATM    5  C6  UNL     1     -31.793   8.959   0.976  1.00 20.00     0.036 C 
ENDBRANCH   1   3
BRANCH   2   6
HETATM    6  C5  UNL     1     -35.307   5.232   4.516  1.00 20.00     0.258 C 
HETATM    7  O7  UNL     1     -34.649   4.202   4.418  1.00 20.00    -0.302 OA
ENDBRANCH   2   6
TORSDOF 2
ENDMDL
MODEL 4
REMARK VINA RESULT:      -1.7      2.598      4.471
REMARK  2 active torsions:
REMARK  status: ('A' for Active; 'I' for Inactive)
REMARK    1  A    between atoms: C1_1  and  C3_3 
REMARK    2  A    between atoms: C2_2  and  C5_5 
ROOT
HETATM    1  C1  UNL     1     -32.470   7.645   1.439  1.00 20.00     0.003 C 
HETATM    2  C2  UNL     1     -32.577   8.974   1.319  1.00 20.00     0.041 C 
ENDROOT
BRANCH   1   3
HETATM    3  C3  UNL     1     -32.894   6.930   2.622  1.00 20.00    -0.004 C 
HETATM    4  C4  UNL     1     -34.175   6.855   3.014  1.00 20.00    -0.031 C 
HETATM    5  C6  UNL     1     -34.625   6.121   4.234  1.00 20.00     0.036 C 
ENDBRANCH   1   3
BRANCH   2   6
HETATM    6  C5  UNL     1     -32.117   9.620   0.074  1.00 20.00     0.258 C 
HETATM    7  O7  UNL     1     -32.897   9.948  -0.812  1.00 20.00    -0.302 OA
ENDBRANCH   2   6
TORSDOF 2
ENDMDL
MODEL 5
REMARK VINA RESULT:      -1.3      2.624      5.110
REMARK  2 active torsions:
REMARK  status: ('A' for Active; 'I' for Inactive)
REMARK    1  A    between atoms: C1_1  and  C3_3 
REMARK    2  A    between atoms: C2_2  and  C5_5 
ROOT
HETATM    1  C1  UNL     1     -34.065   6.044   3.289  1.00 20.00     0.003 C 
HETATM    2  C2  UNL     1     -32.998   6.312   2.527  1.00 20.00     0.041 C 
ENDROOT
BRANCH   1   3
HETATM    3  C3  UNL     1     -34.237   4.783   3.976  1.00 20.00    -0.004 C 
HETATM    4  C4  UNL     1     -33.271   3.856   4.062  1.00 20.00    -0.031 C 
HETATM    5  C6  UNL     1     -33.436   2.551   4.768  1.00 20.00     0.036 C 
ENDBRANCH   1   3
BRANCH   2   6
HETATM    6  C5  UNL     1     -32.906   7.626   1.862  1.00 20.00     0.258 C 
HETATM    7  O7  UNL     1     -31.861   8.267   1.834  1.00 20.00    -0.302 OA
ENDBRANCH   2   6
TORSDOF 2
ENDMDL
MODEL 6
REMARK VINA RESULT:      -1.2      2.458      2.547
REMARK  2 active torsions:
REMARK  status: ('A' for Active; 'I' for Inactive)
REMARK    1  A    between atoms: C1_1  and  C3_3 
REMARK    2  A    between atoms: C2_2  and  C5_5 
ROOT
HETATM    1  C1  UNL     1     -31.835   7.419   1.485  1.00 20.00     0.003 C 
HETATM    2  C2  UNL     1     -32.764   6.459   1.568  1.00 20.00     0.041 C 
ENDROOT
BRANCH   1   3
HETATM    3  C3  UNL     1     -32.167   8.826   1.444  1.00 20.00    -0.004 C 
HETATM    4  C4  UNL     1     -32.314   9.512   0.301  1.00 20.00    -0.031 C 
HETATM    5  C6  UNL     1     -32.656  10.964   0.245  1.00 20.00     0.036 C 
ENDBRANCH   1   3
BRANCH   2   6
HETATM    6  C5  UNL     1     -32.334   5.048   1.604  1.00 20.00     0.258 C 
HETATM    7  O7  UNL     1     -31.589   4.576   0.753  1.00 20.00    -0.302 OA
ENDBRANCH   2   6
TORSDOF 2
ENDMDL
MODEL 7
REMARK VINA RESULT:      -1.1      3.175      4.068
REMARK  2 active torsions:
REMARK  status: ('A' for Active; 'I' for Inactive)
REMARK    1  A    between atoms: C1_1  and  C3_3 
REMARK    2  A    between atoms: C2_2  and  C5_5 
ROOT
HETATM    1  C1  UNL     1     -34.774   4.888   4.394  1.00 20.00     0.003 C 
HETATM    2  C2  UNL     1     -33.711   4.211   3.942  1.00 20.00     0.041 C 
ENDROOT
BRANCH   1   3
HETATM    3  C3  UNL     1     -35.096   6.225   3.948  1.00 20.00    -0.004 C 
HETATM    4  C4  UNL     1     -34.206   7.229   3.934  1.00 20.00    -0.031 C 
HETATM    5  C6  UNL     1     -34.526   8.613   3.476  1.00 20.00     0.036 C 
ENDBRANCH   1   3
BRANCH   2   6
HETATM    6  C5  UNL     1     -33.458   2.850   4.454  1.00 20.00     0.258 C 
HETATM    7  O7  UNL     1     -32.851   2.654   5.499  1.00 20.00    -0.302 OA
ENDBRANCH   2   6
TORSDOF 2
ENDMDL
MODEL 8
REMARK VINA RESULT:      -0.8      3.284      5.322
REMARK  2 active torsions:
REMARK  status: ('A' for Active; 'I' for Inactive)
REMARK    1  A    between atoms: C1_1  and  C3_3 
REMARK    2  A    between atoms: C2_2  and  C5_5 
ROOT
HETATM    1  C1  UNL     1     -33.826   5.288   3.646  1.00 20.00     0.003 C 
HETATM    2  C2  UNL     1     -34.781   6.101   4.115  1.00 20.00     0.041 C 
ENDROOT
BRANCH   1   3
HETATM    3  C3  UNL     1     -33.910   3.847   3.745  1.00 20.00    -0.004 C 
HETATM    4  C4  UNL     1     -33.219   3.132   4.644  1.00 20.00    -0.031 C 
HETATM    5  C6  UNL     1     -33.296   1.645   4.756  1.00 20.00     0.036 C 
ENDBRANCH   1   3
BRANCH   2   6
HETATM    6  C5  UNL     1     -34.612   7.560   3.972  1.00 20.00     0.258 C 
HETATM    7  O7  UNL     1     -33.783   8.184   4.625  1.00 20.00    -0.302 OA
ENDBRANCH   2   6
TORSDOF 2
ENDMDL
MODEL 9
REMARK VINA RESULT:      -0.7      2.220      3.051
REMARK  2 active torsions:
REMARK  status: ('A' for Active; 'I' for Inactive)
REMARK    1  A    between atoms: C1_1  and  C3_3 
REMARK    2  A    between atoms: C2_2  and  C5_5 
ROOT
HETATM    1  C1  UNL     1     -32.918   7.161   2.439  1.00 20.00     0.003 C 
HETATM    2  C2  UNL     1     -33.850   6.590   3.211  1.00 20.00     0.041 C 
ENDROOT
BRANCH   1   3
HETATM    3  C3  UNL     1     -32.205   6.437   1.410  1.00 20.00    -0.004 C 
HETATM    4  C4  UNL     1     -32.271   5.104   1.271  1.00 20.00    -0.031 C 
HETATM    5  C6  UNL     1     -31.541   4.345   0.213  1.00 20.00     0.036 C 
ENDBRANCH   1   3
BRANCH   2   6
HETATM    6  C5  UNL     1     -34.526   7.407   4.239  1.00 20.00     0.258 C 
HETATM    7  O7  UNL     1     -33.905   8.153   4.986  1.00 20.00    -0.302 OA
ENDBRANCH   2   6
TORSDOF 2
ENDMDL
