MODEL 1
REMARK VINA RESULT:      -2.7      0.000      0.000
REMARK  4 active torsions:
REMARK  status: ('A' for Active; 'I' for Inactive)
REMARK    1  A    between atoms: C1_1  and  C2_2 
REMARK    2  A    between atoms: C2_2  and  C3_3 
REMARK    3  A    between atoms: C3_3  and  C4_4 
REMARK    4  A    between atoms: C4_4  and  C5_5 
ROOT
HETATM    1  C2  UNL     1     -33.602   7.227   3.696  1.00 20.00     0.096 C 
ENDROOT
BRANCH   1   2
HETATM    2  C1  UNL     1     -32.812   7.342   2.402  1.00 20.00     0.218 C 
HETATM    3  O6  UNL     1     -32.212   8.361   2.076  1.00 20.00    -0.280 OA
HETATM    4 CL7  UNL     1     -32.838   5.853   1.498  1.00 20.00    -0.044 Cl
ENDBRANCH   1   2
BRANCH   1   5
HETATM    5  C3  UNL     1     -34.864   6.372   3.564  1.00 20.00     0.010 C 
BRANCH   5   6
HETATM    6  C4  UNL     1     -34.809   5.116   4.443  1.00 20.00     0.015 C 
BRANCH   6   7
HETATM    7  C5  UNL     1     -33.986   3.989   3.829  1.00 20.00     0.114 C 
HETATM    8 CL8  UNL     1     -33.134   3.036   5.067  1.00 20.00    -0.130 Cl
ENDBRANCH   6   7
ENDBRANCH   5   6
ENDBRANCH   1   5
TORSDOF 4
ENDMDL
MODEL 2
REMARK VINA RESULT:      -2.7      2.438      4.462
REMARK  4 active torsions:
REMARK  status: ('A' for Active; 'I' for Inactive)
REMARK    1  A    between atoms: C1_1  and  C2_2 
REMARK    2  A    between atoms: C2_2  and  C3_3 
REMARK    3  A    between atoms: C3_3  and  C4_4 
REMARK    4  A    between atoms: C4_4  and  C5_5 
ROOT
HETATM    1  C2  UNL     1     -33.698   6.611   3.112  1.00 20.00     0.096 C 
ENDROOT
BRANCH   1   2
HETATM    2  C1  UNL     1     -34.617   5.673   3.880  1.00 20.00     0.218 C 
HETATM    3  O6  UNL     1     -35.715   6.016   4.307  1.00 20.00    -0.280 OA
HETATM    4 CL7  UNL     1     -33.932   4.078   4.023  1.00 20.00    -0.044 Cl
ENDBRANCH   1   2
BRANCH   1   5
HETATM    5  C3  UNL     1     -33.042   5.957   1.895  1.00 20.00     0.010 C 
BRANCH   5   6
HETATM    6  C4  UNL     1     -31.946   6.838   1.284  1.00 20.00     0.015 C 
BRANCH   6   7
HETATM    7  C5  UNL     1     -31.985   8.279   1.783  1.00 20.00     0.114 C 
HETATM    8 CL8  UNL     1     -32.278   9.434   0.462  1.00 20.00    -0.130 Cl
ENDBRANCH   6   7
ENDBRANCH   5   6
ENDBRANCH   1   5
TORSDOF 4
ENDMDL
MODEL 3
REMARK VINA RESULT:      -2.7      1.333      1.333
REMARK  4 active torsions:
REMARK  status: ('A' for Active; 'I' for Inactive)
REMARK    1  A    between atoms: C1_1  and  C2_2 
REMARK    2  A    between atoms: C2_2  and  C3_3 
REMARK    3  A    between atoms: C3_3  and  C4_4 
REMARK    4  A    between atoms: C4_4  and  C5_5 
ROOT
HETATM    1  C2  UNL     1     -33.646   7.141   3.519  1.00 20.00     0.096 C 
ENDROOT
BRANCH   1   2
HETATM    2  C1  UNL     1     -32.904   6.974   2.202  1.00 20.00     0.218 C 
HETATM    3  O6  UNL     1     -32.931   5.937   1.548  1.00 20.00    -0.280 OA
HETATM    4 CL7  UNL     1     -32.074   8.436   1.743  1.00 20.00    -0.044 Cl
ENDBRANCH   1   2
BRANCH   1   5
HETATM    5  C3  UNL     1     -34.946   6.339   3.591  1.00 20.00     0.010 C 
BRANCH   5   6
HETATM    6  C4  UNL     1     -34.813   5.097   4.481  1.00 20.00     0.015 C 
BRANCH   6   7
HETATM    7  C5  UNL     1     -34.004   3.978   3.834  1.00 20.00     0.114 C 
HETATM    8 CL8  UNL     1     -33.104   3.025   5.037  1.00 20.00    -0.130 Cl
ENDBRANCH   6   7
ENDBRANCH   5   6
ENDBRANCH   1   5
TORSDOF 4
ENDMDL
MODEL 4
REMARK VINA RESULT:      -2.6      2.440      4.403
REMARK  4 active torsions:
REMARK  status: ('A' for Active; 'I' for Inactive)
REMARK    1  A    between atoms: C1_1  and  C2_2 
REMARK    2  A    between atoms: C2_2  and  C3_3 
REMARK    3  A    between atoms: C3_3  and  C4_4 
REMARK    4  A    between atoms: C4_4  and  C5_5 
ROOT
HETATM    1  C2  UNL     1     -33.656   5.407   3.243  1.00 20.00     0.096 C 
ENDROOT
BRANCH   1   2
HETATM    2  C1  UNL     1     -34.334   4.474   4.234  1.00 20.00     0.218 C 
HETATM    3  O6  UNL     1     -35.456   4.681   4.684  1.00 20.00    -0.280 OA
HETATM    4 CL7  UNL     1     -33.342   3.088   4.594  1.00 20.00    -0.044 Cl
ENDBRANCH   1   2
BRANCH   1   5
HETATM    5  C3  UNL     1     -34.099   6.865   3.378  1.00 20.00     0.010 C 
BRANCH   5   6
HETATM    6  C4  UNL     1     -32.937   7.845   3.180  1.00 20.00     0.015 C 
BRANCH   6   7
HETATM    7  C5  UNL     1     -32.201   7.646   1.859  1.00 20.00     0.114 C 
HETATM    8 CL8  UNL     1     -32.230   9.112   0.852  1.00 20.00    -0.130 Cl
ENDBRANCH   6   7
ENDBRANCH   5   6
ENDBRANCH   1   5
TORSDOF 4
ENDMDL
MODEL 5
REMARK VINA RESULT:      -2.5      3.061      5.036
REMARK  4 active torsions:
REMARK  status: ('A' for Active; 'I' for Inactive)
REMARK    1  A    between atoms: C1_1  and  C2_2 
REMARK    2  A    between atoms: C2_2  and  C3_3 
REMARK    3  A    between atoms: C3_3  and  C4_4 
REMARK    4  A    between atoms: C4_4  and  C5_5 
ROOT
HETATM    1  C2  UNL     1     -33.501   6.642   2.613  1.00 20.00     0.096 C 
ENDROOT
BRANCH   1   2
HETATM    2  C1  UNL     1     -34.413   6.832   3.815  1.00 20.00     0.218 C 
HETATM    3  O6  UNL     1     -35.438   6.180   3.984  1.00 20.00    -0.280 OA
HETATM    4 CL7  UNL     1     -33.792   8.037   4.908  1.00 20.00    -0.044 Cl
ENDBRANCH   1   2
BRANCH   1   5
HETATM    5  C3  UNL     1     -32.357   7.656   2.552  1.00 20.00     0.010 C 
BRANCH   5   6
HETATM    6  C4  UNL     1     -31.998   8.039   1.111  1.00 20.00     0.015 C 
BRANCH   6   7
HETATM    7  C5  UNL     1     -32.073   9.540   0.852  1.00 20.00     0.114 C 
HETATM    8 CL8  UNL     1     -32.855   9.910  -0.702  1.00 20.00    -0.130 Cl
ENDBRANCH   6   7
ENDBRANCH   5   6
ENDBRANCH   1   5
TORSDOF 4
ENDMDL
MODEL 6
REMARK VINA RESULT:      -2.5      1.392      1.428
REMARK  4 active torsions:
REMARK  status: ('A' for Active; 'I' for Inactive)
REMARK    1  A    between atoms: C1_1  and  C2_2 
REMARK    2  A    between atoms: C2_2  and  C3_3 
REMARK    3  A    between atoms: C3_3  and  C4_4 
REMARK    4  A    between atoms: C4_4  and  C5_5 
ROOT
HETATM    1  C2  UNL     1     -34.183   6.587   2.987  1.00 20.00     0.096 C 
ENDROOT
BRANCH   1   2
HETATM    2  C1  UNL     1     -33.176   7.635   3.436  1.00 20.00     0.218 C 
HETATM    3  O6  UNL     1     -33.125   8.063   4.584  1.00 20.00    -0.280 OA
HETATM    4 CL7  UNL     1     -32.106   8.093   2.140  1.00 20.00    -0.044 Cl
ENDBRANCH   1   2
BRANCH   1   5
HETATM    5  C3  UNL     1     -35.204   6.223   4.067  1.00 20.00     0.010 C 
BRANCH   5   6
HETATM    6  C4  UNL     1     -35.013   4.793   4.587  1.00 20.00     0.015 C 
BRANCH   6   7
HETATM    7  C5  UNL     1     -33.887   4.043   3.883  1.00 20.00     0.114 C 
HETATM    8 CL8  UNL     1     -33.082   2.882   4.965  1.00 20.00    -0.130 Cl
ENDBRANCH   6   7
ENDBRANCH   5   6
ENDBRANCH   1   5
TORSDOF 4
ENDMDL
MODEL 7
REMARK VINA RESULT:      -2.5      1.667      1.878
REMARK  4 active torsions:
REMARK  status: ('A' for Active; 'I' for Inactive)
REMARK    1  A    between atoms: C1_1  and  C2_2 
REMARK    2  A    between atoms: C2_2  and  C3_3 
REMARK    3  A    between atoms: C3_3  and  C4_4 
REMARK    4  A    between atoms: C4_4  and  C5_5 
ROOT
HETATM    1  C2  UNL     1     -33.135   7.893   2.893  1.00 20.00     0.096 C 
ENDROOT
BRANCH   1   2
HETATM    2  C1  UNL     1     -32.145   8.028   1.747  1.00 20.00     0.218 C 
HETATM    3  O6  UNL     1     -31.277   7.192   1.514  1.00 20.00    -0.280 OA
HETATM    4 CL7  UNL     1     -32.437   9.468   0.812  1.00 20.00    -0.044 Cl
ENDBRANCH   1   2
BRANCH   1   5
HETATM    5  C3  UNL     1     -33.726   6.489   3.025  1.00 20.00     0.010 C 
BRANCH   5   6
HETATM    6  C4  UNL     1     -34.974   6.465   3.916  1.00 20.00     0.015 C 
BRANCH   6   7
HETATM    7  C5  UNL     1     -35.252   5.095   4.524  1.00 20.00     0.114 C 
HETATM    8 CL8  UNL     1     -33.948   3.936   4.179  1.00 20.00    -0.130 Cl
ENDBRANCH   6   7
ENDBRANCH   5   6
ENDBRANCH   1   5
TORSDOF 4
ENDMDL
MODEL 8
REMARK VINA RESULT:      -2.5      0.929      1.168
REMARK  4 active torsions:
REMARK  status: ('A' for Active; 'I' for Inactive)
REMARK    1  A    between atoms: C1_1  and  C2_2 
REMARK    2  A    between atoms: C2_2  and  C3_3 
REMARK    3  A    between atoms: C3_3  and  C4_4 
REMARK    4  A    between atoms: C4_4  and  C5_5 
ROOT
HETATM    1  C2  UNL     1     -32.875   7.438   3.651  1.00 20.00     0.096 C 
ENDROOT
BRANCH   1   2
HETATM    2  C1  UNL     1     -32.589   7.477   2.158  1.00 20.00     0.218 C 
HETATM    3  O6  UNL     1     -32.290   8.506   1.563  1.00 20.00    -0.280 OA
HETATM    4 CL7  UNL     1     -32.696   5.892   1.443  1.00 20.00    -0.044 Cl
ENDBRANCH   1   2
BRANCH   1   5
HETATM    5  C3  UNL     1     -34.362   7.560   3.989  1.00 20.00     0.010 C 
BRANCH   5   6
HETATM    6  C4  UNL     1     -35.159   6.324   3.553  1.00 20.00     0.015 C 
BRANCH   6   7
HETATM    7  C5  UNL     1     -35.122   5.194   4.576  1.00 20.00     0.114 C 
HETATM    8 CL8  UNL     1     -33.965   3.921   4.120  1.00 20.00    -0.130 Cl
ENDBRANCH   6   7
ENDBRANCH   5   6
ENDBRANCH   1   5
TORSDOF 4
ENDMDL
MODEL 9
REMARK VINA RESULT:      -2.4      2.974      3.852
REMARK  4 active torsions:
REMARK  status: ('A' for Active; 'I' for Inactive)
REMARK    1  A    between atoms: C1_1  and  C2_2 
REMARK    2  A    between atoms: C2_2  and  C3_3 
REMARK    3  A    between atoms: C3_3  and  C4_4 
REMARK    4  A    between atoms: C4_4  and  C5_5 
ROOT
HETATM    1  C2  UNL     1     -31.595   8.662   0.755  1.00 20.00     0.096 C 
ENDROOT
BRANCH   1   2
HETATM    2  C1  UNL     1     -32.452   9.744   0.116  1.00 20.00     0.218 C 
HETATM    3  O6  UNL     1     -32.969   9.620  -0.989  1.00 20.00    -0.280 OA
HETATM    4 CL7  UNL     1     -32.628  11.125   1.164  1.00 20.00    -0.044 Cl
ENDBRANCH   1   2
BRANCH   1   5
HETATM    5  C3  UNL     1     -32.216   8.059   2.016  1.00 20.00     0.010 C 
BRANCH   5   6
HETATM    6  C4  UNL     1     -32.757   6.644   1.777  1.00 20.00     0.015 C 
BRANCH   6   7
HETATM    7  C5  UNL     1     -33.650   6.144   2.907  1.00 20.00     0.114 C 
HETATM    8 CL8  UNL     1     -34.166   7.464   3.982  1.00 20.00    -0.130 Cl
ENDBRANCH   6   7
ENDBRANCH   5   6
ENDBRANCH   1   5
TORSDOF 4
ENDMDL
