MODEL 1
REMARK VINA RESULT:       9.3      0.000      0.000
REMARK  1 active torsions:
REMARK  status: ('A' for Active; 'I' for Inactive)
REMARK    1  A    between atoms: C5_5  and  C6_6 
ROOT
HETATM    1  C1  UNL     1     -34.601   4.654   4.150  1.00 20.00     0.086 C 
HETATM    2  C2  UNL     1     -33.106   4.428   4.077  1.00 20.00     0.086 C 
HETATM    3  C5  UNL     1     -33.646   6.471   2.350  1.00 20.00     0.078 C 
HETATM    4  C7  UNL     1     -34.336   6.474   0.986  1.00 20.00     0.041 C 
HETATM    5  S9  UNL     1     -34.916   6.371   3.669  1.00 20.00    -0.145 SA
HETATM    6  S10 UNL     1     -32.545   5.007   2.458  1.00 20.00    -0.145 SA
ENDROOT
BRANCH   3   7
HETATM    7  C6  UNL     1     -32.817   7.738   2.555  1.00 20.00     0.078 C 
HETATM    8  C8  UNL     1     -32.551   7.993   4.038  1.00 20.00     0.041 C 
HETATM    9  S11 UNL     1     -33.729   9.165   1.852  1.00 20.00    -0.145 SA
HETATM   10  C3  UNL     1     -32.356   9.856   0.896  1.00 20.00     0.086 C 
HETATM   11  C4  UNL     1     -31.571   8.694   0.324  1.00 20.00     0.086 C 
HETATM   12  S12 UNL     1     -31.213   7.558   1.686  1.00 20.00    -0.145 SA
ENDBRANCH   3   7
TORSDOF 1
ENDMDL
MODEL 2
REMARK VINA RESULT:       9.3      0.065      4.396
REMARK  1 active torsions:
REMARK  status: ('A' for Active; 'I' for Inactive)
REMARK    1  A    between atoms: C5_5  and  C6_6 
ROOT
HETATM    1  C1  UNL     1     -32.353   9.848   0.914  1.00 20.00     0.086 C 
HETATM    2  C2  UNL     1     -31.585   8.677   0.339  1.00 20.00     0.086 C 
HETATM    3  C5  UNL     1     -32.832   7.736   2.576  1.00 20.00     0.078 C 
HETATM    4  C7  UNL     1     -32.555   7.986   4.058  1.00 20.00     0.041 C 
HETATM    5  S9  UNL     1     -33.729   9.175   1.878  1.00 20.00    -0.145 SA
HETATM    6  S10 UNL     1     -31.235   7.535   1.697  1.00 20.00    -0.145 SA
ENDROOT
BRANCH   3   7
HETATM    7  C6  UNL     1     -33.678   6.479   2.375  1.00 20.00     0.078 C 
HETATM    8  C8  UNL     1     -34.341   6.470   0.998  1.00 20.00     0.041 C 
HETATM    9  S11 UNL     1     -34.976   6.421   3.669  1.00 20.00    -0.145 SA
HETATM   10  C3  UNL     1     -34.699   4.708   4.183  1.00 20.00     0.086 C 
HETATM   11  C4  UNL     1     -33.207   4.457   4.145  1.00 20.00     0.086 C 
HETATM   12  S12 UNL     1     -32.606   4.999   2.527  1.00 20.00    -0.145 SA
ENDBRANCH   3   7
TORSDOF 1
ENDMDL
MODEL 3
REMARK VINA RESULT:       9.6      1.390      4.376
REMARK  1 active torsions:
REMARK  status: ('A' for Active; 'I' for Inactive)
REMARK    1  A    between atoms: C5_5  and  C6_6 
ROOT
HETATM    1  C1  UNL     1     -31.191   9.044   0.669  1.00 20.00     0.086 C 
HETATM    2  C2  UNL     1     -32.633   9.502   0.611  1.00 20.00     0.086 C 
HETATM    3  C5  UNL     1     -32.647   7.130   1.960  1.00 20.00     0.078 C 
HETATM    4  C7  UNL     1     -32.435   5.698   1.471  1.00 20.00     0.041 C 
HETATM    5  S9  UNL     1     -31.021   7.964   2.111  1.00 20.00    -0.145 SA
HETATM    6  S10 UNL     1     -33.678   8.030   0.738  1.00 20.00    -0.145 SA
ENDROOT
BRANCH   3   7
HETATM    7  C6  UNL     1     -33.345   7.155   3.320  1.00 20.00     0.078 C 
HETATM    8  C8  UNL     1     -32.556   7.983   4.334  1.00 20.00     0.041 C 
HETATM    9  S11 UNL     1     -33.503   5.436   3.938  1.00 20.00    -0.145 SA
HETATM   10  C3  UNL     1     -35.259   5.517   4.372  1.00 20.00     0.086 C 
HETATM   11  C4  UNL     1     -35.951   6.346   3.312  1.00 20.00     0.086 C 
HETATM   12  S12 UNL     1     -35.016   7.885   3.128  1.00 20.00    -0.145 SA
ENDBRANCH   3   7
TORSDOF 1
ENDMDL
MODEL 4
REMARK VINA RESULT:       9.6      1.394      2.625
REMARK  1 active torsions:
REMARK  status: ('A' for Active; 'I' for Inactive)
REMARK    1  A    between atoms: C5_5  and  C6_6 
ROOT
HETATM    1  C1  UNL     1     -35.277   5.545   4.348  1.00 20.00     0.086 C 
HETATM    2  C2  UNL     1     -35.957   6.403   3.302  1.00 20.00     0.086 C 
HETATM    3  C5  UNL     1     -33.335   7.157   3.309  1.00 20.00     0.078 C 
HETATM    4  C7  UNL     1     -32.524   7.955   4.330  1.00 20.00     0.041 C 
HETATM    5  S9  UNL     1     -33.525   5.433   3.906  1.00 20.00    -0.145 SA
HETATM    6  S10 UNL     1     -34.992   7.923   3.133  1.00 20.00    -0.145 SA
ENDROOT
BRANCH   3   7
HETATM    7  C6  UNL     1     -32.644   7.136   1.946  1.00 20.00     0.078 C 
HETATM    8  C8  UNL     1     -32.453   5.706   1.442  1.00 20.00     0.041 C 
HETATM    9  S11 UNL     1     -31.006   7.946   2.097  1.00 20.00    -0.145 SA
HETATM   10  C3  UNL     1     -31.168   9.042   0.666  1.00 20.00     0.086 C 
HETATM   11  C4  UNL     1     -32.603   9.521   0.620  1.00 20.00     0.086 C 
HETATM   12  S12 UNL     1     -33.666   8.061   0.737  1.00 20.00    -0.145 SA
ENDBRANCH   3   7
TORSDOF 1
ENDMDL
MODEL 5
REMARK VINA RESULT:      10.6      1.844      4.394
REMARK  1 active torsions:
REMARK  status: ('A' for Active; 'I' for Inactive)
REMARK    1  A    between atoms: C5_5  and  C6_6 
ROOT
HETATM    1  C1  UNL     1     -32.760  10.324   0.209  1.00 20.00     0.086 C 
HETATM    2  C2  UNL     1     -32.451   9.135  -0.677  1.00 20.00     0.086 C 
HETATM    3  C5  UNL     1     -32.029   8.296   1.885  1.00 20.00     0.078 C 
HETATM    4  C7  UNL     1     -30.917   8.630   2.878  1.00 20.00     0.041 C 
HETATM    5  S9  UNL     1     -33.229   9.682   1.835  1.00 20.00    -0.145 SA
HETATM    6  S10 UNL     1     -31.294   8.073   0.220  1.00 20.00    -0.145 SA
ENDROOT
BRANCH   3   7
HETATM    7  C6  UNL     1     -32.765   7.017   2.284  1.00 20.00     0.078 C 
HETATM    8  C8  UNL     1     -32.085   5.780   1.699  1.00 20.00     0.041 C 
HETATM    9  S11 UNL     1     -34.489   7.106   1.668  1.00 20.00    -0.145 SA
HETATM   10  C3  UNL     1     -35.302   6.636   3.217  1.00 20.00     0.086 C 
HETATM   11  C4  UNL     1     -34.530   7.280   4.348  1.00 20.00     0.086 C 
HETATM   12  S12 UNL     1     -32.782   6.877   4.113  1.00 20.00    -0.145 SA
ENDBRANCH   3   7
TORSDOF 1
ENDMDL
MODEL 6
REMARK VINA RESULT:      10.6      1.858      1.960
REMARK  1 active torsions:
REMARK  status: ('A' for Active; 'I' for Inactive)
REMARK    1  A    between atoms: C5_5  and  C6_6 
ROOT
HETATM    1  C1  UNL     1     -35.294   6.606   3.141  1.00 20.00     0.086 C 
HETATM    2  C2  UNL     1     -34.561   7.270   4.287  1.00 20.00     0.086 C 
HETATM    3  C5  UNL     1     -32.741   7.021   2.269  1.00 20.00     0.078 C 
HETATM    4  C7  UNL     1     -32.027   5.792   1.710  1.00 20.00     0.041 C 
HETATM    5  S9  UNL     1     -34.451   7.078   1.610  1.00 20.00    -0.145 SA
HETATM    6  S10 UNL     1     -32.801   6.895   4.098  1.00 20.00    -0.145 SA
ENDROOT
BRANCH   3   7
HETATM    7  C6  UNL     1     -32.017   8.309   1.878  1.00 20.00     0.078 C 
HETATM    8  C8  UNL     1     -30.899   8.640   2.867  1.00 20.00     0.041 C 
HETATM    9  S11 UNL     1     -33.226   9.687   1.853  1.00 20.00    -0.145 SA
HETATM   10  C3  UNL     1     -32.771  10.351   0.231  1.00 20.00     0.086 C 
HETATM   11  C4  UNL     1     -32.462   9.175  -0.671  1.00 20.00     0.086 C 
HETATM   12  S12 UNL     1     -31.291   8.110   0.206  1.00 20.00    -0.145 SA
ENDBRANCH   3   7
TORSDOF 1
ENDMDL
