MODEL 1
REMARK VINA RESULT:       1.4      0.000      0.000
REMARK  0 active torsions:
REMARK  status: ('A' for Active; 'I' for Inactive)
ROOT
HETATM    1  C1  UNL     1     -32.918   5.561   2.116  1.00 20.00     0.131 C 
HETATM    2  C2  UNL     1     -33.176   4.829   3.419  1.00 20.00     0.079 C 
HETATM    3  C3  UNL     1     -34.507   5.186   4.077  1.00 20.00     0.012 C 
HETATM    4  C4  UNL     1     -32.709   7.876   4.257  1.00 20.00     0.001 C 
HETATM    5  C5  UNL     1     -32.590   7.985   2.736  1.00 20.00     0.012 C 
HETATM    6  C6  UNL     1     -34.139   7.650   4.746  1.00 20.00     0.005 C 
HETATM    7  C7  UNL     1     -34.898   7.024   2.436  1.00 20.00     0.016 C 
HETATM    8  C8  UNL     1     -33.452   6.979   1.967  1.00 20.00     0.056 C 
HETATM    9  C9  UNL     1     -34.956   6.647   3.915  1.00 20.00    -0.013 C 
HETATM   10  O10 UNL     1     -32.211   5.058   1.241  1.00 20.00    -0.298 OA
ENDROOT
TORSDOF 0
ENDMDL
MODEL 2
REMARK VINA RESULT:       2.3      1.804      3.416
REMARK  0 active torsions:
REMARK  status: ('A' for Active; 'I' for Inactive)
ROOT
HETATM    1  C1  UNL     1     -33.705   7.635   4.155  1.00 20.00     0.131 C 
HETATM    2  C2  UNL     1     -32.332   7.906   3.570  1.00 20.00     0.079 C 
HETATM    3  C3  UNL     1     -32.262   7.748   2.052  1.00 20.00     0.012 C 
HETATM    4  C4  UNL     1     -32.782   4.765   3.207  1.00 20.00     0.001 C 
HETATM    5  C5  UNL     1     -34.115   5.165   3.842  1.00 20.00     0.012 C 
HETATM    6  C6  UNL     1     -32.637   5.214   1.753  1.00 20.00     0.005 C 
HETATM    7  C7  UNL     1     -34.569   6.800   1.982  1.00 20.00     0.016 C 
HETATM    8  C8  UNL     1     -34.578   6.581   3.487  1.00 20.00     0.056 C 
HETATM    9  C9  UNL     1     -33.142   6.636   1.461  1.00 20.00    -0.013 C 
HETATM   10  O10 UNL     1     -34.063   8.181   5.199  1.00 20.00    -0.298 OA
ENDROOT
TORSDOF 0
ENDMDL
MODEL 3
REMARK VINA RESULT:       2.7      2.084      3.572
REMARK  0 active torsions:
REMARK  status: ('A' for Active; 'I' for Inactive)
ROOT
HETATM    1  C1  UNL     1     -33.557   7.333   2.998  1.00 20.00     0.131 C 
HETATM    2  C2  UNL     1     -33.405   6.357   1.847  1.00 20.00     0.079 C 
HETATM    3  C3  UNL     1     -31.971   6.215   1.339  1.00 20.00     0.012 C 
HETATM    4  C4  UNL     1     -32.864   9.235   0.572  1.00 20.00     0.001 C 
HETATM    5  C5  UNL     1     -33.089   9.617   2.035  1.00 20.00     0.012 C 
HETATM    6  C6  UNL     1     -31.525   8.541   0.318  1.00 20.00     0.005 C 
HETATM    7  C7  UNL     1     -31.210   8.111   2.771  1.00 20.00     0.016 C 
HETATM    8  C8  UNL     1     -32.642   8.549   3.038  1.00 20.00     0.056 C 
HETATM    9  C9  UNL     1     -31.126   7.498   1.374  1.00 20.00    -0.013 C 
HETATM   10  O10 UNL     1     -34.462   7.196   3.823  1.00 20.00    -0.298 OA
ENDROOT
TORSDOF 0
ENDMDL
MODEL 4
REMARK VINA RESULT:       2.8      1.800      3.282
REMARK  0 active torsions:
REMARK  status: ('A' for Active; 'I' for Inactive)
ROOT
HETATM    1  C1  UNL     1     -34.145   6.979   3.449  1.00 20.00     0.131 C 
HETATM    2  C2  UNL     1     -32.949   7.492   4.227  1.00 20.00     0.079 C 
HETATM    3  C3  UNL     1     -32.106   8.514   3.466  1.00 20.00     0.012 C 
HETATM    4  C4  UNL     1     -31.711   5.717   1.879  1.00 20.00     0.001 C 
HETATM    5  C5  UNL     1     -33.202   5.607   1.553  1.00 20.00     0.012 C 
HETATM    6  C6  UNL     1     -31.113   7.087   1.561  1.00 20.00     0.005 C 
HETATM    7  C7  UNL     1     -33.397   8.111   1.370  1.00 20.00     0.016 C 
HETATM    8  C8  UNL     1     -34.019   6.844   1.938  1.00 20.00     0.056 C 
HETATM    9  C9  UNL     1     -31.995   8.284   1.951  1.00 20.00    -0.013 C 
HETATM   10  O10 UNL     1     -35.156   6.589   4.035  1.00 20.00    -0.298 OA
ENDROOT
TORSDOF 0
ENDMDL
MODEL 5
REMARK VINA RESULT:       3.5      1.509      2.557
REMARK  0 active torsions:
REMARK  status: ('A' for Active; 'I' for Inactive)
ROOT
HETATM    1  C1  UNL     1     -33.622   5.322   3.245  1.00 20.00     0.131 C 
HETATM    2  C2  UNL     1     -33.563   6.560   4.119  1.00 20.00     0.079 C 
HETATM    3  C3  UNL     1     -33.956   7.848   3.397  1.00 20.00     0.012 C 
HETATM    4  C4  UNL     1     -31.176   6.906   2.025  1.00 20.00     0.001 C 
HETATM    5  C5  UNL     1     -31.776   5.583   1.545  1.00 20.00     0.012 C 
HETATM    6  C6  UNL     1     -32.037   8.126   1.696  1.00 20.00     0.005 C 
HETATM    7  C7  UNL     1     -34.021   6.670   1.198  1.00 20.00     0.016 C 
HETATM    8  C8  UNL     1     -33.287   5.465   1.767  1.00 20.00     0.056 C 
HETATM    9  C9  UNL     1     -33.546   7.931   1.918  1.00 20.00    -0.013 C 
HETATM   10  O10 UNL     1     -33.840   4.214   3.738  1.00 20.00    -0.298 OA
ENDROOT
TORSDOF 0
ENDMDL
MODEL 6
REMARK VINA RESULT:       3.8      2.033      3.259
REMARK  0 active torsions:
REMARK  status: ('A' for Active; 'I' for Inactive)
ROOT
HETATM    1  C1  UNL     1     -32.477   7.983   3.477  1.00 20.00     0.131 C 
HETATM    2  C2  UNL     1     -33.865   7.371   3.483  1.00 20.00     0.079 C 
HETATM    3  C3  UNL     1     -33.943   6.004   2.805  1.00 20.00     0.012 C 
HETATM    4  C4  UNL     1     -33.297   8.110   0.428  1.00 20.00     0.001 C 
HETATM    5  C5  UNL     1     -31.975   8.537   1.067  1.00 20.00     0.012 C 
HETATM    6  C6  UNL     1     -33.474   6.594   0.338  1.00 20.00     0.005 C 
HETATM    7  C7  UNL     1     -31.602   6.216   1.968  1.00 20.00     0.016 C 
HETATM    8  C8  UNL     1     -31.571   7.703   2.286  1.00 20.00     0.056 C 
HETATM    9  C9  UNL     1     -33.026   5.816   1.586  1.00 20.00    -0.013 C 
HETATM   10  O10 UNL     1     -32.131   8.765   4.364  1.00 20.00    -0.298 OA
ENDROOT
TORSDOF 0
ENDMDL
MODEL 7
REMARK VINA RESULT:       3.9      2.012      3.325
REMARK  0 active torsions:
REMARK  status: ('A' for Active; 'I' for Inactive)
ROOT
HETATM    1  C1  UNL     1     -32.374   8.912   1.119  1.00 20.00     0.131 C 
HETATM    2  C2  UNL     1     -33.807   9.149   1.558  1.00 20.00     0.079 C 
HETATM    3  C3  UNL     1     -34.054   8.878   3.041  1.00 20.00     0.012 C 
HETATM    4  C4  UNL     1     -33.398   5.986   1.734  1.00 20.00     0.001 C 
HETATM    5  C5  UNL     1     -32.001   6.422   1.291  1.00 20.00     0.012 C 
HETATM    6  C6  UNL     1     -33.713   6.326   3.191  1.00 20.00     0.005 C 
HETATM    7  C7  UNL     1     -31.770   7.910   3.309  1.00 20.00     0.016 C 
HETATM    8  C8  UNL     1     -31.584   7.804   1.803  1.00 20.00     0.056 C 
HETATM    9  C9  UNL     1     -33.247   7.719   3.646  1.00 20.00    -0.013 C 
HETATM   10  O10 UNL     1     -31.897   9.532   0.167  1.00 20.00    -0.298 OA
ENDROOT
TORSDOF 0
ENDMDL
MODEL 8
REMARK VINA RESULT:       4.0      0.796      2.540
REMARK  0 active torsions:
REMARK  status: ('A' for Active; 'I' for Inactive)
ROOT
HETATM    1  C1  UNL     1     -32.946   5.856   1.844  1.00 20.00     0.131 C 
HETATM    2  C2  UNL     1     -32.856   7.328   1.488  1.00 20.00     0.079 C 
HETATM    3  C3  UNL     1     -32.451   8.225   2.656  1.00 20.00     0.012 C 
HETATM    4  C4  UNL     1     -35.391   7.094   3.417  1.00 20.00     0.001 C 
HETATM    5  C5  UNL     1     -34.914   5.640   3.408  1.00 20.00     0.012 C 
HETATM    6  C6  UNL     1     -34.491   8.030   4.223  1.00 20.00     0.005 C 
HETATM    7  C7  UNL     1     -32.647   6.327   4.264  1.00 20.00     0.016 C 
HETATM    8  C8  UNL     1     -33.399   5.480   3.248  1.00 20.00     0.056 C 
HETATM    9  C9  UNL     1     -32.983   7.799   4.034  1.00 20.00    -0.013 C 
HETATM   10  O10 UNL     1     -32.752   4.989   0.990  1.00 20.00    -0.298 OA
ENDROOT
TORSDOF 0
ENDMDL
MODEL 9
REMARK VINA RESULT:       4.0      1.550      3.102
REMARK  0 active torsions:
REMARK  status: ('A' for Active; 'I' for Inactive)
ROOT
HETATM    1  C1  UNL     1     -33.524   6.364   0.513  1.00 20.00     0.131 C 
HETATM    2  C2  UNL     1     -33.412   7.864   0.325  1.00 20.00     0.079 C 
HETATM    3  C3  UNL     1     -32.148   8.473   0.930  1.00 20.00     0.012 C 
HETATM    4  C4  UNL     1     -33.907   7.454   3.454  1.00 20.00     0.001 C 
HETATM    5  C5  UNL     1     -33.869   5.999   2.986  1.00 20.00     0.012 C 
HETATM    6  C6  UNL     1     -32.538   8.134   3.457  1.00 20.00     0.005 C 
HETATM    7  C7  UNL     1     -31.560   6.313   2.032  1.00 20.00     0.016 C 
HETATM    8  C8  UNL     1     -32.952   5.751   1.785  1.00 20.00     0.056 C 
HETATM    9  C9  UNL     1     -31.659   7.824   2.234  1.00 20.00    -0.013 C 
HETATM   10  O10 UNL     1     -34.148   5.673  -0.295  1.00 20.00    -0.298 OA
ENDROOT
TORSDOF 0
ENDMDL
