MODEL 1
REMARK VINA RESULT:      -2.9      0.000      0.000
REMARK  1 active torsions:
REMARK  status: ('A' for Active; 'I' for Inactive)
REMARK    1  A    between atoms: C2_2  and  C3_3 
ROOT
HETATM    1  C3  UNL     1     -32.792   5.784   1.684  1.00 20.00     0.423 C 
HETATM    2  F4  UNL     1     -33.258   4.869   2.574  1.00 20.00    -0.166 F 
HETATM    3  F5  UNL     1     -31.557   5.359   1.310  1.00 20.00    -0.166 F 
HETATM    4  F6  UNL     1     -33.579   5.696   0.581  1.00 20.00    -0.166 F 
ENDROOT
BRANCH   1   5
HETATM    5  C2  UNL     1     -32.784   7.163   2.255  1.00 20.00     0.085 C 
HETATM    6  C1  UNL     1     -32.013   8.157   1.794  1.00 20.00     0.036 C 
HETATM    7 BR7  UNL     1     -33.951   7.427   3.695  1.00 20.00    -0.047 Br
ENDBRANCH   1   5
TORSDOF 1
ENDMDL
MODEL 2
REMARK VINA RESULT:      -2.8      2.121      2.792
REMARK  1 active torsions:
REMARK  status: ('A' for Active; 'I' for Inactive)
REMARK    1  A    between atoms: C2_2  and  C3_3 
ROOT
HETATM    1  C3  UNL     1     -32.052   7.982   1.988  1.00 20.00     0.423 C 
HETATM    2  F4  UNL     1     -31.569   8.510   3.143  1.00 20.00    -0.166 F 
HETATM    3  F5  UNL     1     -32.643   9.006   1.318  1.00 20.00    -0.166 F 
HETATM    4  F6  UNL     1     -30.976   7.608   1.247  1.00 20.00    -0.166 F 
ENDROOT
BRANCH   1   5
HETATM    5  C2  UNL     1     -32.980   6.841   2.241  1.00 20.00     0.085 C 
HETATM    6  C1  UNL     1     -32.965   5.699   1.541  1.00 20.00     0.036 C 
HETATM    7 BR7  UNL     1     -34.198   7.110   3.637  1.00 20.00    -0.047 Br
ENDBRANCH   1   5
TORSDOF 1
ENDMDL
MODEL 3
REMARK VINA RESULT:      -2.6      2.362      2.941
REMARK  1 active torsions:
REMARK  status: ('A' for Active; 'I' for Inactive)
REMARK    1  A    between atoms: C2_2  and  C3_3 
ROOT
HETATM    1  C3  UNL     1     -34.073   6.548   3.414  1.00 20.00     0.423 C 
HETATM    2  F4  UNL     1     -34.098   5.350   4.052  1.00 20.00    -0.166 F 
HETATM    3  F5  UNL     1     -35.358   6.823   3.066  1.00 20.00    -0.166 F 
HETATM    4  F6  UNL     1     -33.717   7.478   4.337  1.00 20.00    -0.166 F 
ENDROOT
BRANCH   1   5
HETATM    5  C2  UNL     1     -33.144   6.538   2.245  1.00 20.00     0.085 C 
HETATM    6  C1  UNL     1     -33.001   5.496   1.416  1.00 20.00     0.036 C 
HETATM    7 BR7  UNL     1     -32.167   8.116   2.002  1.00 20.00    -0.047 Br
ENDBRANCH   1   5
TORSDOF 1
ENDMDL
MODEL 4
REMARK VINA RESULT:      -2.5      3.151      3.606
REMARK  1 active torsions:
REMARK  status: ('A' for Active; 'I' for Inactive)
REMARK    1  A    between atoms: C2_2  and  C3_3 
ROOT
HETATM    1  C3  UNL     1     -35.038   6.366   3.931  1.00 20.00     0.423 C 
HETATM    2  F4  UNL     1     -35.679   5.684   4.916  1.00 20.00    -0.166 F 
HETATM    3  F5  UNL     1     -35.996   6.749   3.047  1.00 20.00    -0.166 F 
HETATM    4  F6  UNL     1     -34.554   7.504   4.491  1.00 20.00    -0.166 F 
ENDROOT
BRANCH   1   5
HETATM    5  C2  UNL     1     -33.959   5.551   3.300  1.00 20.00     0.085 C 
HETATM    6  C1  UNL     1     -33.218   5.968   2.265  1.00 20.00     0.036 C 
HETATM    7 BR7  UNL     1     -33.694   3.864   4.067  1.00 20.00    -0.047 Br
ENDBRANCH   1   5
TORSDOF 1
ENDMDL
MODEL 5
REMARK VINA RESULT:      -2.4      3.295      3.798
REMARK  1 active torsions:
REMARK  status: ('A' for Active; 'I' for Inactive)
REMARK    1  A    between atoms: C2_2  and  C3_3 
ROOT
HETATM    1  C3  UNL     1     -34.992   6.360   3.919  1.00 20.00     0.423 C 
HETATM    2  F4  UNL     1     -35.705   5.875   4.969  1.00 20.00    -0.166 F 
HETATM    3  F5  UNL     1     -35.902   6.748   2.987  1.00 20.00    -0.166 F 
HETATM    4  F6  UNL     1     -34.378   7.492   4.351  1.00 20.00    -0.166 F 
ENDROOT
BRANCH   1   5
HETATM    5  C2  UNL     1     -34.016   5.359   3.398  1.00 20.00     0.085 C 
HETATM    6  C1  UNL     1     -33.865   4.130   3.908  1.00 20.00     0.036 C 
HETATM    7 BR7  UNL     1     -32.988   5.944   1.947  1.00 20.00    -0.047 Br
ENDBRANCH   1   5
TORSDOF 1
ENDMDL
MODEL 6
REMARK VINA RESULT:      -2.4      3.296      3.835
REMARK  1 active torsions:
REMARK  status: ('A' for Active; 'I' for Inactive)
REMARK    1  A    between atoms: C2_2  and  C3_3 
ROOT
HETATM    1  C3  UNL     1     -34.992   6.348   3.926  1.00 20.00     0.423 C 
HETATM    2  F4  UNL     1     -35.895   6.723   2.984  1.00 20.00    -0.166 F 
HETATM    3  F5  UNL     1     -34.398   7.491   4.361  1.00 20.00    -0.166 F 
HETATM    4  F6  UNL     1     -35.699   5.859   4.977  1.00 20.00    -0.166 F 
ENDROOT
BRANCH   1   5
HETATM    5  C2  UNL     1     -34.015   5.351   3.398  1.00 20.00     0.085 C 
HETATM    6  C1  UNL     1     -33.863   4.119   3.901  1.00 20.00     0.036 C 
HETATM    7 BR7  UNL     1     -32.990   5.943   1.948  1.00 20.00    -0.047 Br
ENDBRANCH   1   5
TORSDOF 1
ENDMDL
MODEL 7
REMARK VINA RESULT:      -2.4      2.486      2.957
REMARK  1 active torsions:
REMARK  status: ('A' for Active; 'I' for Inactive)
REMARK    1  A    between atoms: C2_2  and  C3_3 
ROOT
HETATM    1  C3  UNL     1     -33.659   7.360   3.573  1.00 20.00     0.423 C 
HETATM    2  F4  UNL     1     -34.706   8.202   3.379  1.00 20.00    -0.166 F 
HETATM    3  F5  UNL     1     -33.011   7.806   4.681  1.00 20.00    -0.166 F 
HETATM    4  F6  UNL     1     -34.183   6.149   3.896  1.00 20.00    -0.166 F 
ENDROOT
BRANCH   1   5
HETATM    5  C2  UNL     1     -32.774   7.283   2.374  1.00 20.00     0.085 C 
HETATM    6  C1  UNL     1     -32.018   8.300   1.940  1.00 20.00     0.036 C 
HETATM    7 BR7  UNL     1     -32.786   5.633   1.490  1.00 20.00    -0.047 Br
ENDBRANCH   1   5
TORSDOF 1
ENDMDL
MODEL 8
REMARK VINA RESULT:      -2.4      2.427      2.940
REMARK  1 active torsions:
REMARK  status: ('A' for Active; 'I' for Inactive)
REMARK    1  A    between atoms: C2_2  and  C3_3 
ROOT
HETATM    1  C3  UNL     1     -34.150   6.733   3.530  1.00 20.00     0.423 C 
HETATM    2  F4  UNL     1     -34.080   5.475   4.039  1.00 20.00    -0.166 F 
HETATM    3  F5  UNL     1     -35.413   6.881   3.050  1.00 20.00    -0.166 F 
HETATM    4  F6  UNL     1     -34.035   7.588   4.579  1.00 20.00    -0.166 F 
ENDROOT
BRANCH   1   5
HETATM    5  C2  UNL     1     -33.103   6.975   2.495  1.00 20.00     0.085 C 
HETATM    6  C1  UNL     1     -32.409   8.116   2.389  1.00 20.00     0.036 C 
HETATM    7 BR7  UNL     1     -32.810   5.546   1.321  1.00 20.00    -0.047 Br
ENDBRANCH   1   5
TORSDOF 1
ENDMDL
MODEL 9
REMARK VINA RESULT:      -2.3      1.318      1.513
REMARK  1 active torsions:
REMARK  status: ('A' for Active; 'I' for Inactive)
REMARK    1  A    between atoms: C2_2  and  C3_3 
ROOT
HETATM    1  C3  UNL     1     -32.855   5.752   1.751  1.00 20.00     0.423 C 
HETATM    2  F4  UNL     1     -33.264   4.771   2.597  1.00 20.00    -0.166 F 
HETATM    3  F5  UNL     1     -31.590   5.429   1.374  1.00 20.00    -0.166 F 
HETATM    4  F6  UNL     1     -33.625   5.656   0.636  1.00 20.00    -0.166 F 
ENDROOT
BRANCH   1   5
HETATM    5  C2  UNL     1     -32.948   7.104   2.378  1.00 20.00     0.085 C 
HETATM    6  C1  UNL     1     -33.707   7.379   3.446  1.00 20.00     0.036 C 
HETATM    7 BR7  UNL     1     -31.908   8.426   1.556  1.00 20.00    -0.047 Br
ENDBRANCH   1   5
TORSDOF 1
ENDMDL
