MODEL 1
REMARK VINA RESULT:      -2.0      0.000      0.000
REMARK  1 active torsions:
REMARK  status: ('A' for Active; 'I' for Inactive)
REMARK    1  A    between atoms: C1_1  and  C3_3 
ROOT
HETATM    1  C2  UNL     1     -34.676   6.157   3.916  1.00 20.00     0.018 A 
HETATM    2  C3  UNL     1     -34.234   6.952   2.714  1.00 20.00     0.076 A 
HETATM    3  C4  UNL     1     -34.280   7.597   4.078  1.00 20.00    -0.005 A 
HETATM    4  C5  UNL     1     -33.042   7.949   4.831  1.00 20.00     0.011 C 
ENDROOT
BRANCH   2   5
HETATM    5  C1  UNL     1     -32.953   6.635   2.071  1.00 20.00     0.223 C 
HETATM    6  O6  UNL     1     -32.600   5.476   1.873  1.00 20.00    -0.279 OA
HETATM    7 CL7  UNL     1     -32.058   8.065   1.656  1.00 20.00    -0.043 Cl
ENDBRANCH   2   5
TORSDOF 1
ENDMDL
MODEL 2
REMARK VINA RESULT:      -2.0      2.325      3.306
REMARK  1 active torsions:
REMARK  status: ('A' for Active; 'I' for Inactive)
REMARK    1  A    between atoms: C1_1  and  C3_3 
ROOT
HETATM    1  C2  UNL     1     -31.839   7.938   2.056  1.00 20.00     0.018 A 
HETATM    2  C3  UNL     1     -33.299   7.863   2.425  1.00 20.00     0.076 A 
HETATM    3  C4  UNL     1     -32.703   6.858   1.469  1.00 20.00    -0.005 A 
HETATM    4  C5  UNL     1     -32.480   5.434   1.852  1.00 20.00     0.011 C 
ENDROOT
BRANCH   2   5
HETATM    5  C1  UNL     1     -33.679   7.475   3.789  1.00 20.00     0.223 C 
HETATM    6  O6  UNL     1     -33.022   7.824   4.765  1.00 20.00    -0.279 OA
HETATM    7 CL7  UNL     1     -35.116   6.500   3.815  1.00 20.00    -0.043 Cl
ENDBRANCH   2   5
TORSDOF 1
ENDMDL
MODEL 3
REMARK VINA RESULT:      -1.8      2.076      2.864
REMARK  1 active torsions:
REMARK  status: ('A' for Active; 'I' for Inactive)
REMARK    1  A    between atoms: C1_1  and  C3_3 
ROOT
HETATM    1  C2  UNL     1     -33.275   5.803   1.455  1.00 20.00     0.018 A 
HETATM    2  C3  UNL     1     -33.145   6.077   2.932  1.00 20.00     0.076 A 
HETATM    3  C4  UNL     1     -32.240   6.775   1.946  1.00 20.00    -0.005 A 
HETATM    4  C5  UNL     1     -32.375   8.227   1.635  1.00 20.00     0.011 C 
ENDROOT
BRANCH   2   5
HETATM    5  C1  UNL     1     -34.211   6.808   3.627  1.00 20.00     0.223 C 
HETATM    6  O6  UNL     1     -35.397   6.564   3.425  1.00 20.00    -0.279 OA
HETATM    7 CL7  UNL     1     -33.581   8.005   4.717  1.00 20.00    -0.043 Cl
ENDBRANCH   2   5
TORSDOF 1
ENDMDL
MODEL 4
REMARK VINA RESULT:      -1.7      2.024      3.095
REMARK  1 active torsions:
REMARK  status: ('A' for Active; 'I' for Inactive)
REMARK    1  A    between atoms: C1_1  and  C3_3 
ROOT
HETATM    1  C2  UNL     1     -31.909   7.931   2.177  1.00 20.00     0.018 A 
HETATM    2  C3  UNL     1     -33.394   7.772   2.381  1.00 20.00     0.076 A 
HETATM    3  C4  UNL     1     -32.651   6.847   1.449  1.00 20.00    -0.005 A 
HETATM    4  C5  UNL     1     -32.400   5.416   1.785  1.00 20.00     0.011 C 
ENDROOT
BRANCH   2   5
HETATM    5  C1  UNL     1     -33.897   7.296   3.676  1.00 20.00     0.223 C 
HETATM    6  O6  UNL     1     -34.796   6.465   3.751  1.00 20.00    -0.279 OA
HETATM    7 CL7  UNL     1     -33.077   8.045   5.011  1.00 20.00    -0.043 Cl
ENDBRANCH   2   5
TORSDOF 1
ENDMDL
MODEL 5
REMARK VINA RESULT:      -1.7      2.376      3.116
REMARK  1 active torsions:
REMARK  status: ('A' for Active; 'I' for Inactive)
REMARK    1  A    between atoms: C1_1  and  C3_3 
ROOT
HETATM    1  C2  UNL     1     -33.326   5.956   1.468  1.00 20.00     0.018 A 
HETATM    2  C3  UNL     1     -33.026   6.212   2.923  1.00 20.00     0.076 A 
HETATM    3  C4  UNL     1     -32.190   6.862   1.848  1.00 20.00    -0.005 A 
HETATM    4  C5  UNL     1     -32.270   8.321   1.554  1.00 20.00     0.011 C 
ENDROOT
BRANCH   2   5
HETATM    5  C1  UNL     1     -33.970   6.999   3.725  1.00 20.00     0.223 C 
HETATM    6  O6  UNL     1     -33.609   7.985   4.361  1.00 20.00    -0.279 OA
HETATM    7 CL7  UNL     1     -35.585   6.364   3.646  1.00 20.00    -0.043 Cl
ENDBRANCH   2   5
TORSDOF 1
ENDMDL
MODEL 6
REMARK VINA RESULT:      -1.6      0.956      1.723
REMARK  1 active torsions:
REMARK  status: ('A' for Active; 'I' for Inactive)
REMARK    1  A    between atoms: C1_1  and  C3_3 
ROOT
HETATM    1  C2  UNL     1     -35.424   6.532   3.446  1.00 20.00     0.018 A 
HETATM    2  C3  UNL     1     -33.973   6.938   3.511  1.00 20.00     0.076 A 
HETATM    3  C4  UNL     1     -34.470   5.758   4.310  1.00 20.00    -0.005 A 
HETATM    4  C5  UNL     1     -34.115   4.354   3.956  1.00 20.00     0.011 C 
ENDROOT
BRANCH   2   5
HETATM    5  C1  UNL     1     -33.118   6.747   2.333  1.00 20.00     0.223 C 
HETATM    6  O6  UNL     1     -33.220   5.756   1.616  1.00 20.00    -0.279 OA
HETATM    7 CL7  UNL     1     -31.999   8.058   2.118  1.00 20.00    -0.043 Cl
ENDBRANCH   2   5
TORSDOF 1
ENDMDL
MODEL 7
REMARK VINA RESULT:      -1.5      1.804      2.583
REMARK  1 active torsions:
REMARK  status: ('A' for Active; 'I' for Inactive)
REMARK    1  A    between atoms: C1_1  and  C3_3 
ROOT
HETATM    1  C2  UNL     1     -32.019   5.667   1.832  1.00 20.00     0.018 A 
HETATM    2  C3  UNL     1     -32.502   6.930   1.165  1.00 20.00     0.076 A 
HETATM    3  C4  UNL     1     -33.449   6.098   1.996  1.00 20.00    -0.005 A 
HETATM    4  C5  UNL     1     -33.942   6.551   3.328  1.00 20.00     0.011 C 
ENDROOT
BRANCH   2   5
HETATM    5  C1  UNL     1     -32.018   8.230   1.645  1.00 20.00     0.223 C 
HETATM    6  O6  UNL     1     -31.405   8.339   2.702  1.00 20.00    -0.279 OA
HETATM    7 CL7  UNL     1     -32.421   9.520   0.554  1.00 20.00    -0.043 Cl
ENDBRANCH   2   5
TORSDOF 1
ENDMDL
MODEL 8
REMARK VINA RESULT:      -1.5      1.929      1.929
REMARK  1 active torsions:
REMARK  status: ('A' for Active; 'I' for Inactive)
REMARK    1  A    between atoms: C1_1  and  C3_3 
ROOT
HETATM    1  C2  UNL     1     -35.324   6.378   4.285  1.00 20.00     0.018 A 
HETATM    2  C3  UNL     1     -34.598   6.394   2.964  1.00 20.00     0.076 A 
HETATM    3  C4  UNL     1     -34.444   7.542   3.931  1.00 20.00    -0.005 A 
HETATM    4  C5  UNL     1     -33.181   7.779   4.687  1.00 20.00     0.011 C 
ENDROOT
BRANCH   2   5
HETATM    5  C1  UNL     1     -33.500   5.447   2.734  1.00 20.00     0.223 C 
HETATM    6  O6  UNL     1     -32.670   5.627   1.848  1.00 20.00    -0.279 OA
HETATM    7 CL7  UNL     1     -33.547   4.110   3.841  1.00 20.00    -0.043 Cl
ENDBRANCH   2   5
TORSDOF 1
ENDMDL
MODEL 9
REMARK VINA RESULT:      -1.4      1.458      1.458
REMARK  1 active torsions:
REMARK  status: ('A' for Active; 'I' for Inactive)
REMARK    1  A    between atoms: C1_1  and  C3_3 
ROOT
HETATM    1  C2  UNL     1     -35.360   6.373   4.316  1.00 20.00     0.018 A 
HETATM    2  C3  UNL     1     -34.587   6.295   3.025  1.00 20.00     0.076 A 
HETATM    3  C4  UNL     1     -34.460   7.507   3.916  1.00 20.00    -0.005 A 
HETATM    4  C5  UNL     1     -33.224   7.790   4.700  1.00 20.00     0.011 C 
ENDROOT
BRANCH   2   5
HETATM    5  C1  UNL     1     -33.487   5.331   2.901  1.00 20.00     0.223 C 
HETATM    6  O6  UNL     1     -33.368   4.386   3.674  1.00 20.00    -0.279 OA
HETATM    7 CL7  UNL     1     -32.436   5.706   1.570  1.00 20.00    -0.043 Cl
ENDBRANCH   2   5
TORSDOF 1
ENDMDL
