MODEL 1
REMARK VINA RESULT:       0.8      0.000      0.000
REMARK  0 active torsions:
REMARK  status: ('A' for Active; 'I' for Inactive)
ROOT
HETATM    1  C1  UNL     1     -33.785   4.343   3.792  1.00 20.00     0.223 A 
HETATM    2  C2  UNL     1     -35.519   6.232   3.677  1.00 20.00     0.027 A 
HETATM    3  C3  UNL     1     -34.346   5.592   4.356  1.00 20.00     0.089 A 
HETATM    4  C4  UNL     1     -34.109   6.696   3.346  1.00 20.00    -0.006 A 
HETATM    5  C5  UNL     1     -33.329   6.061   2.179  1.00 20.00     0.034 A 
HETATM    6  C6  UNL     1     -33.730   8.073   3.806  1.00 20.00     0.018 C 
HETATM    7  C7  UNL     1     -31.894   6.587   2.061  1.00 20.00     0.039 C 
HETATM    8  C8  UNL     1     -34.062   6.241   0.849  1.00 20.00     0.039 C 
HETATM    9  N9  UNL     1     -33.264   4.643   2.547  1.00 20.00    -0.351 N 
HETATM   10  O10 UNL     1     -33.822   3.267   4.368  1.00 20.00    -0.273 OA
HETATM   11  H23 UNL     1     -32.827   3.944   1.956  1.00 20.00     0.163 HD
ENDROOT
TORSDOF 0
ENDMDL
MODEL 2
REMARK VINA RESULT:       1.2      2.013      2.413
REMARK  0 active torsions:
REMARK  status: ('A' for Active; 'I' for Inactive)
ROOT
HETATM    1  C1  UNL     1     -32.758   5.855   1.801  1.00 20.00     0.223 A 
HETATM    2  C2  UNL     1     -34.682   7.121   2.935  1.00 20.00     0.027 A 
HETATM    3  C3  UNL     1     -33.526   6.171   3.027  1.00 20.00     0.089 A 
HETATM    4  C4  UNL     1     -33.309   7.638   3.337  1.00 20.00    -0.006 A 
HETATM    5  C5  UNL     1     -32.330   8.169   2.275  1.00 20.00     0.034 A 
HETATM    6  C6  UNL     1     -33.155   8.095   4.758  1.00 20.00     0.018 C 
HETATM    7  C7  UNL     1     -30.964   8.553   2.856  1.00 20.00     0.039 C 
HETATM    8  C8  UNL     1     -32.920   9.352   1.507  1.00 20.00     0.039 C 
HETATM    9  N9  UNL     1     -32.137   7.019   1.386  1.00 20.00    -0.351 N 
HETATM   10  O10 UNL     1     -32.732   4.748   1.288  1.00 20.00    -0.273 OA
HETATM   11  H23 UNL     1     -31.553   7.059   0.556  1.00 20.00     0.163 HD
ENDROOT
TORSDOF 0
ENDMDL
MODEL 3
REMARK VINA RESULT:       1.5      2.441      3.550
REMARK  0 active torsions:
REMARK  status: ('A' for Active; 'I' for Inactive)
ROOT
HETATM    1  C1  UNL     1     -32.302   7.604   1.858  1.00 20.00     0.223 A 
HETATM    2  C2  UNL     1     -33.527   5.412   1.325  1.00 20.00     0.027 A 
HETATM    3  C3  UNL     1     -32.343   6.124   1.905  1.00 20.00     0.089 A 
HETATM    4  C4  UNL     1     -33.489   5.728   2.812  1.00 20.00    -0.006 A 
HETATM    5  C5  UNL     1     -34.094   7.037   3.351  1.00 20.00     0.034 A 
HETATM    6  C6  UNL     1     -33.347   4.559   3.742  1.00 20.00     0.018 C 
HETATM    7  C7  UNL     1     -33.874   7.225   4.857  1.00 20.00     0.039 C 
HETATM    8  C8  UNL     1     -35.583   7.145   3.024  1.00 20.00     0.039 C 
HETATM    9  N9  UNL     1     -33.332   8.076   2.649  1.00 20.00    -0.351 N 
HETATM   10  O10 UNL     1     -31.487   8.235   1.204  1.00 20.00    -0.273 OA
HETATM   11  H23 UNL     1     -33.516   9.066   2.772  1.00 20.00     0.163 HD
ENDROOT
TORSDOF 0
ENDMDL
MODEL 4
REMARK VINA RESULT:       1.6      2.177      3.162
REMARK  0 active torsions:
REMARK  status: ('A' for Active; 'I' for Inactive)
ROOT
HETATM    1  C1  UNL     1     -33.771   7.476   3.743  1.00 20.00     0.223 A 
HETATM    2  C2  UNL     1     -32.866   5.312   2.700  1.00 20.00     0.027 A 
HETATM    3  C3  UNL     1     -33.984   6.295   2.875  1.00 20.00     0.089 A 
HETATM    4  C4  UNL     1     -33.056   6.429   1.685  1.00 20.00    -0.006 A 
HETATM    5  C5  UNL     1     -32.323   7.772   1.851  1.00 20.00     0.034 A 
HETATM    6  C6  UNL     1     -33.518   6.020   0.317  1.00 20.00     0.018 C 
HETATM    7  C7  UNL     1     -32.715   8.806   0.789  1.00 20.00     0.039 C 
HETATM    8  C8  UNL     1     -30.805   7.587   1.864  1.00 20.00     0.039 C 
HETATM    9  N9  UNL     1     -32.796   8.258   3.152  1.00 20.00    -0.351 N 
HETATM   10  O10 UNL     1     -34.371   7.660   4.789  1.00 20.00    -0.273 OA
HETATM   11  H23 UNL     1     -32.469   9.126   3.565  1.00 20.00     0.163 HD
ENDROOT
TORSDOF 0
ENDMDL
MODEL 5
REMARK VINA RESULT:       1.7      2.369      3.476
REMARK  0 active torsions:
REMARK  status: ('A' for Active; 'I' for Inactive)
ROOT
HETATM    1  C1  UNL     1     -32.849   8.043   4.367  1.00 20.00     0.223 A 
HETATM    2  C2  UNL     1     -33.186   8.080   1.822  1.00 20.00     0.027 A 
HETATM    3  C3  UNL     1     -32.375   7.670   3.015  1.00 20.00     0.089 A 
HETATM    4  C4  UNL     1     -33.379   6.699   2.430  1.00 20.00    -0.006 A 
HETATM    5  C5  UNL     1     -34.444   6.462   3.517  1.00 20.00     0.034 A 
HETATM    6  C6  UNL     1     -32.913   5.534   1.607  1.00 20.00     0.018 C 
HETATM    7  C7  UNL     1     -34.424   5.035   4.076  1.00 20.00     0.039 C 
HETATM    8  C8  UNL     1     -35.846   6.806   3.015  1.00 20.00     0.039 C 
HETATM    9  N9  UNL     1     -34.039   7.376   4.591  1.00 20.00    -0.351 N 
HETATM   10  O10 UNL     1     -32.257   8.819   5.099  1.00 20.00    -0.273 OA
HETATM   11  H23 UNL     1     -34.566   7.475   5.453  1.00 20.00     0.163 HD
ENDROOT
TORSDOF 0
ENDMDL
MODEL 6
REMARK VINA RESULT:       2.1      1.993      2.849
REMARK  0 active torsions:
REMARK  status: ('A' for Active; 'I' for Inactive)
ROOT
HETATM    1  C1  UNL     1     -33.755   7.238   3.605  1.00 20.00     0.223 A 
HETATM    2  C2  UNL     1     -33.113   8.822   1.689  1.00 20.00     0.027 A 
HETATM    3  C3  UNL     1     -32.792   8.194   3.011  1.00 20.00     0.089 A 
HETATM    4  C4  UNL     1     -32.252   7.569   1.741  1.00 20.00    -0.006 A 
HETATM    5  C5  UNL     1     -32.892   6.173   1.634  1.00 20.00     0.034 A 
HETATM    6  C6  UNL     1     -30.807   7.734   1.373  1.00 20.00     0.018 C 
HETATM    7  C7  UNL     1     -31.879   5.034   1.806  1.00 20.00     0.039 C 
HETATM    8  C8  UNL     1     -33.651   6.002   0.318  1.00 20.00     0.039 C 
HETATM    9  N9  UNL     1     -33.814   6.135   2.774  1.00 20.00    -0.351 N 
HETATM   10  O10 UNL     1     -34.367   7.453   4.638  1.00 20.00    -0.273 OA
HETATM   11  H23 UNL     1     -34.415   5.340   2.966  1.00 20.00     0.163 HD
ENDROOT
TORSDOF 0
ENDMDL
MODEL 7
REMARK VINA RESULT:       2.1      2.786      3.649
REMARK  0 active torsions:
REMARK  status: ('A' for Active; 'I' for Inactive)
ROOT
HETATM    1  C1  UNL     1     -32.481   8.498   1.399  1.00 20.00     0.223 A 
HETATM    2  C2  UNL     1     -32.568   7.672   3.828  1.00 20.00     0.027 A 
HETATM    3  C3  UNL     1     -33.250   8.295   2.648  1.00 20.00     0.089 A 
HETATM    4  C4  UNL     1     -33.371   6.802   2.874  1.00 20.00    -0.006 A 
HETATM    5  C5  UNL     1     -32.690   6.122   1.672  1.00 20.00     0.034 A 
HETATM    6  C6  UNL     1     -34.646   6.219   3.409  1.00 20.00     0.018 C 
HETATM    7  C7  UNL     1     -33.676   5.369   0.770  1.00 20.00     0.039 C 
HETATM    8  C8  UNL     1     -31.570   5.182   2.118  1.00 20.00     0.039 C 
HETATM    9  N9  UNL     1     -32.147   7.249   0.908  1.00 20.00    -0.351 N 
HETATM   10  O10 UNL     1     -32.210   9.598   0.946  1.00 20.00    -0.273 OA
HETATM   11  H23 UNL     1     -31.608   7.125   0.056  1.00 20.00     0.163 HD
ENDROOT
TORSDOF 0
ENDMDL
MODEL 8
REMARK VINA RESULT:       2.2      2.024      3.393
REMARK  0 active torsions:
REMARK  status: ('A' for Active; 'I' for Inactive)
ROOT
HETATM    1  C1  UNL     1     -32.698   5.876   1.734  1.00 20.00     0.223 A 
HETATM    2  C2  UNL     1     -31.103   7.876   1.943  1.00 20.00     0.027 A 
HETATM    3  C3  UNL     1     -32.160   7.138   1.178  1.00 20.00     0.089 A 
HETATM    4  C4  UNL     1     -32.565   8.258   2.115  1.00 20.00    -0.006 A 
HETATM    5  C5  UNL     1     -33.419   7.615   3.223  1.00 20.00     0.034 A 
HETATM    6  C6  UNL     1     -32.978   9.592   1.564  1.00 20.00     0.018 C 
HETATM    7  C7  UNL     1     -34.888   8.051   3.177  1.00 20.00     0.039 C 
HETATM    8  C8  UNL     1     -32.837   7.887   4.610  1.00 20.00     0.039 C 
HETATM    9  N9  UNL     1     -33.361   6.184   2.907  1.00 20.00    -0.351 N 
HETATM   10  O10 UNL     1     -32.538   4.786   1.208  1.00 20.00    -0.273 OA
HETATM   11  H23 UNL     1     -33.812   5.478   3.480  1.00 20.00     0.163 HD
ENDROOT
TORSDOF 0
ENDMDL
MODEL 9
REMARK VINA RESULT:       2.9      3.141      4.101
REMARK  0 active torsions:
REMARK  status: ('A' for Active; 'I' for Inactive)
ROOT
HETATM    1  C1  UNL     1     -32.350   8.760   0.656  1.00 20.00     0.223 A 
HETATM    2  C2  UNL     1     -31.417   8.443   3.026  1.00 20.00     0.027 A 
HETATM    3  C3  UNL     1     -32.494   8.954   2.117  1.00 20.00     0.089 A 
HETATM    4  C4  UNL     1     -32.641   7.585   2.748  1.00 20.00    -0.006 A 
HETATM    5  C5  UNL     1     -32.639   6.568   1.592  1.00 20.00     0.034 A 
HETATM    6  C6  UNL     1     -33.590   7.378   3.892  1.00 20.00     0.018 C 
HETATM    7  C7  UNL     1     -33.990   5.868   1.405  1.00 20.00     0.039 C 
HETATM    8  C8  UNL     1     -31.532   5.527   1.760  1.00 20.00     0.039 C 
HETATM    9  N9  UNL     1     -32.393   7.400   0.409  1.00 20.00    -0.351 N 
HETATM   10  O10 UNL     1     -32.209   9.678  -0.135  1.00 20.00    -0.273 OA
HETATM   11  H23 UNL     1     -32.307   7.013  -0.525  1.00 20.00     0.163 HD
ENDROOT
TORSDOF 0
ENDMDL
