MODEL 1
REMARK VINA RESULT:       6.2      0.000      0.000
REMARK  2 active torsions:
REMARK  status: ('A' for Active; 'I' for Inactive)
REMARK    1  A    between atoms: C9_9  and  C11_11 
REMARK    2  A    between atoms: C10_10  and  C11_11 
ROOT
HETATM    1  C6  UNL     1     -32.520   9.951   0.599  1.00 20.00     0.207 A 
HETATM    2  C11 UNL     1     -32.631   8.630   1.321  1.00 20.00     0.089 A 
HETATM    3  O12 UNL     1     -31.880   8.762   0.108  1.00 20.00    -0.374 OA
ENDROOT
BRANCH   2   4
HETATM    4  C9  UNL     1     -33.880   7.788   1.213  1.00 20.00     0.023 C 
HETATM    5  C2  UNL     1     -33.480   6.368   0.770  1.00 20.00     0.012 C 
HETATM    6  C7  UNL     1     -32.477   5.765   1.774  1.00 20.00    -0.013 C 
HETATM    7  C1  UNL     1     -33.125   5.712   3.168  1.00 20.00     0.009 C 
HETATM    8  C3  UNL     1     -31.220   6.658   1.832  1.00 20.00     0.012 C 
HETATM    9  C8  UNL     1     -33.520   7.126   3.625  1.00 20.00    -0.013 C 
HETATM   10  C4  UNL     1     -34.523   7.723   2.613  1.00 20.00     0.012 C 
HETATM   11  C5  UNL     1     -32.258   8.013   3.678  1.00 20.00     0.012 C 
HETATM   12  C10 UNL     1     -31.604   8.080   2.283  1.00 20.00     0.023 C 
ENDBRANCH   2   4
TORSDOF 2
ENDMDL
MODEL 2
REMARK VINA RESULT:       6.2      0.627      2.581
REMARK  2 active torsions:
REMARK  status: ('A' for Active; 'I' for Inactive)
REMARK    1  A    between atoms: C9_9  and  C11_11 
REMARK    2  A    between atoms: C10_10  and  C11_11 
ROOT
HETATM    1  C6  UNL     1     -32.103   9.491   0.018  1.00 20.00     0.207 A 
HETATM    2  C11 UNL     1     -32.504   8.512   1.094  1.00 20.00     0.089 A 
HETATM    3  O12 UNL     1     -32.719   9.921   1.243  1.00 20.00    -0.374 OA
ENDROOT
BRANCH   2   4
HETATM    4  C9  UNL     1     -31.475   7.919   2.027  1.00 20.00     0.023 C 
HETATM    5  C2  UNL     1     -31.997   8.034   3.472  1.00 20.00     0.012 C 
HETATM    6  C7  UNL     1     -33.356   7.317   3.601  1.00 20.00    -0.013 C 
HETATM    7  C1  UNL     1     -33.185   5.835   3.225  1.00 20.00     0.009 C 
HETATM    8  C3  UNL     1     -34.367   7.972   2.637  1.00 20.00     0.012 C 
HETATM    9  C8  UNL     1     -32.673   5.709   1.781  1.00 20.00    -0.013 C 
HETATM   10  C4  UNL     1     -31.313   6.431   1.660  1.00 20.00     0.012 C 
HETATM   11  C5  UNL     1     -33.689   6.368   0.823  1.00 20.00     0.012 C 
HETATM   12  C10 UNL     1     -33.862   7.857   1.186  1.00 20.00     0.023 C 
ENDBRANCH   2   4
TORSDOF 2
ENDMDL
MODEL 3
REMARK VINA RESULT:       6.3      1.671      3.341
REMARK  2 active torsions:
REMARK  status: ('A' for Active; 'I' for Inactive)
REMARK    1  A    between atoms: C9_9  and  C11_11 
REMARK    2  A    between atoms: C10_10  and  C11_11 
ROOT
HETATM    1  C6  UNL     1     -34.440   5.418   4.060  1.00 20.00     0.207 A 
HETATM    2  C11 UNL     1     -33.606   6.341   3.206  1.00 20.00     0.089 A 
HETATM    3  O12 UNL     1     -35.022   6.512   3.334  1.00 20.00    -0.374 OA
ENDROOT
BRANCH   2   4
HETATM    4  C9  UNL     1     -33.132   5.915   1.836  1.00 20.00     0.023 C 
HETATM    5  C2  UNL     1     -33.786   6.830   0.784  1.00 20.00     0.012 C 
HETATM    6  C7  UNL     1     -33.432   8.304   1.071  1.00 20.00    -0.013 C 
HETATM    7  C1  UNL     1     -31.904   8.475   1.032  1.00 20.00     0.009 C 
HETATM    8  C3  UNL     1     -33.950   8.683   2.474  1.00 20.00     0.012 C 
HETATM    9  C8  UNL     1     -31.241   7.572   2.086  1.00 20.00    -0.013 C 
HETATM   10  C4  UNL     1     -31.602   6.099   1.791  1.00 20.00     0.012 C 
HETATM   11  C5  UNL     1     -31.766   7.957   3.486  1.00 20.00     0.012 C 
HETATM   12  C10 UNL     1     -33.297   7.782   3.539  1.00 20.00     0.023 C 
ENDBRANCH   2   4
TORSDOF 2
ENDMDL
MODEL 4
REMARK VINA RESULT:       6.4      1.725      3.310
REMARK  2 active torsions:
REMARK  status: ('A' for Active; 'I' for Inactive)
REMARK    1  A    between atoms: C9_9  and  C11_11 
REMARK    2  A    between atoms: C10_10  and  C11_11 
ROOT
HETATM    1  C6  UNL     1     -34.901   6.488   3.686  1.00 20.00     0.207 A 
HETATM    2  C11 UNL     1     -33.789   6.982   2.794  1.00 20.00     0.089 A 
HETATM    3  O12 UNL     1     -33.567   5.964   3.777  1.00 20.00    -0.374 OA
ENDROOT
BRANCH   2   4
HETATM    4  C9  UNL     1     -33.099   8.298   3.068  1.00 20.00     0.023 C 
HETATM    5  C2  UNL     1     -31.588   8.041   3.216  1.00 20.00     0.012 C 
HETATM    6  C7  UNL     1     -31.039   7.370   1.940  1.00 20.00    -0.013 C 
HETATM    7  C1  UNL     1     -31.295   8.291   0.734  1.00 20.00     0.009 C 
HETATM    8  C3  UNL     1     -31.769   6.029   1.720  1.00 20.00     0.012 C 
HETATM    9  C8  UNL     1     -32.802   8.547   0.572  1.00 20.00    -0.013 C 
HETATM   10  C4  UNL     1     -33.344   9.216   1.854  1.00 20.00     0.012 C 
HETATM   11  C5  UNL     1     -33.524   7.200   0.354  1.00 20.00     0.012 C 
HETATM   12  C10 UNL     1     -33.282   6.272   1.561  1.00 20.00     0.023 C 
ENDBRANCH   2   4
TORSDOF 2
ENDMDL
MODEL 5
REMARK VINA RESULT:       6.5      1.339      2.659
REMARK  2 active torsions:
REMARK  status: ('A' for Active; 'I' for Inactive)
REMARK    1  A    between atoms: C9_9  and  C11_11 
REMARK    2  A    between atoms: C10_10  and  C11_11 
ROOT
HETATM    1  C6  UNL     1     -31.341   8.075   1.907  1.00 20.00     0.207 A 
HETATM    2  C11 UNL     1     -32.601   7.455   2.459  1.00 20.00     0.089 A 
HETATM    3  O12 UNL     1     -32.624   8.292   1.297  1.00 20.00    -0.374 OA
ENDROOT
BRANCH   2   4
HETATM    4  C9  UNL     1     -33.282   8.032   3.678  1.00 20.00     0.023 C 
HETATM    5  C2  UNL     1     -34.764   8.281   3.342  1.00 20.00     0.012 C 
HETATM    6  C7  UNL     1     -35.432   6.966   2.892  1.00 20.00    -0.013 C 
HETATM    7  C1  UNL     1     -35.321   5.929   4.023  1.00 20.00     0.009 C 
HETATM    8  C3  UNL     1     -34.705   6.432   1.641  1.00 20.00     0.012 C 
HETATM    9  C8  UNL     1     -33.844   5.665   4.360  1.00 20.00    -0.013 C 
HETATM   10  C4  UNL     1     -33.183   6.988   4.808  1.00 20.00     0.012 C 
HETATM   11  C5  UNL     1     -33.124   5.134   3.102  1.00 20.00     0.012 C 
HETATM   12  C10 UNL     1     -33.221   6.170   1.964  1.00 20.00     0.023 C 
ENDBRANCH   2   4
TORSDOF 2
ENDMDL
MODEL 6
REMARK VINA RESULT:       6.5      1.381      2.334
REMARK  2 active torsions:
REMARK  status: ('A' for Active; 'I' for Inactive)
REMARK    1  A    between atoms: C9_9  and  C11_11 
REMARK    2  A    between atoms: C10_10  and  C11_11 
ROOT
HETATM    1  C6  UNL     1     -32.119   8.498   1.308  1.00 20.00     0.207 A 
HETATM    2  C11 UNL     1     -32.744   7.573   2.323  1.00 20.00     0.089 A 
HETATM    3  O12 UNL     1     -31.322   7.716   2.214  1.00 20.00    -0.374 OA
ENDROOT
BRANCH   2   4
HETATM    4  C9  UNL     1     -33.285   6.223   1.915  1.00 20.00     0.023 C 
HETATM    5  C2  UNL     1     -33.043   5.227   3.065  1.00 20.00     0.012 C 
HETATM    6  C7  UNL     1     -33.714   5.738   4.356  1.00 20.00    -0.013 C 
HETATM    7  C1  UNL     1     -35.225   5.895   4.113  1.00 20.00     0.009 C 
HETATM    8  C3  UNL     1     -33.114   7.109   4.730  1.00 20.00     0.012 C 
HETATM    9  C8  UNL     1     -35.479   6.895   2.973  1.00 20.00    -0.013 C 
HETATM   10  C4  UNL     1     -34.801   6.377   1.685  1.00 20.00     0.012 C 
HETATM   11  C5  UNL     1     -34.873   8.263   3.354  1.00 20.00     0.012 C 
HETATM   12  C10 UNL     1     -33.357   8.118   3.591  1.00 20.00     0.023 C 
ENDBRANCH   2   4
TORSDOF 2
ENDMDL
MODEL 7
REMARK VINA RESULT:       6.8      1.878      3.658
REMARK  2 active torsions:
REMARK  status: ('A' for Active; 'I' for Inactive)
REMARK    1  A    between atoms: C9_9  and  C11_11 
REMARK    2  A    between atoms: C10_10  and  C11_11 
ROOT
HETATM    1  C6  UNL     1     -33.457   4.059   4.157  1.00 20.00     0.207 A 
HETATM    2  C11 UNL     1     -33.157   5.316   3.377  1.00 20.00     0.089 A 
HETATM    3  O12 UNL     1     -34.477   4.761   3.427  1.00 20.00    -0.374 OA
ENDROOT
BRANCH   2   4
HETATM    4  C9  UNL     1     -32.485   5.250   2.026  1.00 20.00     0.023 C 
HETATM    5  C2  UNL     1     -33.531   5.567   0.940  1.00 20.00     0.012 C 
HETATM    6  C7  UNL     1     -34.153   6.955   1.195  1.00 20.00    -0.013 C 
HETATM    7  C1  UNL     1     -33.042   8.019   1.174  1.00 20.00     0.009 C 
HETATM    8  C3  UNL     1     -34.833   6.958   2.580  1.00 20.00     0.012 C 
HETATM    9  C8  UNL     1     -31.997   7.717   2.261  1.00 20.00    -0.013 C 
HETATM   10  C4  UNL     1     -31.381   6.325   1.999  1.00 20.00     0.012 C 
HETATM   11  C5  UNL     1     -32.686   7.720   3.642  1.00 20.00     0.012 C 
HETATM   12  C10 UNL     1     -33.796   6.651   3.677  1.00 20.00     0.023 C 
ENDBRANCH   2   4
TORSDOF 2
ENDMDL
MODEL 8
REMARK VINA RESULT:       7.5      1.573      2.866
REMARK  2 active torsions:
REMARK  status: ('A' for Active; 'I' for Inactive)
REMARK    1  A    between atoms: C9_9  and  C11_11 
REMARK    2  A    between atoms: C10_10  and  C11_11 
ROOT
HETATM    1  C6  UNL     1     -33.153   8.077   4.880  1.00 20.00     0.207 A 
HETATM    2  C11 UNL     1     -33.159   7.426   3.519  1.00 20.00     0.089 A 
HETATM    3  O12 UNL     1     -33.989   8.556   3.813  1.00 20.00    -0.374 OA
ENDROOT
BRANCH   2   4
HETATM    4  C9  UNL     1     -33.900   6.131   3.280  1.00 20.00     0.023 C 
HETATM    5  C2  UNL     1     -34.779   6.292   2.026  1.00 20.00     0.012 C 
HETATM    6  C7  UNL     1     -33.906   6.675   0.814  1.00 20.00    -0.013 C 
HETATM    7  C1  UNL     1     -32.858   5.574   0.576  1.00 20.00     0.009 C 
HETATM    8  C3  UNL     1     -33.187   8.007   1.110  1.00 20.00     0.012 C 
HETATM    9  C8  UNL     1     -31.967   5.412   1.820  1.00 20.00    -0.013 C 
HETATM   10  C4  UNL     1     -32.850   5.030   3.029  1.00 20.00     0.012 C 
HETATM   11  C5  UNL     1     -31.253   6.750   2.109  1.00 20.00     0.012 C 
HETATM   12  C10 UNL     1     -32.295   7.858   2.357  1.00 20.00     0.023 C 
ENDBRANCH   2   4
TORSDOF 2
ENDMDL
MODEL 9
REMARK VINA RESULT:       7.8      1.680      3.230
REMARK  2 active torsions:
REMARK  status: ('A' for Active; 'I' for Inactive)
REMARK    1  A    between atoms: C9_9  and  C11_11 
REMARK    2  A    between atoms: C10_10  and  C11_11 
ROOT
HETATM    1  C6  UNL     1     -32.380   4.914   1.012  1.00 20.00     0.207 A 
HETATM    2  C11 UNL     1     -33.239   5.610   2.039  1.00 20.00     0.089 A 
HETATM    3  O12 UNL     1     -32.017   6.190   1.564  1.00 20.00    -0.374 OA
ENDROOT
BRANCH   2   4
HETATM    4  C9  UNL     1     -33.223   5.178   3.487  1.00 20.00     0.023 C 
HETATM    5  C2  UNL     1     -32.467   6.239   4.309  1.00 20.00     0.012 C 
HETATM    6  C7  UNL     1     -33.138   7.617   4.138  1.00 20.00    -0.013 C 
HETATM    7  C1  UNL     1     -34.598   7.532   4.615  1.00 20.00     0.009 C 
HETATM    8  C3  UNL     1     -33.113   8.010   2.646  1.00 20.00     0.012 C 
HETATM    9  C8  UNL     1     -35.365   6.482   3.794  1.00 20.00    -0.013 C 
HETATM   10  C4  UNL     1     -34.685   5.106   3.970  1.00 20.00     0.012 C 
HETATM   11  C5  UNL     1     -35.333   6.882   2.304  1.00 20.00     0.012 C 
HETATM   12  C10 UNL     1     -33.874   6.962   1.812  1.00 20.00     0.023 C 
ENDBRANCH   2   4
TORSDOF 2
ENDMDL
