MODEL 1
REMARK VINA RESULT:       0.8      0.000      0.000
REMARK  2 active torsions:
REMARK  status: ('A' for Active; 'I' for Inactive)
REMARK    1  A    between atoms: C3_3  and  C8_8 
REMARK    2  A    between atoms: C4_4  and  C7_7 
ROOT
HETATM    1  C5  UNL     1     -33.511   7.743   3.885  1.00 20.00     0.040 C 
HETATM    2  C6  UNL     1     -33.385   6.432   4.626  1.00 20.00     0.045 C 
HETATM    3  C7  UNL     1     -33.660   7.298   2.439  1.00 20.00     0.151 C 
HETATM    4  C8  UNL     1     -34.298   5.505   3.825  1.00 20.00     0.075 C 
HETATM    5  C10 UNL     1     -35.743   5.535   4.331  1.00 20.00     0.050 C 
HETATM    6  O11 UNL     1     -34.301   6.011   2.474  1.00 20.00    -0.367 OA
ENDROOT
BRANCH   3   7
HETATM    7  C4  UNL     1     -32.353   7.158   1.726  1.00 20.00    -0.065 C 
HETATM    8  C2  UNL     1     -31.521   8.196   1.560  1.00 20.00     0.016 C 
HETATM    9  C9  UNL     1     -32.028   5.789   1.207  1.00 20.00     0.045 C 
ENDBRANCH   3   7
BRANCH   4  10
HETATM   10  C3  UNL     1     -33.781   4.099   3.811  1.00 20.00     0.000 C 
HETATM   11  C1  UNL     1     -33.406   3.430   4.906  1.00 20.00     0.010 C 
ENDBRANCH   4  10
TORSDOF 2
ENDMDL
MODEL 2
REMARK VINA RESULT:       0.9      1.193      4.020
REMARK  2 active torsions:
REMARK  status: ('A' for Active; 'I' for Inactive)
REMARK    1  A    between atoms: C3_3  and  C8_8 
REMARK    2  A    between atoms: C4_4  and  C7_7 
ROOT
HETATM    1  C5  UNL     1     -32.697   5.695   1.377  1.00 20.00     0.040 C 
HETATM    2  C6  UNL     1     -31.604   6.552   1.972  1.00 20.00     0.045 C 
HETATM    3  C7  UNL     1     -33.944   6.210   2.076  1.00 20.00     0.151 C 
HETATM    4  C8  UNL     1     -32.303   7.896   2.175  1.00 20.00     0.075 C 
HETATM    5  C10 UNL     1     -32.197   8.796   0.942  1.00 20.00     0.050 C 
HETATM    6  O11 UNL     1     -33.700   7.596   2.375  1.00 20.00    -0.367 OA
ENDROOT
BRANCH   3   7
HETATM    7  C4  UNL     1     -34.244   5.495   3.355  1.00 20.00    -0.065 C 
HETATM    8  C2  UNL     1     -33.663   4.328   3.668  1.00 20.00     0.016 C 
HETATM    9  C9  UNL     1     -35.233   6.159   4.266  1.00 20.00     0.045 C 
ENDBRANCH   3   7
BRANCH   4  10
HETATM   10  C3  UNL     1     -31.785   8.609   3.385  1.00 20.00     0.000 C 
HETATM   11  C1  UNL     1     -32.385   8.586   4.580  1.00 20.00     0.010 C 
ENDBRANCH   4  10
TORSDOF 2
ENDMDL
MODEL 3
REMARK VINA RESULT:       1.4      1.499      2.811
REMARK  2 active torsions:
REMARK  status: ('A' for Active; 'I' for Inactive)
REMARK    1  A    between atoms: C3_3  and  C8_8 
REMARK    2  A    between atoms: C4_4  and  C7_7 
ROOT
HETATM    1  C5  UNL     1     -32.036   6.427   0.922  1.00 20.00     0.040 C 
HETATM    2  C6  UNL     1     -33.429   5.991   1.315  1.00 20.00     0.045 C 
HETATM    3  C7  UNL     1     -31.825   7.674   1.765  1.00 20.00     0.151 C 
HETATM    4  C8  UNL     1     -33.494   6.370   2.795  1.00 20.00     0.075 C 
HETATM    5  C10 UNL     1     -32.995   5.245   3.704  1.00 20.00     0.050 C 
HETATM    6  O11 UNL     1     -32.603   7.492   2.962  1.00 20.00    -0.367 OA
ENDROOT
BRANCH   3   7
HETATM    7  C4  UNL     1     -32.280   8.929   1.091  1.00 20.00    -0.065 C 
HETATM    8  C2  UNL     1     -32.937   9.891   1.752  1.00 20.00     0.016 C 
HETATM    9  C9  UNL     1     -31.957   9.047  -0.369  1.00 20.00     0.045 C 
ENDBRANCH   3   7
BRANCH   4  10
HETATM   10  C3  UNL     1     -34.875   6.789   3.195  1.00 20.00     0.000 C 
HETATM   11  C1  UNL     1     -35.587   6.195   4.159  1.00 20.00     0.010 C 
ENDBRANCH   4  10
TORSDOF 2
ENDMDL
MODEL 4
REMARK VINA RESULT:       1.5      1.491      2.897
REMARK  2 active torsions:
REMARK  status: ('A' for Active; 'I' for Inactive)
REMARK    1  A    between atoms: C3_3  and  C8_8 
REMARK    2  A    between atoms: C4_4  and  C7_7 
ROOT
HETATM    1  C5  UNL     1     -31.997   6.380   0.937  1.00 20.00     0.040 C 
HETATM    2  C6  UNL     1     -33.395   5.951   1.319  1.00 20.00     0.045 C 
HETATM    3  C7  UNL     1     -31.806   7.656   1.741  1.00 20.00     0.151 C 
HETATM    4  C8  UNL     1     -33.489   6.380   2.783  1.00 20.00     0.075 C 
HETATM    5  C10 UNL     1     -33.001   5.288   3.740  1.00 20.00     0.050 C 
HETATM    6  O11 UNL     1     -32.605   7.511   2.929  1.00 20.00    -0.367 OA
ENDROOT
BRANCH   3   7
HETATM    7  C4  UNL     1     -32.254   8.885   1.016  1.00 20.00    -0.065 C 
HETATM    8  C2  UNL     1     -32.007   9.068  -0.289  1.00 20.00     0.016 C 
HETATM    9  C9  UNL     1     -32.995   9.901   1.834  1.00 20.00     0.045 C 
ENDBRANCH   3   7
BRANCH   4  10
HETATM   10  C3  UNL     1     -34.878   6.805   3.145  1.00 20.00     0.000 C 
HETATM   11  C1  UNL     1     -35.602   6.246   4.120  1.00 20.00     0.010 C 
ENDBRANCH   4  10
TORSDOF 2
ENDMDL
MODEL 5
REMARK VINA RESULT:       1.8      2.137      4.260
REMARK  2 active torsions:
REMARK  status: ('A' for Active; 'I' for Inactive)
REMARK    1  A    between atoms: C3_3  and  C8_8 
REMARK    2  A    between atoms: C4_4  and  C7_7 
ROOT
HETATM    1  C5  UNL     1     -33.453   6.365   2.717  1.00 20.00     0.040 C 
HETATM    2  C6  UNL     1     -33.554   7.743   2.105  1.00 20.00     0.045 C 
HETATM    3  C7  UNL     1     -32.247   5.771   2.007  1.00 20.00     0.151 C 
HETATM    4  C8  UNL     1     -32.090   8.118   1.876  1.00 20.00     0.075 C 
HETATM    5  C10 UNL     1     -31.472   8.813   3.091  1.00 20.00     0.050 C 
HETATM    6  O11 UNL     1     -31.383   6.875   1.681  1.00 20.00    -0.367 OA
ENDROOT
BRANCH   3   7
HETATM    7  C4  UNL     1     -32.598   5.054   0.743  1.00 20.00    -0.065 C 
HETATM    8  C2  UNL     1     -33.816   5.146   0.191  1.00 20.00     0.016 C 
HETATM    9  C9  UNL     1     -31.508   4.227   0.129  1.00 20.00     0.045 C 
ENDBRANCH   3   7
BRANCH   4  10
HETATM   10  C3  UNL     1     -31.923   8.963   0.652  1.00 20.00     0.000 C 
HETATM   11  C1  UNL     1     -32.628  10.073   0.407  1.00 20.00     0.010 C 
ENDBRANCH   4  10
TORSDOF 2
ENDMDL
MODEL 6
REMARK VINA RESULT:       2.0      1.656      3.635
REMARK  2 active torsions:
REMARK  status: ('A' for Active; 'I' for Inactive)
REMARK    1  A    between atoms: C3_3  and  C8_8 
REMARK    2  A    between atoms: C4_4  and  C7_7 
ROOT
HETATM    1  C5  UNL     1     -32.135   7.587   2.530  1.00 20.00     0.040 C 
HETATM    2  C6  UNL     1     -32.587   7.268   1.124  1.00 20.00     0.045 C 
HETATM    3  C7  UNL     1     -32.931   6.601   3.370  1.00 20.00     0.151 C 
HETATM    4  C8  UNL     1     -32.804   5.756   1.176  1.00 20.00     0.075 C 
HETATM    5  C10 UNL     1     -31.531   4.976   0.835  1.00 20.00     0.050 C 
HETATM    6  O11 UNL     1     -33.150   5.445   2.541  1.00 20.00    -0.367 OA
ENDROOT
BRANCH   3   7
HETATM    7  C4  UNL     1     -34.260   7.132   3.804  1.00 20.00    -0.065 C 
HETATM    8  C2  UNL     1     -34.442   8.425   4.107  1.00 20.00     0.016 C 
HETATM    9  C9  UNL     1     -35.376   6.133   3.882  1.00 20.00     0.045 C 
ENDBRANCH   3   7
BRANCH   4  10
HETATM   10  C3  UNL     1     -33.929   5.330   0.285  1.00 20.00     0.000 C 
HETATM   11  C1  UNL     1     -33.928   4.203  -0.435  1.00 20.00     0.010 C 
ENDBRANCH   4  10
TORSDOF 2
ENDMDL
MODEL 7
REMARK VINA RESULT:       2.0      2.154      4.293
REMARK  2 active torsions:
REMARK  status: ('A' for Active; 'I' for Inactive)
REMARK    1  A    between atoms: C3_3  and  C8_8 
REMARK    2  A    between atoms: C4_4  and  C7_7 
ROOT
HETATM    1  C5  UNL     1     -33.410   6.327   2.682  1.00 20.00     0.040 C 
HETATM    2  C6  UNL     1     -33.539   7.693   2.049  1.00 20.00     0.045 C 
HETATM    3  C7  UNL     1     -32.167   5.763   2.013  1.00 20.00     0.151 C 
HETATM    4  C8  UNL     1     -32.083   8.111   1.853  1.00 20.00     0.075 C 
HETATM    5  C10 UNL     1     -31.519   8.843   3.074  1.00 20.00     0.050 C 
HETATM    6  O11 UNL     1     -31.331   6.890   1.693  1.00 20.00    -0.367 OA
ENDROOT
BRANCH   3   7
HETATM    7  C4  UNL     1     -32.462   5.019   0.750  1.00 20.00    -0.065 C 
HETATM    8  C2  UNL     1     -31.537   4.263   0.141  1.00 20.00     0.016 C 
HETATM    9  C9  UNL     1     -33.851   5.166   0.205  1.00 20.00     0.045 C 
ENDBRANCH   3   7
BRANCH   4  10
HETATM   10  C3  UNL     1     -31.911   8.946   0.621  1.00 20.00     0.000 C 
HETATM   11  C1  UNL     1     -32.604  10.062   0.371  1.00 20.00     0.010 C 
ENDBRANCH   4  10
TORSDOF 2
ENDMDL
MODEL 8
REMARK VINA RESULT:       2.0      1.604      4.650
REMARK  2 active torsions:
REMARK  status: ('A' for Active; 'I' for Inactive)
REMARK    1  A    between atoms: C3_3  and  C8_8 
REMARK    2  A    between atoms: C4_4  and  C7_7 
ROOT
HETATM    1  C5  UNL     1     -31.623   6.365   1.916  1.00 20.00     0.040 C 
HETATM    2  C6  UNL     1     -31.259   7.831   1.966  1.00 20.00     0.045 C 
HETATM    3  C7  UNL     1     -33.139   6.400   1.808  1.00 20.00     0.151 C 
HETATM    4  C8  UNL     1     -32.305   8.468   1.051  1.00 20.00     0.075 C 
HETATM    5  C10 UNL     1     -31.850   8.509  -0.410  1.00 20.00     0.050 C 
HETATM    6  O11 UNL     1     -33.469   7.619   1.119  1.00 20.00    -0.367 OA
ENDROOT
BRANCH   3   7
HETATM    7  C4  UNL     1     -33.827   6.403   3.135  1.00 20.00    -0.065 C 
HETATM    8  C2  UNL     1     -34.094   7.540   3.792  1.00 20.00     0.016 C 
HETATM    9  C9  UNL     1     -34.201   5.060   3.689  1.00 20.00     0.045 C 
ENDBRANCH   3   7
BRANCH   4  10
HETATM   10  C3  UNL     1     -32.682   9.840   1.517  1.00 20.00     0.000 C 
HETATM   11  C1  UNL     1     -32.770  10.905   0.713  1.00 20.00     0.010 C 
ENDBRANCH   4  10
TORSDOF 2
ENDMDL
MODEL 9
REMARK VINA RESULT:       2.2      1.323      2.710
REMARK  2 active torsions:
REMARK  status: ('A' for Active; 'I' for Inactive)
REMARK    1  A    between atoms: C3_3  and  C8_8 
REMARK    2  A    between atoms: C4_4  and  C7_7 
ROOT
HETATM    1  C5  UNL     1     -32.640   5.975   0.738  1.00 20.00     0.040 C 
HETATM    2  C6  UNL     1     -34.031   5.952   1.328  1.00 20.00     0.045 C 
HETATM    3  C7  UNL     1     -31.830   6.678   1.815  1.00 20.00     0.151 C 
HETATM    4  C8  UNL     1     -33.759   5.776   2.822  1.00 20.00     0.075 C 
HETATM    5  C10 UNL     1     -33.673   4.302   3.226  1.00 20.00     0.050 C 
HETATM    6  O11 UNL     1     -32.468   6.370   3.068  1.00 20.00    -0.367 OA
ENDROOT
BRANCH   3   7
HETATM    7  C4  UNL     1     -31.794   8.163   1.654  1.00 20.00    -0.065 C 
HETATM    8  C2  UNL     1     -31.725   8.990   2.707  1.00 20.00     0.016 C 
HETATM    9  C9  UNL     1     -31.841   8.676   0.245  1.00 20.00     0.045 C 
ENDBRANCH   3   7
BRANCH   4  10
HETATM   10  C3  UNL     1     -34.781   6.485   3.655  1.00 20.00     0.000 C 
HETATM   11  C1  UNL     1     -34.578   7.670   4.241  1.00 20.00     0.010 C 
ENDBRANCH   4  10
TORSDOF 2
ENDMDL
