MODEL 1
REMARK VINA RESULT:      -0.4      0.000      0.000
REMARK  0 active torsions:
REMARK  status: ('A' for Active; 'I' for Inactive)
ROOT
HETATM    1  C1  UNL     1     -33.811   7.445   4.567  1.00 20.00     0.044 C 
HETATM    2  C2  UNL     1     -35.772   6.714   3.155  1.00 20.00     0.044 C 
HETATM    3  C3  UNL     1     -34.345   6.407   3.588  1.00 20.00     0.087 C 
HETATM    4 CL4  UNL     1     -34.271   4.784   4.325  1.00 20.00    -0.107 Cl
HETATM    5 BR5  UNL     1     -33.198   6.404   1.996  1.00 20.00    -0.069 Br
ENDROOT
TORSDOF 0
ENDMDL
MODEL 2
REMARK VINA RESULT:      -0.4      1.486      2.041
REMARK  0 active torsions:
REMARK  status: ('A' for Active; 'I' for Inactive)
ROOT
HETATM    1  C1  UNL     1     -34.335   5.022   4.235  1.00 20.00     0.044 C 
HETATM    2  C2  UNL     1     -33.897   7.496   4.480  1.00 20.00     0.044 C 
HETATM    3  C3  UNL     1     -34.400   6.389   3.564  1.00 20.00     0.087 C 
HETATM    4 CL4  UNL     1     -36.075   6.735   3.057  1.00 20.00    -0.107 Cl
HETATM    5 BR5  UNL     1     -33.275   6.348   1.958  1.00 20.00    -0.069 Br
ENDROOT
TORSDOF 0
ENDMDL
MODEL 3
REMARK VINA RESULT:      -0.3      1.918      2.495
REMARK  0 active torsions:
REMARK  status: ('A' for Active; 'I' for Inactive)
ROOT
HETATM    1  C1  UNL     1     -35.820   6.667   3.211  1.00 20.00     0.044 C 
HETATM    2  C2  UNL     1     -33.834   7.404   4.583  1.00 20.00     0.044 C 
HETATM    3  C3  UNL     1     -34.363   6.401   3.568  1.00 20.00     0.087 C 
HETATM    4 CL4  UNL     1     -33.360   6.445   2.092  1.00 20.00    -0.107 Cl
HETATM    5 BR5  UNL     1     -34.229   4.603   4.340  1.00 20.00    -0.069 Br
ENDROOT
TORSDOF 0
ENDMDL
MODEL 4
REMARK VINA RESULT:      -0.3      1.478      2.052
REMARK  0 active torsions:
REMARK  status: ('A' for Active; 'I' for Inactive)
ROOT
HETATM    1  C1  UNL     1     -35.777   6.769   3.142  1.00 20.00     0.044 C 
HETATM    2  C2  UNL     1     -34.329   5.028   4.256  1.00 20.00     0.044 C 
HETATM    3  C3  UNL     1     -34.370   6.397   3.592  1.00 20.00     0.087 C 
HETATM    4 CL4  UNL     1     -33.746   7.636   4.716  1.00 20.00    -0.107 Cl
HETATM    5 BR5  UNL     1     -33.201   6.362   2.017  1.00 20.00    -0.069 Br
ENDROOT
TORSDOF 0
ENDMDL
MODEL 5
REMARK VINA RESULT:      -0.3      2.015      2.189
REMARK  0 active torsions:
REMARK  status: ('A' for Active; 'I' for Inactive)
ROOT
HETATM    1  C1  UNL     1     -33.423   6.489   2.319  1.00 20.00     0.044 C 
HETATM    2  C2  UNL     1     -35.755   6.697   3.261  1.00 20.00     0.044 C 
HETATM    3  C3  UNL     1     -34.292   6.413   3.569  1.00 20.00     0.087 C 
HETATM    4 CL4  UNL     1     -33.694   7.565   4.794  1.00 20.00    -0.107 Cl
HETATM    5 BR5  UNL     1     -34.152   4.605   4.316  1.00 20.00    -0.069 Br
ENDROOT
TORSDOF 0
ENDMDL
MODEL 6
REMARK VINA RESULT:      -0.3      2.028      2.199
REMARK  0 active torsions:
REMARK  status: ('A' for Active; 'I' for Inactive)
ROOT
HETATM    1  C1  UNL     1     -33.886   7.426   4.574  1.00 20.00     0.044 C 
HETATM    2  C2  UNL     1     -33.487   6.454   2.279  1.00 20.00     0.044 C 
HETATM    3  C3  UNL     1     -34.351   6.417   3.532  1.00 20.00     0.087 C 
HETATM    4 CL4  UNL     1     -36.055   6.732   3.103  1.00 20.00    -0.107 Cl
HETATM    5 BR5  UNL     1     -34.243   4.621   4.312  1.00 20.00    -0.069 Br
ENDROOT
TORSDOF 0
ENDMDL
MODEL 7
REMARK VINA RESULT:      -0.1      1.546      2.079
REMARK  0 active torsions:
REMARK  status: ('A' for Active; 'I' for Inactive)
ROOT
HETATM    1  C1  UNL     1     -35.737   6.662   3.283  1.00 20.00     0.044 C 
HETATM    2  C2  UNL     1     -33.462   6.356   2.233  1.00 20.00     0.044 C 
HETATM    3  C3  UNL     1     -34.267   6.341   3.525  1.00 20.00     0.087 C 
HETATM    4 CL4  UNL     1     -34.117   4.748   4.316  1.00 20.00    -0.107 Cl
HETATM    5 BR5  UNL     1     -33.525   7.693   4.737  1.00 20.00    -0.069 Br
ENDROOT
TORSDOF 0
ENDMDL
MODEL 8
REMARK VINA RESULT:      -0.1      3.691      3.823
REMARK  0 active torsions:
REMARK  status: ('A' for Active; 'I' for Inactive)
ROOT
HETATM    1  C1  UNL     1     -31.098   8.330   2.880  1.00 20.00     0.044 C 
HETATM    2  C2  UNL     1     -32.033   6.516   1.395  1.00 20.00     0.044 C 
HETATM    3  C3  UNL     1     -32.300   7.851   2.076  1.00 20.00     0.087 C 
HETATM    4 CL4  UNL     1     -32.740   9.077   0.856  1.00 20.00    -0.107 Cl
HETATM    5 BR5  UNL     1     -33.820   7.635   3.296  1.00 20.00    -0.069 Br
ENDROOT
TORSDOF 0
ENDMDL
MODEL 9
REMARK VINA RESULT:      -0.1      2.000      2.180
REMARK  0 active torsions:
REMARK  status: ('A' for Active; 'I' for Inactive)
ROOT
HETATM    1  C1  UNL     1     -34.253   4.986   4.266  1.00 20.00     0.044 C 
HETATM    2  C2  UNL     1     -35.761   6.704   3.195  1.00 20.00     0.044 C 
HETATM    3  C3  UNL     1     -34.328   6.324   3.539  1.00 20.00     0.087 C 
HETATM    4 CL4  UNL     1     -33.342   6.262   2.053  1.00 20.00    -0.107 Cl
HETATM    5 BR5  UNL     1     -33.579   7.710   4.708  1.00 20.00    -0.069 Br
ENDROOT
TORSDOF 0
ENDMDL
