MODEL 1
REMARK VINA RESULT:      -1.0      0.000      0.000
REMARK  1 active torsions:
REMARK  status: ('A' for Active; 'I' for Inactive)
REMARK    1  A    between atoms: C3_3  and  C7_7 
ROOT
HETATM    1  C1  UNL     1     -33.761   5.755   2.178  1.00 20.00     0.001 C 
HETATM    2  C2  UNL     1     -34.004   6.519   3.254  1.00 20.00    -0.083 C 
HETATM    3  C5  UNL     1     -32.569   5.961   1.295  1.00 20.00     0.196 C 
HETATM    4  C6  UNL     1     -33.077   7.654   3.602  1.00 20.00     0.069 C 
HETATM    5  C7  UNL     1     -32.145   8.035   2.443  1.00 20.00     0.148 C 
HETATM    6  C8  UNL     1     -35.174   6.294   4.160  1.00 20.00     0.043 C 
HETATM    7  O11 UNL     1     -31.597   6.856   1.846  1.00 20.00    -0.378 OA
ENDROOT
BRANCH   5   8
HETATM    8  C3  UNL     1     -32.776   8.928   1.416  1.00 20.00     0.007 C 
HETATM    9  C4  UNL     1     -32.222   9.400   0.283  1.00 20.00    -0.089 C 
HETATM   10  C9  UNL     1     -32.995  10.292  -0.648  1.00 20.00     0.042 C 
HETATM   11  C10 UNL     1     -30.818   9.090  -0.152  1.00 20.00     0.042 C 
ENDBRANCH   5   8
TORSDOF 1
ENDMDL
MODEL 2
REMARK VINA RESULT:       0.9      2.014      3.298
REMARK  1 active torsions:
REMARK  status: ('A' for Active; 'I' for Inactive)
REMARK    1  A    between atoms: C3_3  and  C7_7 
ROOT
HETATM    1  C1  UNL     1     -34.886   4.800   4.817  1.00 20.00     0.001 C 
HETATM    2  C2  UNL     1     -33.931   4.205   4.087  1.00 20.00    -0.083 C 
HETATM    3  C5  UNL     1     -35.592   6.041   4.364  1.00 20.00     0.196 C 
HETATM    4  C6  UNL     1     -33.508   4.794   2.767  1.00 20.00     0.069 C 
HETATM    5  C7  UNL     1     -33.979   6.245   2.588  1.00 20.00     0.148 C 
HETATM    6  C8  UNL     1     -33.249   2.944   4.519  1.00 20.00     0.043 C 
HETATM    7  O11 UNL     1     -35.345   6.371   2.993  1.00 20.00    -0.378 OA
ENDROOT
BRANCH   5   8
HETATM    8  C3  UNL     1     -33.108   7.260   3.266  1.00 20.00     0.007 C 
HETATM    9  C4  UNL     1     -32.191   8.068   2.700  1.00 20.00    -0.089 C 
HETATM   10  C9  UNL     1     -31.395   9.039   3.527  1.00 20.00     0.042 C 
HETATM   11  C10 UNL     1     -31.881   8.078   1.231  1.00 20.00     0.042 C 
ENDBRANCH   5   8
TORSDOF 1
ENDMDL
MODEL 3
REMARK VINA RESULT:       1.1      2.084      4.804
REMARK  1 active torsions:
REMARK  status: ('A' for Active; 'I' for Inactive)
REMARK    1  A    between atoms: C3_3  and  C7_7 
ROOT
HETATM    1  C1  UNL     1     -32.049   7.840   3.102  1.00 20.00     0.001 C 
HETATM    2  C2  UNL     1     -33.131   7.868   3.895  1.00 20.00    -0.083 C 
HETATM    3  C5  UNL     1     -31.993   7.030   1.844  1.00 20.00     0.196 C 
HETATM    4  C6  UNL     1     -34.345   7.044   3.552  1.00 20.00     0.069 C 
HETATM    5  C7  UNL     1     -34.048   5.962   2.503  1.00 20.00     0.148 C 
HETATM    6  C8  UNL     1     -33.206   8.705   5.134  1.00 20.00     0.043 C 
HETATM    7  O11 UNL     1     -33.265   6.512   1.439  1.00 20.00    -0.378 OA
ENDROOT
BRANCH   5   8
HETATM    8  C3  UNL     1     -33.422   4.720   3.063  1.00 20.00     0.007 C 
HETATM    9  C4  UNL     1     -33.822   4.006   4.132  1.00 20.00    -0.089 C 
HETATM   10  C9  UNL     1     -33.079   2.774   4.567  1.00 20.00     0.042 C 
HETATM   11  C10 UNL     1     -35.017   4.358   4.972  1.00 20.00     0.042 C 
ENDBRANCH   5   8
TORSDOF 1
ENDMDL
MODEL 4
REMARK VINA RESULT:       1.6      1.003      4.474
REMARK  1 active torsions:
REMARK  status: ('A' for Active; 'I' for Inactive)
REMARK    1  A    between atoms: C3_3  and  C7_7 
ROOT
HETATM    1  C1  UNL     1     -31.724   9.363   1.663  1.00 20.00     0.001 C 
HETATM    2  C2  UNL     1     -32.431   9.034   0.572  1.00 20.00    -0.083 C 
HETATM    3  C5  UNL     1     -31.275   8.348   2.669  1.00 20.00     0.196 C 
HETATM    4  C6  UNL     1     -32.830   7.602   0.329  1.00 20.00     0.069 C 
HETATM    5  C7  UNL     1     -32.687   6.727   1.584  1.00 20.00     0.148 C 
HETATM    6  C8  UNL     1     -32.850  10.039  -0.456  1.00 20.00     0.043 C 
HETATM    7  O11 UNL     1     -31.439   6.995   2.230  1.00 20.00    -0.378 OA
ENDROOT
BRANCH   5   8
HETATM    8  C3  UNL     1     -33.836   6.836   2.542  1.00 20.00     0.007 C 
HETATM    9  C4  UNL     1     -34.278   5.902   3.406  1.00 20.00    -0.089 C 
HETATM   10  C9  UNL     1     -35.453   6.170   4.306  1.00 20.00     0.042 C 
HETATM   11  C10 UNL     1     -33.660   4.541   3.554  1.00 20.00     0.042 C 
ENDBRANCH   5   8
TORSDOF 1
ENDMDL
