MODEL 1
REMARK VINA RESULT:      -2.2      0.000      0.000
REMARK  1 active torsions:
REMARK  status: ('A' for Active; 'I' for Inactive)
REMARK    1  A    between atoms: C4_4  and  O5_5 
ROOT
HETATM    1  C1  UNL     1     -35.429   6.065   4.086  1.00 20.00     0.014 C 
HETATM    2  C2  UNL     1     -34.483   6.739   3.783  1.00 20.00    -0.091 C 
HETATM    3  C4  UNL     1     -33.331   7.563   3.416  1.00 20.00     0.259 C 
ENDROOT
BRANCH   3   4
HETATM    4  O5  UNL     1     -32.765   7.110   2.193  1.00 20.00    -0.384 OA
HETATM    5  C3  UNL     1     -31.885   8.078   1.636  1.00 20.00     0.202 C 
ENDBRANCH   3   4
TORSDOF 1
ENDMDL
MODEL 2
REMARK VINA RESULT:      -2.2      2.380      3.727
REMARK  1 active torsions:
REMARK  status: ('A' for Active; 'I' for Inactive)
REMARK    1  A    between atoms: C4_4  and  O5_5 
ROOT
HETATM    1  C1  UNL     1     -32.558   9.971   0.094  1.00 20.00     0.014 C 
HETATM    2  C2  UNL     1     -32.226   9.103   0.854  1.00 20.00    -0.091 C 
HETATM    3  C4  UNL     1     -31.818   8.047   1.781  1.00 20.00     0.259 C 
ENDROOT
BRANCH   3   4
HETATM    4  O5  UNL     1     -32.911   7.183   2.063  1.00 20.00    -0.384 OA
HETATM    5  C3  UNL     1     -32.701   5.884   1.524  1.00 20.00     0.202 C 
ENDBRANCH   3   4
TORSDOF 1
ENDMDL
MODEL 3
REMARK VINA RESULT:      -2.1      2.382      3.126
REMARK  1 active torsions:
REMARK  status: ('A' for Active; 'I' for Inactive)
REMARK    1  A    between atoms: C4_4  and  O5_5 
ROOT
HETATM    1  C1  UNL     1     -33.229   2.933   4.613  1.00 20.00     0.014 C 
HETATM    2  C2  UNL     1     -33.928   3.890   4.422  1.00 20.00    -0.091 C 
HETATM    3  C4  UNL     1     -34.782   5.056   4.191  1.00 20.00     0.259 C 
ENDROOT
BRANCH   3   4
HETATM    4  O5  UNL     1     -34.089   6.038   3.433  1.00 20.00    -0.384 OA
HETATM    5  C3  UNL     1     -34.233   7.333   4.001  1.00 20.00     0.202 C 
ENDBRANCH   3   4
TORSDOF 1
ENDMDL
MODEL 4
REMARK VINA RESULT:      -2.0      1.081      1.081
REMARK  1 active torsions:
REMARK  status: ('A' for Active; 'I' for Inactive)
REMARK    1  A    between atoms: C4_4  and  O5_5 
ROOT
HETATM    1  C1  UNL     1     -35.266   6.292   3.949  1.00 20.00     0.014 C 
HETATM    2  C2  UNL     1     -34.265   6.872   3.627  1.00 20.00    -0.091 C 
HETATM    3  C4  UNL     1     -33.044   7.578   3.238  1.00 20.00     0.259 C 
ENDROOT
BRANCH   3   4
HETATM    4  O5  UNL     1     -32.711   7.289   1.887  1.00 20.00    -0.384 OA
HETATM    5  C3  UNL     1     -32.675   5.888   1.647  1.00 20.00     0.202 C 
ENDBRANCH   3   4
TORSDOF 1
ENDMDL
MODEL 5
REMARK VINA RESULT:      -2.0      2.639      2.857
REMARK  1 active torsions:
REMARK  status: ('A' for Active; 'I' for Inactive)
REMARK    1  A    between atoms: C4_4  and  O5_5 
ROOT
HETATM    1  C1  UNL     1     -32.709   5.692   1.473  1.00 20.00     0.014 C 
HETATM    2  C2  UNL     1     -32.418   6.848   1.615  1.00 20.00    -0.091 C 
HETATM    3  C4  UNL     1     -32.064   8.257   1.792  1.00 20.00     0.259 C 
ENDROOT
BRANCH   3   4
HETATM    4  O5  UNL     1     -31.735   8.847   0.541  1.00 20.00    -0.384 OA
HETATM    5  C3  UNL     1     -32.523  10.003   0.286  1.00 20.00     0.202 C 
ENDBRANCH   3   4
TORSDOF 1
ENDMDL
MODEL 6
REMARK VINA RESULT:      -2.0      2.702      3.598
REMARK  1 active torsions:
REMARK  status: ('A' for Active; 'I' for Inactive)
REMARK    1  A    between atoms: C4_4  and  O5_5 
ROOT
HETATM    1  C1  UNL     1     -34.492   7.362   4.038  1.00 20.00     0.014 C 
HETATM    2  C2  UNL     1     -34.231   6.228   3.742  1.00 20.00    -0.091 C 
HETATM    3  C4  UNL     1     -33.910   4.848   3.378  1.00 20.00     0.259 C 
ENDROOT
BRANCH   3   4
HETATM    4  O5  UNL     1     -34.280   3.959   4.424  1.00 20.00    -0.384 OA
HETATM    5  C3  UNL     1     -33.262   3.000   4.678  1.00 20.00     0.202 C 
ENDBRANCH   3   4
TORSDOF 1
ENDMDL
MODEL 7
REMARK VINA RESULT:      -2.0      1.201      1.326
REMARK  1 active torsions:
REMARK  status: ('A' for Active; 'I' for Inactive)
REMARK    1  A    between atoms: C4_4  and  O5_5 
ROOT
HETATM    1  C1  UNL     1     -34.451   6.857   3.911  1.00 20.00     0.014 C 
HETATM    2  C2  UNL     1     -33.784   6.542   2.964  1.00 20.00    -0.091 C 
HETATM    3  C4  UNL     1     -32.972   6.157   1.809  1.00 20.00     0.259 C 
ENDROOT
BRANCH   3   4
HETATM    4  O5  UNL     1     -31.797   6.954   1.738  1.00 20.00    -0.384 OA
HETATM    5  C3  UNL     1     -32.107   8.319   1.492  1.00 20.00     0.202 C 
ENDBRANCH   3   4
TORSDOF 1
ENDMDL
MODEL 8
REMARK VINA RESULT:      -1.9      2.420      3.370
REMARK  1 active torsions:
REMARK  status: ('A' for Active; 'I' for Inactive)
REMARK    1  A    between atoms: C4_4  and  O5_5 
ROOT
HETATM    1  C1  UNL     1     -33.704   7.904   4.393  1.00 20.00     0.014 C 
HETATM    2  C2  UNL     1     -34.499   7.043   4.132  1.00 20.00    -0.091 C 
HETATM    3  C4  UNL     1     -35.469   5.995   3.812  1.00 20.00     0.259 C 
ENDROOT
BRANCH   3   4
HETATM    4  O5  UNL     1     -35.203   4.822   4.570  1.00 20.00    -0.384 OA
HETATM    5  C3  UNL     1     -34.036   4.155   4.105  1.00 20.00     0.202 C 
ENDBRANCH   3   4
TORSDOF 1
ENDMDL
MODEL 9
REMARK VINA RESULT:      -1.9      1.192      3.427
REMARK  1 active torsions:
REMARK  status: ('A' for Active; 'I' for Inactive)
REMARK    1  A    between atoms: C4_4  and  O5_5 
ROOT
HETATM    1  C1  UNL     1     -31.778   8.193   1.464  1.00 20.00     0.014 C 
HETATM    2  C2  UNL     1     -32.498   7.389   1.992  1.00 20.00    -0.091 C 
HETATM    3  C4  UNL     1     -33.374   6.408   2.633  1.00 20.00     0.259 C 
ENDROOT
BRANCH   3   4
HETATM    4  O5  UNL     1     -34.094   7.007   3.701  1.00 20.00    -0.384 OA
HETATM    5  C3  UNL     1     -35.264   6.265   4.023  1.00 20.00     0.202 C 
ENDBRANCH   3   4
TORSDOF 1
ENDMDL
