MODEL 1
REMARK VINA RESULT:      -2.8      0.000      0.000
REMARK  1 active torsions:
REMARK  status: ('A' for Active; 'I' for Inactive)
REMARK    1  A    between atoms: C2_2  and  C3_3 
ROOT
HETATM    1  C1  UNL     1     -32.354   8.765   0.935  1.00 20.00     0.147 C 
HETATM    2  C2  UNL     1     -32.148   7.741   1.954  1.00 20.00     0.425 C 
HETATM    3  N4  UNL     1     -32.517   9.580   0.125  1.00 20.00    -0.191 NA
HETATM    4  F5  UNL     1     -32.718   8.154   3.114  1.00 20.00    -0.179 F 
HETATM    5  F6  UNL     1     -30.818   7.620   2.193  1.00 20.00    -0.179 F 
ENDROOT
BRANCH   2   6
HETATM    6  C3  UNL     1     -32.710   6.398   1.574  1.00 20.00     0.469 C 
HETATM    7  F7  UNL     1     -33.455   5.893   2.582  1.00 20.00    -0.164 F 
HETATM    8  F8  UNL     1     -33.502   6.484   0.484  1.00 20.00    -0.164 F 
HETATM    9  F9  UNL     1     -31.729   5.509   1.305  1.00 20.00    -0.164 F 
ENDBRANCH   2   6
TORSDOF 1
ENDMDL
MODEL 2
REMARK VINA RESULT:      -2.6      2.068      3.133
REMARK  1 active torsions:
REMARK  status: ('A' for Active; 'I' for Inactive)
REMARK    1  A    between atoms: C2_2  and  C3_3 
ROOT
HETATM    1  C1  UNL     1     -33.900   6.458   2.963  1.00 20.00     0.147 C 
HETATM    2  C2  UNL     1     -32.958   6.485   1.849  1.00 20.00     0.425 C 
HETATM    3  N4  UNL     1     -34.649   6.434   3.849  1.00 20.00    -0.191 NA
HETATM    4  F5  UNL     1     -33.649   6.387   0.686  1.00 20.00    -0.179 F 
HETATM    5  F6  UNL     1     -32.158   5.392   1.922  1.00 20.00    -0.179 F 
ENDROOT
BRANCH   2   6
HETATM    6  C3  UNL     1     -32.105   7.725   1.818  1.00 20.00     0.469 C 
HETATM    7  F7  UNL     1     -30.850   7.427   1.418  1.00 20.00    -0.164 F 
HETATM    8  F8  UNL     1     -32.601   8.644   0.962  1.00 20.00    -0.164 F 
HETATM    9  F9  UNL     1     -32.021   8.298   3.038  1.00 20.00    -0.164 F 
ENDBRANCH   2   6
TORSDOF 1
ENDMDL
MODEL 3
REMARK VINA RESULT:      -2.6      1.834      2.119
REMARK  1 active torsions:
REMARK  status: ('A' for Active; 'I' for Inactive)
REMARK    1  A    between atoms: C2_2  and  C3_3 
ROOT
HETATM    1  C1  UNL     1     -33.316   7.565   3.197  1.00 20.00     0.147 C 
HETATM    2  C2  UNL     1     -32.536   7.289   1.994  1.00 20.00     0.425 C 
HETATM    3  N4  UNL     1     -33.936   7.786   4.152  1.00 20.00    -0.191 NA
HETATM    4  F5  UNL     1     -31.232   7.572   2.242  1.00 20.00    -0.179 F 
HETATM    5  F6  UNL     1     -32.938   8.127   1.007  1.00 20.00    -0.179 F 
ENDROOT
BRANCH   2   6
HETATM    6  C3  UNL     1     -32.654   5.865   1.519  1.00 20.00     0.469 C 
HETATM    7  F7  UNL     1     -33.176   5.084   2.490  1.00 20.00    -0.164 F 
HETATM    8  F8  UNL     1     -33.459   5.770   0.440  1.00 20.00    -0.164 F 
HETATM    9  F9  UNL     1     -31.449   5.354   1.186  1.00 20.00    -0.164 F 
ENDBRANCH   2   6
TORSDOF 1
ENDMDL
MODEL 4
REMARK VINA RESULT:      -2.5      2.544      3.211
REMARK  1 active torsions:
REMARK  status: ('A' for Active; 'I' for Inactive)
REMARK    1  A    between atoms: C2_2  and  C3_3 
ROOT
HETATM    1  C1  UNL     1     -32.939   7.615   2.721  1.00 20.00     0.147 C 
HETATM    2  C2  UNL     1     -33.921   7.679   3.799  1.00 20.00     0.425 C 
HETATM    3  N4  UNL     1     -32.157   7.564   1.866  1.00 20.00    -0.191 NA
HETATM    4  F5  UNL     1     -34.683   8.790   3.633  1.00 20.00    -0.179 F 
HETATM    5  F6  UNL     1     -33.270   7.825   4.980  1.00 20.00    -0.179 F 
ENDROOT
BRANCH   2   6
HETATM    6  C3  UNL     1     -34.814   6.469   3.867  1.00 20.00     0.469 C 
HETATM    7  F7  UNL     1     -35.792   6.549   2.938  1.00 20.00    -0.164 F 
HETATM    8  F8  UNL     1     -34.123   5.332   3.638  1.00 20.00    -0.164 F 
HETATM    9  F9  UNL     1     -35.406   6.359   5.076  1.00 20.00    -0.164 F 
ENDBRANCH   2   6
TORSDOF 1
ENDMDL
MODEL 5
REMARK VINA RESULT:      -2.5      2.543      2.969
REMARK  1 active torsions:
REMARK  status: ('A' for Active; 'I' for Inactive)
REMARK    1  A    between atoms: C2_2  and  C3_3 
ROOT
HETATM    1  C1  UNL     1     -32.932   7.621   2.714  1.00 20.00     0.147 C 
HETATM    2  C2  UNL     1     -33.917   7.697   3.787  1.00 20.00     0.425 C 
HETATM    3  N4  UNL     1     -32.147   7.562   1.861  1.00 20.00    -0.191 NA
HETATM    4  F5  UNL     1     -34.672   8.811   3.614  1.00 20.00    -0.179 F 
HETATM    5  F6  UNL     1     -33.270   7.843   4.970  1.00 20.00    -0.179 F 
ENDROOT
BRANCH   2   6
HETATM    6  C3  UNL     1     -34.818   6.492   3.857  1.00 20.00     0.469 C 
HETATM    7  F7  UNL     1     -35.403   6.409   5.072  1.00 20.00    -0.164 F 
HETATM    8  F8  UNL     1     -35.799   6.554   2.933  1.00 20.00    -0.164 F 
HETATM    9  F9  UNL     1     -34.129   5.348   3.656  1.00 20.00    -0.164 F 
ENDBRANCH   2   6
TORSDOF 1
ENDMDL
MODEL 6
REMARK VINA RESULT:      -2.5      1.574      2.829
REMARK  1 active torsions:
REMARK  status: ('A' for Active; 'I' for Inactive)
REMARK    1  A    between atoms: C2_2  and  C3_3 
ROOT
HETATM    1  C1  UNL     1     -32.319   7.451   1.841  1.00 20.00     0.147 C 
HETATM    2  C2  UNL     1     -33.173   6.281   2.025  1.00 20.00     0.425 C 
HETATM    3  N4  UNL     1     -31.641   8.380   1.693  1.00 20.00    -0.191 NA
HETATM    4  F5  UNL     1     -32.394   5.172   2.076  1.00 20.00    -0.179 F 
HETATM    5  F6  UNL     1     -33.975   6.146   0.939  1.00 20.00    -0.179 F 
ENDROOT
BRANCH   2   6
HETATM    6  C3  UNL     1     -34.022   6.350   3.266  1.00 20.00     0.469 C 
HETATM    7  F7  UNL     1     -33.979   5.177   3.935  1.00 20.00    -0.164 F 
HETATM    8  F8  UNL     1     -33.592   7.316   4.106  1.00 20.00    -0.164 F 
HETATM    9  F9  UNL     1     -35.314   6.605   2.968  1.00 20.00    -0.164 F 
ENDBRANCH   2   6
TORSDOF 1
ENDMDL
MODEL 7
REMARK VINA RESULT:      -2.4      1.207      1.879
REMARK  1 active torsions:
REMARK  status: ('A' for Active; 'I' for Inactive)
REMARK    1  A    between atoms: C2_2  and  C3_3 
ROOT
HETATM    1  C1  UNL     1     -32.359   8.939   1.132  1.00 20.00     0.147 C 
HETATM    2  C2  UNL     1     -32.079   7.939   2.158  1.00 20.00     0.425 C 
HETATM    3  N4  UNL     1     -32.580   9.732   0.316  1.00 20.00    -0.191 NA
HETATM    4  F5  UNL     1     -31.072   8.389   2.948  1.00 20.00    -0.179 F 
HETATM    5  F6  UNL     1     -31.631   6.807   1.560  1.00 20.00    -0.179 F 
ENDROOT
BRANCH   2   6
HETATM    6  C3  UNL     1     -33.273   7.611   3.014  1.00 20.00     0.469 C 
HETATM    7  F7  UNL     1     -32.959   7.714   4.324  1.00 20.00    -0.164 F 
HETATM    8  F8  UNL     1     -34.301   8.452   2.772  1.00 20.00    -0.164 F 
HETATM    9  F9  UNL     1     -33.707   6.351   2.796  1.00 20.00    -0.164 F 
ENDBRANCH   2   6
TORSDOF 1
ENDMDL
MODEL 8
REMARK VINA RESULT:      -2.3      3.468      4.492
REMARK  1 active torsions:
REMARK  status: ('A' for Active; 'I' for Inactive)
REMARK    1  A    between atoms: C2_2  and  C3_3 
ROOT
HETATM    1  C1  UNL     1     -34.484   4.949   4.067  1.00 20.00     0.147 C 
HETATM    2  C2  UNL     1     -35.034   6.301   4.077  1.00 20.00     0.425 C 
HETATM    3  N4  UNL     1     -34.049   3.874   4.059  1.00 20.00    -0.191 NA
HETATM    4  F5  UNL     1     -35.527   6.566   5.313  1.00 20.00    -0.179 F 
HETATM    5  F6  UNL     1     -36.082   6.356   3.218  1.00 20.00    -0.179 F 
ENDROOT
BRANCH   2   6
HETATM    6  C3  UNL     1     -34.028   7.357   3.706  1.00 20.00     0.469 C 
HETATM    7  F7  UNL     1     -34.653   8.470   3.261  1.00 20.00    -0.164 F 
HETATM    8  F8  UNL     1     -33.267   7.709   4.763  1.00 20.00    -0.164 F 
HETATM    9  F9  UNL     1     -33.204   6.932   2.724  1.00 20.00    -0.164 F 
ENDBRANCH   2   6
TORSDOF 1
ENDMDL
MODEL 9
REMARK VINA RESULT:      -2.3      2.913      3.733
REMARK  1 active torsions:
REMARK  status: ('A' for Active; 'I' for Inactive)
REMARK    1  A    between atoms: C2_2  and  C3_3 
ROOT
HETATM    1  C1  UNL     1     -34.008   4.872   3.826  1.00 20.00     0.147 C 
HETATM    2  C2  UNL     1     -33.976   6.212   3.247  1.00 20.00     0.425 C 
HETATM    3  N4  UNL     1     -34.034   3.808   4.285  1.00 20.00    -0.191 NA
HETATM    4  F5  UNL     1     -33.524   7.084   4.183  1.00 20.00    -0.179 F 
HETATM    5  F6  UNL     1     -35.243   6.589   2.941  1.00 20.00    -0.179 F 
ENDROOT
BRANCH   2   6
HETATM    6  C3  UNL     1     -33.115   6.311   2.017  1.00 20.00     0.469 C 
HETATM    7  F7  UNL     1     -32.462   7.494   1.990  1.00 20.00    -0.164 F 
HETATM    8  F8  UNL     1     -32.188   5.331   1.982  1.00 20.00    -0.164 F 
HETATM    9  F9  UNL     1     -33.853   6.226   0.889  1.00 20.00    -0.164 F 
ENDBRANCH   2   6
TORSDOF 1
ENDMDL
