MODEL 1
REMARK VINA RESULT:      -3.6      0.000      0.000
REMARK  2 active torsions:
REMARK  status: ('A' for Active; 'I' for Inactive)
REMARK    1  A    between atoms: C1_1  and  C2_2 
REMARK    2  A    between atoms: C1_1  and  C3_3 
ROOT
HETATM    1  C1  UNL     1     -33.472   5.762   3.027  1.00 20.00     0.188 C 
ENDROOT
BRANCH   1   2
HETATM    2  C2  UNL     1     -34.463   6.807   3.499  1.00 20.00     0.361 C 
HETATM    3  F4  UNL     1     -33.847   7.648   4.368  1.00 20.00    -0.214 F 
HETATM    4  F5  UNL     1     -35.470   6.212   4.184  1.00 20.00    -0.214 F 
ENDBRANCH   1   2
BRANCH   1   5
HETATM    5  C3  UNL     1     -32.813   6.145   1.723  1.00 20.00     0.392 C 
HETATM    6  F6  UNL     1     -32.432   7.441   1.723  1.00 20.00    -0.171 F 
HETATM    7  F7  UNL     1     -31.722   5.389   1.482  1.00 20.00    -0.171 F 
HETATM    8  F8  UNL     1     -33.668   5.971   0.691  1.00 20.00    -0.171 F 
ENDBRANCH   1   5
TORSDOF 2
ENDMDL
MODEL 2
REMARK VINA RESULT:      -3.5      0.842      3.455
REMARK  2 active torsions:
REMARK  status: ('A' for Active; 'I' for Inactive)
REMARK    1  A    between atoms: C1_1  and  C2_2 
REMARK    2  A    between atoms: C1_1  and  C3_3 
ROOT
HETATM    1  C1  UNL     1     -33.778   5.697   3.253  1.00 20.00     0.188 C 
ENDROOT
BRANCH   1   2
HETATM    2  C2  UNL     1     -33.266   6.413   2.019  1.00 20.00     0.361 C 
HETATM    3  F4  UNL     1     -32.328   5.642   1.413  1.00 20.00    -0.214 F 
HETATM    4  F5  UNL     1     -32.648   7.565   2.377  1.00 20.00    -0.214 F 
ENDBRANCH   1   2
BRANCH   1   5
HETATM    5  C3  UNL     1     -34.949   6.413   3.886  1.00 20.00     0.392 C 
HETATM    6  F6  UNL     1     -34.550   7.512   4.560  1.00 20.00    -0.171 F 
HETATM    7  F7  UNL     1     -35.850   6.796   2.958  1.00 20.00    -0.171 F 
HETATM    8  F8  UNL     1     -35.583   5.603   4.762  1.00 20.00    -0.171 F 
ENDBRANCH   1   5
TORSDOF 2
ENDMDL
MODEL 3
REMARK VINA RESULT:      -3.5      0.843      3.515
REMARK  2 active torsions:
REMARK  status: ('A' for Active; 'I' for Inactive)
REMARK    1  A    between atoms: C1_1  and  C2_2 
REMARK    2  A    between atoms: C1_1  and  C3_3 
ROOT
HETATM    1  C1  UNL     1     -33.775   5.700   3.260  1.00 20.00     0.188 C 
ENDROOT
BRANCH   1   2
HETATM    2  C2  UNL     1     -33.270   6.416   2.023  1.00 20.00     0.361 C 
HETATM    3  F4  UNL     1     -32.333   5.646   1.412  1.00 20.00    -0.214 F 
HETATM    4  F5  UNL     1     -32.651   7.569   2.378  1.00 20.00    -0.214 F 
ENDBRANCH   1   2
BRANCH   1   5
HETATM    5  C3  UNL     1     -34.954   6.405   3.888  1.00 20.00     0.392 C 
HETATM    6  F6  UNL     1     -35.849   6.798   2.957  1.00 20.00    -0.171 F 
HETATM    7  F7  UNL     1     -35.591   5.607   4.770  1.00 20.00    -0.171 F 
HETATM    8  F8  UNL     1     -34.546   7.508   4.555  1.00 20.00    -0.171 F 
ENDBRANCH   1   5
TORSDOF 2
ENDMDL
MODEL 4
REMARK VINA RESULT:      -3.5      0.840      3.469
REMARK  2 active torsions:
REMARK  status: ('A' for Active; 'I' for Inactive)
REMARK    1  A    between atoms: C1_1  and  C2_2 
REMARK    2  A    between atoms: C1_1  and  C3_3 
ROOT
HETATM    1  C1  UNL     1     -33.768   5.697   3.254  1.00 20.00     0.188 C 
ENDROOT
BRANCH   1   2
HETATM    2  C2  UNL     1     -33.261   6.415   2.019  1.00 20.00     0.361 C 
HETATM    3  F4  UNL     1     -32.321   5.648   1.411  1.00 20.00    -0.214 F 
HETATM    4  F5  UNL     1     -32.646   7.570   2.376  1.00 20.00    -0.214 F 
ENDBRANCH   1   2
BRANCH   1   5
HETATM    5  C3  UNL     1     -34.939   6.409   3.889  1.00 20.00     0.392 C 
HETATM    6  F6  UNL     1     -35.589   5.611   4.762  1.00 20.00    -0.171 F 
HETATM    7  F7  UNL     1     -34.541   7.515   4.553  1.00 20.00    -0.171 F 
HETATM    8  F8  UNL     1     -35.828   6.795   2.948  1.00 20.00    -0.171 F 
ENDBRANCH   1   5
TORSDOF 2
ENDMDL
MODEL 5
REMARK VINA RESULT:      -3.3      1.466      1.884
REMARK  2 active torsions:
REMARK  status: ('A' for Active; 'I' for Inactive)
REMARK    1  A    between atoms: C1_1  and  C2_2 
REMARK    2  A    between atoms: C1_1  and  C3_3 
ROOT
HETATM    1  C1  UNL     1     -33.203   6.880   2.753  1.00 20.00     0.188 C 
ENDROOT
BRANCH   1   2
HETATM    2  C2  UNL     1     -34.144   7.550   3.733  1.00 20.00     0.361 C 
HETATM    3  F4  UNL     1     -33.458   7.880   4.857  1.00 20.00    -0.214 F 
HETATM    4  F5  UNL     1     -35.113   6.680   4.112  1.00 20.00    -0.214 F 
ENDBRANCH   1   2
BRANCH   1   5
HETATM    5  C3  UNL     1     -32.183   7.842   2.189  1.00 20.00     0.392 C 
HETATM    6  F6  UNL     1     -32.768   8.793   1.429  1.00 20.00    -0.171 F 
HETATM    7  F7  UNL     1     -31.494   8.459   3.172  1.00 20.00    -0.171 F 
HETATM    8  F8  UNL     1     -31.292   7.188   1.413  1.00 20.00    -0.171 F 
ENDBRANCH   1   5
TORSDOF 2
ENDMDL
MODEL 6
REMARK VINA RESULT:      -3.3      1.463      2.160
REMARK  2 active torsions:
REMARK  status: ('A' for Active; 'I' for Inactive)
REMARK    1  A    between atoms: C1_1  and  C2_2 
REMARK    2  A    between atoms: C1_1  and  C3_3 
ROOT
HETATM    1  C1  UNL     1     -33.184   6.857   2.780  1.00 20.00     0.188 C 
ENDROOT
BRANCH   1   2
HETATM    2  C2  UNL     1     -34.170   7.537   3.709  1.00 20.00     0.361 C 
HETATM    3  F4  UNL     1     -33.534   7.887   4.856  1.00 20.00    -0.214 F 
HETATM    4  F5  UNL     1     -35.149   6.667   4.060  1.00 20.00    -0.214 F 
ENDBRANCH   1   2
BRANCH   1   5
HETATM    5  C3  UNL     1     -32.187   7.830   2.194  1.00 20.00     0.392 C 
HETATM    6  F6  UNL     1     -31.288   7.201   1.406  1.00 20.00    -0.171 F 
HETATM    7  F7  UNL     1     -32.801   8.777   1.454  1.00 20.00    -0.171 F 
HETATM    8  F8  UNL     1     -31.502   8.457   3.175  1.00 20.00    -0.171 F 
ENDBRANCH   1   5
TORSDOF 2
ENDMDL
MODEL 7
REMARK VINA RESULT:      -3.3      0.974      3.376
REMARK  2 active torsions:
REMARK  status: ('A' for Active; 'I' for Inactive)
REMARK    1  A    between atoms: C1_1  and  C2_2 
REMARK    2  A    between atoms: C1_1  and  C3_3 
ROOT
HETATM    1  C1  UNL     1     -33.576   7.169   2.606  1.00 20.00     0.188 C 
ENDROOT
BRANCH   1   2
HETATM    2  C2  UNL     1     -32.778   6.077   1.923  1.00 20.00     0.361 C 
HETATM    3  F4  UNL     1     -31.598   6.590   1.491  1.00 20.00    -0.214 F 
HETATM    4  F5  UNL     1     -33.438   5.642   0.822  1.00 20.00    -0.214 F 
ENDBRANCH   1   2
BRANCH   1   5
HETATM    5  C3  UNL     1     -34.483   6.626   3.685  1.00 20.00     0.392 C 
HETATM    6  F6  UNL     1     -35.775   6.627   3.292  1.00 20.00    -0.171 F 
HETATM    7  F7  UNL     1     -34.149   5.361   4.017  1.00 20.00    -0.171 F 
HETATM    8  F8  UNL     1     -34.395   7.379   4.803  1.00 20.00    -0.171 F 
ENDBRANCH   1   5
TORSDOF 2
ENDMDL
MODEL 8
REMARK VINA RESULT:      -3.3      3.050      4.114
REMARK  2 active torsions:
REMARK  status: ('A' for Active; 'I' for Inactive)
REMARK    1  A    between atoms: C1_1  and  C2_2 
REMARK    2  A    between atoms: C1_1  and  C3_3 
ROOT
HETATM    1  C1  UNL     1     -31.582   8.891   0.654  1.00 20.00     0.188 C 
ENDROOT
BRANCH   1   2
HETATM    2  C2  UNL     1     -32.206   8.055   1.753  1.00 20.00     0.361 C 
HETATM    3  F4  UNL     1     -31.625   8.370   2.939  1.00 20.00    -0.214 F 
HETATM    4  F5  UNL     1     -31.952   6.741   1.535  1.00 20.00    -0.214 F 
ENDBRANCH   1   2
BRANCH   1   5
HETATM    5  C3  UNL     1     -32.495  10.003   0.193  1.00 20.00     0.392 C 
HETATM    6  F6  UNL     1     -31.806  11.139  -0.050  1.00 20.00    -0.171 F 
HETATM    7  F7  UNL     1     -33.151   9.663  -0.936  1.00 20.00    -0.171 F 
HETATM    8  F8  UNL     1     -33.420  10.280   1.137  1.00 20.00    -0.171 F 
ENDBRANCH   1   5
TORSDOF 2
ENDMDL
MODEL 9
REMARK VINA RESULT:      -3.2      1.462      3.362
REMARK  2 active torsions:
REMARK  status: ('A' for Active; 'I' for Inactive)
REMARK    1  A    between atoms: C1_1  and  C2_2 
REMARK    2  A    between atoms: C1_1  and  C3_3 
ROOT
HETATM    1  C1  UNL     1     -33.432   6.731   2.115  1.00 20.00     0.188 C 
ENDROOT
BRANCH   1   2
HETATM    2  C2  UNL     1     -32.289   7.725   2.170  1.00 20.00     0.361 C 
HETATM    3  F4  UNL     1     -32.626   8.833   1.461  1.00 20.00    -0.214 F 
HETATM    4  F5  UNL     1     -31.192   7.200   1.571  1.00 20.00    -0.214 F 
ENDBRANCH   1   2
BRANCH   1   5
HETATM    5  C3  UNL     1     -34.144   6.604   3.442  1.00 20.00     0.392 C 
HETATM    6  F6  UNL     1     -33.689   7.507   4.336  1.00 20.00    -0.171 F 
HETATM    7  F7  UNL     1     -35.475   6.785   3.306  1.00 20.00    -0.171 F 
HETATM    8  F8  UNL     1     -33.950   5.374   3.968  1.00 20.00    -0.171 F 
ENDBRANCH   1   5
TORSDOF 2
ENDMDL
