MODEL 1
REMARK VINA RESULT:      -3.7      0.000      0.000
REMARK  2 active torsions:
REMARK  status: ('A' for Active; 'I' for Inactive)
REMARK    1  A    between atoms: C1_1  and  C3_3 
REMARK    2  A    between atoms: C2_2  and  C4_4 
ROOT
HETATM    1  C1  UNL     1     -34.064   6.829   3.282  1.00 20.00     0.017 C 
HETATM    2  C2  UNL     1     -33.136   7.324   2.703  1.00 20.00     0.017 C 
ENDROOT
BRANCH   1   3
HETATM    3  C3  UNL     1     -35.186   6.230   3.982  1.00 20.00     0.459 C 
HETATM    4  F5  UNL     1     -36.337   6.421   3.298  1.00 20.00    -0.159 F 
HETATM    5  F6  UNL     1     -35.005   4.900   4.133  1.00 20.00    -0.159 F 
HETATM    6  F7  UNL     1     -35.334   6.774   5.210  1.00 20.00    -0.159 F 
ENDBRANCH   1   3
BRANCH   2   7
HETATM    7  C4  UNL     1     -32.013   7.921   2.005  1.00 20.00     0.459 C 
HETATM    8  F8  UNL     1     -32.435   8.844   1.113  1.00 20.00    -0.159 F 
HETATM    9  F9  UNL     1     -31.308   6.983   1.335  1.00 20.00    -0.159 F 
HETATM   10  F10 UNL     1     -31.176   8.532   2.873  1.00 20.00    -0.159 F 
ENDBRANCH   2   7
TORSDOF 2
ENDMDL
MODEL 2
REMARK VINA RESULT:      -3.7      0.009      4.580
REMARK  2 active torsions:
REMARK  status: ('A' for Active; 'I' for Inactive)
REMARK    1  A    between atoms: C1_1  and  C3_3 
REMARK    2  A    between atoms: C2_2  and  C4_4 
ROOT
HETATM    1  C1  UNL     1     -33.139   7.327   2.707  1.00 20.00     0.017 C 
HETATM    2  C2  UNL     1     -34.066   6.830   3.284  1.00 20.00     0.017 C 
ENDROOT
BRANCH   1   3
HETATM    3  C3  UNL     1     -32.016   7.928   2.010  1.00 20.00     0.459 C 
HETATM    4  F5  UNL     1     -31.176   8.531   2.881  1.00 20.00    -0.159 F 
HETATM    5  F6  UNL     1     -31.315   6.994   1.330  1.00 20.00    -0.159 F 
HETATM    6  F7  UNL     1     -32.440   8.858   1.126  1.00 20.00    -0.159 F 
ENDBRANCH   1   3
BRANCH   2   7
HETATM    7  C4  UNL     1     -35.187   6.227   3.981  1.00 20.00     0.459 C 
HETATM    8  F8  UNL     1     -35.338   6.767   5.211  1.00 20.00    -0.159 F 
HETATM    9  F9  UNL     1     -35.004   4.896   4.129  1.00 20.00    -0.159 F 
HETATM   10  F10 UNL     1     -36.338   6.417   3.298  1.00 20.00    -0.159 F 
ENDBRANCH   2   7
TORSDOF 2
ENDMDL
MODEL 3
REMARK VINA RESULT:      -3.1      1.486      4.555
REMARK  2 active torsions:
REMARK  status: ('A' for Active; 'I' for Inactive)
REMARK    1  A    between atoms: C1_1  and  C3_3 
REMARK    2  A    between atoms: C2_2  and  C4_4 
ROOT
HETATM    1  C1  UNL     1     -33.200   5.836   2.298  1.00 20.00     0.017 C 
HETATM    2  C2  UNL     1     -34.102   6.030   3.065  1.00 20.00     0.017 C 
ENDROOT
BRANCH   1   3
HETATM    3  C3  UNL     1     -32.108   5.601   1.370  1.00 20.00     0.459 C 
HETATM    4  F5  UNL     1     -31.504   6.763   1.034  1.00 20.00    -0.159 F 
HETATM    5  F6  UNL     1     -31.178   4.787   1.916  1.00 20.00    -0.159 F 
HETATM    6  F7  UNL     1     -32.557   5.020   0.235  1.00 20.00    -0.159 F 
ENDBRANCH   1   3
BRANCH   2   7
HETATM    7  C4  UNL     1     -35.193   6.267   3.992  1.00 20.00     0.459 C 
HETATM    8  F8  UNL     1     -34.879   7.248   4.866  1.00 20.00    -0.159 F 
HETATM    9  F9  UNL     1     -35.475   5.150   4.700  1.00 20.00    -0.159 F 
HETATM   10  F10 UNL     1     -36.313   6.638   3.333  1.00 20.00    -0.159 F 
ENDBRANCH   2   7
TORSDOF 2
ENDMDL
MODEL 4
REMARK VINA RESULT:      -3.1      1.495      2.247
REMARK  2 active torsions:
REMARK  status: ('A' for Active; 'I' for Inactive)
REMARK    1  A    between atoms: C1_1  and  C3_3 
REMARK    2  A    between atoms: C2_2  and  C4_4 
ROOT
HETATM    1  C1  UNL     1     -34.091   6.034   3.054  1.00 20.00     0.017 C 
HETATM    2  C2  UNL     1     -33.193   5.838   2.282  1.00 20.00     0.017 C 
ENDROOT
BRANCH   1   3
HETATM    3  C3  UNL     1     -35.177   6.272   3.988  1.00 20.00     0.459 C 
HETATM    4  F5  UNL     1     -35.454   5.155   4.698  1.00 20.00    -0.159 F 
HETATM    5  F6  UNL     1     -34.857   7.254   4.859  1.00 20.00    -0.159 F 
HETATM    6  F7  UNL     1     -36.301   6.642   3.336  1.00 20.00    -0.159 F 
ENDBRANCH   1   3
BRANCH   2   7
HETATM    7  C4  UNL     1     -32.109   5.601   1.347  1.00 20.00     0.459 C 
HETATM    8  F8  UNL     1     -31.529   6.764   0.975  1.00 20.00    -0.159 F 
HETATM    9  F9  UNL     1     -32.560   4.983   0.233  1.00 20.00    -0.159 F 
HETATM   10  F10 UNL     1     -31.157   4.819   1.902  1.00 20.00    -0.159 F 
ENDBRANCH   2   7
TORSDOF 2
ENDMDL
MODEL 5
REMARK VINA RESULT:      -2.9      2.671      4.173
REMARK  2 active torsions:
REMARK  status: ('A' for Active; 'I' for Inactive)
REMARK    1  A    between atoms: C1_1  and  C3_3 
REMARK    2  A    between atoms: C2_2  and  C4_4 
ROOT
HETATM    1  C1  UNL     1     -33.638   4.124   4.389  1.00 20.00     0.017 C 
HETATM    2  C2  UNL     1     -34.169   5.156   4.084  1.00 20.00     0.017 C 
ENDROOT
BRANCH   1   3
HETATM    3  C3  UNL     1     -32.996   2.875   4.760  1.00 20.00     0.459 C 
HETATM    4  F5  UNL     1     -32.770   2.827   6.092  1.00 20.00    -0.159 F 
HETATM    5  F6  UNL     1     -33.770   1.818   4.427  1.00 20.00    -0.159 F 
HETATM    6  F7  UNL     1     -31.809   2.738   4.129  1.00 20.00    -0.159 F 
ENDBRANCH   1   3
BRANCH   2   7
HETATM    7  C4  UNL     1     -34.812   6.403   3.713  1.00 20.00     0.459 C 
HETATM    8  F8  UNL     1     -36.150   6.242   3.605  1.00 20.00    -0.159 F 
HETATM    9  F9  UNL     1     -34.347   6.851   2.526  1.00 20.00    -0.159 F 
HETATM   10  F10 UNL     1     -34.581   7.358   4.641  1.00 20.00    -0.159 F 
ENDBRANCH   2   7
TORSDOF 2
ENDMDL
MODEL 6
REMARK VINA RESULT:      -2.9      2.671      4.535
REMARK  2 active torsions:
REMARK  status: ('A' for Active; 'I' for Inactive)
REMARK    1  A    between atoms: C1_1  and  C3_3 
REMARK    2  A    between atoms: C2_2  and  C4_4 
ROOT
HETATM    1  C1  UNL     1     -34.174   5.153   4.086  1.00 20.00     0.017 C 
HETATM    2  C2  UNL     1     -33.642   4.122   4.393  1.00 20.00     0.017 C 
ENDROOT
BRANCH   1   3
HETATM    3  C3  UNL     1     -34.816   6.401   3.714  1.00 20.00     0.459 C 
HETATM    4  F5  UNL     1     -36.154   6.240   3.605  1.00 20.00    -0.159 F 
HETATM    5  F6  UNL     1     -34.584   7.357   4.641  1.00 20.00    -0.159 F 
HETATM    6  F7  UNL     1     -34.350   6.848   2.528  1.00 20.00    -0.159 F 
ENDBRANCH   1   3
BRANCH   2   7
HETATM    7  C4  UNL     1     -32.998   2.875   4.764  1.00 20.00     0.459 C 
HETATM    8  F8  UNL     1     -33.766   1.816   4.425  1.00 20.00    -0.159 F 
HETATM    9  F9  UNL     1     -32.778   2.824   6.096  1.00 20.00    -0.159 F 
HETATM   10  F10 UNL     1     -31.807   2.744   4.138  1.00 20.00    -0.159 F 
ENDBRANCH   2   7
TORSDOF 2
ENDMDL
MODEL 7
REMARK VINA RESULT:      -2.9      1.852      4.794
REMARK  2 active torsions:
REMARK  status: ('A' for Active; 'I' for Inactive)
REMARK    1  A    between atoms: C1_1  and  C3_3 
REMARK    2  A    between atoms: C2_2  and  C4_4 
ROOT
HETATM    1  C1  UNL     1     -32.701   8.714   1.440  1.00 20.00     0.017 C 
HETATM    2  C2  UNL     1     -33.106   8.079   2.375  1.00 20.00     0.017 C 
ENDROOT
BRANCH   1   3
HETATM    3  C3  UNL     1     -32.213   9.483   0.310  1.00 20.00     0.459 C 
HETATM    4  F5  UNL     1     -30.965   9.093  -0.035  1.00 20.00    -0.159 F 
HETATM    5  F6  UNL     1     -33.014   9.321  -0.766  1.00 20.00    -0.159 F 
HETATM    6  F7  UNL     1     -32.172  10.801   0.605  1.00 20.00    -0.159 F 
ENDBRANCH   1   3
BRANCH   2   7
HETATM    7  C4  UNL     1     -33.595   7.312   3.506  1.00 20.00     0.459 C 
HETATM    8  F8  UNL     1     -34.918   7.517   3.692  1.00 20.00    -0.159 F 
HETATM    9  F9  UNL     1     -32.953   7.665   4.641  1.00 20.00    -0.159 F 
HETATM   10  F10 UNL     1     -33.402   5.989   3.310  1.00 20.00    -0.159 F 
ENDBRANCH   2   7
TORSDOF 2
ENDMDL
MODEL 8
REMARK VINA RESULT:      -2.9      1.852      2.609
REMARK  2 active torsions:
REMARK  status: ('A' for Active; 'I' for Inactive)
REMARK    1  A    between atoms: C1_1  and  C3_3 
REMARK    2  A    between atoms: C2_2  and  C4_4 
ROOT
HETATM    1  C1  UNL     1     -33.098   8.073   2.368  1.00 20.00     0.017 C 
HETATM    2  C2  UNL     1     -32.692   8.706   1.433  1.00 20.00     0.017 C 
ENDROOT
BRANCH   1   3
HETATM    3  C3  UNL     1     -33.589   7.307   3.500  1.00 20.00     0.459 C 
HETATM    4  F5  UNL     1     -32.937   7.651   4.633  1.00 20.00    -0.159 F 
HETATM    5  F6  UNL     1     -34.909   7.526   3.694  1.00 20.00    -0.159 F 
HETATM    6  F7  UNL     1     -33.411   5.983   3.299  1.00 20.00    -0.159 F 
ENDBRANCH   1   3
BRANCH   2   7
HETATM    7  C4  UNL     1     -32.203   9.473   0.302  1.00 20.00     0.459 C 
HETATM    8  F8  UNL     1     -33.002   9.308  -0.775  1.00 20.00    -0.159 F 
HETATM    9  F9  UNL     1     -30.954   9.084  -0.040  1.00 20.00    -0.159 F 
HETATM   10  F10 UNL     1     -32.164  10.792   0.595  1.00 20.00    -0.159 F 
ENDBRANCH   2   7
TORSDOF 2
ENDMDL
MODEL 9
REMARK VINA RESULT:      -2.4      2.491      3.661
REMARK  2 active torsions:
REMARK  status: ('A' for Active; 'I' for Inactive)
REMARK    1  A    between atoms: C1_1  and  C3_3 
REMARK    2  A    between atoms: C2_2  and  C4_4 
ROOT
HETATM    1  C1  UNL     1     -32.573   7.488   1.140  1.00 20.00     0.017 C 
HETATM    2  C2  UNL     1     -32.499   8.612   0.725  1.00 20.00     0.017 C 
ENDROOT
BRANCH   1   3
HETATM    3  C3  UNL     1     -32.664   6.128   1.641  1.00 20.00     0.459 C 
HETATM    4  F5  UNL     1     -31.434   5.621   1.883  1.00 20.00    -0.159 F 
HETATM    5  F6  UNL     1     -33.368   6.086   2.793  1.00 20.00    -0.159 F 
HETATM    6  F7  UNL     1     -33.279   5.325   0.746  1.00 20.00    -0.159 F 
ENDBRANCH   1   3
BRANCH   2   7
HETATM    7  C4  UNL     1     -32.408   9.970   0.222  1.00 20.00     0.459 C 
HETATM    8  F8  UNL     1     -31.196  10.201  -0.328  1.00 20.00    -0.159 F 
HETATM    9  F9  UNL     1     -32.595  10.866   1.217  1.00 20.00    -0.159 F 
HETATM   10  F10 UNL     1     -33.346  10.196  -0.725  1.00 20.00    -0.159 F 
ENDBRANCH   2   7
TORSDOF 2
ENDMDL
