MODEL 1
REMARK VINA RESULT:      -3.1      0.000      0.000
REMARK  2 active torsions:
REMARK  status: ('A' for Active; 'I' for Inactive)
REMARK    1  A    between atoms: C1_1  and  C2_2 
REMARK    2  A    between atoms: C2_2  and  C3_3 
ROOT
HETATM    1  C3  UNL     1     -34.903   6.333   3.845  1.00 20.00     0.393 C 
HETATM    2  F5  UNL     1     -33.991   6.338   2.850  1.00 20.00    -0.171 F 
HETATM    3  F6  UNL     1     -36.101   6.641   3.300  1.00 20.00    -0.171 F 
HETATM    4  F7  UNL     1     -34.586   7.316   4.714  1.00 20.00    -0.171 F 
ENDROOT
BRANCH   1   5
HETATM    5  C2  UNL     1     -34.968   4.989   4.530  1.00 20.00     0.186 C 
BRANCH   5   6
HETATM    6  C1  UNL     1     -33.899   4.034   4.059  1.00 20.00     0.239 C 
HETATM    7  O4  UNL     1     -33.404   3.145   4.742  1.00 20.00    -0.307 OA
ENDBRANCH   5   6
ENDBRANCH   1   5
TORSDOF 2
ENDMDL
MODEL 2
REMARK VINA RESULT:      -3.1      0.020      1.428
REMARK  2 active torsions:
REMARK  status: ('A' for Active; 'I' for Inactive)
REMARK    1  A    between atoms: C1_1  and  C2_2 
REMARK    2  A    between atoms: C2_2  and  C3_3 
ROOT
HETATM    1  C3  UNL     1     -34.925   6.328   3.838  1.00 20.00     0.393 C 
HETATM    2  F5  UNL     1     -34.590   7.321   4.690  1.00 20.00    -0.171 F 
HETATM    3  F6  UNL     1     -34.002   6.312   2.851  1.00 20.00    -0.171 F 
HETATM    4  F7  UNL     1     -36.114   6.634   3.280  1.00 20.00    -0.171 F 
ENDROOT
BRANCH   1   5
HETATM    5  C2  UNL     1     -34.969   4.991   4.537  1.00 20.00     0.186 C 
BRANCH   5   6
HETATM    6  C1  UNL     1     -33.905   4.035   4.055  1.00 20.00     0.239 C 
HETATM    7  O4  UNL     1     -33.408   3.143   4.731  1.00 20.00    -0.307 OA
ENDBRANCH   5   6
ENDBRANCH   1   5
TORSDOF 2
ENDMDL
MODEL 3
REMARK VINA RESULT:      -3.1      0.016      1.424
REMARK  2 active torsions:
REMARK  status: ('A' for Active; 'I' for Inactive)
REMARK    1  A    between atoms: C1_1  and  C2_2 
REMARK    2  A    between atoms: C2_2  and  C3_3 
ROOT
HETATM    1  C3  UNL     1     -34.919   6.326   3.832  1.00 20.00     0.393 C 
HETATM    2  F5  UNL     1     -36.111   6.640   3.281  1.00 20.00    -0.171 F 
HETATM    3  F6  UNL     1     -34.605   7.306   4.708  1.00 20.00    -0.171 F 
HETATM    4  F7  UNL     1     -33.987   6.337   2.857  1.00 20.00    -0.171 F 
ENDROOT
BRANCH   1   5
HETATM    5  C2  UNL     1     -34.969   4.990   4.534  1.00 20.00     0.186 C 
BRANCH   5   6
HETATM    6  C1  UNL     1     -33.909   4.029   4.053  1.00 20.00     0.239 C 
HETATM    7  O4  UNL     1     -33.403   3.147   4.737  1.00 20.00    -0.307 OA
ENDBRANCH   5   6
ENDBRANCH   1   5
TORSDOF 2
ENDMDL
MODEL 4
REMARK VINA RESULT:      -2.8      2.589      3.036
REMARK  2 active torsions:
REMARK  status: ('A' for Active; 'I' for Inactive)
REMARK    1  A    between atoms: C1_1  and  C2_2 
REMARK    2  A    between atoms: C2_2  and  C3_3 
ROOT
HETATM    1  C3  UNL     1     -34.743   6.459   3.761  1.00 20.00     0.393 C 
HETATM    2  F5  UNL     1     -35.987   6.682   3.286  1.00 20.00    -0.171 F 
HETATM    3  F6  UNL     1     -34.771   5.292   4.442  1.00 20.00    -0.171 F 
HETATM    4  F7  UNL     1     -34.446   7.437   4.642  1.00 20.00    -0.171 F 
ENDROOT
BRANCH   1   5
HETATM    5  C2  UNL     1     -33.728   6.392   2.645  1.00 20.00     0.186 C 
BRANCH   5   6
HETATM    6  C1  UNL     1     -32.803   7.584   2.615  1.00 20.00     0.239 C 
HETATM    7  O4  UNL     1     -31.924   7.766   1.781  1.00 20.00    -0.307 OA
ENDBRANCH   5   6
ENDBRANCH   1   5
TORSDOF 2
ENDMDL
MODEL 5
REMARK VINA RESULT:      -2.8      2.662      3.207
REMARK  2 active torsions:
REMARK  status: ('A' for Active; 'I' for Inactive)
REMARK    1  A    between atoms: C1_1  and  C2_2 
REMARK    2  A    between atoms: C2_2  and  C3_3 
ROOT
HETATM    1  C3  UNL     1     -34.580   6.463   3.705  1.00 20.00     0.393 C 
HETATM    2  F5  UNL     1     -34.560   5.313   4.413  1.00 20.00    -0.171 F 
HETATM    3  F6  UNL     1     -34.279   7.470   4.555  1.00 20.00    -0.171 F 
HETATM    4  F7  UNL     1     -35.838   6.665   3.263  1.00 20.00    -0.171 F 
ENDROOT
BRANCH   1   5
HETATM    5  C2  UNL     1     -33.592   6.426   2.564  1.00 20.00     0.186 C 
BRANCH   5   6
HETATM    6  C1  UNL     1     -32.691   7.636   2.523  1.00 20.00     0.239 C 
HETATM    7  O4  UNL     1     -31.808   7.824   1.693  1.00 20.00    -0.307 OA
ENDBRANCH   5   6
ENDBRANCH   1   5
TORSDOF 2
ENDMDL
MODEL 6
REMARK VINA RESULT:      -2.8      2.722      3.161
REMARK  2 active torsions:
REMARK  status: ('A' for Active; 'I' for Inactive)
REMARK    1  A    between atoms: C1_1  and  C2_2 
REMARK    2  A    between atoms: C2_2  and  C3_3 
ROOT
HETATM    1  C3  UNL     1     -34.542   6.497   3.675  1.00 20.00     0.393 C 
HETATM    2  F5  UNL     1     -34.257   7.496   4.539  1.00 20.00    -0.171 F 
HETATM    3  F6  UNL     1     -35.828   6.648   3.290  1.00 20.00    -0.171 F 
HETATM    4  F7  UNL     1     -34.450   5.326   4.339  1.00 20.00    -0.171 F 
ENDROOT
BRANCH   1   5
HETATM    5  C2  UNL     1     -33.627   6.526   2.475  1.00 20.00     0.186 C 
BRANCH   5   6
HETATM    6  C1  UNL     1     -32.635   7.662   2.514  1.00 20.00     0.239 C 
HETATM    7  O4  UNL     1     -31.918   7.998   1.579  1.00 20.00    -0.307 OA
ENDBRANCH   5   6
ENDBRANCH   1   5
TORSDOF 2
ENDMDL
MODEL 7
REMARK VINA RESULT:      -2.7      3.336      3.912
REMARK  2 active torsions:
REMARK  status: ('A' for Active; 'I' for Inactive)
REMARK    1  A    between atoms: C1_1  and  C2_2 
REMARK    2  A    between atoms: C2_2  and  C3_3 
ROOT
HETATM    1  C3  UNL     1     -32.151   7.892   2.084  1.00 20.00     0.393 C 
HETATM    2  F5  UNL     1     -31.663   8.431   3.222  1.00 20.00    -0.171 F 
HETATM    3  F6  UNL     1     -31.128   7.270   1.457  1.00 20.00    -0.171 F 
HETATM    4  F7  UNL     1     -32.567   8.897   1.285  1.00 20.00    -0.171 F 
ENDROOT
BRANCH   1   5
HETATM    5  C2  UNL     1     -33.266   6.914   2.368  1.00 20.00     0.186 C 
BRANCH   5   6
HETATM    6  C1  UNL     1     -34.029   7.238   3.629  1.00 20.00     0.239 C 
HETATM    7  O4  UNL     1     -35.035   6.649   4.009  1.00 20.00    -0.307 OA
ENDBRANCH   5   6
ENDBRANCH   1   5
TORSDOF 2
ENDMDL
MODEL 8
REMARK VINA RESULT:      -2.7      3.333      3.909
REMARK  2 active torsions:
REMARK  status: ('A' for Active; 'I' for Inactive)
REMARK    1  A    between atoms: C1_1  and  C2_2 
REMARK    2  A    between atoms: C2_2  and  C3_3 
ROOT
HETATM    1  C3  UNL     1     -32.148   7.891   2.063  1.00 20.00     0.393 C 
HETATM    2  F5  UNL     1     -32.558   8.909   1.275  1.00 20.00    -0.171 F 
HETATM    3  F6  UNL     1     -31.689   8.428   3.215  1.00 20.00    -0.171 F 
HETATM    4  F7  UNL     1     -31.109   7.280   1.456  1.00 20.00    -0.171 F 
ENDROOT
BRANCH   1   5
HETATM    5  C2  UNL     1     -33.271   6.923   2.345  1.00 20.00     0.186 C 
BRANCH   5   6
HETATM    6  C1  UNL     1     -34.008   7.229   3.626  1.00 20.00     0.239 C 
HETATM    7  O4  UNL     1     -35.021   6.653   4.005  1.00 20.00    -0.307 OA
ENDBRANCH   5   6
ENDBRANCH   1   5
TORSDOF 2
ENDMDL
MODEL 9
REMARK VINA RESULT:      -2.6      2.219      2.701
REMARK  2 active torsions:
REMARK  status: ('A' for Active; 'I' for Inactive)
REMARK    1  A    between atoms: C1_1  and  C2_2 
REMARK    2  A    between atoms: C2_2  and  C3_3 
ROOT
HETATM    1  C3  UNL     1     -34.487   6.589   3.691  1.00 20.00     0.393 C 
HETATM    2  F5  UNL     1     -34.227   5.339   4.131  1.00 20.00    -0.171 F 
HETATM    3  F6  UNL     1     -34.358   7.425   4.744  1.00 20.00    -0.171 F 
HETATM    4  F7  UNL     1     -35.774   6.636   3.288  1.00 20.00    -0.171 F 
ENDROOT
BRANCH   1   5
HETATM    5  C2  UNL     1     -33.546   6.992   2.582  1.00 20.00     0.186 C 
BRANCH   5   6
HETATM    6  C1  UNL     1     -33.064   5.821   1.760  1.00 20.00     0.239 C 
HETATM    7  O4  UNL     1     -31.901   5.633   1.424  1.00 20.00    -0.307 OA
ENDBRANCH   5   6
ENDBRANCH   1   5
TORSDOF 2
ENDMDL
