MODEL 1
REMARK VINA RESULT:      -1.5      0.000      0.000
REMARK  3 active torsions:
REMARK  status: ('A' for Active; 'I' for Inactive)
REMARK    1  A    between atoms: C1_1  and  C10_10 
REMARK    2  A    between atoms: C2_2  and  C8_8 
REMARK    3  A    between atoms: C9_9  and  C10_10 
ROOT
HETATM    1  C1  UNL     1     -33.391   7.223   2.477  1.00 20.00    -0.016 C 
HETATM    2  C2  UNL     1     -34.061   7.149   3.648  1.00 20.00    -0.087 C 
HETATM    3  C3  UNL     1     -33.741   8.140   4.743  1.00 20.00     0.043 C 
ENDROOT
BRANCH   1   4
HETATM    4  C10 UNL     1     -32.296   8.173   1.994  1.00 20.00    -0.030 C 
HETATM    5  C6  UNL     1     -31.344   8.515   3.158  1.00 20.00     0.019 C 
HETATM    6  C7  UNL     1     -31.447   7.422   0.937  1.00 20.00     0.019 C 
BRANCH   4   7
HETATM    7  C9  UNL     1     -32.830   9.487   1.359  1.00 20.00     0.008 C 
HETATM    8  C5  UNL     1     -32.347   9.771  -0.060  1.00 20.00     0.006 C 
ENDBRANCH   4   7
ENDBRANCH   1   4
BRANCH   2   9
HETATM    9  C8  UNL     1     -35.168   6.179   3.990  1.00 20.00     0.029 C 
HETATM   10  C4  UNL     1     -34.662   4.772   4.276  1.00 20.00     0.010 C 
ENDBRANCH   2   9
TORSDOF 3
ENDMDL
MODEL 2
REMARK VINA RESULT:      -1.1      0.984      4.604
REMARK  3 active torsions:
REMARK  status: ('A' for Active; 'I' for Inactive)
REMARK    1  A    between atoms: C1_1  and  C10_10 
REMARK    2  A    between atoms: C2_2  and  C8_8 
REMARK    3  A    between atoms: C9_9  and  C10_10 
ROOT
HETATM    1  C1  UNL     1     -33.167   7.858   2.682  1.00 20.00    -0.016 C 
HETATM    2  C2  UNL     1     -32.390   7.516   1.631  1.00 20.00    -0.087 C 
HETATM    3  C3  UNL     1     -32.261   6.058   1.256  1.00 20.00     0.043 C 
ENDROOT
BRANCH   1   4
HETATM    4  C10 UNL     1     -34.005   7.014   3.640  1.00 20.00    -0.030 C 
HETATM    5  C6  UNL     1     -33.965   7.625   5.055  1.00 20.00     0.019 C 
HETATM    6  C7  UNL     1     -35.481   7.088   3.171  1.00 20.00     0.019 C 
BRANCH   4   7
HETATM    7  C9  UNL     1     -33.581   5.521   3.709  1.00 20.00     0.008 C 
HETATM    8  C5  UNL     1     -34.602   4.579   4.339  1.00 20.00     0.006 C 
ENDBRANCH   4   7
ENDBRANCH   1   4
BRANCH   2   9
HETATM    9  C8  UNL     1     -31.639   8.461   0.723  1.00 20.00     0.029 C 
HETATM   10  C4  UNL     1     -32.446   9.697   0.349  1.00 20.00     0.010 C 
ENDBRANCH   2   9
TORSDOF 3
ENDMDL
MODEL 3
REMARK VINA RESULT:      -1.0      1.517      2.348
REMARK  3 active torsions:
REMARK  status: ('A' for Active; 'I' for Inactive)
REMARK    1  A    between atoms: C1_1  and  C10_10 
REMARK    2  A    between atoms: C2_2  and  C8_8 
REMARK    3  A    between atoms: C9_9  and  C10_10 
ROOT
HETATM    1  C1  UNL     1     -33.118   5.169   2.692  1.00 20.00    -0.016 C 
HETATM    2  C2  UNL     1     -34.045   5.263   3.669  1.00 20.00    -0.087 C 
HETATM    3  C3  UNL     1     -34.865   6.526   3.787  1.00 20.00     0.043 C 
ENDROOT
BRANCH   1   4
HETATM    4  C10 UNL     1     -32.696   6.149   1.598  1.00 20.00    -0.030 C 
HETATM    5  C6  UNL     1     -31.473   5.597   0.838  1.00 20.00     0.019 C 
HETATM    6  C7  UNL     1     -33.851   6.237   0.567  1.00 20.00     0.019 C 
BRANCH   4   7
HETATM    7  C9  UNL     1     -32.382   7.581   2.113  1.00 20.00     0.008 C 
HETATM    8  C5  UNL     1     -32.056   8.608   1.034  1.00 20.00     0.006 C 
ENDBRANCH   4   7
ENDBRANCH   1   4
BRANCH   2   9
HETATM    9  C8  UNL     1     -34.403   4.192   4.674  1.00 20.00     0.029 C 
HETATM   10  C4  UNL     1     -33.407   3.041   4.700  1.00 20.00     0.010 C 
ENDBRANCH   2   9
TORSDOF 3
ENDMDL
MODEL 4
REMARK VINA RESULT:      -0.6      0.741      2.066
REMARK  3 active torsions:
REMARK  status: ('A' for Active; 'I' for Inactive)
REMARK    1  A    between atoms: C1_1  and  C10_10 
REMARK    2  A    between atoms: C2_2  and  C8_8 
REMARK    3  A    between atoms: C9_9  and  C10_10 
ROOT
HETATM    1  C1  UNL     1     -33.529   7.131   2.484  1.00 20.00    -0.016 C 
HETATM    2  C2  UNL     1     -34.135   7.187   3.689  1.00 20.00    -0.087 C 
HETATM    3  C3  UNL     1     -33.552   8.074   4.765  1.00 20.00     0.043 C 
ENDROOT
BRANCH   1   4
HETATM    4  C10 UNL     1     -32.285   7.832   1.940  1.00 20.00    -0.030 C 
HETATM    5  C6  UNL     1     -32.697   9.001   1.023  1.00 20.00     0.019 C 
HETATM    6  C7  UNL     1     -31.531   8.460   3.141  1.00 20.00     0.019 C 
BRANCH   4   7
HETATM    7  C9  UNL     1     -31.309   6.894   1.177  1.00 20.00     0.008 C 
HETATM    8  C5  UNL     1     -31.758   5.442   1.055  1.00 20.00     0.006 C 
ENDBRANCH   4   7
ENDBRANCH   1   4
BRANCH   2   9
HETATM    9  C8  UNL     1     -35.403   6.470   4.093  1.00 20.00     0.029 C 
HETATM   10  C4  UNL     1     -35.172   5.012   4.466  1.00 20.00     0.010 C 
ENDBRANCH   2   9
TORSDOF 3
ENDMDL
MODEL 5
REMARK VINA RESULT:      -0.6      0.758      1.207
REMARK  3 active torsions:
REMARK  status: ('A' for Active; 'I' for Inactive)
REMARK    1  A    between atoms: C1_1  and  C10_10 
REMARK    2  A    between atoms: C2_2  and  C8_8 
REMARK    3  A    between atoms: C9_9  and  C10_10 
ROOT
HETATM    1  C1  UNL     1     -33.476   7.901   2.885  1.00 20.00    -0.016 C 
HETATM    2  C2  UNL     1     -33.980   6.673   3.131  1.00 20.00    -0.087 C 
HETATM    3  C3  UNL     1     -33.335   5.469   2.485  1.00 20.00     0.043 C 
ENDROOT
BRANCH   1   4
HETATM    4  C10 UNL     1     -32.298   8.360   2.026  1.00 20.00    -0.030 C 
HETATM    5  C6  UNL     1     -31.043   8.538   2.903  1.00 20.00     0.019 C 
HETATM    6  C7  UNL     1     -31.975   7.227   1.018  1.00 20.00     0.019 C 
BRANCH   4   7
HETATM    7  C9  UNL     1     -32.564   9.669   1.231  1.00 20.00     0.008 C 
HETATM    8  C5  UNL     1     -32.301   9.588  -0.269  1.00 20.00     0.006 C 
ENDBRANCH   4   7
ENDBRANCH   1   4
BRANCH   2   9
HETATM    9  C8  UNL     1     -35.135   6.343   4.048  1.00 20.00     0.029 C 
HETATM   10  C4  UNL     1     -35.120   4.899   4.530  1.00 20.00     0.010 C 
ENDBRANCH   2   9
TORSDOF 3
ENDMDL
MODEL 6
REMARK VINA RESULT:      -0.6      1.429      3.061
REMARK  3 active torsions:
REMARK  status: ('A' for Active; 'I' for Inactive)
REMARK    1  A    between atoms: C1_1  and  C10_10 
REMARK    2  A    between atoms: C2_2  and  C8_8 
REMARK    3  A    between atoms: C9_9  and  C10_10 
ROOT
HETATM    1  C1  UNL     1     -33.405   5.795   3.525  1.00 20.00    -0.016 C 
HETATM    2  C2  UNL     1     -34.077   4.743   4.040  1.00 20.00    -0.087 C 
HETATM    3  C3  UNL     1     -35.415   4.977   4.702  1.00 20.00     0.043 C 
ENDROOT
BRANCH   1   4
HETATM    4  C10 UNL     1     -33.743   7.284   3.467  1.00 20.00    -0.030 C 
HETATM    5  C6  UNL     1     -35.249   7.472   3.195  1.00 20.00     0.019 C 
HETATM    6  C7  UNL     1     -33.470   7.889   4.868  1.00 20.00     0.019 C 
BRANCH   4   7
HETATM    7  C9  UNL     1     -32.923   8.081   2.415  1.00 20.00     0.008 C 
HETATM    8  C5  UNL     1     -31.960   7.253   1.571  1.00 20.00     0.006 C 
ENDBRANCH   4   7
ENDBRANCH   1   4
BRANCH   2   9
HETATM    9  C8  UNL     1     -33.651   3.294   3.992  1.00 20.00     0.029 C 
HETATM   10  C4  UNL     1     -32.840   2.870   5.210  1.00 20.00     0.010 C 
ENDBRANCH   2   9
TORSDOF 3
ENDMDL
MODEL 7
REMARK VINA RESULT:      -0.5      1.368      4.418
REMARK  3 active torsions:
REMARK  status: ('A' for Active; 'I' for Inactive)
REMARK    1  A    between atoms: C1_1  and  C10_10 
REMARK    2  A    between atoms: C2_2  and  C8_8 
REMARK    3  A    between atoms: C9_9  and  C10_10 
ROOT
HETATM    1  C1  UNL     1     -33.653   6.008   2.552  1.00 20.00    -0.016 C 
HETATM    2  C2  UNL     1     -32.690   6.746   1.960  1.00 20.00    -0.087 C 
HETATM    3  C3  UNL     1     -32.435   8.153   2.449  1.00 20.00     0.043 C 
ENDROOT
BRANCH   1   4
HETATM    4  C10 UNL     1     -34.610   6.323   3.700  1.00 20.00    -0.030 C 
HETATM    5  C6  UNL     1     -34.027   7.449   4.579  1.00 20.00     0.019 C 
HETATM    6  C7  UNL     1     -35.922   6.877   3.088  1.00 20.00     0.019 C 
BRANCH   4   7
HETATM    7  C9  UNL     1     -34.958   5.099   4.592  1.00 20.00     0.008 C 
HETATM    8  C5  UNL     1     -34.035   3.894   4.437  1.00 20.00     0.006 C 
ENDBRANCH   4   7
ENDBRANCH   1   4
BRANCH   2   9
HETATM    9  C8  UNL     1     -31.768   6.298   0.849  1.00 20.00     0.029 C 
HETATM   10  C4  UNL     1     -31.674   4.783   0.726  1.00 20.00     0.010 C 
ENDBRANCH   2   9
TORSDOF 3
ENDMDL
MODEL 8
REMARK VINA RESULT:      -0.5      0.965      4.552
REMARK  3 active torsions:
REMARK  status: ('A' for Active; 'I' for Inactive)
REMARK    1  A    between atoms: C1_1  and  C10_10 
REMARK    2  A    between atoms: C2_2  and  C8_8 
REMARK    3  A    between atoms: C9_9  and  C10_10 
ROOT
HETATM    1  C1  UNL     1     -33.493   8.100   2.104  1.00 20.00    -0.016 C 
HETATM    2  C2  UNL     1     -32.400   8.407   1.373  1.00 20.00    -0.087 C 
HETATM    3  C3  UNL     1     -31.083   7.745   1.704  1.00 20.00     0.043 C 
ENDROOT
BRANCH   1   4
HETATM    4  C10 UNL     1     -33.688   7.149   3.284  1.00 20.00    -0.030 C 
HETATM    5  C6  UNL     1     -32.995   5.801   2.996  1.00 20.00     0.019 C 
HETATM    6  C7  UNL     1     -32.968   7.761   4.512  1.00 20.00     0.019 C 
BRANCH   4   7
HETATM    7  C9  UNL     1     -35.176   6.896   3.656  1.00 20.00     0.008 C 
HETATM    8  C5  UNL     1     -35.461   5.566   4.346  1.00 20.00     0.006 C 
ENDBRANCH   4   7
ENDBRANCH   1   4
BRANCH   2   9
HETATM    9  C8  UNL     1     -32.346   9.341   0.186  1.00 20.00     0.029 C 
HETATM   10  C4  UNL     1     -32.749  10.769   0.531  1.00 20.00     0.010 C 
ENDBRANCH   2   9
TORSDOF 3
ENDMDL
MODEL 9
REMARK VINA RESULT:      -0.3      1.461      4.289
REMARK  3 active torsions:
REMARK  status: ('A' for Active; 'I' for Inactive)
REMARK    1  A    between atoms: C1_1  and  C10_10 
REMARK    2  A    between atoms: C2_2  and  C8_8 
REMARK    3  A    between atoms: C9_9  and  C10_10 
ROOT
HETATM    1  C1  UNL     1     -32.952   7.403   1.114  1.00 20.00    -0.016 C 
HETATM    2  C2  UNL     1     -32.257   8.485   1.526  1.00 20.00    -0.087 C 
HETATM    3  C3  UNL     1     -31.267   8.337   2.657  1.00 20.00     0.043 C 
ENDROOT
BRANCH   1   4
HETATM    4  C10 UNL     1     -32.943   5.951   1.589  1.00 20.00    -0.030 C 
HETATM    5  C6  UNL     1     -33.767   5.074   0.624  1.00 20.00     0.019 C 
HETATM    6  C7  UNL     1     -31.483   5.435   1.515  1.00 20.00     0.019 C 
BRANCH   4   7
HETATM    7  C9  UNL     1     -33.465   5.754   3.040  1.00 20.00     0.008 C 
HETATM    8  C5  UNL     1     -34.536   6.743   3.489  1.00 20.00     0.006 C 
ENDBRANCH   4   7
ENDBRANCH   1   4
BRANCH   2   9
HETATM    9  C8  UNL     1     -32.324   9.874   0.935  1.00 20.00     0.029 C 
HETATM   10  C4  UNL     1     -32.701   9.878  -0.540  1.00 20.00     0.010 C 
ENDBRANCH   2   9
TORSDOF 3
ENDMDL
