MODEL 1
REMARK VINA RESULT:      -3.0      0.000      0.000
REMARK  2 active torsions:
REMARK  status: ('A' for Active; 'I' for Inactive)
REMARK    1  A    between atoms: C1_1  and  C2_2 
REMARK    2  A    between atoms: C1_1  and  C3_3 
ROOT
HETATM    1  C3  UNL     1     -32.117   7.922   1.964  1.00 20.00     0.321 C 
HETATM    2  F4  UNL     1     -31.643   8.475   3.112  1.00 20.00    -0.188 F 
HETATM    3  F5  UNL     1     -31.138   7.105   1.501  1.00 20.00    -0.188 F 
HETATM    4 CL7  UNL     1     -32.425   9.209   0.788  1.00 20.00    -0.048 Cl
ENDROOT
BRANCH   1   5
HETATM    5  C1  UNL     1     -33.357   7.101   2.292  1.00 20.00     0.112 C 
BRANCH   5   6
HETATM    6  C2  UNL     1     -33.908   7.363   3.688  1.00 20.00     0.122 C 
HETATM    7 CL6  UNL     1     -35.288   6.286   4.018  1.00 20.00    -0.130 Cl
ENDBRANCH   5   6
ENDBRANCH   1   5
TORSDOF 2
ENDMDL
MODEL 2
REMARK VINA RESULT:      -2.9      3.335      3.965
REMARK  2 active torsions:
REMARK  status: ('A' for Active; 'I' for Inactive)
REMARK    1  A    between atoms: C1_1  and  C2_2 
REMARK    2  A    between atoms: C1_1  and  C3_3 
ROOT
HETATM    1  C3  UNL     1     -34.823   6.379   3.832  1.00 20.00     0.321 C 
HETATM    2  F4  UNL     1     -36.052   6.622   3.304  1.00 20.00    -0.188 F 
HETATM    3  F5  UNL     1     -34.623   7.324   4.785  1.00 20.00    -0.188 F 
HETATM    4 CL7  UNL     1     -33.604   6.551   2.558  1.00 20.00    -0.048 Cl
ENDROOT
BRANCH   1   5
HETATM    5  C1  UNL     1     -34.829   4.998   4.472  1.00 20.00     0.112 C 
BRANCH   5   6
HETATM    6  C2  UNL     1     -33.881   4.012   3.802  1.00 20.00     0.122 C 
HETATM    7 CL6  UNL     1     -33.130   2.952   5.020  1.00 20.00    -0.130 Cl
ENDBRANCH   5   6
ENDBRANCH   1   5
TORSDOF 2
ENDMDL
MODEL 3
REMARK VINA RESULT:      -2.9      3.244      3.971
REMARK  2 active torsions:
REMARK  status: ('A' for Active; 'I' for Inactive)
REMARK    1  A    between atoms: C1_1  and  C2_2 
REMARK    2  A    between atoms: C1_1  and  C3_3 
ROOT
HETATM    1  C3  UNL     1     -34.693   6.330   3.736  1.00 20.00     0.321 C 
HETATM    2  F4  UNL     1     -33.961   6.190   2.599  1.00 20.00    -0.188 F 
HETATM    3  F5  UNL     1     -35.954   6.641   3.343  1.00 20.00    -0.188 F 
HETATM    4 CL7  UNL     1     -34.022   7.659   4.694  1.00 20.00    -0.048 Cl
ENDROOT
BRANCH   1   5
HETATM    5  C1  UNL     1     -34.702   5.001   4.479  1.00 20.00     0.112 C 
BRANCH   5   6
HETATM    6  C2  UNL     1     -33.848   3.927   3.816  1.00 20.00     0.122 C 
HETATM    7 CL6  UNL     1     -33.051   2.922   5.051  1.00 20.00    -0.130 Cl
ENDBRANCH   5   6
ENDBRANCH   1   5
TORSDOF 2
ENDMDL
MODEL 4
REMARK VINA RESULT:      -2.7      1.979      2.126
REMARK  2 active torsions:
REMARK  status: ('A' for Active; 'I' for Inactive)
REMARK    1  A    between atoms: C1_1  and  C2_2 
REMARK    2  A    between atoms: C1_1  and  C3_3 
ROOT
HETATM    1  C3  UNL     1     -32.616   6.095   1.542  1.00 20.00     0.321 C 
HETATM    2  F4  UNL     1     -31.618   5.221   1.245  1.00 20.00    -0.188 F 
HETATM    3  F5  UNL     1     -33.518   6.003   0.532  1.00 20.00    -0.188 F 
HETATM    4 CL7  UNL     1     -31.948   7.734   1.596  1.00 20.00    -0.048 Cl
ENDROOT
BRANCH   1   5
HETATM    5  C1  UNL     1     -33.266   5.670   2.851  1.00 20.00     0.112 C 
BRANCH   5   6
HETATM    6  C2  UNL     1     -34.073   6.777   3.517  1.00 20.00     0.122 C 
HETATM    7 CL6  UNL     1     -35.585   6.120   4.191  1.00 20.00    -0.130 Cl
ENDBRANCH   5   6
ENDBRANCH   1   5
TORSDOF 2
ENDMDL
MODEL 5
REMARK VINA RESULT:      -2.7      2.605      4.139
REMARK  2 active torsions:
REMARK  status: ('A' for Active; 'I' for Inactive)
REMARK    1  A    between atoms: C1_1  and  C2_2 
REMARK    2  A    between atoms: C1_1  and  C3_3 
ROOT
HETATM    1  C3  UNL     1     -34.938   6.338   3.837  1.00 20.00     0.321 C 
HETATM    2  F4  UNL     1     -34.731   7.274   4.801  1.00 20.00    -0.188 F 
HETATM    3  F5  UNL     1     -36.138   6.625   3.275  1.00 20.00    -0.188 F 
HETATM    4 CL7  UNL     1     -35.001   4.738   4.593  1.00 20.00    -0.048 Cl
ENDROOT
BRANCH   1   5
HETATM    5  C1  UNL     1     -33.839   6.463   2.791  1.00 20.00     0.112 C 
BRANCH   5   6
HETATM    6  C2  UNL     1     -32.910   7.649   3.022  1.00 20.00     0.122 C 
HETATM    7 CL6  UNL     1     -31.837   7.875   1.618  1.00 20.00    -0.130 Cl
ENDBRANCH   5   6
ENDBRANCH   1   5
TORSDOF 2
ENDMDL
MODEL 6
REMARK VINA RESULT:      -2.5      1.695      3.596
REMARK  2 active torsions:
REMARK  status: ('A' for Active; 'I' for Inactive)
REMARK    1  A    between atoms: C1_1  and  C2_2 
REMARK    2  A    between atoms: C1_1  and  C3_3 
ROOT
HETATM    1  C3  UNL     1     -34.002   7.420   3.625  1.00 20.00     0.321 C 
HETATM    2  F4  UNL     1     -33.173   7.688   4.668  1.00 20.00    -0.188 F 
HETATM    3  F5  UNL     1     -34.656   8.576   3.349  1.00 20.00    -0.188 F 
HETATM    4 CL7  UNL     1     -35.165   6.179   4.118  1.00 20.00    -0.048 Cl
ENDROOT
BRANCH   1   5
HETATM    5  C1  UNL     1     -33.160   7.008   2.425  1.00 20.00     0.112 C 
BRANCH   5   6
HETATM    6  C2  UNL     1     -31.978   7.933   2.165  1.00 20.00     0.122 C 
HETATM    7 CL6  UNL     1     -32.359   9.065   0.844  1.00 20.00    -0.130 Cl
ENDBRANCH   5   6
ENDBRANCH   1   5
TORSDOF 2
ENDMDL
MODEL 7
REMARK VINA RESULT:      -2.5      2.412      3.658
REMARK  2 active torsions:
REMARK  status: ('A' for Active; 'I' for Inactive)
REMARK    1  A    between atoms: C1_1  and  C2_2 
REMARK    2  A    between atoms: C1_1  and  C3_3 
ROOT
HETATM    1  C3  UNL     1     -34.218   6.606   3.481  1.00 20.00     0.321 C 
HETATM    2  F4  UNL     1     -35.545   6.706   3.206  1.00 20.00    -0.188 F 
HETATM    3  F5  UNL     1     -34.025   5.360   3.982  1.00 20.00    -0.188 F 
HETATM    4 CL7  UNL     1     -33.789   7.813   4.703  1.00 20.00    -0.048 Cl
ENDROOT
BRANCH   1   5
HETATM    5  C1  UNL     1     -33.437   6.763   2.184  1.00 20.00     0.112 C 
BRANCH   5   6
HETATM    6  C2  UNL     1     -32.257   7.721   2.297  1.00 20.00     0.122 C 
HETATM    7 CL6  UNL     1     -32.275   8.884   0.948  1.00 20.00    -0.130 Cl
ENDBRANCH   5   6
ENDBRANCH   1   5
TORSDOF 2
ENDMDL
MODEL 8
REMARK VINA RESULT:      -2.5      1.611      1.711
REMARK  2 active torsions:
REMARK  status: ('A' for Active; 'I' for Inactive)
REMARK    1  A    between atoms: C1_1  and  C2_2 
REMARK    2  A    between atoms: C1_1  and  C3_3 
ROOT
HETATM    1  C3  UNL     1     -32.193   7.597   1.926  1.00 20.00     0.321 C 
HETATM    2  F4  UNL     1     -32.529   8.463   0.934  1.00 20.00    -0.188 F 
HETATM    3  F5  UNL     1     -31.038   8.063   2.465  1.00 20.00    -0.188 F 
HETATM    4 CL7  UNL     1     -31.918   5.994   1.224  1.00 20.00    -0.048 Cl
ENDROOT
BRANCH   1   5
HETATM    5  C1  UNL     1     -33.292   7.609   2.979  1.00 20.00     0.112 C 
BRANCH   5   6
HETATM    6  C2  UNL     1     -33.830   6.223   3.313  1.00 20.00     0.122 C 
HETATM    7 CL6  UNL     1     -35.468   6.346   4.002  1.00 20.00    -0.130 Cl
ENDBRANCH   5   6
ENDBRANCH   1   5
TORSDOF 2
ENDMDL
MODEL 9
REMARK VINA RESULT:      -2.4      1.841      3.553
REMARK  2 active torsions:
REMARK  status: ('A' for Active; 'I' for Inactive)
REMARK    1  A    between atoms: C1_1  and  C2_2 
REMARK    2  A    between atoms: C1_1  and  C3_3 
ROOT
HETATM    1  C3  UNL     1     -32.788   6.515   1.813  1.00 20.00     0.321 C 
HETATM    2  F4  UNL     1     -33.530   6.483   0.675  1.00 20.00    -0.188 F 
HETATM    3  F5  UNL     1     -31.839   5.555   1.678  1.00 20.00    -0.188 F 
HETATM    4 CL7  UNL     1     -33.830   6.133   3.193  1.00 20.00    -0.048 Cl
ENDROOT
BRANCH   1   5
HETATM    5  C1  UNL     1     -32.123   7.880   1.925  1.00 20.00     0.112 C 
BRANCH   5   6
HETATM    6  C2  UNL     1     -31.814   8.519   0.577  1.00 20.00     0.122 C 
HETATM    7 CL6  UNL     1     -32.587  10.120   0.461  1.00 20.00    -0.130 Cl
ENDBRANCH   5   6
ENDBRANCH   1   5
TORSDOF 2
ENDMDL
