MODEL 1
REMARK VINA RESULT:      -1.8      0.000      0.000
REMARK  0 active torsions:
REMARK  status: ('A' for Active; 'I' for Inactive)
ROOT
HETATM    1  C1  UNL     1     -31.795   8.065   1.516  1.00 20.00    -0.030 C 
HETATM    2  C2  UNL     1     -31.613   6.772   1.182  1.00 20.00    -0.030 C 
HETATM    3  C3  UNL     1     -35.081   6.272   4.313  1.00 20.00    -0.030 C 
HETATM    4  C4  UNL     1     -34.423   7.442   4.299  1.00 20.00    -0.025 C 
HETATM    5  C5  UNL     1     -32.772   8.523   2.575  1.00 20.00     0.035 C 
HETATM    6  C6  UNL     1     -32.409   5.635   1.782  1.00 20.00     0.032 C 
HETATM    7  C7  UNL     1     -34.438   5.259   3.404  1.00 20.00     0.032 C 
HETATM    8  C8  UNL     1     -33.211   7.339   3.432  1.00 20.00     0.016 C 
HETATM    9  C9  UNL     1     -33.629   6.187   2.506  1.00 20.00     0.000 C 
ENDROOT
TORSDOF 0
ENDMDL
MODEL 2
REMARK VINA RESULT:      -1.7      0.402      2.059
REMARK  0 active torsions:
REMARK  status: ('A' for Active; 'I' for Inactive)
ROOT
HETATM    1  C1  UNL     1     -31.741   6.382   1.094  1.00 20.00    -0.030 C 
HETATM    2  C2  UNL     1     -31.605   7.693   1.373  1.00 20.00    -0.030 C 
HETATM    3  C3  UNL     1     -34.952   6.592   4.482  1.00 20.00    -0.030 C 
HETATM    4  C4  UNL     1     -34.720   5.721   3.487  1.00 20.00    -0.025 C 
HETATM    5  C5  UNL     1     -32.764   5.489   1.759  1.00 20.00     0.035 C 
HETATM    6  C6  UNL     1     -32.417   8.411   2.427  1.00 20.00     0.032 C 
HETATM    7  C7  UNL     1     -34.182   7.872   4.294  1.00 20.00     0.032 C 
HETATM    8  C8  UNL     1     -33.819   6.336   2.467  1.00 20.00     0.016 C 
HETATM    9  C9  UNL     1     -33.108   7.393   3.325  1.00 20.00     0.000 C 
ENDROOT
TORSDOF 0
ENDMDL
MODEL 3
REMARK VINA RESULT:      -1.3      0.706      3.223
REMARK  0 active torsions:
REMARK  status: ('A' for Active; 'I' for Inactive)
ROOT
HETATM    1  C1  UNL     1     -34.873   6.674   4.500  1.00 20.00    -0.030 C 
HETATM    2  C2  UNL     1     -34.904   5.440   3.960  1.00 20.00    -0.030 C 
HETATM    3  C3  UNL     1     -31.507   7.343   1.329  1.00 20.00    -0.030 C 
HETATM    4  C4  UNL     1     -32.286   8.179   2.034  1.00 20.00    -0.025 C 
HETATM    5  C5  UNL     1     -33.985   7.787   3.990  1.00 20.00     0.035 C 
HETATM    6  C6  UNL     1     -34.011   5.005   2.819  1.00 20.00     0.032 C 
HETATM    7  C7  UNL     1     -32.008   5.925   1.394  1.00 20.00     0.032 C 
HETATM    8  C8  UNL     1     -33.451   7.437   2.603  1.00 20.00     0.016 C 
HETATM    9  C9  UNL     1     -32.882   6.011   2.639  1.00 20.00     0.000 C 
ENDROOT
TORSDOF 0
ENDMDL
MODEL 4
REMARK VINA RESULT:      -1.2      0.632      3.762
REMARK  0 active torsions:
REMARK  status: ('A' for Active; 'I' for Inactive)
ROOT
HETATM    1  C1  UNL     1     -35.002   5.928   4.094  1.00 20.00    -0.030 C 
HETATM    2  C2  UNL     1     -34.720   7.164   4.551  1.00 20.00    -0.030 C 
HETATM    3  C3  UNL     1     -31.659   6.945   0.992  1.00 20.00    -0.030 C 
HETATM    4  C4  UNL     1     -32.207   5.793   1.409  1.00 20.00    -0.025 C 
HETATM    5  C5  UNL     1     -34.252   5.266   2.960  1.00 20.00     0.035 C 
HETATM    6  C6  UNL     1     -33.662   8.057   3.943  1.00 20.00     0.032 C 
HETATM    7  C7  UNL     1     -32.021   8.094   1.894  1.00 20.00     0.032 C 
HETATM    8  C8  UNL     1     -32.948   6.011   2.688  1.00 20.00     0.016 C 
HETATM    9  C9  UNL     1     -33.250   7.512   2.581  1.00 20.00     0.000 C 
ENDROOT
TORSDOF 0
ENDMDL
MODEL 5
REMARK VINA RESULT:      -0.8      0.865      3.106
REMARK  0 active torsions:
REMARK  status: ('A' for Active; 'I' for Inactive)
ROOT
HETATM    1  C1  UNL     1     -33.726   8.282   4.556  1.00 20.00    -0.030 C 
HETATM    2  C2  UNL     1     -34.731   7.395   4.418  1.00 20.00    -0.030 C 
HETATM    3  C3  UNL     1     -31.897   5.883   0.988  1.00 20.00    -0.030 C 
HETATM    4  C4  UNL     1     -31.665   7.107   1.489  1.00 20.00    -0.025 C 
HETATM    5  C5  UNL     1     -32.522   8.329   3.642  1.00 20.00     0.035 C 
HETATM    6  C6  UNL     1     -34.743   6.303   3.371  1.00 20.00     0.032 C 
HETATM    7  C7  UNL     1     -33.171   5.291   1.529  1.00 20.00     0.032 C 
HETATM    8  C8  UNL     1     -32.793   7.520   2.376  1.00 20.00     0.016 C 
HETATM    9  C9  UNL     1     -33.349   6.146   2.777  1.00 20.00     0.000 C 
ENDROOT
TORSDOF 0
ENDMDL
MODEL 6
REMARK VINA RESULT:      -0.3      0.819      2.237
REMARK  0 active torsions:
REMARK  status: ('A' for Active; 'I' for Inactive)
ROOT
HETATM    1  C1  UNL     1     -32.472   5.208   0.985  1.00 20.00    -0.030 C 
HETATM    2  C2  UNL     1     -31.852   6.385   0.768  1.00 20.00    -0.030 C 
HETATM    3  C3  UNL     1     -34.358   7.530   4.576  1.00 20.00    -0.030 C 
HETATM    4  C4  UNL     1     -34.705   6.413   3.918  1.00 20.00    -0.025 C 
HETATM    5  C5  UNL     1     -33.496   4.993   2.078  1.00 20.00     0.035 C 
HETATM    6  C6  UNL     1     -32.061   7.610   1.630  1.00 20.00     0.032 C 
HETATM    7  C7  UNL     1     -33.305   8.309   3.834  1.00 20.00     0.032 C 
HETATM    8  C8  UNL     1     -33.981   6.337   2.614  1.00 20.00     0.016 C 
HETATM    9  C9  UNL     1     -32.759   7.215   2.925  1.00 20.00     0.000 C 
ENDROOT
TORSDOF 0
ENDMDL
