MODEL 1
REMARK VINA RESULT:      -1.3      0.000      0.000
REMARK  3 active torsions:
REMARK  status: ('A' for Active; 'I' for Inactive)
REMARK    1  A    between atoms: C5_5  and  C7_7 
REMARK    2  A    between atoms: C5_5  and  C8_8 
REMARK    3  A    between atoms: C6_6  and  C8_8 
ROOT
HETATM    1  C3  UNL     1     -31.716   5.112   1.128  1.00 20.00     0.016 C 
HETATM    2  C4  UNL     1     -33.744   6.484   0.621  1.00 20.00     0.016 C 
HETATM    3  C8  UNL     1     -32.587   6.284   1.626  1.00 20.00    -0.035 C 
ENDROOT
BRANCH   3   4
HETATM    4  C5  UNL     1     -33.236   5.913   2.999  1.00 20.00     0.013 C 
BRANCH   4   5
HETATM    5  C7  UNL     1     -34.394   6.813   3.491  1.00 20.00    -0.022 C 
HETATM    6  C1  UNL     1     -35.495   5.996   4.174  1.00 20.00     0.009 C 
HETATM    7  C2  UNL     1     -33.867   7.857   4.483  1.00 20.00     0.009 C 
ENDBRANCH   4   5
ENDBRANCH   3   4
BRANCH   3   8
HETATM    8  C6  UNL     1     -31.750   7.579   1.748  1.00 20.00     0.123 C 
HETATM    9 CL9  UNL     1     -32.416   8.971   0.850  1.00 20.00    -0.130 Cl
ENDBRANCH   3   8
TORSDOF 3
ENDMDL
MODEL 2
REMARK VINA RESULT:      -1.2      1.181      2.186
REMARK  3 active torsions:
REMARK  status: ('A' for Active; 'I' for Inactive)
REMARK    1  A    between atoms: C5_5  and  C7_7 
REMARK    2  A    between atoms: C5_5  and  C8_8 
REMARK    3  A    between atoms: C6_6  and  C8_8 
ROOT
HETATM    1  C3  UNL     1     -31.124   8.379   2.721  1.00 20.00     0.016 C 
HETATM    2  C4  UNL     1     -31.970   6.378   1.484  1.00 20.00     0.016 C 
HETATM    3  C8  UNL     1     -32.230   7.874   1.772  1.00 20.00    -0.035 C 
ENDROOT
BRANCH   3   4
HETATM    4  C5  UNL     1     -33.619   7.967   2.483  1.00 20.00     0.013 C 
BRANCH   4   5
HETATM    5  C7  UNL     1     -33.784   7.174   3.802  1.00 20.00    -0.022 C 
HETATM    6  C1  UNL     1     -33.708   8.092   5.026  1.00 20.00     0.009 C 
HETATM    7  C2  UNL     1     -35.132   6.445   3.815  1.00 20.00     0.009 C 
ENDBRANCH   4   5
ENDBRANCH   3   4
BRANCH   3   8
HETATM    8  C6  UNL     1     -32.235   8.683   0.454  1.00 20.00     0.123 C 
HETATM    9 CL9  UNL     1     -32.666  10.405   0.650  1.00 20.00    -0.130 Cl
ENDBRANCH   3   8
TORSDOF 3
ENDMDL
MODEL 3
REMARK VINA RESULT:      -0.8      2.296      4.195
REMARK  3 active torsions:
REMARK  status: ('A' for Active; 'I' for Inactive)
REMARK    1  A    between atoms: C5_5  and  C7_7 
REMARK    2  A    between atoms: C5_5  and  C8_8 
REMARK    3  A    between atoms: C6_6  and  C8_8 
ROOT
HETATM    1  C3  UNL     1     -34.194   7.550   4.767  1.00 20.00     0.016 C 
HETATM    2  C4  UNL     1     -35.410   6.862   2.694  1.00 20.00     0.016 C 
HETATM    3  C8  UNL     1     -34.430   6.381   3.788  1.00 20.00    -0.035 C 
ENDROOT
BRANCH   3   4
HETATM    4  C5  UNL     1     -33.091   6.015   3.071  1.00 20.00     0.013 C 
BRANCH   4   5
HETATM    5  C7  UNL     1     -32.902   6.545   1.629  1.00 20.00    -0.022 C 
HETATM    6  C1  UNL     1     -31.960   7.752   1.589  1.00 20.00     0.009 C 
HETATM    7  C2  UNL     1     -32.329   5.442   0.732  1.00 20.00     0.009 C 
ENDBRANCH   4   5
ENDBRANCH   3   4
BRANCH   3   8
HETATM    8  C6  UNL     1     -35.009   5.152   4.528  1.00 20.00     0.123 C 
HETATM    9 CL9  UNL     1     -33.996   3.686   4.418  1.00 20.00    -0.130 Cl
ENDBRANCH   3   8
TORSDOF 3
ENDMDL
MODEL 4
REMARK VINA RESULT:      -0.7      1.653      2.680
REMARK  3 active torsions:
REMARK  status: ('A' for Active; 'I' for Inactive)
REMARK    1  A    between atoms: C5_5  and  C7_7 
REMARK    2  A    between atoms: C5_5  and  C8_8 
REMARK    3  A    between atoms: C6_6  and  C8_8 
ROOT
HETATM    1  C3  UNL     1     -32.212   8.844   0.636  1.00 20.00     0.016 C 
HETATM    2  C4  UNL     1     -31.228   8.546   2.915  1.00 20.00     0.016 C 
HETATM    3  C8  UNL     1     -32.211   7.942   1.886  1.00 20.00    -0.035 C 
ENDROOT
BRANCH   3   4
HETATM    4  C5  UNL     1     -33.627   7.954   2.548  1.00 20.00     0.013 C 
BRANCH   4   5
HETATM    5  C7  UNL     1     -33.788   7.168   3.871  1.00 20.00    -0.022 C 
HETATM    6  C1  UNL     1     -33.767   8.099   5.088  1.00 20.00     0.009 C 
HETATM    7  C2  UNL     1     -35.110   6.392   3.867  1.00 20.00     0.009 C 
ENDBRANCH   4   5
ENDBRANCH   3   4
BRANCH   3   8
HETATM    8  C6  UNL     1     -31.790   6.498   1.523  1.00 20.00     0.123 C 
HETATM    9 CL9  UNL     1     -33.121   5.477   0.912  1.00 20.00    -0.130 Cl
ENDBRANCH   3   8
TORSDOF 3
ENDMDL
MODEL 5
REMARK VINA RESULT:      -0.7      2.260      4.010
REMARK  3 active torsions:
REMARK  status: ('A' for Active; 'I' for Inactive)
REMARK    1  A    between atoms: C5_5  and  C7_7 
REMARK    2  A    between atoms: C5_5  and  C8_8 
REMARK    3  A    between atoms: C6_6  and  C8_8 
ROOT
HETATM    1  C3  UNL     1     -33.897   7.421   4.368  1.00 20.00     0.016 C 
HETATM    2  C4  UNL     1     -36.056   6.966   3.194  1.00 20.00     0.016 C 
HETATM    3  C8  UNL     1     -34.694   6.354   3.591  1.00 20.00    -0.035 C 
ENDROOT
BRANCH   3   4
HETATM    4  C5  UNL     1     -33.949   6.002   2.262  1.00 20.00     0.013 C 
BRANCH   4   5
HETATM    5  C7  UNL     1     -32.451   6.385   2.178  1.00 20.00    -0.022 C 
HETATM    6  C1  UNL     1     -31.671   5.420   1.280  1.00 20.00     0.009 C 
HETATM    7  C2  UNL     1     -32.300   7.806   1.623  1.00 20.00     0.009 C 
ENDBRANCH   4   5
ENDBRANCH   3   4
BRANCH   3   8
HETATM    8  C6  UNL     1     -34.903   5.087   4.452  1.00 20.00     0.123 C 
HETATM    9 CL9  UNL     1     -33.761   3.761   4.097  1.00 20.00    -0.130 Cl
ENDBRANCH   3   8
TORSDOF 3
ENDMDL
MODEL 6
REMARK VINA RESULT:      -0.4      1.708      2.130
REMARK  3 active torsions:
REMARK  status: ('A' for Active; 'I' for Inactive)
REMARK    1  A    between atoms: C5_5  and  C7_7 
REMARK    2  A    between atoms: C5_5  and  C8_8 
REMARK    3  A    between atoms: C6_6  and  C8_8 
ROOT
HETATM    1  C3  UNL     1     -33.655   5.805   0.562  1.00 20.00     0.016 C 
HETATM    2  C4  UNL     1     -32.144   7.520   1.574  1.00 20.00     0.016 C 
HETATM    3  C8  UNL     1     -32.597   6.045   1.658  1.00 20.00    -0.035 C 
ENDROOT
BRANCH   3   4
HETATM    4  C5  UNL     1     -33.242   5.846   3.068  1.00 20.00     0.013 C 
BRANCH   4   5
HETATM    5  C7  UNL     1     -34.367   6.832   3.467  1.00 20.00    -0.022 C 
HETATM    6  C1  UNL     1     -35.577   6.100   4.057  1.00 20.00     0.009 C 
HETATM    7  C2  UNL     1     -33.846   7.836   4.501  1.00 20.00     0.009 C 
ENDBRANCH   4   5
ENDBRANCH   3   4
BRANCH   3   8
HETATM    8  C6  UNL     1     -31.387   5.099   1.472  1.00 20.00     0.123 C 
HETATM    9 CL9  UNL     1     -31.448   4.114  -0.016  1.00 20.00    -0.130 Cl
ENDBRANCH   3   8
TORSDOF 3
ENDMDL
MODEL 7
REMARK VINA RESULT:      -0.4      2.327      4.019
REMARK  3 active torsions:
REMARK  status: ('A' for Active; 'I' for Inactive)
REMARK    1  A    between atoms: C5_5  and  C7_7 
REMARK    2  A    between atoms: C5_5  and  C8_8 
REMARK    3  A    between atoms: C6_6  and  C8_8 
ROOT
HETATM    1  C3  UNL     1     -33.739   7.644   4.829  1.00 20.00     0.016 C 
HETATM    2  C4  UNL     1     -35.625   6.477   3.676  1.00 20.00     0.016 C 
HETATM    3  C8  UNL     1     -34.099   6.717   3.650  1.00 20.00    -0.035 C 
ENDROOT
BRANCH   3   4
HETATM    4  C5  UNL     1     -33.772   7.431   2.299  1.00 20.00     0.013 C 
BRANCH   4   5
HETATM    5  C7  UNL     1     -32.282   7.503   1.888  1.00 20.00    -0.022 C 
HETATM    6  C1  UNL     1     -31.858   6.273   1.080  1.00 20.00     0.009 C 
HETATM    7  C2  UNL     1     -32.027   8.758   1.046  1.00 20.00     0.009 C 
ENDBRANCH   4   5
ENDBRANCH   3   4
BRANCH   3   8
HETATM    8  C6  UNL     1     -33.340   5.373   3.756  1.00 20.00     0.123 C 
HETATM    9 CL9  UNL     1     -34.303   4.039   4.451  1.00 20.00    -0.130 Cl
ENDBRANCH   3   8
TORSDOF 3
ENDMDL
MODEL 8
REMARK VINA RESULT:      -0.4      1.665      2.259
REMARK  3 active torsions:
REMARK  status: ('A' for Active; 'I' for Inactive)
REMARK    1  A    between atoms: C5_5  and  C7_7 
REMARK    2  A    between atoms: C5_5  and  C8_8 
REMARK    3  A    between atoms: C6_6  and  C8_8 
ROOT
HETATM    1  C3  UNL     1     -31.994   7.474   1.532  1.00 20.00     0.016 C 
HETATM    2  C4  UNL     1     -31.557   5.020   1.337  1.00 20.00     0.016 C 
HETATM    3  C8  UNL     1     -32.655   6.081   1.575  1.00 20.00    -0.035 C 
ENDROOT
BRANCH   3   4
HETATM    4  C5  UNL     1     -33.240   5.818   3.001  1.00 20.00     0.013 C 
BRANCH   4   5
HETATM    5  C7  UNL     1     -34.408   6.726   3.456  1.00 20.00    -0.022 C 
HETATM    6  C1  UNL     1     -35.492   5.928   4.186  1.00 20.00     0.009 C 
HETATM    7  C2  UNL     1     -33.889   7.825   4.391  1.00 20.00     0.009 C 
ENDBRANCH   4   5
ENDBRANCH   3   4
BRANCH   3   8
HETATM    8  C6  UNL     1     -33.761   5.963   0.500  1.00 20.00     0.123 C 
HETATM    9 CL9  UNL     1     -33.811   4.383  -0.331  1.00 20.00    -0.130 Cl
ENDBRANCH   3   8
TORSDOF 3
ENDMDL
MODEL 9
REMARK VINA RESULT:      -0.3      1.936      3.718
REMARK  3 active torsions:
REMARK  status: ('A' for Active; 'I' for Inactive)
REMARK    1  A    between atoms: C5_5  and  C7_7 
REMARK    2  A    between atoms: C5_5  and  C8_8 
REMARK    3  A    between atoms: C6_6  and  C8_8 
ROOT
HETATM    1  C3  UNL     1     -33.730   6.368   0.498  1.00 20.00     0.016 C 
HETATM    2  C4  UNL     1     -31.678   5.503   1.633  1.00 20.00     0.016 C 
HETATM    3  C8  UNL     1     -32.857   6.494   1.763  1.00 20.00    -0.035 C 
ENDROOT
BRANCH   3   4
HETATM    4  C5  UNL     1     -32.240   7.928   1.839  1.00 20.00     0.013 C 
BRANCH   4   5
HETATM    5  C7  UNL     1     -32.355   8.807   0.570  1.00 20.00    -0.022 C 
HETATM    6  C1  UNL     1     -32.753  10.246   0.913  1.00 20.00     0.009 C 
HETATM    7  C2  UNL     1     -31.018   8.830  -0.179  1.00 20.00     0.009 C 
ENDBRANCH   4   5
ENDBRANCH   3   4
BRANCH   3   8
HETATM    8  C6  UNL     1     -33.682   6.185   3.034  1.00 20.00     0.123 C 
HETATM    9 CL9  UNL     1     -34.078   7.620   4.019  1.00 20.00    -0.130 Cl
ENDBRANCH   3   8
TORSDOF 3
ENDMDL
