MODEL 1
REMARK VINA RESULT:      -0.3      0.000      0.000
REMARK  2 active torsions:
REMARK  status: ('A' for Active; 'I' for Inactive)
REMARK    1  A    between atoms: C3_3  and  C8_8 
REMARK    2  A    between atoms: C4_4  and  C7_7 
ROOT
HETATM    1  C5  UNL     1     -33.128   5.739   1.756  1.00 20.00     0.040 C 
HETATM    2  C6  UNL     1     -31.906   6.518   1.326  1.00 20.00     0.045 C 
HETATM    3  C7  UNL     1     -33.345   6.262   3.167  1.00 20.00     0.151 C 
HETATM    4  C8  UNL     1     -32.146   7.885   1.965  1.00 20.00     0.075 C 
HETATM    5  C10 UNL     1     -30.841   8.581   2.341  1.00 20.00     0.050 C 
HETATM    6  O11 UNL     1     -32.897   7.629   3.170  1.00 20.00    -0.367 OA
ENDROOT
BRANCH   3   7
HETATM    7  C4  UNL     1     -34.764   6.196   3.612  1.00 20.00    -0.065 C 
HETATM    8  C2  UNL     1     -35.661   7.130   3.262  1.00 20.00     0.016 C 
HETATM    9  C9  UNL     1     -35.134   5.024   4.474  1.00 20.00     0.045 C 
ENDBRANCH   3   7
BRANCH   4  10
HETATM   10  C3  UNL     1     -32.969   8.786   1.090  1.00 20.00     0.000 C 
HETATM   11  C1  UNL     1     -32.457   9.730   0.295  1.00 20.00     0.010 C 
ENDBRANCH   4  10
TORSDOF 2
ENDMDL
MODEL 2
REMARK VINA RESULT:       0.9      1.161      2.247
REMARK  2 active torsions:
REMARK  status: ('A' for Active; 'I' for Inactive)
REMARK    1  A    between atoms: C3_3  and  C8_8 
REMARK    2  A    between atoms: C4_4  and  C7_7 
ROOT
HETATM    1  C5  UNL     1     -32.650   7.712   4.198  1.00 20.00     0.040 C 
HETATM    2  C6  UNL     1     -31.929   8.611   3.220  1.00 20.00     0.045 C 
HETATM    3  C7  UNL     1     -33.946   7.427   3.455  1.00 20.00     0.151 C 
HETATM    4  C8  UNL     1     -32.310   8.001   1.871  1.00 20.00     0.075 C 
HETATM    5  C10 UNL     1     -32.379   9.049   0.765  1.00 20.00     0.050 C 
HETATM    6  O11 UNL     1     -33.624   7.435   2.053  1.00 20.00    -0.367 OA
ENDROOT
BRANCH   3   7
HETATM    7  C4  UNL     1     -34.566   6.124   3.823  1.00 20.00    -0.065 C 
HETATM    8  C2  UNL     1     -35.822   6.042   4.284  1.00 20.00     0.016 C 
HETATM    9  C9  UNL     1     -33.704   4.908   3.646  1.00 20.00     0.045 C 
ENDBRANCH   3   7
BRANCH   4  10
HETATM   10  C3  UNL     1     -31.382   6.893   1.465  1.00 20.00     0.000 C 
HETATM   11  C1  UNL     1     -31.788   5.684   1.064  1.00 20.00     0.010 C 
ENDBRANCH   4  10
TORSDOF 2
ENDMDL
MODEL 3
REMARK VINA RESULT:       1.2      1.113      2.375
REMARK  2 active torsions:
REMARK  status: ('A' for Active; 'I' for Inactive)
REMARK    1  A    between atoms: C3_3  and  C8_8 
REMARK    2  A    between atoms: C4_4  and  C7_7 
ROOT
HETATM    1  C5  UNL     1     -32.826   7.663   4.271  1.00 20.00     0.040 C 
HETATM    2  C6  UNL     1     -31.907   8.465   3.379  1.00 20.00     0.045 C 
HETATM    3  C7  UNL     1     -34.105   7.637   3.451  1.00 20.00     0.151 C 
HETATM    4  C8  UNL     1     -32.306   7.987   1.983  1.00 20.00     0.075 C 
HETATM    5  C10 UNL     1     -32.132   9.079   0.930  1.00 20.00     0.050 C 
HETATM    6  O11 UNL     1     -33.706   7.649   2.069  1.00 20.00    -0.367 OA
ENDROOT
BRANCH   3   7
HETATM    7  C4  UNL     1     -34.957   6.445   3.718  1.00 20.00    -0.065 C 
HETATM    8  C2  UNL     1     -34.466   5.337   4.293  1.00 20.00     0.016 C 
HETATM    9  C9  UNL     1     -36.397   6.555   3.310  1.00 20.00     0.045 C 
ENDBRANCH   3   7
BRANCH   4  10
HETATM   10  C3  UNL     1     -31.557   6.755   1.566  1.00 20.00     0.000 C 
HETATM   11  C1  UNL     1     -32.141   5.595   1.249  1.00 20.00     0.010 C 
ENDBRANCH   4  10
TORSDOF 2
ENDMDL
MODEL 4
REMARK VINA RESULT:       1.2      1.217      4.269
REMARK  2 active torsions:
REMARK  status: ('A' for Active; 'I' for Inactive)
REMARK    1  A    between atoms: C3_3  and  C8_8 
REMARK    2  A    between atoms: C4_4  and  C7_7 
ROOT
HETATM    1  C5  UNL     1     -31.227   8.693   1.974  1.00 20.00     0.040 C 
HETATM    2  C6  UNL     1     -31.407   7.286   2.495  1.00 20.00     0.045 C 
HETATM    3  C7  UNL     1     -32.005   8.641   0.669  1.00 20.00     0.151 C 
HETATM    4  C8  UNL     1     -32.845   6.967   2.087  1.00 20.00     0.075 C 
HETATM    5  C10 UNL     1     -33.045   5.482   1.796  1.00 20.00     0.050 C 
HETATM    6  O11 UNL     1     -33.083   7.710   0.874  1.00 20.00    -0.367 OA
ENDROOT
BRANCH   3   7
HETATM    7  C4  UNL     1     -32.552   9.961   0.251  1.00 20.00    -0.065 C 
HETATM    8  C2  UNL     1     -32.893  10.216  -1.020  1.00 20.00     0.016 C 
HETATM    9  C9  UNL     1     -32.700  10.989   1.334  1.00 20.00     0.045 C 
ENDBRANCH   3   7
BRANCH   4  10
HETATM   10  C3  UNL     1     -33.842   7.423   3.112  1.00 20.00     0.000 C 
HETATM   11  C1  UNL     1     -34.656   6.603   3.783  1.00 20.00     0.010 C 
ENDBRANCH   4  10
TORSDOF 2
ENDMDL
MODEL 5
REMARK VINA RESULT:       1.2      1.198      4.299
REMARK  2 active torsions:
REMARK  status: ('A' for Active; 'I' for Inactive)
REMARK    1  A    between atoms: C3_3  and  C8_8 
REMARK    2  A    between atoms: C4_4  and  C7_7 
ROOT
HETATM    1  C5  UNL     1     -31.236   8.647   2.035  1.00 20.00     0.040 C 
HETATM    2  C6  UNL     1     -31.438   7.226   2.511  1.00 20.00     0.045 C 
HETATM    3  C7  UNL     1     -32.033   8.653   0.740  1.00 20.00     0.151 C 
HETATM    4  C8  UNL     1     -32.887   6.949   2.112  1.00 20.00     0.075 C 
HETATM    5  C10 UNL     1     -33.119   5.479   1.775  1.00 20.00     0.050 C 
HETATM    6  O11 UNL     1     -33.126   7.737   0.928  1.00 20.00    -0.367 OA
ENDROOT
BRANCH   3   7
HETATM    7  C4  UNL     1     -32.559   9.997   0.375  1.00 20.00    -0.065 C 
HETATM    8  C2  UNL     1     -32.725  10.966   1.287  1.00 20.00     0.016 C 
HETATM    9  C9  UNL     1     -32.891  10.206  -1.074  1.00 20.00     0.045 C 
ENDBRANCH   3   7
BRANCH   4  10
HETATM   10  C3  UNL     1     -33.861   7.389   3.166  1.00 20.00     0.000 C 
HETATM   11  C1  UNL     1     -34.713   6.569   3.789  1.00 20.00     0.010 C 
ENDBRANCH   4  10
TORSDOF 2
ENDMDL
MODEL 6
REMARK VINA RESULT:       1.4      1.264      4.053
REMARK  2 active torsions:
REMARK  status: ('A' for Active; 'I' for Inactive)
REMARK    1  A    between atoms: C3_3  and  C8_8 
REMARK    2  A    between atoms: C4_4  and  C7_7 
ROOT
HETATM    1  C5  UNL     1     -32.416   6.054   2.097  1.00 20.00     0.040 C 
HETATM    2  C6  UNL     1     -33.569   5.460   2.874  1.00 20.00     0.045 C 
HETATM    3  C7  UNL     1     -33.036   7.330   1.552  1.00 20.00     0.151 C 
HETATM    4  C8  UNL     1     -34.234   6.700   3.471  1.00 20.00     0.075 C 
HETATM    5  C10 UNL     1     -35.740   6.520   3.639  1.00 20.00     0.050 C 
HETATM    6  O11 UNL     1     -34.000   7.765   2.527  1.00 20.00    -0.367 OA
ENDROOT
BRANCH   3   7
HETATM    7  C4  UNL     1     -32.044   8.413   1.306  1.00 20.00    -0.065 C 
HETATM    8  C2  UNL     1     -30.860   8.445   1.934  1.00 20.00     0.016 C 
HETATM    9  C9  UNL     1     -32.445   9.465   0.314  1.00 20.00     0.045 C 
ENDBRANCH   3   7
BRANCH   4  10
HETATM   10  C3  UNL     1     -33.620   7.100   4.782  1.00 20.00     0.000 C 
HETATM   11  C1  UNL     1     -33.111   8.310   5.032  1.00 20.00     0.010 C 
ENDBRANCH   4  10
TORSDOF 2
ENDMDL
MODEL 7
REMARK VINA RESULT:       1.5      2.164      3.718
REMARK  2 active torsions:
REMARK  status: ('A' for Active; 'I' for Inactive)
REMARK    1  A    between atoms: C3_3  and  C8_8 
REMARK    2  A    between atoms: C4_4  and  C7_7 
ROOT
HETATM    1  C5  UNL     1     -35.158   4.913   4.618  1.00 20.00     0.040 C 
HETATM    2  C6  UNL     1     -35.275   6.133   3.733  1.00 20.00     0.045 C 
HETATM    3  C7  UNL     1     -34.086   4.113   3.898  1.00 20.00     0.151 C 
HETATM    4  C8  UNL     1     -33.826   6.372   3.310  1.00 20.00     0.075 C 
HETATM    5  C10 UNL     1     -33.728   6.991   1.919  1.00 20.00     0.050 C 
HETATM    6  O11 UNL     1     -33.206   5.070   3.280  1.00 20.00    -0.367 OA
ENDROOT
BRANCH   3   7
HETATM    7  C4  UNL     1     -33.306   3.220   4.799  1.00 20.00    -0.065 C 
HETATM    8  C2  UNL     1     -32.599   3.700   5.833  1.00 20.00     0.016 C 
HETATM    9  C9  UNL     1     -33.358   1.754   4.485  1.00 20.00     0.045 C 
ENDBRANCH   3   7
BRANCH   4  10
HETATM   10  C3  UNL     1     -33.076   7.218   4.298  1.00 20.00     0.000 C 
HETATM   11  C1  UNL     1     -33.593   8.286   4.914  1.00 20.00     0.010 C 
ENDBRANCH   4  10
TORSDOF 2
ENDMDL
MODEL 8
REMARK VINA RESULT:       1.7      1.476      3.982
REMARK  2 active torsions:
REMARK  status: ('A' for Active; 'I' for Inactive)
REMARK    1  A    between atoms: C3_3  and  C8_8 
REMARK    2  A    between atoms: C4_4  and  C7_7 
ROOT
HETATM    1  C5  UNL     1     -33.268   4.557   3.358  1.00 20.00     0.040 C 
HETATM    2  C6  UNL     1     -34.565   4.892   4.059  1.00 20.00     0.045 C 
HETATM    3  C7  UNL     1     -33.394   5.362   2.075  1.00 20.00     0.151 C 
HETATM    4  C8  UNL     1     -34.760   6.365   3.701  1.00 20.00     0.075 C 
HETATM    5  C10 UNL     1     -36.235   6.743   3.607  1.00 20.00     0.050 C 
HETATM    6  O11 UNL     1     -34.156   6.538   2.403  1.00 20.00    -0.367 OA
ENDROOT
BRANCH   3   7
HETATM    7  C4  UNL     1     -32.083   5.757   1.491  1.00 20.00    -0.065 C 
HETATM    8  C2  UNL     1     -31.246   4.857   0.955  1.00 20.00     0.016 C 
HETATM    9  C9  UNL     1     -31.753   7.221   1.536  1.00 20.00     0.045 C 
ENDBRANCH   3   7
BRANCH   4  10
HETATM   10  C3  UNL     1     -34.060   7.281   4.663  1.00 20.00     0.000 C 
HETATM   11  C1  UNL     1     -33.384   8.376   4.298  1.00 20.00     0.010 C 
ENDBRANCH   4  10
TORSDOF 2
ENDMDL
MODEL 9
REMARK VINA RESULT:       1.9      1.421      3.594
REMARK  2 active torsions:
REMARK  status: ('A' for Active; 'I' for Inactive)
REMARK    1  A    between atoms: C3_3  and  C8_8 
REMARK    2  A    between atoms: C4_4  and  C7_7 
ROOT
HETATM    1  C5  UNL     1     -32.648   7.902   1.324  1.00 20.00     0.040 C 
HETATM    2  C6  UNL     1     -32.911   8.716   2.569  1.00 20.00     0.045 C 
HETATM    3  C7  UNL     1     -32.047   6.633   1.907  1.00 20.00     0.151 C 
HETATM    4  C8  UNL     1     -33.356   7.651   3.571  1.00 20.00     0.075 C 
HETATM    5  C10 UNL     1     -32.970   8.010   5.002  1.00 20.00     0.050 C 
HETATM    6  O11 UNL     1     -32.662   6.444   3.194  1.00 20.00    -0.367 OA
ENDROOT
BRANCH   3   7
HETATM    7  C4  UNL     1     -32.268   5.429   1.061  1.00 20.00    -0.065 C 
HETATM    8  C2  UNL     1     -31.312   4.506   0.877  1.00 20.00     0.016 C 
HETATM    9  C9  UNL     1     -33.623   5.304   0.427  1.00 20.00     0.045 C 
ENDBRANCH   3   7
BRANCH   4  10
HETATM   10  C3  UNL     1     -34.831   7.378   3.494  1.00 20.00     0.000 C 
HETATM   11  C1  UNL     1     -35.405   6.243   3.906  1.00 20.00     0.010 C 
ENDBRANCH   4  10
TORSDOF 2
ENDMDL
