MODEL 1
REMARK VINA RESULT:       3.0      0.000      0.000
REMARK  0 active torsions:
REMARK  status: ('A' for Active; 'I' for Inactive)
ROOT
HETATM    1  C1  UNL     1     -33.140   7.432   0.518  1.00 20.00     0.047 C 
HETATM    2  C2  UNL     1     -33.529   6.572   1.467  1.00 20.00    -0.014 C 
HETATM    3  C3  UNL     1     -32.313   8.611   0.863  1.00 20.00     0.149 C 
HETATM    4  C4  UNL     1     -31.965   8.847   2.313  1.00 20.00     0.084 C 
HETATM    5  C5  UNL     1     -31.873   7.532   3.075  1.00 20.00     0.021 C 
HETATM    6  C6  UNL     1     -35.141   5.000   4.461  1.00 20.00     0.000 C 
HETATM    7  C7  UNL     1     -34.031   4.335   3.657  1.00 20.00     0.001 C 
HETATM    8  C8  UNL     1     -35.527   6.353   3.876  1.00 20.00     0.001 C 
HETATM    9  C9  UNL     1     -32.815   5.250   3.500  1.00 20.00     0.013 C 
HETATM   10  C10 UNL     1     -34.314   7.276   3.746  1.00 20.00     0.013 C 
HETATM   11  C11 UNL     1     -33.147   6.658   2.936  1.00 20.00    -0.022 C 
HETATM   12  O12 UNL     1     -31.975   9.399  -0.019  1.00 20.00    -0.293 OA
ENDROOT
TORSDOF 0
ENDMDL
MODEL 2
REMARK VINA RESULT:       3.8      2.308      4.552
REMARK  0 active torsions:
REMARK  status: ('A' for Active; 'I' for Inactive)
ROOT
HETATM    1  C1  UNL     1     -34.150   7.353   3.903  1.00 20.00     0.047 C 
HETATM    2  C2  UNL     1     -33.302   7.967   3.068  1.00 20.00    -0.014 C 
HETATM    3  C3  UNL     1     -34.530   5.938   3.684  1.00 20.00     0.149 C 
HETATM    4  C4  UNL     1     -33.982   5.224   2.471  1.00 20.00     0.084 C 
HETATM    5  C5  UNL     1     -32.615   5.774   2.085  1.00 20.00     0.021 C 
HETATM    6  C6  UNL     1     -31.707   9.526   0.059  1.00 20.00     0.000 C 
HETATM    7  C7  UNL     1     -30.955   9.226   1.349  1.00 20.00     0.001 C 
HETATM    8  C8  UNL     1     -33.179   9.146   0.164  1.00 20.00     0.001 C 
HETATM    9  C9  UNL     1     -31.133   7.770   1.786  1.00 20.00     0.013 C 
HETATM   10  C10 UNL     1     -33.354   7.682   0.574  1.00 20.00     0.013 C 
HETATM   11  C11 UNL     1     -32.612   7.312   1.883  1.00 20.00    -0.022 C 
HETATM   12  O12 UNL     1     -35.321   5.393   4.451  1.00 20.00    -0.293 OA
ENDROOT
TORSDOF 0
ENDMDL
MODEL 3
REMARK VINA RESULT:       4.1      0.940      2.247
REMARK  0 active torsions:
REMARK  status: ('A' for Active; 'I' for Inactive)
ROOT
HETATM    1  C1  UNL     1     -32.185   8.154   2.969  1.00 20.00     0.047 C 
HETATM    2  C2  UNL     1     -33.086   7.329   3.516  1.00 20.00    -0.014 C 
HETATM    3  C3  UNL     1     -31.844   8.051   1.532  1.00 20.00     0.149 C 
HETATM    4  C4  UNL     1     -32.495   6.962   0.713  1.00 20.00     0.084 C 
HETATM    5  C5  UNL     1     -33.880   6.627   1.252  1.00 20.00     0.021 C 
HETATM    6  C6  UNL     1     -34.888   4.308   4.803  1.00 20.00     0.000 C 
HETATM    7  C7  UNL     1     -35.541   5.675   4.650  1.00 20.00     0.001 C 
HETATM    8  C8  UNL     1     -33.418   4.338   4.403  1.00 20.00     0.001 C 
HETATM    9  C9  UNL     1     -35.351   6.242   3.241  1.00 20.00     0.013 C 
HETATM   10  C10 UNL     1     -33.233   4.879   2.984  1.00 20.00     0.013 C 
HETATM   11  C11 UNL     1     -33.876   6.271   2.761  1.00 20.00    -0.022 C 
HETATM   12  O12 UNL     1     -31.003   8.807   1.048  1.00 20.00    -0.293 OA
ENDROOT
TORSDOF 0
ENDMDL
MODEL 4
REMARK VINA RESULT:       4.2      2.494      4.552
REMARK  0 active torsions:
REMARK  status: ('A' for Active; 'I' for Inactive)
ROOT
HETATM    1  C1  UNL     1     -33.384   4.552   3.674  1.00 20.00     0.047 C 
HETATM    2  C2  UNL     1     -32.896   5.505   2.871  1.00 20.00    -0.014 C 
HETATM    3  C3  UNL     1     -34.651   4.763   4.410  1.00 20.00     0.149 C 
HETATM    4  C4  UNL     1     -35.350   6.095   4.275  1.00 20.00     0.084 C 
HETATM    5  C5  UNL     1     -35.083   6.716   2.910  1.00 20.00     0.021 C 
HETATM    6  C6  UNL     1     -31.449   8.687   1.525  1.00 20.00     0.000 C 
HETATM    7  C7  UNL     1     -32.030   7.589   0.644  1.00 20.00     0.001 C 
HETATM    8  C8  UNL     1     -31.502   8.312   3.001  1.00 20.00     0.001 C 
HETATM    9  C9  UNL     1     -33.445   7.200   1.078  1.00 20.00     0.013 C 
HETATM   10  C10 UNL     1     -32.922   7.951   3.439  1.00 20.00     0.013 C 
HETATM   11  C11 UNL     1     -33.572   6.836   2.581  1.00 20.00    -0.022 C 
HETATM   12  O12 UNL     1     -35.079   3.882   5.155  1.00 20.00    -0.293 OA
ENDROOT
TORSDOF 0
ENDMDL
MODEL 5
REMARK VINA RESULT:       4.5      1.485      2.319
REMARK  0 active torsions:
REMARK  status: ('A' for Active; 'I' for Inactive)
ROOT
HETATM    1  C1  UNL     1     -33.303  10.044   0.850  1.00 20.00     0.047 C 
HETATM    2  C2  UNL     1     -33.651   9.188   1.819  1.00 20.00    -0.014 C 
HETATM    3  C3  UNL     1     -32.004   9.903   0.152  1.00 20.00     0.149 C 
HETATM    4  C4  UNL     1     -31.063   8.808   0.594  1.00 20.00     0.084 C 
HETATM    5  C5  UNL     1     -31.833   7.612   1.139  1.00 20.00     0.021 C 
HETATM    6  C6  UNL     1     -33.807   7.227   5.007  1.00 20.00     0.000 C 
HETATM    7  C7  UNL     1     -34.621   6.883   3.767  1.00 20.00     0.001 C 
HETATM    8  C8  UNL     1     -32.959   8.475   4.795  1.00 20.00     0.001 C 
HETATM    9  C9  UNL     1     -33.740   6.762   2.522  1.00 20.00     0.013 C 
HETATM   10  C10 UNL     1     -32.058   8.341   3.566  1.00 20.00     0.013 C 
HETATM   11  C11 UNL     1     -32.828   7.991   2.267  1.00 20.00    -0.022 C 
HETATM   12  O12 UNL     1     -31.693  10.706  -0.726  1.00 20.00    -0.293 OA
ENDROOT
TORSDOF 0
ENDMDL
MODEL 6
REMARK VINA RESULT:       4.6      2.387      3.703
REMARK  0 active torsions:
REMARK  status: ('A' for Active; 'I' for Inactive)
ROOT
HETATM    1  C1  UNL     1     -34.209   6.505   3.890  1.00 20.00     0.047 C 
HETATM    2  C2  UNL     1     -33.925   5.884   2.738  1.00 20.00    -0.014 C 
HETATM    3  C3  UNL     1     -33.601   7.818   4.208  1.00 20.00     0.149 C 
HETATM    4  C4  UNL     1     -32.616   8.412   3.230  1.00 20.00     0.084 C 
HETATM    5  C5  UNL     1     -32.935   7.981   1.804  1.00 20.00     0.021 C 
HETATM    6  C6  UNL     1     -32.178   4.114  -0.062  1.00 20.00     0.000 C 
HETATM    7  C7  UNL     1     -33.585   4.684  -0.176  1.00 20.00     0.001 C 
HETATM    8  C8  UNL     1     -31.595   4.326   1.330  1.00 20.00     0.001 C 
HETATM    9  C9  UNL     1     -33.640   6.155   0.242  1.00 20.00     0.013 C 
HETATM   10  C10 UNL     1     -31.625   5.801   1.734  1.00 20.00     0.013 C 
HETATM   11  C11 UNL     1     -33.033   6.442   1.641  1.00 20.00    -0.022 C 
HETATM   12  O12 UNL     1     -33.862   8.369   5.276  1.00 20.00    -0.293 OA
ENDROOT
TORSDOF 0
ENDMDL
MODEL 7
REMARK VINA RESULT:       5.0      2.477      4.677
REMARK  0 active torsions:
REMARK  status: ('A' for Active; 'I' for Inactive)
ROOT
HETATM    1  C1  UNL     1     -31.877   8.805   4.288  1.00 20.00     0.047 C 
HETATM    2  C2  UNL     1     -31.622   8.860   2.975  1.00 20.00    -0.014 C 
HETATM    3  C3  UNL     1     -33.094   8.127   4.792  1.00 20.00     0.149 C 
HETATM    4  C4  UNL     1     -34.063   7.549   3.789  1.00 20.00     0.084 C 
HETATM    5  C5  UNL     1     -33.341   7.101   2.526  1.00 20.00     0.021 C 
HETATM    6  C6  UNL     1     -31.778   9.589  -0.696  1.00 20.00     0.000 C 
HETATM    7  C7  UNL     1     -30.835   8.563  -0.081  1.00 20.00     0.001 C 
HETATM    8  C8  UNL     1     -32.613  10.293   0.367  1.00 20.00     0.001 C 
HETATM    9  C9  UNL     1     -31.580   7.563   0.806  1.00 20.00     0.013 C 
HETATM   10  C10 UNL     1     -33.380   9.293   1.234  1.00 20.00     0.013 C 
HETATM   11  C11 UNL     1     -32.474   8.220   1.891  1.00 20.00    -0.022 C 
HETATM   12  O12 UNL     1     -33.320   8.098   6.000  1.00 20.00    -0.293 OA
ENDROOT
TORSDOF 0
ENDMDL
MODEL 8
REMARK VINA RESULT:       5.8      2.283      3.554
REMARK  0 active torsions:
REMARK  status: ('A' for Active; 'I' for Inactive)
ROOT
HETATM    1  C1  UNL     1     -32.140   4.620   1.140  1.00 20.00     0.047 C 
HETATM    2  C2  UNL     1     -32.145   5.685   1.951  1.00 20.00    -0.014 C 
HETATM    3  C3  UNL     1     -33.109   4.519   0.024  1.00 20.00     0.149 C 
HETATM    4  C4  UNL     1     -34.133   5.616  -0.143  1.00 20.00     0.084 C 
HETATM    5  C5  UNL     1     -33.589   6.951   0.351  1.00 20.00     0.021 C 
HETATM    6  C6  UNL     1     -33.096   8.287   4.472  1.00 20.00     0.000 C 
HETATM    7  C7  UNL     1     -31.894   8.413   3.545  1.00 20.00     0.001 C 
HETATM    8  C8  UNL     1     -33.830   6.968   4.265  1.00 20.00     0.001 C 
HETATM    9  C9  UNL     1     -32.280   8.205   2.079  1.00 20.00     0.013 C 
HETATM   10  C10 UNL     1     -34.240   6.775   2.804  1.00 20.00     0.013 C 
HETATM   11  C11 UNL     1     -33.059   6.891   1.808  1.00 20.00    -0.022 C 
HETATM   12  O12 UNL     1     -33.101   3.528  -0.704  1.00 20.00    -0.293 OA
ENDROOT
TORSDOF 0
ENDMDL
