MODEL 1
REMARK VINA RESULT:      -2.6      0.000      0.000
REMARK  2 active torsions:
REMARK  status: ('A' for Active; 'I' for Inactive)
REMARK    1  A    between atoms: C1_1  and  C2_2 
REMARK    2  A    between atoms: C2_2  and  C3_3 
ROOT
HETATM    1  C2  UNL     1     -32.280   7.642   1.862  1.00 20.00     0.391 C 
HETATM    2  F5  UNL     1     -30.951   7.650   2.146  1.00 20.00    -0.188 F 
HETATM    3  F6  UNL     1     -32.917   8.076   2.982  1.00 20.00    -0.188 F 
ENDROOT
BRANCH   1   4
HETATM    4  C1  UNL     1     -32.591   8.541   0.700  1.00 20.00     0.319 C 
HETATM    5  O4  UNL     1     -32.379   9.749   0.704  1.00 20.00    -0.300 OA
ENDBRANCH   1   4
BRANCH   1   6
HETATM    6  C3  UNL     1     -32.708   6.225   1.578  1.00 20.00     0.461 C 
HETATM    7  F7  UNL     1     -31.644   5.427   1.349  1.00 20.00    -0.165 F 
HETATM    8  F8  UNL     1     -33.387   5.714   2.629  1.00 20.00    -0.165 F 
HETATM    9  F9  UNL     1     -33.517   6.162   0.499  1.00 20.00    -0.165 F 
ENDBRANCH   1   6
TORSDOF 2
ENDMDL
MODEL 2
REMARK VINA RESULT:      -2.6      1.369      2.651
REMARK  2 active torsions:
REMARK  status: ('A' for Active; 'I' for Inactive)
REMARK    1  A    between atoms: C1_1  and  C2_2 
REMARK    2  A    between atoms: C2_2  and  C3_3 
ROOT
HETATM    1  C2  UNL     1     -32.999   6.432   1.964  1.00 20.00     0.391 C 
HETATM    2  F5  UNL     1     -33.786   6.400   0.856  1.00 20.00    -0.188 F 
HETATM    3  F6  UNL     1     -32.283   5.277   1.962  1.00 20.00    -0.188 F 
ENDROOT
BRANCH   1   4
HETATM    4  C1  UNL     1     -32.080   7.620   1.941  1.00 20.00     0.319 C 
HETATM    5  O4  UNL     1     -32.272   8.610   1.244  1.00 20.00    -0.300 OA
ENDBRANCH   1   4
BRANCH   1   6
HETATM    6  C3  UNL     1     -33.880   6.456   3.186  1.00 20.00     0.461 C 
HETATM    7  F7  UNL     1     -35.163   6.726   2.862  1.00 20.00    -0.165 F 
HETATM    8  F8  UNL     1     -33.859   5.258   3.811  1.00 20.00    -0.165 F 
HETATM    9  F9  UNL     1     -33.469   7.387   4.073  1.00 20.00    -0.165 F 
ENDBRANCH   1   6
TORSDOF 2
ENDMDL
MODEL 3
REMARK VINA RESULT:      -2.6      1.375      2.488
REMARK  2 active torsions:
REMARK  status: ('A' for Active; 'I' for Inactive)
REMARK    1  A    between atoms: C1_1  and  C2_2 
REMARK    2  A    between atoms: C2_2  and  C3_3 
ROOT
HETATM    1  C2  UNL     1     -33.018   6.437   1.973  1.00 20.00     0.391 C 
HETATM    2  F5  UNL     1     -33.807   6.420   0.866  1.00 20.00    -0.188 F 
HETATM    3  F6  UNL     1     -32.301   5.283   1.952  1.00 20.00    -0.188 F 
ENDROOT
BRANCH   1   4
HETATM    4  C1  UNL     1     -32.100   7.626   1.964  1.00 20.00     0.319 C 
HETATM    5  O4  UNL     1     -32.253   8.594   1.226  1.00 20.00    -0.300 OA
ENDBRANCH   1   4
BRANCH   1   6
HETATM    6  C3  UNL     1     -33.897   6.443   3.197  1.00 20.00     0.461 C 
HETATM    7  F7  UNL     1     -33.869   5.249   3.826  1.00 20.00    -0.165 F 
HETATM    8  F8  UNL     1     -33.481   7.381   4.076  1.00 20.00    -0.165 F 
HETATM    9  F9  UNL     1     -35.180   6.718   2.882  1.00 20.00    -0.165 F 
ENDBRANCH   1   6
TORSDOF 2
ENDMDL
MODEL 4
REMARK VINA RESULT:      -2.5      2.459      3.316
REMARK  2 active torsions:
REMARK  status: ('A' for Active; 'I' for Inactive)
REMARK    1  A    between atoms: C1_1  and  C2_2 
REMARK    2  A    between atoms: C2_2  and  C3_3 
ROOT
HETATM    1  C2  UNL     1     -33.535   7.671   3.490  1.00 20.00     0.391 C 
HETATM    2  F5  UNL     1     -34.451   8.668   3.366  1.00 20.00    -0.188 F 
HETATM    3  F6  UNL     1     -32.856   7.914   4.642  1.00 20.00    -0.188 F 
ENDROOT
BRANCH   1   4
HETATM    4  C1  UNL     1     -34.203   6.327   3.549  1.00 20.00     0.319 C 
HETATM    5  O4  UNL     1     -35.326   6.149   4.008  1.00 20.00    -0.300 OA
ENDBRANCH   1   4
BRANCH   1   6
HETATM    6  C3  UNL     1     -32.573   7.746   2.333  1.00 20.00     0.461 C 
HETATM    7  F7  UNL     1     -32.513   6.573   1.668  1.00 20.00    -0.165 F 
HETATM    8  F8  UNL     1     -32.960   8.696   1.454  1.00 20.00    -0.165 F 
HETATM    9  F9  UNL     1     -31.327   8.055   2.748  1.00 20.00    -0.165 F 
ENDBRANCH   1   6
TORSDOF 2
ENDMDL
MODEL 5
REMARK VINA RESULT:      -2.5      1.850      3.040
REMARK  2 active torsions:
REMARK  status: ('A' for Active; 'I' for Inactive)
REMARK    1  A    between atoms: C1_1  and  C2_2 
REMARK    2  A    between atoms: C2_2  and  C3_3 
ROOT
HETATM    1  C2  UNL     1     -32.821   6.379   1.810  1.00 20.00     0.391 C 
HETATM    2  F5  UNL     1     -31.907   5.414   1.527  1.00 20.00    -0.188 F 
HETATM    3  F6  UNL     1     -33.719   6.370   0.791  1.00 20.00    -0.188 F 
ENDROOT
BRANCH   1   4
HETATM    4  C1  UNL     1     -33.508   6.105   3.118  1.00 20.00     0.319 C 
HETATM    5  O4  UNL     1     -34.561   6.637   3.452  1.00 20.00    -0.300 OA
ENDBRANCH   1   4
BRANCH   1   6
HETATM    6  C3  UNL     1     -32.126   7.716   1.835  1.00 20.00     0.461 C 
HETATM    7  F7  UNL     1     -32.009   8.185   3.096  1.00 20.00    -0.165 F 
HETATM    8  F8  UNL     1     -30.882   7.615   1.318  1.00 20.00    -0.165 F 
HETATM    9  F9  UNL     1     -32.798   8.634   1.109  1.00 20.00    -0.165 F 
ENDBRANCH   1   6
TORSDOF 2
ENDMDL
MODEL 6
REMARK VINA RESULT:      -2.5      3.389      4.468
REMARK  2 active torsions:
REMARK  status: ('A' for Active; 'I' for Inactive)
REMARK    1  A    between atoms: C1_1  and  C2_2 
REMARK    2  A    between atoms: C2_2  and  C3_3 
ROOT
HETATM    1  C2  UNL     1     -34.989   6.344   3.929  1.00 20.00     0.391 C 
HETATM    2  F5  UNL     1     -36.031   6.526   3.074  1.00 20.00    -0.188 F 
HETATM    3  F6  UNL     1     -35.520   6.301   5.179  1.00 20.00    -0.188 F 
ENDROOT
BRANCH   1   4
HETATM    4  C1  UNL     1     -34.257   5.068   3.625  1.00 20.00     0.319 C 
HETATM    5  O4  UNL     1     -34.342   4.059   4.317  1.00 20.00    -0.300 OA
ENDBRANCH   1   4
BRANCH   1   6
HETATM    6  C3  UNL     1     -34.067   7.532   3.832  1.00 20.00     0.461 C 
HETATM    7  F7  UNL     1     -33.116   7.339   2.893  1.00 20.00    -0.165 F 
HETATM    8  F8  UNL     1     -34.757   8.644   3.496  1.00 20.00    -0.165 F 
HETATM    9  F9  UNL     1     -33.449   7.773   5.008  1.00 20.00    -0.165 F 
ENDBRANCH   1   6
TORSDOF 2
ENDMDL
MODEL 7
REMARK VINA RESULT:      -2.4      1.633      2.371
REMARK  2 active torsions:
REMARK  status: ('A' for Active; 'I' for Inactive)
REMARK    1  A    between atoms: C1_1  and  C2_2 
REMARK    2  A    between atoms: C2_2  and  C3_3 
ROOT
HETATM    1  C2  UNL     1     -32.424   7.358   2.035  1.00 20.00     0.391 C 
HETATM    2  F5  UNL     1     -32.958   8.208   1.117  1.00 20.00    -0.188 F 
HETATM    3  F6  UNL     1     -31.082   7.574   2.025  1.00 20.00    -0.188 F 
ENDROOT
BRANCH   1   4
HETATM    4  C1  UNL     1     -32.988   7.617   3.403  1.00 20.00     0.319 C 
HETATM    5  O4  UNL     1     -34.187   7.591   3.656  1.00 20.00    -0.300 OA
ENDBRANCH   1   4
BRANCH   1   6
HETATM    6  C3  UNL     1     -32.692   5.941   1.600  1.00 20.00     0.461 C 
HETATM    7  F7  UNL     1     -33.558   5.900   0.565  1.00 20.00    -0.165 F 
HETATM    8  F8  UNL     1     -31.548   5.342   1.201  1.00 20.00    -0.165 F 
HETATM    9  F9  UNL     1     -33.210   5.206   2.606  1.00 20.00    -0.165 F 
ENDBRANCH   1   6
TORSDOF 2
ENDMDL
MODEL 8
REMARK VINA RESULT:      -2.4      3.391      4.459
REMARK  2 active torsions:
REMARK  status: ('A' for Active; 'I' for Inactive)
REMARK    1  A    between atoms: C1_1  and  C2_2 
REMARK    2  A    between atoms: C2_2  and  C3_3 
ROOT
HETATM    1  C2  UNL     1     -34.989   6.340   3.936  1.00 20.00     0.391 C 
HETATM    2  F5  UNL     1     -36.040   6.510   3.091  1.00 20.00    -0.188 F 
HETATM    3  F6  UNL     1     -35.507   6.300   5.192  1.00 20.00    -0.188 F 
ENDROOT
BRANCH   1   4
HETATM    4  C1  UNL     1     -34.250   5.068   3.632  1.00 20.00     0.319 C 
HETATM    5  O4  UNL     1     -34.356   4.048   4.304  1.00 20.00    -0.300 OA
ENDBRANCH   1   4
BRANCH   1   6
HETATM    6  C3  UNL     1     -34.077   7.534   3.824  1.00 20.00     0.461 C 
HETATM    7  F7  UNL     1     -33.447   7.782   4.993  1.00 20.00    -0.165 F 
HETATM    8  F8  UNL     1     -33.129   7.322   2.885  1.00 20.00    -0.165 F 
HETATM    9  F9  UNL     1     -34.759   8.645   3.475  1.00 20.00    -0.165 F 
ENDBRANCH   1   6
TORSDOF 2
ENDMDL
MODEL 9
REMARK VINA RESULT:      -2.4      3.390      4.462
REMARK  2 active torsions:
REMARK  status: ('A' for Active; 'I' for Inactive)
REMARK    1  A    between atoms: C1_1  and  C2_2 
REMARK    2  A    between atoms: C2_2  and  C3_3 
ROOT
HETATM    1  C2  UNL     1     -34.989   6.341   3.932  1.00 20.00     0.391 C 
HETATM    2  F5  UNL     1     -36.041   6.509   3.087  1.00 20.00    -0.188 F 
HETATM    3  F6  UNL     1     -35.506   6.309   5.189  1.00 20.00    -0.188 F 
ENDROOT
BRANCH   1   4
HETATM    4  C1  UNL     1     -34.254   5.065   3.635  1.00 20.00     0.319 C 
HETATM    5  O4  UNL     1     -34.357   4.051   4.315  1.00 20.00    -0.300 OA
ENDBRANCH   1   4
BRANCH   1   6
HETATM    6  C3  UNL     1     -34.074   7.532   3.814  1.00 20.00     0.461 C 
HETATM    7  F7  UNL     1     -34.759   8.646   3.476  1.00 20.00    -0.165 F 
HETATM    8  F8  UNL     1     -33.453   7.773   4.989  1.00 20.00    -0.165 F 
HETATM    9  F9  UNL     1     -33.120   7.330   2.880  1.00 20.00    -0.165 F 
ENDBRANCH   1   6
TORSDOF 2
ENDMDL
