MODEL 1
REMARK VINA RESULT:       2.0      0.000      0.000
REMARK  0 active torsions:
REMARK  status: ('A' for Active; 'I' for Inactive)
ROOT
HETATM    1  C1  UNL     1     -34.975   5.424   4.260  1.00 20.00     0.000 C 
HETATM    2  C2  UNL     1     -35.214   6.820   3.701  1.00 20.00     0.000 C 
HETATM    3  C3  UNL     1     -33.813   4.627   3.676  1.00 20.00     0.000 C 
HETATM    4  C4  UNL     1     -34.127   7.855   3.961  1.00 20.00     0.001 C 
HETATM    5  C5  UNL     1     -33.594   4.788   2.171  1.00 20.00     0.001 C 
HETATM    6  C6  UNL     1     -32.699   7.594   3.472  1.00 20.00     0.012 C 
HETATM    7  C7  UNL     1     -32.375   5.640   1.809  1.00 20.00     0.012 C 
HETATM    8  C8  UNL     1     -33.346   7.879   0.980  1.00 20.00     0.038 C 
HETATM    9  C9  UNL     1     -32.738   9.264   0.882  1.00 20.00     0.168 C 
HETATM   10  C10 UNL     1     -31.094   7.767   1.553  1.00 20.00     0.177 C 
HETATM   11  C11 UNL     1     -32.452   7.172   1.996  1.00 20.00    -0.017 C 
HETATM   12  O12 UNL     1     -31.339   9.125   1.159  1.00 20.00    -0.390 OA
ENDROOT
TORSDOF 0
ENDMDL
MODEL 2
REMARK VINA RESULT:       2.5      0.869      2.491
REMARK  0 active torsions:
REMARK  status: ('A' for Active; 'I' for Inactive)
ROOT
HETATM    1  C1  UNL     1     -34.395   4.873   3.800  1.00 20.00     0.000 C 
HETATM    2  C2  UNL     1     -33.018   4.891   3.152  1.00 20.00     0.000 C 
HETATM    3  C3  UNL     1     -35.102   6.214   3.975  1.00 20.00     0.000 C 
HETATM    4  C4  UNL     1     -32.954   5.329   1.695  1.00 20.00     0.001 C 
HETATM    5  C5  UNL     1     -34.203   7.389   4.357  1.00 20.00     0.001 C 
HETATM    6  C6  UNL     1     -33.474   6.713   1.294  1.00 20.00     0.012 C 
HETATM    7  C7  UNL     1     -33.954   8.377   3.216  1.00 20.00     0.012 C 
HETATM    8  C8  UNL     1     -31.524   7.945   2.474  1.00 20.00     0.038 C 
HETATM    9  C9  UNL     1     -30.800   8.242   1.175  1.00 20.00     0.168 C 
HETATM   10  C10 UNL     1     -32.934   9.151   1.072  1.00 20.00     0.177 C 
HETATM   11  C11 UNL     1     -32.996   7.972   2.072  1.00 20.00    -0.017 C 
HETATM   12  O12 UNL     1     -31.676   9.056   0.388  1.00 20.00    -0.390 OA
ENDROOT
TORSDOF 0
ENDMDL
