MODEL 1
REMARK VINA RESULT:      -3.8      0.000      0.000
REMARK  3 active torsions:
REMARK  status: ('A' for Active; 'I' for Inactive)
REMARK    1  A    between atoms: C1_1  and  C3_3 
REMARK    2  A    between atoms: C1_1  and  O4_4 
REMARK    3  A    between atoms: C2_2  and  O4_4 
ROOT
HETATM    1  C1  UNL     1     -33.748   6.428   2.817  1.00 20.00     0.291 C 
ENDROOT
BRANCH   1   2
HETATM    2  C3  UNL     1     -34.867   6.412   3.827  1.00 20.00     0.408 C 
HETATM    3  F7  UNL     1     -34.951   5.203   4.424  1.00 20.00    -0.169 F 
HETATM    4  F8  UNL     1     -36.057   6.665   3.242  1.00 20.00    -0.169 F 
HETATM    5  F9  UNL     1     -34.669   7.335   4.792  1.00 20.00    -0.169 F 
ENDBRANCH   1   2
BRANCH   1   6
HETATM    6  O4  UNL     1     -33.074   7.675   2.893  1.00 20.00    -0.324 OA
BRANCH   6   7
HETATM    7  C2  UNL     1     -31.976   7.756   1.996  1.00 20.00     0.500 C 
HETATM    8  F5  UNL     1     -31.766   6.545   1.427  1.00 20.00    -0.185 F 
HETATM    9  F6  UNL     1     -32.263   8.636   1.007  1.00 20.00    -0.185 F 
ENDBRANCH   6   7
ENDBRANCH   1   6
TORSDOF 3
ENDMDL
MODEL 2
REMARK VINA RESULT:      -3.8      0.022      1.256
REMARK  3 active torsions:
REMARK  status: ('A' for Active; 'I' for Inactive)
REMARK    1  A    between atoms: C1_1  and  C3_3 
REMARK    2  A    between atoms: C1_1  and  O4_4 
REMARK    3  A    between atoms: C2_2  and  O4_4 
ROOT
HETATM    1  C1  UNL     1     -33.751   6.421   2.837  1.00 20.00     0.291 C 
ENDROOT
BRANCH   1   2
HETATM    2  C3  UNL     1     -34.880   6.409   3.835  1.00 20.00     0.408 C 
HETATM    3  F7  UNL     1     -34.674   7.333   4.798  1.00 20.00    -0.169 F 
HETATM    4  F8  UNL     1     -34.990   5.205   4.436  1.00 20.00    -0.169 F 
HETATM    5  F9  UNL     1     -36.061   6.690   3.242  1.00 20.00    -0.169 F 
ENDBRANCH   1   2
BRANCH   1   6
HETATM    6  O4  UNL     1     -33.090   7.675   2.899  1.00 20.00    -0.324 OA
BRANCH   6   7
HETATM    7  C2  UNL     1     -31.993   7.759   2.002  1.00 20.00     0.500 C 
HETATM    8  F5  UNL     1     -31.783   6.549   1.430  1.00 20.00    -0.185 F 
HETATM    9  F6  UNL     1     -32.281   8.641   1.016  1.00 20.00    -0.185 F 
ENDBRANCH   6   7
ENDBRANCH   1   6
TORSDOF 3
ENDMDL
MODEL 3
REMARK VINA RESULT:      -3.8      0.026      1.261
REMARK  3 active torsions:
REMARK  status: ('A' for Active; 'I' for Inactive)
REMARK    1  A    between atoms: C1_1  and  C3_3 
REMARK    2  A    between atoms: C1_1  and  O4_4 
REMARK    3  A    between atoms: C2_2  and  O4_4 
ROOT
HETATM    1  C1  UNL     1     -33.760   6.458   2.796  1.00 20.00     0.291 C 
ENDROOT
BRANCH   1   2
HETATM    2  C3  UNL     1     -34.855   6.418   3.829  1.00 20.00     0.408 C 
HETATM    3  F7  UNL     1     -36.055   6.673   3.262  1.00 20.00    -0.169 F 
HETATM    4  F8  UNL     1     -34.653   7.341   4.794  1.00 20.00    -0.169 F 
HETATM    5  F9  UNL     1     -34.929   5.205   4.418  1.00 20.00    -0.169 F 
ENDBRANCH   1   2
BRANCH   1   6
HETATM    6  O4  UNL     1     -33.071   7.695   2.897  1.00 20.00    -0.324 OA
BRANCH   6   7
HETATM    7  C2  UNL     1     -31.977   7.785   1.997  1.00 20.00     0.500 C 
HETATM    8  F5  UNL     1     -31.751   6.574   1.435  1.00 20.00    -0.185 F 
HETATM    9  F6  UNL     1     -32.278   8.655   1.003  1.00 20.00    -0.185 F 
ENDBRANCH   6   7
ENDBRANCH   1   6
TORSDOF 3
ENDMDL
MODEL 4
REMARK VINA RESULT:      -3.7      0.681      1.680
REMARK  3 active torsions:
REMARK  status: ('A' for Active; 'I' for Inactive)
REMARK    1  A    between atoms: C1_1  and  C3_3 
REMARK    2  A    between atoms: C1_1  and  O4_4 
REMARK    3  A    between atoms: C2_2  and  O4_4 
ROOT
HETATM    1  C1  UNL     1     -33.896   6.074   3.026  1.00 20.00     0.291 C 
ENDROOT
BRANCH   1   2
HETATM    2  C3  UNL     1     -35.071   6.293   3.945  1.00 20.00     0.408 C 
HETATM    3  F7  UNL     1     -36.163   6.663   3.241  1.00 20.00    -0.169 F 
HETATM    4  F8  UNL     1     -34.814   7.264   4.846  1.00 20.00    -0.169 F 
HETATM    5  F9  UNL     1     -35.380   5.165   4.620  1.00 20.00    -0.169 F 
ENDBRANCH   1   2
BRANCH   1   6
HETATM    6  O4  UNL     1     -33.215   7.306   2.843  1.00 20.00    -0.324 OA
BRANCH   6   7
HETATM    7  C2  UNL     1     -32.335   7.282   1.729  1.00 20.00     0.500 C 
HETATM    8  F5  UNL     1     -31.191   7.937   2.042  1.00 20.00    -0.185 F 
HETATM    9  F6  UNL     1     -32.013   6.000   1.433  1.00 20.00    -0.185 F 
ENDBRANCH   6   7
ENDBRANCH   1   6
TORSDOF 3
ENDMDL
MODEL 5
REMARK VINA RESULT:      -3.7      0.688      1.669
REMARK  3 active torsions:
REMARK  status: ('A' for Active; 'I' for Inactive)
REMARK    1  A    between atoms: C1_1  and  C3_3 
REMARK    2  A    between atoms: C1_1  and  O4_4 
REMARK    3  A    between atoms: C2_2  and  O4_4 
ROOT
HETATM    1  C1  UNL     1     -33.925   6.044   3.022  1.00 20.00     0.291 C 
ENDROOT
BRANCH   1   2
HETATM    2  C3  UNL     1     -35.096   6.283   3.940  1.00 20.00     0.408 C 
HETATM    3  F7  UNL     1     -34.815   7.263   4.826  1.00 20.00    -0.169 F 
HETATM    4  F8  UNL     1     -35.403   5.171   4.641  1.00 20.00    -0.169 F 
HETATM    5  F9  UNL     1     -36.193   6.657   3.247  1.00 20.00    -0.169 F 
ENDBRANCH   1   2
BRANCH   1   6
HETATM    6  O4  UNL     1     -33.207   7.258   2.862  1.00 20.00    -0.324 OA
BRANCH   6   7
HETATM    7  C2  UNL     1     -32.358   7.243   1.724  1.00 20.00     0.500 C 
HETATM    8  F5  UNL     1     -31.219   7.921   2.000  1.00 20.00    -0.185 F 
HETATM    9  F6  UNL     1     -32.020   5.965   1.427  1.00 20.00    -0.185 F 
ENDBRANCH   6   7
ENDBRANCH   1   6
TORSDOF 3
ENDMDL
MODEL 6
REMARK VINA RESULT:      -3.5      1.143      3.905
REMARK  3 active torsions:
REMARK  status: ('A' for Active; 'I' for Inactive)
REMARK    1  A    between atoms: C1_1  and  C3_3 
REMARK    2  A    between atoms: C1_1  and  O4_4 
REMARK    3  A    between atoms: C2_2  and  O4_4 
ROOT
HETATM    1  C1  UNL     1     -33.176   6.774   1.857  1.00 20.00     0.291 C 
ENDROOT
BRANCH   1   2
HETATM    2  C3  UNL     1     -32.143   7.869   1.914  1.00 20.00     0.408 C 
HETATM    3  F7  UNL     1     -30.980   7.456   1.365  1.00 20.00    -0.169 F 
HETATM    4  F8  UNL     1     -31.888   8.236   3.188  1.00 20.00    -0.169 F 
HETATM    5  F9  UNL     1     -32.552   8.963   1.237  1.00 20.00    -0.169 F 
ENDBRANCH   1   2
BRANCH   1   6
HETATM    6  O4  UNL     1     -33.473   6.346   3.177  1.00 20.00    -0.324 OA
BRANCH   6   7
HETATM    7  C2  UNL     1     -34.658   6.939   3.689  1.00 20.00     0.500 C 
HETATM    8  F5  UNL     1     -35.444   5.980   4.234  1.00 20.00    -0.185 F 
HETATM    9  F6  UNL     1     -34.339   7.821   4.665  1.00 20.00    -0.185 F 
ENDBRANCH   6   7
ENDBRANCH   1   6
TORSDOF 3
ENDMDL
MODEL 7
REMARK VINA RESULT:      -3.5      1.029      4.120
REMARK  3 active torsions:
REMARK  status: ('A' for Active; 'I' for Inactive)
REMARK    1  A    between atoms: C1_1  and  C3_3 
REMARK    2  A    between atoms: C1_1  and  O4_4 
REMARK    3  A    between atoms: C2_2  and  O4_4 
ROOT
HETATM    1  C1  UNL     1     -33.396   7.649   3.066  1.00 20.00     0.291 C 
ENDROOT
BRANCH   1   2
HETATM    2  C3  UNL     1     -32.299   7.674   2.033  1.00 20.00     0.408 C 
HETATM    3  F7  UNL     1     -32.125   6.447   1.494  1.00 20.00    -0.169 F 
HETATM    4  F8  UNL     1     -31.123   8.055   2.575  1.00 20.00    -0.169 F 
HETATM    5  F9  UNL     1     -32.594   8.527   1.028  1.00 20.00    -0.169 F 
ENDBRANCH   1   2
BRANCH   1   6
HETATM    6  O4  UNL     1     -33.887   6.323   3.189  1.00 20.00    -0.324 OA
BRANCH   6   7
HETATM    7  C2  UNL     1     -35.023   6.238   4.037  1.00 20.00     0.500 C 
HETATM    8  F5  UNL     1     -36.124   6.638   3.359  1.00 20.00    -0.185 F 
HETATM    9  F6  UNL     1     -35.211   4.952   4.416  1.00 20.00    -0.185 F 
ENDBRANCH   6   7
ENDBRANCH   1   6
TORSDOF 3
ENDMDL
MODEL 8
REMARK VINA RESULT:      -3.5      1.354      4.037
REMARK  3 active torsions:
REMARK  status: ('A' for Active; 'I' for Inactive)
REMARK    1  A    between atoms: C1_1  and  C3_3 
REMARK    2  A    between atoms: C1_1  and  O4_4 
REMARK    3  A    between atoms: C2_2  and  O4_4 
ROOT
HETATM    1  C1  UNL     1     -33.431   5.498   2.840  1.00 20.00     0.291 C 
ENDROOT
BRANCH   1   2
HETATM    2  C3  UNL     1     -32.764   5.972   1.575  1.00 20.00     0.408 C 
HETATM    3  F7  UNL     1     -31.627   5.278   1.348  1.00 20.00    -0.169 F 
HETATM    4  F8  UNL     1     -32.439   7.280   1.654  1.00 20.00    -0.169 F 
HETATM    5  F9  UNL     1     -33.569   5.804   0.504  1.00 20.00    -0.169 F 
ENDBRANCH   1   2
BRANCH   1   6
HETATM    6  O4  UNL     1     -34.007   6.611   3.506  1.00 20.00    -0.324 OA
BRANCH   6   7
HETATM    7  C2  UNL     1     -35.241   6.293   4.134  1.00 20.00     0.500 C 
HETATM    8  F5  UNL     1     -36.263   6.575   3.292  1.00 20.00    -0.185 F 
HETATM    9  F6  UNL     1     -35.281   4.967   4.408  1.00 20.00    -0.185 F 
ENDBRANCH   6   7
ENDBRANCH   1   6
TORSDOF 3
ENDMDL
MODEL 9
REMARK VINA RESULT:      -3.4      2.756      4.111
REMARK  3 active torsions:
REMARK  status: ('A' for Active; 'I' for Inactive)
REMARK    1  A    between atoms: C1_1  and  C3_3 
REMARK    2  A    between atoms: C1_1  and  O4_4 
REMARK    3  A    between atoms: C2_2  and  O4_4 
ROOT
HETATM    1  C1  UNL     1     -34.069   5.110   3.575  1.00 20.00     0.291 C 
ENDROOT
BRANCH   1   2
HETATM    2  C3  UNL     1     -34.988   6.221   4.014  1.00 20.00     0.408 C 
HETATM    3  F7  UNL     1     -34.278   7.316   4.363  1.00 20.00    -0.169 F 
HETATM    4  F8  UNL     1     -35.727   5.852   5.081  1.00 20.00    -0.169 F 
HETATM    5  F9  UNL     1     -35.833   6.577   3.022  1.00 20.00    -0.169 F 
ENDBRANCH   1   2
BRANCH   1   6
HETATM    6  O4  UNL     1     -34.309   3.965   4.378  1.00 20.00    -0.324 OA
BRANCH   6   7
HETATM    7  C2  UNL     1     -33.168   3.125   4.485  1.00 20.00     0.500 C 
HETATM    8  F5  UNL     1     -32.624   3.257   5.718  1.00 20.00    -0.185 F 
HETATM    9  F6  UNL     1     -33.541   1.833   4.330  1.00 20.00    -0.185 F 
ENDBRANCH   6   7
ENDBRANCH   1   6
TORSDOF 3
ENDMDL
