MODEL 1
REMARK VINA RESULT:      -1.7      0.000      0.000
REMARK  0 active torsions:
REMARK  status: ('A' for Active; 'I' for Inactive)
ROOT
HETATM    1  C1  UNL     1     -34.895   5.538   4.275  1.00 20.00     0.009 A 
HETATM    2  C2  UNL     1     -35.716   6.506   3.471  1.00 20.00     0.009 A 
HETATM    3  C3  UNL     1     -34.226   6.718   3.608  1.00 20.00    -0.048 A 
HETATM    4  C4  UNL     1     -33.750   7.845   4.482  1.00 20.00     0.015 C 
HETATM    5  C5  UNL     1     -33.363   6.452   2.405  1.00 20.00     0.015 C 
ENDROOT
TORSDOF 0
ENDMDL
MODEL 2
REMARK VINA RESULT:      -1.7      0.808      1.969
REMARK  0 active torsions:
REMARK  status: ('A' for Active; 'I' for Inactive)
ROOT
HETATM    1  C1  UNL     1     -34.226   7.166   4.293  1.00 20.00     0.009 A 
HETATM    2  C2  UNL     1     -35.410   6.742   3.471  1.00 20.00     0.009 A 
HETATM    3  C3  UNL     1     -34.124   5.952   3.399  1.00 20.00    -0.048 A 
HETATM    4  C4  UNL     1     -33.295   6.064   2.149  1.00 20.00     0.015 C 
HETATM    5  C5  UNL     1     -34.092   4.597   4.051  1.00 20.00     0.015 C 
ENDROOT
TORSDOF 0
ENDMDL
MODEL 3
REMARK VINA RESULT:      -1.7      0.808      1.866
REMARK  0 active torsions:
REMARK  status: ('A' for Active; 'I' for Inactive)
ROOT
HETATM    1  C1  UNL     1     -35.411   6.741   3.470  1.00 20.00     0.009 A 
HETATM    2  C2  UNL     1     -34.227   7.165   4.292  1.00 20.00     0.009 A 
HETATM    3  C3  UNL     1     -34.124   5.951   3.399  1.00 20.00    -0.048 A 
HETATM    4  C4  UNL     1     -34.092   4.596   4.051  1.00 20.00     0.015 C 
HETATM    5  C5  UNL     1     -33.295   6.063   2.149  1.00 20.00     0.015 C 
ENDROOT
TORSDOF 0
ENDMDL
MODEL 4
REMARK VINA RESULT:      -1.7      1.761      3.493
REMARK  0 active torsions:
REMARK  status: ('A' for Active; 'I' for Inactive)
ROOT
HETATM    1  C1  UNL     1     -31.460   8.037   2.215  1.00 20.00     0.009 A 
HETATM    2  C2  UNL     1     -32.558   8.458   1.280  1.00 20.00     0.009 A 
HETATM    3  C3  UNL     1     -32.742   7.239   2.154  1.00 20.00    -0.048 A 
HETATM    4  C4  UNL     1     -32.701   5.887   1.499  1.00 20.00     0.015 C 
HETATM    5  C5  UNL     1     -33.693   7.343   3.315  1.00 20.00     0.015 C 
ENDROOT
TORSDOF 0
ENDMDL
MODEL 5
REMARK VINA RESULT:      -1.7      1.766      3.251
REMARK  0 active torsions:
REMARK  status: ('A' for Active; 'I' for Inactive)
ROOT
HETATM    1  C1  UNL     1     -32.556   8.462   1.278  1.00 20.00     0.009 A 
HETATM    2  C2  UNL     1     -31.458   8.043   2.213  1.00 20.00     0.009 A 
HETATM    3  C3  UNL     1     -32.740   7.246   2.155  1.00 20.00    -0.048 A 
HETATM    4  C4  UNL     1     -33.689   7.350   3.316  1.00 20.00     0.015 C 
HETATM    5  C5  UNL     1     -32.697   5.892   1.501  1.00 20.00     0.015 C 
ENDROOT
TORSDOF 0
ENDMDL
MODEL 6
REMARK VINA RESULT:      -1.4      1.542      3.120
REMARK  0 active torsions:
REMARK  status: ('A' for Active; 'I' for Inactive)
ROOT
HETATM    1  C1  UNL     1     -33.161   5.810   0.789  1.00 20.00     0.009 A 
HETATM    2  C2  UNL     1     -32.042   5.371   1.689  1.00 20.00     0.009 A 
HETATM    3  C3  UNL     1     -32.800   6.641   1.998  1.00 20.00    -0.048 A 
HETATM    4  C4  UNL     1     -32.102   7.953   1.769  1.00 20.00     0.015 C 
HETATM    5  C5  UNL     1     -33.744   6.631   3.168  1.00 20.00     0.015 C 
ENDROOT
TORSDOF 0
ENDMDL
MODEL 7
REMARK VINA RESULT:      -1.4      1.543      2.874
REMARK  0 active torsions:
REMARK  status: ('A' for Active; 'I' for Inactive)
ROOT
HETATM    1  C1  UNL     1     -32.030   5.373   1.691  1.00 20.00     0.009 A 
HETATM    2  C2  UNL     1     -33.149   5.804   0.786  1.00 20.00     0.009 A 
HETATM    3  C3  UNL     1     -32.798   6.638   1.996  1.00 20.00    -0.048 A 
HETATM    4  C4  UNL     1     -33.746   6.624   3.163  1.00 20.00     0.015 C 
HETATM    5  C5  UNL     1     -32.107   7.955   1.767  1.00 20.00     0.015 C 
ENDROOT
TORSDOF 0
ENDMDL
MODEL 8
REMARK VINA RESULT:      -1.2      0.634      2.238
REMARK  0 active torsions:
REMARK  status: ('A' for Active; 'I' for Inactive)
ROOT
HETATM    1  C1  UNL     1     -33.553   7.677   4.622  1.00 20.00     0.009 A 
HETATM    2  C2  UNL     1     -34.489   8.224   3.582  1.00 20.00     0.009 A 
HETATM    3  C3  UNL     1     -34.224   6.738   3.646  1.00 20.00    -0.048 A 
HETATM    4  C4  UNL     1     -33.381   6.124   2.564  1.00 20.00     0.015 C 
HETATM    5  C5  UNL     1     -35.322   5.849   4.164  1.00 20.00     0.015 C 
ENDROOT
TORSDOF 0
ENDMDL
MODEL 9
REMARK VINA RESULT:      -1.1      0.696      2.088
REMARK  0 active torsions:
REMARK  status: ('A' for Active; 'I' for Inactive)
ROOT
HETATM    1  C1  UNL     1     -33.193   5.421   3.343  1.00 20.00     0.009 A 
HETATM    2  C2  UNL     1     -33.610   6.270   2.176  1.00 20.00     0.009 A 
HETATM    3  C3  UNL     1     -34.161   6.562   3.552  1.00 20.00    -0.048 A 
HETATM    4  C4  UNL     1     -35.601   6.226   3.823  1.00 20.00     0.015 C 
HETATM    5  C5  UNL     1     -33.661   7.789   4.265  1.00 20.00     0.015 C 
ENDROOT
TORSDOF 0
ENDMDL
