MODEL 1
REMARK VINA RESULT:      -1.0      0.000      0.000
REMARK  1 active torsions:
REMARK  status: ('A' for Active; 'I' for Inactive)
REMARK    1  A    between atoms: C4_4  and  C8_8 
ROOT
HETATM    1  C1  UNL     1     -35.033   4.827   4.624  1.00 20.00    -0.007 C 
HETATM    2  C2  UNL     1     -33.940   4.208   4.157  1.00 20.00     0.009 C 
HETATM    3  C5  UNL     1     -35.432   6.206   4.190  1.00 20.00     0.029 C 
HETATM    4  C6  UNL     1     -32.984   4.831   3.182  1.00 20.00     0.061 C 
HETATM    5  C7  UNL     1     -34.671   6.699   2.956  1.00 20.00     0.014 C 
HETATM    6  C8  UNL     1     -33.177   6.355   3.047  1.00 20.00     0.035 C 
HETATM    7 CL9  UNL     1     -33.544   2.610   4.682  1.00 20.00    -0.089 Cl
ENDROOT
BRANCH   6   8
HETATM    8  C4  UNL     1     -32.426   6.886   1.863  1.00 20.00     0.007 C 
HETATM    9  C3  UNL     1     -32.195   8.184   1.634  1.00 20.00     0.032 C 
HETATM   10 CL10 UNL     1     -31.846   5.690   0.756  1.00 20.00    -0.089 Cl
ENDBRANCH   6   8
TORSDOF 1
ENDMDL
MODEL 2
REMARK VINA RESULT:      -0.7      2.017      4.080
REMARK  1 active torsions:
REMARK  status: ('A' for Active; 'I' for Inactive)
REMARK    1  A    between atoms: C4_4  and  C8_8 
ROOT
HETATM    1  C1  UNL     1     -31.542   7.023   0.811  1.00 20.00    -0.007 C 
HETATM    2  C2  UNL     1     -32.116   5.865   1.165  1.00 20.00     0.009 C 
HETATM    3  C5  UNL     1     -31.828   8.318   1.512  1.00 20.00     0.029 C 
HETATM    4  C6  UNL     1     -33.124   5.740   2.271  1.00 20.00     0.061 C 
HETATM    5  C7  UNL     1     -32.571   8.140   2.839  1.00 20.00     0.014 C 
HETATM    6  C8  UNL     1     -33.696   7.102   2.715  1.00 20.00     0.035 C 
HETATM    7 CL9  UNL     1     -31.731   4.402   0.330  1.00 20.00    -0.089 Cl
ENDROOT
BRANCH   6   8
HETATM    8  C4  UNL     1     -34.455   6.969   4.000  1.00 20.00     0.007 C 
HETATM    9  C3  UNL     1     -35.426   6.075   4.216  1.00 20.00     0.032 C 
HETATM   10 CL10 UNL     1     -33.997   8.076   5.249  1.00 20.00    -0.089 Cl
ENDBRANCH   6   8
TORSDOF 1
ENDMDL
MODEL 3
REMARK VINA RESULT:      -0.6      1.048      1.203
REMARK  1 active torsions:
REMARK  status: ('A' for Active; 'I' for Inactive)
REMARK    1  A    between atoms: C4_4  and  C8_8 
ROOT
HETATM    1  C1  UNL     1     -34.997   4.782   4.670  1.00 20.00    -0.007 C 
HETATM    2  C2  UNL     1     -33.922   4.146   4.185  1.00 20.00     0.009 C 
HETATM    3  C5  UNL     1     -35.407   6.149   4.211  1.00 20.00     0.029 C 
HETATM    4  C6  UNL     1     -32.995   4.740   3.163  1.00 20.00     0.061 C 
HETATM    5  C7  UNL     1     -34.684   6.606   2.939  1.00 20.00     0.014 C 
HETATM    6  C8  UNL     1     -33.189   6.260   2.992  1.00 20.00     0.035 C 
HETATM    7 CL9  UNL     1     -33.512   2.562   4.740  1.00 20.00    -0.089 Cl
ENDROOT
BRANCH   6   8
HETATM    8  C4  UNL     1     -32.476   6.756   1.771  1.00 20.00     0.007 C 
HETATM    9  C3  UNL     1     -32.042   5.971   0.778  1.00 20.00     0.032 C 
HETATM   10 CL10 UNL     1     -32.228   8.466   1.701  1.00 20.00    -0.089 Cl
ENDBRANCH   6   8
TORSDOF 1
ENDMDL
MODEL 4
REMARK VINA RESULT:      -0.6      1.782      4.604
REMARK  1 active torsions:
REMARK  status: ('A' for Active; 'I' for Inactive)
REMARK    1  A    between atoms: C4_4  and  C8_8 
ROOT
HETATM    1  C1  UNL     1     -31.644   7.406   0.897  1.00 20.00    -0.007 C 
HETATM    2  C2  UNL     1     -32.473   8.213   1.573  1.00 20.00     0.009 C 
HETATM    3  C5  UNL     1     -31.656   5.915   1.052  1.00 20.00     0.029 C 
HETATM    4  C6  UNL     1     -33.474   7.721   2.579  1.00 20.00     0.061 C 
HETATM    5  C7  UNL     1     -32.887   5.391   1.797  1.00 20.00     0.014 C 
HETATM    6  C8  UNL     1     -33.217   6.265   3.016  1.00 20.00     0.035 C 
HETATM    7 CL9  UNL     1     -32.424   9.923   1.335  1.00 20.00    -0.089 Cl
ENDROOT
BRANCH   6   8
HETATM    8  C4  UNL     1     -34.389   5.719   3.773  1.00 20.00     0.007 C 
HETATM    9  C3  UNL     1     -35.516   6.399   4.016  1.00 20.00     0.032 C 
HETATM   10 CL10 UNL     1     -34.211   4.096   4.345  1.00 20.00    -0.089 Cl
ENDBRANCH   6   8
TORSDOF 1
ENDMDL
MODEL 5
REMARK VINA RESULT:      -0.2      2.577      4.887
REMARK  1 active torsions:
REMARK  status: ('A' for Active; 'I' for Inactive)
REMARK    1  A    between atoms: C4_4  and  C8_8 
ROOT
HETATM    1  C1  UNL     1     -31.728   7.319   0.622  1.00 20.00    -0.007 C 
HETATM    2  C2  UNL     1     -32.306   8.438   1.080  1.00 20.00     0.009 C 
HETATM    3  C5  UNL     1     -31.954   5.975   1.246  1.00 20.00     0.029 C 
HETATM    4  C6  UNL     1     -33.210   8.476   2.279  1.00 20.00     0.061 C 
HETATM    5  C7  UNL     1     -33.127   5.951   2.231  1.00 20.00     0.014 C 
HETATM    6  C8  UNL     1     -33.125   7.195   3.132  1.00 20.00     0.035 C 
HETATM    7 CL9  UNL     1     -32.021   9.956   0.305  1.00 20.00    -0.089 Cl
ENDROOT
BRANCH   6   8
HETATM    8  C4  UNL     1     -34.242   7.142   4.130  1.00 20.00     0.007 C 
HETATM    9  C3  UNL     1     -35.305   6.334   4.033  1.00 20.00     0.032 C 
HETATM   10 CL10 UNL     1     -34.088   8.221   5.473  1.00 20.00    -0.089 Cl
ENDBRANCH   6   8
TORSDOF 1
ENDMDL
MODEL 6
REMARK VINA RESULT:      -0.0      1.122      3.911
REMARK  1 active torsions:
REMARK  status: ('A' for Active; 'I' for Inactive)
REMARK    1  A    between atoms: C4_4  and  C8_8 
ROOT
HETATM    1  C1  UNL     1     -31.640   7.004   1.139  1.00 20.00    -0.007 C 
HETATM    2  C2  UNL     1     -31.933   5.698   1.194  1.00 20.00     0.009 C 
HETATM    3  C5  UNL     1     -32.278   8.017   2.041  1.00 20.00     0.029 C 
HETATM    4  C6  UNL     1     -32.949   5.112   2.133  1.00 20.00     0.061 C 
HETATM    5  C7  UNL     1     -33.038   7.393   3.216  1.00 20.00     0.014 C 
HETATM    6  C8  UNL     1     -33.864   6.180   2.764  1.00 20.00     0.035 C 
HETATM    7 CL9  UNL     1     -31.149   4.575   0.140  1.00 20.00    -0.089 Cl
ENDROOT
BRANCH   6   8
HETATM    8  C4  UNL     1     -34.649   5.605   3.905  1.00 20.00     0.007 C 
HETATM    9  C3  UNL     1     -35.677   6.219   4.501  1.00 20.00     0.032 C 
HETATM   10 CL10 UNL     1     -34.140   4.040   4.439  1.00 20.00    -0.089 Cl
ENDBRANCH   6   8
TORSDOF 1
ENDMDL
MODEL 7
REMARK VINA RESULT:       0.3      2.070      2.852
REMARK  1 active torsions:
REMARK  status: ('A' for Active; 'I' for Inactive)
REMARK    1  A    between atoms: C4_4  and  C8_8 
ROOT
HETATM    1  C1  UNL     1     -33.739   4.798   2.623  1.00 20.00    -0.007 C 
HETATM    2  C2  UNL     1     -34.173   5.881   3.280  1.00 20.00     0.009 C 
HETATM    3  C5  UNL     1     -32.667   4.859   1.576  1.00 20.00     0.029 C 
HETATM    4  C6  UNL     1     -33.665   7.270   3.021  1.00 20.00     0.061 C 
HETATM    5  C7  UNL     1     -31.911   6.191   1.556  1.00 20.00     0.014 C 
HETATM    6  C8  UNL     1     -32.872   7.380   1.703  1.00 20.00     0.035 C 
HETATM    7 CL9  UNL     1     -35.398   5.743   4.491  1.00 20.00    -0.089 Cl
ENDROOT
BRANCH   6   8
HETATM    8  C4  UNL     1     -32.134   8.683   1.630  1.00 20.00     0.007 C 
HETATM    9  C3  UNL     1     -32.187   9.525   0.591  1.00 20.00     0.032 C 
HETATM   10 CL10 UNL     1     -31.168   9.066   3.013  1.00 20.00    -0.089 Cl
ENDBRANCH   6   8
TORSDOF 1
ENDMDL
MODEL 8
REMARK VINA RESULT:       0.3      2.187      3.092
REMARK  1 active torsions:
REMARK  status: ('A' for Active; 'I' for Inactive)
REMARK    1  A    between atoms: C4_4  and  C8_8 
ROOT
HETATM    1  C1  UNL     1     -33.434   7.715   3.500  1.00 20.00    -0.007 C 
HETATM    2  C2  UNL     1     -34.114   6.564   3.410  1.00 20.00     0.009 C 
HETATM    3  C5  UNL     1     -32.291   8.055   2.591  1.00 20.00     0.029 C 
HETATM    4  C6  UNL     1     -33.792   5.482   2.420  1.00 20.00     0.061 C 
HETATM    5  C7  UNL     1     -32.185   7.129   1.375  1.00 20.00     0.014 C 
HETATM    6  C8  UNL     1     -32.405   5.661   1.770  1.00 20.00     0.035 C 
HETATM    7 CL9  UNL     1     -35.435   6.238   4.476  1.00 20.00    -0.089 Cl
ENDROOT
BRANCH   6   8
HETATM    8  C4  UNL     1     -32.247   4.754   0.588  1.00 20.00     0.007 C 
HETATM    9  C3  UNL     1     -31.090   4.197   0.211  1.00 20.00     0.032 C 
HETATM   10 CL10 UNL     1     -33.695   4.444  -0.307  1.00 20.00    -0.089 Cl
ENDBRANCH   6   8
TORSDOF 1
ENDMDL
MODEL 9
REMARK VINA RESULT:       0.3      2.466      3.391
REMARK  1 active torsions:
REMARK  status: ('A' for Active; 'I' for Inactive)
REMARK    1  A    between atoms: C4_4  and  C8_8 
ROOT
HETATM    1  C1  UNL     1     -33.405   6.038   3.026  1.00 20.00    -0.007 C 
HETATM    2  C2  UNL     1     -33.527   7.310   3.431  1.00 20.00     0.009 C 
HETATM    3  C5  UNL     1     -32.786   5.660   1.714  1.00 20.00     0.029 C 
HETATM    4  C6  UNL     1     -33.093   8.489   2.610  1.00 20.00     0.061 C 
HETATM    5  C7  UNL     1     -32.036   6.814   1.040  1.00 20.00     0.014 C 
HETATM    6  C8  UNL     1     -32.829   8.126   1.135  1.00 20.00     0.035 C 
HETATM    7 CL9  UNL     1     -34.233   7.680   4.965  1.00 20.00    -0.089 Cl
ENDROOT
BRANCH   6   8
HETATM    8  C4  UNL     1     -32.118   9.240   0.428  1.00 20.00     0.007 C 
HETATM    9  C3  UNL     1     -32.543  10.508   0.397  1.00 20.00     0.032 C 
HETATM   10 CL10 UNL     1     -30.657   8.791  -0.381  1.00 20.00    -0.089 Cl
ENDBRANCH   6   8
TORSDOF 1
ENDMDL
