MODEL 1
REMARK VINA RESULT:      -2.3      0.000      0.000
REMARK  3 active torsions:
REMARK  status: ('A' for Active; 'I' for Inactive)
REMARK    1  A    between atoms: C2_2  and  C7_7 
REMARK    2  A    between atoms: C5_5  and  C6_6 
REMARK    3  A    between atoms: C6_6  and  C7_7 
ROOT
HETATM    1  C4  UNL     1     -32.689   5.764   1.702  1.00 20.00     0.012 C 
HETATM    2  C7  UNL     1     -33.240   7.117   2.157  1.00 20.00     0.012 C 
ENDROOT
BRANCH   2   3
HETATM    3  C2  UNL     1     -32.172   8.197   1.974  1.00 20.00     0.149 A 
HETATM    4  C1  UNL     1     -32.285   9.227   0.885  1.00 20.00     0.200 A 
HETATM    5  O8  UNL     1     -31.416   8.089   0.763  1.00 20.00    -0.381 OA
ENDBRANCH   2   3
BRANCH   2   6
HETATM    6  C6  UNL     1     -33.715   7.095   3.622  1.00 20.00     0.006 C 
BRANCH   6   7
HETATM    7  C5  UNL     1     -35.121   6.517   3.798  1.00 20.00    -0.004 C 
HETATM    8  C3  UNL     1     -35.074   5.121   4.403  1.00 20.00     0.005 C 
ENDBRANCH   6   7
ENDBRANCH   2   6
TORSDOF 3
ENDMDL
MODEL 2
REMARK VINA RESULT:      -2.2      2.015      3.914
REMARK  3 active torsions:
REMARK  status: ('A' for Active; 'I' for Inactive)
REMARK    1  A    between atoms: C2_2  and  C7_7 
REMARK    2  A    between atoms: C5_5  and  C6_6 
REMARK    3  A    between atoms: C6_6  and  C7_7 
ROOT
HETATM    1  C4  UNL     1     -32.721   5.706   1.353  1.00 20.00     0.012 C 
HETATM    2  C7  UNL     1     -32.446   6.944   2.209  1.00 20.00     0.012 C 
ENDROOT
BRANCH   2   3
HETATM    3  C2  UNL     1     -33.754   7.447   2.825  1.00 20.00     0.149 A 
HETATM    4  C1  UNL     1     -33.912   7.580   4.314  1.00 20.00     0.200 A 
HETATM    5  O8  UNL     1     -34.466   6.469   3.590  1.00 20.00    -0.381 OA
ENDBRANCH   2   3
BRANCH   2   6
HETATM    6  C6  UNL     1     -31.778   8.076   1.406  1.00 20.00     0.006 C 
BRANCH   6   7
HETATM    7  C5  UNL     1     -32.686   9.289   1.192  1.00 20.00    -0.004 C 
HETATM    8  C3  UNL     1     -32.444   9.928  -0.169  1.00 20.00     0.005 C 
ENDBRANCH   6   7
ENDBRANCH   2   6
TORSDOF 3
ENDMDL
MODEL 3
REMARK VINA RESULT:      -2.1      1.243      2.137
REMARK  3 active torsions:
REMARK  status: ('A' for Active; 'I' for Inactive)
REMARK    1  A    between atoms: C2_2  and  C7_7 
REMARK    2  A    between atoms: C5_5  and  C6_6 
REMARK    3  A    between atoms: C6_6  and  C7_7 
ROOT
HETATM    1  C4  UNL     1     -33.529   8.197   4.743  1.00 20.00     0.012 C 
HETATM    2  C7  UNL     1     -33.662   7.021   3.773  1.00 20.00     0.012 C 
ENDROOT
BRANCH   2   3
HETATM    3  C2  UNL     1     -33.282   7.471   2.361  1.00 20.00     0.149 A 
HETATM    4  C1  UNL     1     -32.157   6.813   1.611  1.00 20.00     0.200 A 
HETATM    5  O8  UNL     1     -31.992   8.085   2.259  1.00 20.00    -0.381 OA
ENDBRANCH   2   3
BRANCH   2   6
HETATM    6  C6  UNL     1     -35.082   6.424   3.766  1.00 20.00     0.006 C 
BRANCH   6   7
HETATM    7  C5  UNL     1     -35.179   5.074   4.479  1.00 20.00    -0.004 C 
HETATM    8  C3  UNL     1     -34.028   4.157   4.090  1.00 20.00     0.005 C 
ENDBRANCH   6   7
ENDBRANCH   2   6
TORSDOF 3
ENDMDL
MODEL 4
REMARK VINA RESULT:      -1.9      1.764      2.724
REMARK  3 active torsions:
REMARK  status: ('A' for Active; 'I' for Inactive)
REMARK    1  A    between atoms: C2_2  and  C7_7 
REMARK    2  A    between atoms: C5_5  and  C6_6 
REMARK    3  A    between atoms: C6_6  and  C7_7 
ROOT
HETATM    1  C4  UNL     1     -34.305   7.464   4.035  1.00 20.00     0.012 C 
HETATM    2  C7  UNL     1     -33.641   6.154   3.606  1.00 20.00     0.012 C 
ENDROOT
BRANCH   2   3
HETATM    3  C2  UNL     1     -33.424   6.159   2.090  1.00 20.00     0.149 A 
HETATM    4  C1  UNL     1     -32.095   5.788   1.493  1.00 20.00     0.200 A 
HETATM    5  O8  UNL     1     -32.512   7.157   1.622  1.00 20.00    -0.381 OA
ENDBRANCH   2   3
BRANCH   2   6
HETATM    6  C6  UNL     1     -34.463   4.917   4.012  1.00 20.00     0.006 C 
BRANCH   6   7
HETATM    7  C5  UNL     1     -33.717   3.597   3.813  1.00 20.00    -0.004 C 
HETATM    8  C3  UNL     1     -33.078   3.120   5.110  1.00 20.00     0.005 C 
ENDBRANCH   6   7
ENDBRANCH   2   6
TORSDOF 3
ENDMDL
MODEL 5
REMARK VINA RESULT:      -1.4      2.442      4.446
REMARK  3 active torsions:
REMARK  status: ('A' for Active; 'I' for Inactive)
REMARK    1  A    between atoms: C2_2  and  C7_7 
REMARK    2  A    between atoms: C5_5  and  C6_6 
REMARK    3  A    between atoms: C6_6  and  C7_7 
ROOT
HETATM    1  C4  UNL     1     -34.265   7.749   4.055  1.00 20.00     0.012 C 
HETATM    2  C7  UNL     1     -34.138   6.444   3.265  1.00 20.00     0.012 C 
ENDROOT
BRANCH   2   3
HETATM    3  C2  UNL     1     -33.866   5.285   4.226  1.00 20.00     0.149 A 
HETATM    4  C1  UNL     1     -33.956   3.856   3.767  1.00 20.00     0.200 A 
HETATM    5  O8  UNL     1     -35.009   4.476   4.524  1.00 20.00    -0.381 OA
ENDBRANCH   2   3
BRANCH   2   6
HETATM    6  C6  UNL     1     -33.030   6.509   2.198  1.00 20.00     0.006 C 
BRANCH   6   7
HETATM    7  C5  UNL     1     -32.149   7.755   2.309  1.00 20.00    -0.004 C 
HETATM    8  C3  UNL     1     -32.163   8.560   1.017  1.00 20.00     0.005 C 
ENDBRANCH   6   7
ENDBRANCH   2   6
TORSDOF 3
ENDMDL
MODEL 6
REMARK VINA RESULT:      -1.4      1.136      1.963
REMARK  3 active torsions:
REMARK  status: ('A' for Active; 'I' for Inactive)
REMARK    1  A    between atoms: C2_2  and  C7_7 
REMARK    2  A    between atoms: C5_5  and  C6_6 
REMARK    3  A    between atoms: C6_6  and  C7_7 
ROOT
HETATM    1  C4  UNL     1     -31.329   8.697   2.836  1.00 20.00     0.012 C 
HETATM    2  C7  UNL     1     -32.097   7.984   1.722  1.00 20.00     0.012 C 
ENDROOT
BRANCH   2   3
HETATM    3  C2  UNL     1     -32.881   9.010   0.899  1.00 20.00     0.149 A 
HETATM    4  C1  UNL     1     -32.323   9.570  -0.380  1.00 20.00     0.200 A 
HETATM    5  O8  UNL     1     -32.289  10.312   0.851  1.00 20.00    -0.381 OA
ENDBRANCH   2   3
BRANCH   2   6
HETATM    6  C6  UNL     1     -33.056   6.909   2.265  1.00 20.00     0.006 C 
BRANCH   6   7
HETATM    7  C5  UNL     1     -33.719   7.295   3.589  1.00 20.00    -0.004 C 
HETATM    8  C3  UNL     1     -34.980   6.479   3.836  1.00 20.00     0.005 C 
ENDBRANCH   6   7
ENDBRANCH   2   6
TORSDOF 3
ENDMDL
MODEL 7
REMARK VINA RESULT:      -1.2      1.915      4.055
REMARK  3 active torsions:
REMARK  status: ('A' for Active; 'I' for Inactive)
REMARK    1  A    between atoms: C2_2  and  C7_7 
REMARK    2  A    between atoms: C5_5  and  C6_6 
REMARK    3  A    between atoms: C6_6  and  C7_7 
ROOT
HETATM    1  C4  UNL     1     -33.470   7.607   3.606  1.00 20.00     0.012 C 
HETATM    2  C7  UNL     1     -32.994   7.564   2.152  1.00 20.00     0.012 C 
ENDROOT
BRANCH   2   3
HETATM    3  C2  UNL     1     -32.399   6.188   1.845  1.00 20.00     0.149 A 
HETATM    4  C1  UNL     1     -33.035   5.272   0.837  1.00 20.00     0.200 A 
HETATM    5  O8  UNL     1     -33.213   5.083   2.250  1.00 20.00    -0.381 OA
ENDBRANCH   2   3
BRANCH   2   6
HETATM    6  C6  UNL     1     -31.961   8.662   1.840  1.00 20.00     0.006 C 
BRANCH   6   7
HETATM    7  C5  UNL     1     -31.961   9.100   0.374  1.00 20.00    -0.004 C 
HETATM    8  C3  UNL     1     -32.663  10.438   0.195  1.00 20.00     0.005 C 
ENDBRANCH   6   7
ENDBRANCH   2   6
TORSDOF 3
ENDMDL
MODEL 8
REMARK VINA RESULT:      -1.1      2.294      3.904
REMARK  3 active torsions:
REMARK  status: ('A' for Active; 'I' for Inactive)
REMARK    1  A    between atoms: C2_2  and  C7_7 
REMARK    2  A    between atoms: C5_5  and  C6_6 
REMARK    3  A    between atoms: C6_6  and  C7_7 
ROOT
HETATM    1  C4  UNL     1     -33.901   4.195   3.635  1.00 20.00     0.012 C 
HETATM    2  C7  UNL     1     -33.443   5.563   3.126  1.00 20.00     0.012 C 
ENDROOT
BRANCH   2   3
HETATM    3  C2  UNL     1     -34.558   6.591   3.338  1.00 20.00     0.149 A 
HETATM    4  C1  UNL     1     -34.465   7.626   4.425  1.00 20.00     0.200 A 
HETATM    5  O8  UNL     1     -35.274   6.447   4.570  1.00 20.00    -0.381 OA
ENDBRANCH   2   3
BRANCH   2   6
HETATM    6  C6  UNL     1     -33.038   5.532   1.641  1.00 20.00     0.006 C 
BRANCH   6   7
HETATM    7  C5  UNL     1     -31.761   6.320   1.342  1.00 20.00    -0.004 C 
HETATM    8  C3  UNL     1     -31.942   7.803   1.636  1.00 20.00     0.005 C 
ENDBRANCH   6   7
ENDBRANCH   2   6
TORSDOF 3
ENDMDL
MODEL 9
REMARK VINA RESULT:      -1.0      1.210      2.385
REMARK  3 active torsions:
REMARK  status: ('A' for Active; 'I' for Inactive)
REMARK    1  A    between atoms: C2_2  and  C7_7 
REMARK    2  A    between atoms: C5_5  and  C6_6 
REMARK    3  A    between atoms: C6_6  and  C7_7 
ROOT
HETATM    1  C4  UNL     1     -31.869   8.552   1.415  1.00 20.00     0.012 C 
HETATM    2  C7  UNL     1     -32.529   7.494   2.302  1.00 20.00     0.012 C 
ENDROOT
BRANCH   2   3
HETATM    3  C2  UNL     1     -32.832   6.243   1.474  1.00 20.00     0.149 A 
HETATM    4  C1  UNL     1     -32.582   4.867   2.024  1.00 20.00     0.200 A 
HETATM    5  O8  UNL     1     -31.678   5.486   1.095  1.00 20.00    -0.381 OA
ENDBRANCH   2   3
BRANCH   2   6
HETATM    6  C6  UNL     1     -33.821   8.007   2.965  1.00 20.00     0.006 C 
BRANCH   6   7
HETATM    7  C5  UNL     1     -34.184   7.261   4.251  1.00 20.00    -0.004 C 
HETATM    8  C3  UNL     1     -35.327   6.283   4.020  1.00 20.00     0.005 C 
ENDBRANCH   6   7
ENDBRANCH   2   6
TORSDOF 3
ENDMDL
