MODEL 1
REMARK VINA RESULT:      -1.4      0.000      0.000
REMARK  3 active torsions:
REMARK  status: ('A' for Active; 'I' for Inactive)
REMARK    1  A    between atoms: C6_6  and  C9_9 
REMARK    2  A    between atoms: C7_7  and  C8_8 
REMARK    3  A    between atoms: C7_7  and  C9_9 
ROOT
HETATM    1  C4  UNL     1     -31.699   5.068   1.146  1.00 20.00     0.015 C 
HETATM    2  C5  UNL     1     -33.730   6.393   0.595  1.00 20.00     0.015 C 
HETATM    3  C9  UNL     1     -32.602   6.216   1.637  1.00 20.00    -0.048 C 
ENDROOT
BRANCH   3   4
HETATM    4  C6  UNL     1     -31.738   7.509   1.693  1.00 20.00     0.004 C 
HETATM    5  C1  UNL     1     -32.329   8.737   1.014  1.00 20.00     0.006 C 
ENDBRANCH   3   4
BRANCH   3   6
HETATM    6  C7  UNL     1     -33.269   5.865   3.000  1.00 20.00     0.012 C 
BRANCH   6   7
HETATM    7  C8  UNL     1     -34.393   6.803   3.498  1.00 20.00    -0.022 C 
HETATM    8  C2  UNL     1     -35.495   5.984   4.181  1.00 20.00     0.009 C 
HETATM    9  C3  UNL     1     -33.872   7.845   4.494  1.00 20.00     0.009 C 
ENDBRANCH   6   7
ENDBRANCH   3   6
TORSDOF 3
ENDMDL
MODEL 2
REMARK VINA RESULT:      -1.4      1.106      2.211
REMARK  3 active torsions:
REMARK  status: ('A' for Active; 'I' for Inactive)
REMARK    1  A    between atoms: C6_6  and  C9_9 
REMARK    2  A    between atoms: C7_7  and  C8_8 
REMARK    3  A    between atoms: C7_7  and  C9_9 
ROOT
HETATM    1  C4  UNL     1     -31.078   8.367   2.692  1.00 20.00     0.015 C 
HETATM    2  C5  UNL     1     -31.993   6.420   1.445  1.00 20.00     0.015 C 
HETATM    3  C9  UNL     1     -32.231   7.910   1.779  1.00 20.00    -0.048 C 
ENDROOT
BRANCH   3   4
HETATM    4  C6  UNL     1     -32.166   8.753   0.473  1.00 20.00     0.004 C 
HETATM    5  C1  UNL     1     -32.638  10.197   0.585  1.00 20.00     0.006 C 
ENDBRANCH   3   4
BRANCH   3   6
HETATM    6  C7  UNL     1     -33.604   8.017   2.509  1.00 20.00     0.012 C 
BRANCH   6   7
HETATM    7  C8  UNL     1     -33.784   7.183   3.798  1.00 20.00    -0.022 C 
HETATM    8  C2  UNL     1     -33.726   8.098   5.027  1.00 20.00     0.009 C 
HETATM    9  C3  UNL     1     -35.119   6.431   3.813  1.00 20.00     0.009 C 
ENDBRANCH   6   7
ENDBRANCH   3   6
TORSDOF 3
ENDMDL
MODEL 3
REMARK VINA RESULT:      -0.9      1.109      3.955
REMARK  3 active torsions:
REMARK  status: ('A' for Active; 'I' for Inactive)
REMARK    1  A    between atoms: C6_6  and  C9_9 
REMARK    2  A    between atoms: C7_7  and  C8_8 
REMARK    3  A    between atoms: C7_7  and  C9_9 
ROOT
HETATM    1  C4  UNL     1     -33.904   7.401   4.405  1.00 20.00     0.015 C 
HETATM    2  C5  UNL     1     -36.045   6.866   3.259  1.00 20.00     0.015 C 
HETATM    3  C9  UNL     1     -34.628   6.330   3.567  1.00 20.00    -0.048 C 
ENDROOT
BRANCH   3   4
HETATM    4  C6  UNL     1     -34.735   5.042   4.432  1.00 20.00     0.004 C 
HETATM    5  C1  UNL     1     -33.808   3.898   4.044  1.00 20.00     0.006 C 
ENDBRANCH   3   4
BRANCH   3   6
HETATM    6  C7  UNL     1     -33.906   6.096   2.207  1.00 20.00     0.012 C 
BRANCH   6   7
HETATM    7  C8  UNL     1     -32.399   6.437   2.140  1.00 20.00    -0.022 C 
HETATM    8  C2  UNL     1     -31.674   5.436   1.232  1.00 20.00     0.009 C 
HETATM    9  C3  UNL     1     -32.154   7.850   1.599  1.00 20.00     0.009 C 
ENDBRANCH   6   7
ENDBRANCH   3   6
TORSDOF 3
ENDMDL
MODEL 4
REMARK VINA RESULT:      -0.9      1.007      2.641
REMARK  3 active torsions:
REMARK  status: ('A' for Active; 'I' for Inactive)
REMARK    1  A    between atoms: C6_6  and  C9_9 
REMARK    2  A    between atoms: C7_7  and  C8_8 
REMARK    3  A    between atoms: C7_7  and  C9_9 
ROOT
HETATM    1  C4  UNL     1     -32.232   8.797   0.614  1.00 20.00     0.015 C 
HETATM    2  C5  UNL     1     -31.236   8.534   2.878  1.00 20.00     0.015 C 
HETATM    3  C9  UNL     1     -32.253   7.926   1.885  1.00 20.00    -0.048 C 
ENDROOT
BRANCH   3   4
HETATM    4  C6  UNL     1     -31.799   6.493   1.487  1.00 20.00     0.004 C 
HETATM    5  C1  UNL     1     -32.897   5.552   1.009  1.00 20.00     0.006 C 
ENDBRANCH   3   4
BRANCH   3   6
HETATM    6  C7  UNL     1     -33.654   7.957   2.566  1.00 20.00     0.012 C 
BRANCH   6   7
HETATM    7  C8  UNL     1     -33.821   7.150   3.874  1.00 20.00    -0.022 C 
HETATM    8  C2  UNL     1     -33.769   8.093   5.083  1.00 20.00     0.009 C 
HETATM    9  C3  UNL     1     -35.147   6.383   3.911  1.00 20.00     0.009 C 
ENDBRANCH   6   7
ENDBRANCH   3   6
TORSDOF 3
ENDMDL
MODEL 5
REMARK VINA RESULT:      -0.6      1.264      1.877
REMARK  3 active torsions:
REMARK  status: ('A' for Active; 'I' for Inactive)
REMARK    1  A    between atoms: C6_6  and  C9_9 
REMARK    2  A    between atoms: C7_7  and  C8_8 
REMARK    3  A    between atoms: C7_7  and  C9_9 
ROOT
HETATM    1  C4  UNL     1     -31.159   8.503   2.898  1.00 20.00     0.015 C 
HETATM    2  C5  UNL     1     -31.456   7.101   0.866  1.00 20.00     0.015 C 
HETATM    3  C9  UNL     1     -32.215   7.872   1.970  1.00 20.00    -0.048 C 
ENDROOT
BRANCH   3   4
HETATM    4  C6  UNL     1     -33.036   9.026   1.329  1.00 20.00     0.004 C 
HETATM    5  C1  UNL     1     -32.344   9.797   0.212  1.00 20.00     0.006 C 
ENDBRANCH   3   4
BRANCH   3   6
HETATM    6  C7  UNL     1     -33.100   6.845   2.739  1.00 20.00     0.012 C 
BRANCH   6   7
HETATM    7  C8  UNL     1     -34.244   7.413   3.610  1.00 20.00    -0.022 C 
HETATM    8  C2  UNL     1     -35.268   6.313   3.913  1.00 20.00     0.009 C 
HETATM    9  C3  UNL     1     -33.728   7.977   4.939  1.00 20.00     0.009 C 
ENDBRANCH   6   7
ENDBRANCH   3   6
TORSDOF 3
ENDMDL
MODEL 6
REMARK VINA RESULT:      -0.5      0.951      3.732
REMARK  3 active torsions:
REMARK  status: ('A' for Active; 'I' for Inactive)
REMARK    1  A    between atoms: C6_6  and  C9_9 
REMARK    2  A    between atoms: C7_7  and  C8_8 
REMARK    3  A    between atoms: C7_7  and  C9_9 
ROOT
HETATM    1  C4  UNL     1     -33.754   6.376   0.560  1.00 20.00     0.015 C 
HETATM    2  C5  UNL     1     -31.702   5.533   1.685  1.00 20.00     0.015 C 
HETATM    3  C9  UNL     1     -32.854   6.558   1.798  1.00 20.00    -0.048 C 
ENDROOT
BRANCH   3   4
HETATM    4  C6  UNL     1     -33.709   6.243   3.058  1.00 20.00     0.004 C 
HETATM    5  C1  UNL     1     -34.118   7.441   3.905  1.00 20.00     0.006 C 
ENDBRANCH   3   4
BRANCH   3   6
HETATM    6  C7  UNL     1     -32.219   7.981   1.828  1.00 20.00     0.012 C 
BRANCH   6   7
HETATM    7  C8  UNL     1     -32.347   8.838   0.548  1.00 20.00    -0.022 C 
HETATM    8  C2  UNL     1     -32.735  10.275   0.916  1.00 20.00     0.009 C 
HETATM    9  C3  UNL     1     -31.040   8.876  -0.251  1.00 20.00     0.009 C 
ENDBRANCH   6   7
ENDBRANCH   3   6
TORSDOF 3
ENDMDL
MODEL 7
REMARK VINA RESULT:      -0.5      1.094      4.144
REMARK  3 active torsions:
REMARK  status: ('A' for Active; 'I' for Inactive)
REMARK    1  A    between atoms: C6_6  and  C9_9 
REMARK    2  A    between atoms: C7_7  and  C8_8 
REMARK    3  A    between atoms: C7_7  and  C9_9 
ROOT
HETATM    1  C4  UNL     1     -34.238   7.531   4.765  1.00 20.00     0.015 C 
HETATM    2  C5  UNL     1     -35.359   6.839   2.655  1.00 20.00     0.015 C 
HETATM    3  C9  UNL     1     -34.368   6.379   3.749  1.00 20.00    -0.048 C 
ENDROOT
BRANCH   3   4
HETATM    4  C6  UNL     1     -34.954   5.149   4.498  1.00 20.00     0.004 C 
HETATM    5  C1  UNL     1     -34.106   3.884   4.471  1.00 20.00     0.006 C 
ENDBRANCH   3   4
BRANCH   3   6
HETATM    6  C7  UNL     1     -33.004   6.082   3.056  1.00 20.00     0.012 C 
BRANCH   6   7
HETATM    7  C8  UNL     1     -32.839   6.552   1.592  1.00 20.00    -0.022 C 
HETATM    8  C2  UNL     1     -31.948   7.798   1.539  1.00 20.00     0.009 C 
HETATM    9  C3  UNL     1     -32.214   5.467   0.709  1.00 20.00     0.009 C 
ENDBRANCH   6   7
ENDBRANCH   3   6
TORSDOF 3
ENDMDL
MODEL 8
REMARK VINA RESULT:      -0.4      0.518      2.029
REMARK  3 active torsions:
REMARK  status: ('A' for Active; 'I' for Inactive)
REMARK    1  A    between atoms: C6_6  and  C9_9 
REMARK    2  A    between atoms: C7_7  and  C8_8 
REMARK    3  A    between atoms: C7_7  and  C9_9 
ROOT
HETATM    1  C4  UNL     1     -33.665   5.900   0.558  1.00 20.00     0.015 C 
HETATM    2  C5  UNL     1     -32.142   7.564   1.607  1.00 20.00     0.015 C 
HETATM    3  C9  UNL     1     -32.629   6.098   1.682  1.00 20.00    -0.048 C 
ENDROOT
BRANCH   3   4
HETATM    4  C6  UNL     1     -31.437   5.139   1.403  1.00 20.00     0.004 C 
HETATM    5  C1  UNL     1     -31.561   4.260   0.166  1.00 20.00     0.006 C 
ENDBRANCH   3   4
BRANCH   3   6
HETATM    6  C7  UNL     1     -33.272   5.886   3.085  1.00 20.00     0.012 C 
BRANCH   6   7
HETATM    7  C8  UNL     1     -34.360   6.893   3.522  1.00 20.00    -0.022 C 
HETATM    8  C2  UNL     1     -35.577   6.143   4.079  1.00 20.00     0.009 C 
HETATM    9  C3  UNL     1     -33.850   7.858   4.597  1.00 20.00     0.009 C 
ENDBRANCH   6   7
ENDBRANCH   3   6
TORSDOF 3
ENDMDL
MODEL 9
REMARK VINA RESULT:      -0.3      0.656      2.139
REMARK  3 active torsions:
REMARK  status: ('A' for Active; 'I' for Inactive)
REMARK    1  A    between atoms: C6_6  and  C9_9 
REMARK    2  A    between atoms: C7_7  and  C8_8 
REMARK    3  A    between atoms: C7_7  and  C9_9 
ROOT
HETATM    1  C4  UNL     1     -32.032   7.504   1.506  1.00 20.00     0.015 C 
HETATM    2  C5  UNL     1     -31.610   5.062   1.290  1.00 20.00     0.015 C 
HETATM    3  C9  UNL     1     -32.703   6.118   1.573  1.00 20.00    -0.048 C 
ENDROOT
BRANCH   3   4
HETATM    4  C6  UNL     1     -33.784   6.060   0.456  1.00 20.00     0.004 C 
HETATM    5  C1  UNL     1     -33.958   4.714  -0.236  1.00 20.00     0.006 C 
ENDBRANCH   3   4
BRANCH   3   6
HETATM    6  C7  UNL     1     -33.275   5.837   2.995  1.00 20.00     0.012 C 
BRANCH   6   7
HETATM    7  C8  UNL     1     -34.402   6.767   3.499  1.00 20.00    -0.022 C 
HETATM    8  C2  UNL     1     -35.486   5.944   4.205  1.00 20.00     0.009 C 
HETATM    9  C3  UNL     1     -33.878   7.824   4.477  1.00 20.00     0.009 C 
ENDBRANCH   6   7
ENDBRANCH   3   6
TORSDOF 3
ENDMDL
