MODEL 1
REMARK VINA RESULT:      -1.2      0.000      0.000
REMARK  0 active torsions:
REMARK  status: ('A' for Active; 'I' for Inactive)
ROOT
HETATM    1  C1  UNL     1     -33.426   5.160   3.306  1.00 20.00     0.050 C 
HETATM    2  C2  UNL     1     -34.714   4.939   4.077  1.00 20.00     0.171 C 
HETATM    3  C3  UNL     1     -33.722   6.468   2.611  1.00 20.00     0.128 C 
HETATM    4  C4  UNL     1     -34.490   7.234   3.681  1.00 20.00     0.235 C 
HETATM    5  O5  UNL     1     -35.254   6.237   4.383  1.00 20.00    -0.369 OA
HETATM    6 CL6  UNL     1     -32.282   7.261   1.969  1.00 20.00    -0.121 Cl
HETATM    7 CL7  UNL     1     -33.464   8.060   4.887  1.00 20.00    -0.094 Cl
ENDROOT
TORSDOF 0
ENDMDL
MODEL 2
REMARK VINA RESULT:      -0.8      2.347      2.744
REMARK  0 active torsions:
REMARK  status: ('A' for Active; 'I' for Inactive)
ROOT
HETATM    1  C1  UNL     1     -33.029   5.579   1.887  1.00 20.00     0.050 C 
HETATM    2  C2  UNL     1     -32.722   7.060   1.779  1.00 20.00     0.171 C 
HETATM    3  C3  UNL     1     -33.156   5.415   3.383  1.00 20.00     0.128 C 
HETATM    4  C4  UNL     1     -33.864   6.701   3.789  1.00 20.00     0.235 C 
HETATM    5  O5  UNL     1     -33.355   7.709   2.896  1.00 20.00    -0.369 OA
HETATM    6 CL6  UNL     1     -33.945   3.909   3.858  1.00 20.00    -0.121 Cl
HETATM    7 CL7  UNL     1     -35.639   6.669   3.595  1.00 20.00    -0.094 Cl
ENDROOT
TORSDOF 0
ENDMDL
MODEL 3
REMARK VINA RESULT:      -0.8      1.548      2.390
REMARK  0 active torsions:
REMARK  status: ('A' for Active; 'I' for Inactive)
ROOT
HETATM    1  C1  UNL     1     -34.475   7.547   3.433  1.00 20.00     0.050 C 
HETATM    2  C2  UNL     1     -35.012   6.272   4.055  1.00 20.00     0.171 C 
HETATM    3  C3  UNL     1     -33.013   7.201   3.275  1.00 20.00     0.128 C 
HETATM    4  C4  UNL     1     -33.072   5.735   2.863  1.00 20.00     0.235 C 
HETATM    5  O5  UNL     1     -34.195   5.189   3.579  1.00 20.00    -0.369 OA
HETATM    6 CL6  UNL     1     -32.152   8.283   2.178  1.00 20.00    -0.121 Cl
HETATM    7 CL7  UNL     1     -33.367   5.460   1.124  1.00 20.00    -0.094 Cl
ENDROOT
TORSDOF 0
ENDMDL
MODEL 4
REMARK VINA RESULT:      -0.8      2.413      3.220
REMARK  0 active torsions:
REMARK  status: ('A' for Active; 'I' for Inactive)
ROOT
HETATM    1  C1  UNL     1     -33.579   6.091   2.191  1.00 20.00     0.050 C 
HETATM    2  C2  UNL     1     -32.369   5.714   1.358  1.00 20.00     0.171 C 
HETATM    3  C3  UNL     1     -32.979   7.106   3.136  1.00 20.00     0.128 C 
HETATM    4  C4  UNL     1     -32.011   7.856   2.230  1.00 20.00     0.235 C 
HETATM    5  O5  UNL     1     -31.507   6.864   1.317  1.00 20.00    -0.369 OA
HETATM    6 CL6  UNL     1     -34.187   8.088   3.967  1.00 20.00    -0.121 Cl
HETATM    7 CL7  UNL     1     -32.756   9.149   1.250  1.00 20.00    -0.094 Cl
ENDROOT
TORSDOF 0
ENDMDL
MODEL 5
REMARK VINA RESULT:      -0.5      2.469      3.430
REMARK  0 active torsions:
REMARK  status: ('A' for Active; 'I' for Inactive)
ROOT
HETATM    1  C1  UNL     1     -32.933   7.792   4.059  1.00 20.00     0.050 C 
HETATM    2  C2  UNL     1     -32.008   8.416   3.032  1.00 20.00     0.171 C 
HETATM    3  C3  UNL     1     -34.073   7.329   3.182  1.00 20.00     0.128 C 
HETATM    4  C4  UNL     1     -33.343   6.835   1.940  1.00 20.00     0.235 C 
HETATM    5  O5  UNL     1     -32.214   7.715   1.793  1.00 20.00    -0.369 OA
HETATM    6 CL6  UNL     1     -35.136   6.164   3.975  1.00 20.00    -0.121 Cl
HETATM    7 CL7  UNL     1     -32.706   5.171   2.061  1.00 20.00    -0.094 Cl
ENDROOT
TORSDOF 0
ENDMDL
MODEL 6
REMARK VINA RESULT:      -0.5      2.242      3.141
REMARK  0 active torsions:
REMARK  status: ('A' for Active; 'I' for Inactive)
ROOT
HETATM    1  C1  UNL     1     -32.264   7.706   2.779  1.00 20.00     0.050 C 
HETATM    2  C2  UNL     1     -32.030   7.000   1.457  1.00 20.00     0.171 C 
HETATM    3  C3  UNL     1     -33.728   7.414   3.011  1.00 20.00     0.128 C 
HETATM    4  C4  UNL     1     -33.854   5.980   2.511  1.00 20.00     0.235 C 
HETATM    5  O5  UNL     1     -32.940   5.888   1.402  1.00 20.00    -0.369 OA
HETATM    6 CL6  UNL     1     -34.246   7.707   4.673  1.00 20.00    -0.121 Cl
HETATM    7 CL7  UNL     1     -33.375   4.733   3.696  1.00 20.00    -0.094 Cl
ENDROOT
TORSDOF 0
ENDMDL
MODEL 7
REMARK VINA RESULT:       0.1      2.200      2.783
REMARK  0 active torsions:
REMARK  status: ('A' for Active; 'I' for Inactive)
ROOT
HETATM    1  C1  UNL     1     -32.488   7.746   1.675  1.00 20.00     0.050 C 
HETATM    2  C2  UNL     1     -32.255   8.403   3.022  1.00 20.00     0.171 C 
HETATM    3  C3  UNL     1     -32.707   6.308   2.085  1.00 20.00     0.128 C 
HETATM    4  C4  UNL     1     -33.510   6.459   3.371  1.00 20.00     0.235 C 
HETATM    5  O5  UNL     1     -32.997   7.649   3.997  1.00 20.00    -0.369 OA
HETATM    6 CL6  UNL     1     -33.443   5.323   0.818  1.00 20.00    -0.121 Cl
HETATM    7 CL7  UNL     1     -35.263   6.700   3.131  1.00 20.00    -0.094 Cl
ENDROOT
TORSDOF 0
ENDMDL
