MODEL 1
REMARK VINA RESULT:      -0.3      0.000      0.000
REMARK  3 active torsions:
REMARK  status: ('A' for Active; 'I' for Inactive)
REMARK    1  A    between atoms: C2_2  and  C6_6 
REMARK    2  A    between atoms: C6_6  and  O9_9 
REMARK    3  A    between atoms: C7_7  and  O9_9 
ROOT
HETATM    1  O9  UNL     1     -33.259   7.965   2.691  1.00 20.00    -0.379 OA
ENDROOT
BRANCH   1   2
HETATM    2  C6  UNL     1     -33.596   6.619   2.987  1.00 20.00     0.202 C 
BRANCH   2   3
HETATM    3  C2  UNL     1     -34.642   6.602   4.082  1.00 20.00     0.169 A 
HETATM    4  C1  UNL     1     -35.359   5.335   4.454  1.00 20.00     0.202 A 
HETATM    5  O8  UNL     1     -35.974   6.337   3.629  1.00 20.00    -0.379 OA
ENDBRANCH   2   3
ENDBRANCH   1   2
BRANCH   1   6
HETATM    6  C7  UNL     1     -32.125   8.037   1.826  1.00 20.00     0.050 C 
HETATM    7  C3  UNL     1     -32.402   9.083   0.747  1.00 20.00     0.045 C 
HETATM    8  C4  UNL     1     -30.924   8.445   2.675  1.00 20.00     0.045 C 
HETATM    9  C5  UNL     1     -31.900   6.660   1.204  1.00 20.00     0.045 C 
ENDBRANCH   1   6
TORSDOF 3
ENDMDL
MODEL 2
REMARK VINA RESULT:      -0.3      0.026      1.449
REMARK  3 active torsions:
REMARK  status: ('A' for Active; 'I' for Inactive)
REMARK    1  A    between atoms: C2_2  and  C6_6 
REMARK    2  A    between atoms: C6_6  and  O9_9 
REMARK    3  A    between atoms: C7_7  and  O9_9 
ROOT
HETATM    1  O9  UNL     1     -33.259   7.982   2.667  1.00 20.00    -0.379 OA
ENDROOT
BRANCH   1   2
HETATM    2  C6  UNL     1     -33.576   6.636   2.988  1.00 20.00     0.202 C 
BRANCH   2   3
HETATM    3  C2  UNL     1     -34.628   6.624   4.077  1.00 20.00     0.169 A 
HETATM    4  C1  UNL     1     -35.343   5.356   4.454  1.00 20.00     0.202 A 
HETATM    5  O8  UNL     1     -35.956   6.350   3.618  1.00 20.00    -0.379 OA
ENDBRANCH   2   3
ENDBRANCH   1   2
BRANCH   1   6
HETATM    6  C7  UNL     1     -32.112   8.056   1.820  1.00 20.00     0.050 C 
HETATM    7  C3  UNL     1     -30.907   8.465   2.666  1.00 20.00     0.045 C 
HETATM    8  C4  UNL     1     -31.898   6.671   1.214  1.00 20.00     0.045 C 
HETATM    9  C5  UNL     1     -32.383   9.086   0.725  1.00 20.00     0.045 C 
ENDBRANCH   1   6
TORSDOF 3
ENDMDL
MODEL 3
REMARK VINA RESULT:      -0.3      0.014      1.452
REMARK  3 active torsions:
REMARK  status: ('A' for Active; 'I' for Inactive)
REMARK    1  A    between atoms: C2_2  and  C6_6 
REMARK    2  A    between atoms: C6_6  and  O9_9 
REMARK    3  A    between atoms: C7_7  and  O9_9 
ROOT
HETATM    1  O9  UNL     1     -33.279   7.959   2.666  1.00 20.00    -0.379 OA
ENDROOT
BRANCH   1   2
HETATM    2  C6  UNL     1     -33.596   6.613   2.984  1.00 20.00     0.202 C 
BRANCH   2   3
HETATM    3  C2  UNL     1     -34.639   6.599   4.082  1.00 20.00     0.169 A 
HETATM    4  C1  UNL     1     -35.360   5.334   4.454  1.00 20.00     0.202 A 
HETATM    5  O8  UNL     1     -35.973   6.340   3.632  1.00 20.00    -0.379 OA
ENDBRANCH   2   3
ENDBRANCH   1   2
BRANCH   1   6
HETATM    6  C7  UNL     1     -32.123   8.035   1.831  1.00 20.00     0.050 C 
HETATM    7  C3  UNL     1     -31.886   6.662   1.202  1.00 20.00     0.045 C 
HETATM    8  C4  UNL     1     -32.402   9.079   0.753  1.00 20.00     0.045 C 
HETATM    9  C5  UNL     1     -30.930   8.453   2.688  1.00 20.00     0.045 C 
ENDBRANCH   1   6
TORSDOF 3
ENDMDL
MODEL 4
REMARK VINA RESULT:      -0.3      2.176      4.285
REMARK  3 active torsions:
REMARK  status: ('A' for Active; 'I' for Inactive)
REMARK    1  A    between atoms: C2_2  and  C6_6 
REMARK    2  A    between atoms: C6_6  and  O9_9 
REMARK    3  A    between atoms: C7_7  and  O9_9 
ROOT
HETATM    1  O9  UNL     1     -31.788   7.216   1.434  1.00 20.00    -0.379 OA
ENDROOT
BRANCH   1   2
HETATM    2  C6  UNL     1     -32.446   8.465   1.584  1.00 20.00     0.202 C 
BRANCH   2   3
HETATM    3  C2  UNL     1     -31.980   9.403   0.491  1.00 20.00     0.169 A 
HETATM    4  C1  UNL     1     -32.693  10.697   0.220  1.00 20.00     0.202 A 
HETATM    5  O8  UNL     1     -32.889   9.538  -0.606  1.00 20.00    -0.379 OA
ENDBRANCH   2   3
ENDBRANCH   1   2
BRANCH   1   6
HETATM    6  C7  UNL     1     -32.702   6.129   1.578  1.00 20.00     0.050 C 
HETATM    7  C3  UNL     1     -33.631   6.111   0.365  1.00 20.00     0.045 C 
HETATM    8  C4  UNL     1     -31.880   4.843   1.643  1.00 20.00     0.045 C 
HETATM    9  C5  UNL     1     -33.494   6.326   2.868  1.00 20.00     0.045 C 
ENDBRANCH   1   6
TORSDOF 3
ENDMDL
MODEL 5
REMARK VINA RESULT:      -0.0      1.429      4.225
REMARK  3 active torsions:
REMARK  status: ('A' for Active; 'I' for Inactive)
REMARK    1  A    between atoms: C2_2  and  C6_6 
REMARK    2  A    between atoms: C6_6  and  O9_9 
REMARK    3  A    between atoms: C7_7  and  O9_9 
ROOT
HETATM    1  O9  UNL     1     -33.482   6.801   2.414  1.00 20.00    -0.379 OA
ENDROOT
BRANCH   1   2
HETATM    2  C6  UNL     1     -32.526   7.821   2.656  1.00 20.00     0.202 C 
BRANCH   2   3
HETATM    3  C2  UNL     1     -31.898   8.231   1.341  1.00 20.00     0.169 A 
HETATM    4  C1  UNL     1     -32.155   9.586   0.744  1.00 20.00     0.202 A 
HETATM    5  O8  UNL     1     -32.827   8.409   0.267  1.00 20.00    -0.379 OA
ENDBRANCH   2   3
ENDBRANCH   1   2
BRANCH   1   6
HETATM    6  C7  UNL     1     -34.293   6.567   3.566  1.00 20.00     0.050 C 
HETATM    7  C3  UNL     1     -34.060   5.134   4.042  1.00 20.00     0.045 C 
HETATM    8  C4  UNL     1     -33.866   7.566   4.639  1.00 20.00     0.045 C 
HETATM    9  C5  UNL     1     -35.756   6.782   3.183  1.00 20.00     0.045 C 
ENDBRANCH   1   6
TORSDOF 3
ENDMDL
MODEL 6
REMARK VINA RESULT:      -0.0      1.433      4.224
REMARK  3 active torsions:
REMARK  status: ('A' for Active; 'I' for Inactive)
REMARK    1  A    between atoms: C2_2  and  C6_6 
REMARK    2  A    between atoms: C6_6  and  O9_9 
REMARK    3  A    between atoms: C7_7  and  O9_9 
ROOT
HETATM    1  O9  UNL     1     -33.478   6.821   2.418  1.00 20.00    -0.379 OA
ENDROOT
BRANCH   1   2
HETATM    2  C6  UNL     1     -32.524   7.846   2.651  1.00 20.00     0.202 C 
BRANCH   2   3
HETATM    3  C2  UNL     1     -31.901   8.248   1.331  1.00 20.00     0.169 A 
HETATM    4  C1  UNL     1     -32.148   9.605   0.734  1.00 20.00     0.202 A 
HETATM    5  O8  UNL     1     -32.835   8.435   0.263  1.00 20.00    -0.379 OA
ENDBRANCH   2   3
ENDBRANCH   1   2
BRANCH   1   6
HETATM    6  C7  UNL     1     -34.283   6.590   3.575  1.00 20.00     0.050 C 
HETATM    7  C3  UNL     1     -33.875   7.588   4.658  1.00 20.00     0.045 C 
HETATM    8  C4  UNL     1     -35.740   6.801   3.172  1.00 20.00     0.045 C 
HETATM    9  C5  UNL     1     -34.057   5.155   4.045  1.00 20.00     0.045 C 
ENDBRANCH   1   6
TORSDOF 3
ENDMDL
MODEL 7
REMARK VINA RESULT:      -0.0      1.447      4.230
REMARK  3 active torsions:
REMARK  status: ('A' for Active; 'I' for Inactive)
REMARK    1  A    between atoms: C2_2  and  C6_6 
REMARK    2  A    between atoms: C6_6  and  O9_9 
REMARK    3  A    between atoms: C7_7  and  O9_9 
ROOT
HETATM    1  O9  UNL     1     -33.456   6.826   2.403  1.00 20.00    -0.379 OA
ENDROOT
BRANCH   1   2
HETATM    2  C6  UNL     1     -32.510   7.860   2.631  1.00 20.00     0.202 C 
BRANCH   2   3
HETATM    3  C2  UNL     1     -31.895   8.266   1.308  1.00 20.00     0.169 A 
HETATM    4  C1  UNL     1     -32.160   9.619   0.710  1.00 20.00     0.202 A 
HETATM    5  O8  UNL     1     -32.836   8.441   0.243  1.00 20.00    -0.379 OA
ENDBRANCH   2   3
ENDBRANCH   1   2
BRANCH   1   6
HETATM    6  C7  UNL     1     -34.264   6.600   3.558  1.00 20.00     0.050 C 
HETATM    7  C3  UNL     1     -35.728   6.811   3.176  1.00 20.00     0.045 C 
HETATM    8  C4  UNL     1     -34.029   5.161   4.010  1.00 20.00     0.045 C 
HETATM    9  C5  UNL     1     -33.839   7.582   4.649  1.00 20.00     0.045 C 
ENDBRANCH   1   6
TORSDOF 3
ENDMDL
MODEL 8
REMARK VINA RESULT:       0.4      2.658      3.839
REMARK  3 active torsions:
REMARK  status: ('A' for Active; 'I' for Inactive)
REMARK    1  A    between atoms: C2_2  and  C6_6 
REMARK    2  A    between atoms: C6_6  and  O9_9 
REMARK    3  A    between atoms: C7_7  and  O9_9 
ROOT
HETATM    1  O9  UNL     1     -33.869   5.534   4.484  1.00 20.00    -0.379 OA
ENDROOT
BRANCH   1   2
HETATM    2  C6  UNL     1     -34.247   4.274   3.950  1.00 20.00     0.202 C 
BRANCH   2   3
HETATM    3  C2  UNL     1     -33.094   3.305   4.109  1.00 20.00     0.169 A 
HETATM    4  C1  UNL     1     -33.304   1.933   4.684  1.00 20.00     0.202 A 
HETATM    5  O8  UNL     1     -32.752   3.004   5.466  1.00 20.00    -0.379 OA
ENDBRANCH   2   3
ENDBRANCH   1   2
BRANCH   1   6
HETATM    6  C7  UNL     1     -34.230   6.598   3.603  1.00 20.00     0.050 C 
HETATM    7  C3  UNL     1     -33.513   6.390   2.270  1.00 20.00     0.045 C 
HETATM    8  C4  UNL     1     -35.744   6.545   3.413  1.00 20.00     0.045 C 
HETATM    9  C5  UNL     1     -33.815   7.921   4.244  1.00 20.00     0.045 C 
ENDBRANCH   1   6
TORSDOF 3
ENDMDL
MODEL 9
REMARK VINA RESULT:       0.4      1.209      1.694
REMARK  3 active torsions:
REMARK  status: ('A' for Active; 'I' for Inactive)
REMARK    1  A    between atoms: C2_2  and  C6_6 
REMARK    2  A    between atoms: C6_6  and  O9_9 
REMARK    3  A    between atoms: C7_7  and  O9_9 
ROOT
HETATM    1  O9  UNL     1     -33.264   5.879   2.711  1.00 20.00    -0.379 OA
ENDROOT
BRANCH   1   2
HETATM    2  C6  UNL     1     -33.532   7.087   3.407  1.00 20.00     0.202 C 
BRANCH   2   3
HETATM    3  C2  UNL     1     -34.802   6.919   4.215  1.00 20.00     0.169 A 
HETATM    4  C1  UNL     1     -35.391   5.559   4.465  1.00 20.00     0.202 A 
HETATM    5  O8  UNL     1     -35.925   6.443   3.467  1.00 20.00    -0.379 OA
ENDBRANCH   2   3
ENDBRANCH   1   2
BRANCH   1   6
HETATM    6  C7  UNL     1     -32.636   6.134   1.455  1.00 20.00     0.050 C 
HETATM    7  C3  UNL     1     -33.701   6.083   0.359  1.00 20.00     0.045 C 
HETATM    8  C4  UNL     1     -32.008   7.524   1.528  1.00 20.00     0.045 C 
HETATM    9  C5  UNL     1     -31.564   5.071   1.222  1.00 20.00     0.045 C 
ENDBRANCH   1   6
TORSDOF 3
ENDMDL
