MODEL 1
REMARK VINA RESULT:      -3.4      0.000      0.000
REMARK  2 active torsions:
REMARK  status: ('A' for Active; 'I' for Inactive)
REMARK    1  A    between atoms: C1_1  and  C2_2 
REMARK    2  A    between atoms: C1_1  and  C3_3 
ROOT
HETATM    1  C1  UNL     1     -33.241   6.888   2.684  1.00 20.00     0.234 C 
ENDROOT
BRANCH   1   2
HETATM    2  C2  UNL     1     -34.065   7.485   3.803  1.00 20.00     0.396 C 
HETATM    3  F4  UNL     1     -34.674   8.626   3.414  1.00 20.00    -0.171 F 
HETATM    4  F5  UNL     1     -35.026   6.621   4.195  1.00 20.00    -0.171 F 
HETATM    5  F6  UNL     1     -33.303   7.766   4.882  1.00 20.00    -0.171 F 
ENDBRANCH   1   2
BRANCH   1   6
HETATM    6  C3  UNL     1     -32.184   7.841   2.171  1.00 20.00     0.396 C 
HETATM    7  F7  UNL     1     -31.250   7.172   1.459  1.00 20.00    -0.171 F 
HETATM    8  F8  UNL     1     -31.553   8.471   3.184  1.00 20.00    -0.171 F 
HETATM    9  F9  UNL     1     -32.718   8.781   1.362  1.00 20.00    -0.171 F 
ENDBRANCH   1   6
TORSDOF 2
ENDMDL
MODEL 2
REMARK VINA RESULT:      -3.3      0.003      3.398
REMARK  2 active torsions:
REMARK  status: ('A' for Active; 'I' for Inactive)
REMARK    1  A    between atoms: C1_1  and  C2_2 
REMARK    2  A    between atoms: C1_1  and  C3_3 
ROOT
HETATM    1  C1  UNL     1     -33.241   6.888   2.683  1.00 20.00     0.234 C 
ENDROOT
BRANCH   1   2
HETATM    2  C2  UNL     1     -32.185   7.841   2.169  1.00 20.00     0.396 C 
HETATM    3  F4  UNL     1     -31.552   8.470   3.183  1.00 20.00    -0.171 F 
HETATM    4  F5  UNL     1     -31.253   7.174   1.455  1.00 20.00    -0.171 F 
HETATM    5  F6  UNL     1     -32.721   8.783   1.363  1.00 20.00    -0.171 F 
ENDBRANCH   1   2
BRANCH   1   6
HETATM    6  C3  UNL     1     -34.066   7.484   3.801  1.00 20.00     0.396 C 
HETATM    7  F7  UNL     1     -35.026   6.618   4.195  1.00 20.00    -0.171 F 
HETATM    8  F8  UNL     1     -34.678   8.623   3.411  1.00 20.00    -0.171 F 
HETATM    9  F9  UNL     1     -33.305   7.767   4.879  1.00 20.00    -0.171 F 
ENDBRANCH   1   6
TORSDOF 2
ENDMDL
MODEL 3
REMARK VINA RESULT:      -3.3      0.015      1.259
REMARK  2 active torsions:
REMARK  status: ('A' for Active; 'I' for Inactive)
REMARK    1  A    between atoms: C1_1  and  C2_2 
REMARK    2  A    between atoms: C1_1  and  C3_3 
ROOT
HETATM    1  C1  UNL     1     -33.239   6.881   2.670  1.00 20.00     0.234 C 
ENDROOT
BRANCH   1   2
HETATM    2  C2  UNL     1     -34.061   7.468   3.795  1.00 20.00     0.396 C 
HETATM    3  F4  UNL     1     -33.294   7.764   4.866  1.00 20.00    -0.171 F 
HETATM    4  F5  UNL     1     -34.662   8.610   3.394  1.00 20.00    -0.171 F 
HETATM    5  F6  UNL     1     -35.029   6.617   4.197  1.00 20.00    -0.171 F 
ENDBRANCH   1   2
BRANCH   1   6
HETATM    6  C3  UNL     1     -32.181   7.836   2.165  1.00 20.00     0.396 C 
HETATM    7  F7  UNL     1     -31.240   7.170   1.460  1.00 20.00    -0.171 F 
HETATM    8  F8  UNL     1     -31.558   8.467   3.184  1.00 20.00    -0.171 F 
HETATM    9  F9  UNL     1     -32.711   8.775   1.354  1.00 20.00    -0.171 F 
ENDBRANCH   1   6
TORSDOF 2
ENDMDL
MODEL 4
REMARK VINA RESULT:      -3.3      0.012      3.338
REMARK  2 active torsions:
REMARK  status: ('A' for Active; 'I' for Inactive)
REMARK    1  A    between atoms: C1_1  and  C2_2 
REMARK    2  A    between atoms: C1_1  and  C3_3 
ROOT
HETATM    1  C1  UNL     1     -33.241   6.887   2.671  1.00 20.00     0.234 C 
ENDROOT
BRANCH   1   2
HETATM    2  C2  UNL     1     -32.184   7.844   2.167  1.00 20.00     0.396 C 
HETATM    3  F4  UNL     1     -31.557   8.468   3.188  1.00 20.00    -0.171 F 
HETATM    4  F5  UNL     1     -31.246   7.180   1.456  1.00 20.00    -0.171 F 
HETATM    5  F6  UNL     1     -32.715   8.789   1.363  1.00 20.00    -0.171 F 
ENDBRANCH   1   2
BRANCH   1   6
HETATM    6  C3  UNL     1     -34.065   7.472   3.796  1.00 20.00     0.396 C 
HETATM    7  F7  UNL     1     -34.666   8.615   3.397  1.00 20.00    -0.171 F 
HETATM    8  F8  UNL     1     -33.299   7.767   4.868  1.00 20.00    -0.171 F 
HETATM    9  F9  UNL     1     -35.032   6.620   4.195  1.00 20.00    -0.171 F 
ENDBRANCH   1   6
TORSDOF 2
ENDMDL
MODEL 5
REMARK VINA RESULT:      -3.3      0.010      1.259
REMARK  2 active torsions:
REMARK  status: ('A' for Active; 'I' for Inactive)
REMARK    1  A    between atoms: C1_1  and  C2_2 
REMARK    2  A    between atoms: C1_1  and  C3_3 
ROOT
HETATM    1  C1  UNL     1     -33.239   6.883   2.684  1.00 20.00     0.234 C 
ENDROOT
BRANCH   1   2
HETATM    2  C2  UNL     1     -34.071   7.477   3.798  1.00 20.00     0.396 C 
HETATM    3  F4  UNL     1     -35.035   6.624   4.203  1.00 20.00    -0.171 F 
HETATM    4  F5  UNL     1     -33.296   7.757   4.868  1.00 20.00    -0.171 F 
HETATM    5  F6  UNL     1     -34.665   8.626   3.411  1.00 20.00    -0.171 F 
ENDBRANCH   1   2
BRANCH   1   6
HETATM    6  C3  UNL     1     -32.186   7.840   2.173  1.00 20.00     0.396 C 
HETATM    7  F7  UNL     1     -31.248   7.177   1.461  1.00 20.00    -0.171 F 
HETATM    8  F8  UNL     1     -31.557   8.472   3.187  1.00 20.00    -0.171 F 
HETATM    9  F9  UNL     1     -32.722   8.779   1.364  1.00 20.00    -0.171 F 
ENDBRANCH   1   6
TORSDOF 2
ENDMDL
MODEL 6
REMARK VINA RESULT:      -3.3      0.013      3.316
REMARK  2 active torsions:
REMARK  status: ('A' for Active; 'I' for Inactive)
REMARK    1  A    between atoms: C1_1  and  C2_2 
REMARK    2  A    between atoms: C1_1  and  C3_3 
ROOT
HETATM    1  C1  UNL     1     -33.239   6.884   2.672  1.00 20.00     0.234 C 
ENDROOT
BRANCH   1   2
HETATM    2  C2  UNL     1     -32.184   7.843   2.167  1.00 20.00     0.396 C 
HETATM    3  F4  UNL     1     -31.557   8.469   3.186  1.00 20.00    -0.171 F 
HETATM    4  F5  UNL     1     -31.247   7.181   1.454  1.00 20.00    -0.171 F 
HETATM    5  F6  UNL     1     -32.718   8.787   1.363  1.00 20.00    -0.171 F 
ENDBRANCH   1   2
BRANCH   1   6
HETATM    6  C3  UNL     1     -34.071   7.474   3.789  1.00 20.00     0.396 C 
HETATM    7  F7  UNL     1     -33.295   7.756   4.859  1.00 20.00    -0.171 F 
HETATM    8  F8  UNL     1     -35.032   6.617   4.195  1.00 20.00    -0.171 F 
HETATM    9  F9  UNL     1     -34.670   8.622   3.405  1.00 20.00    -0.171 F 
ENDBRANCH   1   6
TORSDOF 2
ENDMDL
MODEL 7
REMARK VINA RESULT:      -3.3      1.602      3.729
REMARK  2 active torsions:
REMARK  status: ('A' for Active; 'I' for Inactive)
REMARK    1  A    between atoms: C1_1  and  C2_2 
REMARK    2  A    between atoms: C1_1  and  C3_3 
ROOT
HETATM    1  C1  UNL     1     -33.636   5.523   3.116  1.00 20.00     0.234 C 
ENDROOT
BRANCH   1   2
HETATM    2  C2  UNL     1     -32.977   6.139   1.902  1.00 20.00     0.396 C 
HETATM    3  F4  UNL     1     -32.655   7.432   2.117  1.00 20.00    -0.171 F 
HETATM    4  F5  UNL     1     -31.838   5.478   1.597  1.00 20.00    -0.171 F 
HETATM    5  F6  UNL     1     -33.783   6.083   0.820  1.00 20.00    -0.171 F 
ENDBRANCH   1   2
BRANCH   1   6
HETATM    6  C3  UNL     1     -34.689   6.424   3.722  1.00 20.00     0.396 C 
HETATM    7  F7  UNL     1     -35.441   5.740   4.613  1.00 20.00    -0.171 F 
HETATM    8  F8  UNL     1     -35.520   6.918   2.780  1.00 20.00    -0.171 F 
HETATM    9  F9  UNL     1     -34.131   7.466   4.375  1.00 20.00    -0.171 F 
ENDBRANCH   1   6
TORSDOF 2
ENDMDL
MODEL 8
REMARK VINA RESULT:      -3.3      1.590      1.785
REMARK  2 active torsions:
REMARK  status: ('A' for Active; 'I' for Inactive)
REMARK    1  A    between atoms: C1_1  and  C2_2 
REMARK    2  A    between atoms: C1_1  and  C3_3 
ROOT
HETATM    1  C1  UNL     1     -33.609   5.536   3.128  1.00 20.00     0.234 C 
ENDROOT
BRANCH   1   2
HETATM    2  C2  UNL     1     -34.655   6.448   3.730  1.00 20.00     0.396 C 
HETATM    3  F4  UNL     1     -35.479   6.946   2.783  1.00 20.00    -0.171 F 
HETATM    4  F5  UNL     1     -35.414   5.773   4.620  1.00 20.00    -0.171 F 
HETATM    5  F6  UNL     1     -34.089   7.487   4.379  1.00 20.00    -0.171 F 
ENDBRANCH   1   2
BRANCH   1   6
HETATM    6  C3  UNL     1     -32.959   6.130   1.899  1.00 20.00     0.396 C 
HETATM    7  F7  UNL     1     -31.815   5.474   1.604  1.00 20.00    -0.171 F 
HETATM    8  F8  UNL     1     -32.649   7.431   2.084  1.00 20.00    -0.171 F 
HETATM    9  F9  UNL     1     -33.769   6.043   0.822  1.00 20.00    -0.171 F 
ENDBRANCH   1   6
TORSDOF 2
ENDMDL
MODEL 9
REMARK VINA RESULT:      -3.3      1.591      3.686
REMARK  2 active torsions:
REMARK  status: ('A' for Active; 'I' for Inactive)
REMARK    1  A    between atoms: C1_1  and  C2_2 
REMARK    2  A    between atoms: C1_1  and  C3_3 
ROOT
HETATM    1  C1  UNL     1     -33.594   5.509   3.086  1.00 20.00     0.234 C 
ENDROOT
BRANCH   1   2
HETATM    2  C2  UNL     1     -32.932   6.118   1.870  1.00 20.00     0.396 C 
HETATM    3  F4  UNL     1     -31.793   5.466   1.549  1.00 20.00    -0.171 F 
HETATM    4  F5  UNL     1     -33.756   6.052   0.801  1.00 20.00    -0.171 F 
HETATM    5  F6  UNL     1     -32.626   7.417   2.072  1.00 20.00    -0.171 F 
ENDBRANCH   1   2
BRANCH   1   6
HETATM    6  C3  UNL     1     -34.626   6.425   3.704  1.00 20.00     0.396 C 
HETATM    7  F7  UNL     1     -35.386   5.750   4.594  1.00 20.00    -0.171 F 
HETATM    8  F8  UNL     1     -35.453   6.941   2.769  1.00 20.00    -0.171 F 
HETATM    9  F9  UNL     1     -34.045   7.452   4.359  1.00 20.00    -0.171 F 
ENDBRANCH   1   6
TORSDOF 2
ENDMDL
