MODEL 1
REMARK VINA RESULT:      -2.7      0.000      0.000
REMARK  3 active torsions:
REMARK  status: ('A' for Active; 'I' for Inactive)
REMARK    1  A    between atoms: C2_2  and  C3_3 
REMARK    2  A    between atoms: C3_3  and  C5_5 
REMARK    3  A    between atoms: C4_4  and  C5_5 
ROOT
HETATM    1  C5  UNL     1     -32.947   7.346   2.043  1.00 20.00     0.096 C 
HETATM    2 CL7  UNL     1     -32.629   5.672   1.474  1.00 20.00    -0.124 Cl
ENDROOT
BRANCH   1   3
HETATM    3  C3  UNL     1     -33.110   7.363   3.573  1.00 20.00     0.021 C 
BRANCH   3   4
HETATM    4  C2  UNL     1     -34.571   7.462   4.027  1.00 20.00    -0.003 C 
HETATM    5  C1  UNL     1     -35.247   6.098   4.018  1.00 20.00     0.005 C 
ENDBRANCH   3   4
ENDBRANCH   1   3
BRANCH   1   6
HETATM    6  C4  UNL     1     -31.801   8.232   1.554  1.00 20.00     0.134 C 
HETATM    7 CL6  UNL     1     -32.371   9.521   0.464  1.00 20.00    -0.129 Cl
ENDBRANCH   1   6
TORSDOF 3
ENDMDL
MODEL 2
REMARK VINA RESULT:      -2.3      1.726      3.764
REMARK  3 active torsions:
REMARK  status: ('A' for Active; 'I' for Inactive)
REMARK    1  A    between atoms: C2_2  and  C3_3 
REMARK    2  A    between atoms: C3_3  and  C5_5 
REMARK    3  A    between atoms: C4_4  and  C5_5 
ROOT
HETATM    1  C5  UNL     1     -32.781   7.195   2.962  1.00 20.00     0.096 C 
HETATM    2 CL7  UNL     1     -33.167   6.014   1.665  1.00 20.00    -0.124 Cl
ENDROOT
BRANCH   1   3
HETATM    3  C3  UNL     1     -32.064   8.419   2.366  1.00 20.00     0.021 C 
BRANCH   3   4
HETATM    4  C2  UNL     1     -32.122   8.472   0.834  1.00 20.00    -0.003 C 
HETATM    5  C1  UNL     1     -32.447   9.873   0.340  1.00 20.00     0.005 C 
ENDBRANCH   3   4
ENDBRANCH   1   3
BRANCH   1   6
HETATM    6  C4  UNL     1     -34.086   7.554   3.672  1.00 20.00     0.134 C 
HETATM    7 CL6  UNL     1     -35.115   6.124   3.941  1.00 20.00    -0.129 Cl
ENDBRANCH   1   6
TORSDOF 3
ENDMDL
MODEL 3
REMARK VINA RESULT:      -2.2      2.253      4.112
REMARK  3 active torsions:
REMARK  status: ('A' for Active; 'I' for Inactive)
REMARK    1  A    between atoms: C2_2  and  C3_3 
REMARK    2  A    between atoms: C3_3  and  C5_5 
REMARK    3  A    between atoms: C4_4  and  C5_5 
ROOT
HETATM    1  C5  UNL     1     -34.164   7.322   3.477  1.00 20.00     0.096 C 
HETATM    2 CL7  UNL     1     -33.327   8.043   4.894  1.00 20.00    -0.124 Cl
ENDROOT
BRANCH   1   3
HETATM    3  C3  UNL     1     -33.133   6.833   2.446  1.00 20.00     0.021 C 
BRANCH   3   4
HETATM    4  C2  UNL     1     -31.993   7.831   2.206  1.00 20.00    -0.003 C 
HETATM    5  C1  UNL     1     -32.301   8.752   1.035  1.00 20.00     0.005 C 
ENDBRANCH   3   4
ENDBRANCH   1   3
BRANCH   1   6
HETATM    6  C4  UNL     1     -35.073   6.204   3.990  1.00 20.00     0.134 C 
HETATM    7 CL6  UNL     1     -34.249   4.624   3.995  1.00 20.00    -0.129 Cl
ENDBRANCH   1   6
TORSDOF 3
ENDMDL
MODEL 4
REMARK VINA RESULT:      -2.1      2.369      3.667
REMARK  3 active torsions:
REMARK  status: ('A' for Active; 'I' for Inactive)
REMARK    1  A    between atoms: C2_2  and  C3_3 
REMARK    2  A    between atoms: C3_3  and  C5_5 
REMARK    3  A    between atoms: C4_4  and  C5_5 
ROOT
HETATM    1  C5  UNL     1     -33.558   5.631   3.378  1.00 20.00     0.096 C 
HETATM    2 CL7  UNL     1     -33.952   3.969   3.933  1.00 20.00    -0.124 Cl
ENDROOT
BRANCH   1   3
HETATM    3  C3  UNL     1     -33.335   5.642   1.856  1.00 20.00     0.021 C 
BRANCH   3   4
HETATM    4  C2  UNL     1     -31.995   6.262   1.442  1.00 20.00    -0.003 C 
HETATM    5  C1  UNL     1     -31.980   7.763   1.688  1.00 20.00     0.005 C 
ENDBRANCH   3   4
ENDBRANCH   1   3
BRANCH   1   6
HETATM    6  C4  UNL     1     -34.693   6.555   3.823  1.00 20.00     0.134 C 
HETATM    7 CL6  UNL     1     -34.082   8.026   4.621  1.00 20.00    -0.129 Cl
ENDBRANCH   1   6
TORSDOF 3
ENDMDL
MODEL 5
REMARK VINA RESULT:      -2.0      2.203      3.734
REMARK  3 active torsions:
REMARK  status: ('A' for Active; 'I' for Inactive)
REMARK    1  A    between atoms: C2_2  and  C3_3 
REMARK    2  A    between atoms: C3_3  and  C5_5 
REMARK    3  A    between atoms: C4_4  and  C5_5 
ROOT
HETATM    1  C5  UNL     1     -33.257   7.294   2.208  1.00 20.00     0.096 C 
HETATM    2 CL7  UNL     1     -33.837   7.657   3.869  1.00 20.00    -0.124 Cl
ENDROOT
BRANCH   1   3
HETATM    3  C3  UNL     1     -31.943   8.044   1.931  1.00 20.00     0.021 C 
BRANCH   3   4
HETATM    4  C2  UNL     1     -31.906   8.717   0.553  1.00 20.00    -0.003 C 
HETATM    5  C1  UNL     1     -32.600  10.071   0.580  1.00 20.00     0.005 C 
ENDBRANCH   3   4
ENDBRANCH   1   3
BRANCH   1   6
HETATM    6  C4  UNL     1     -33.117   5.777   2.083  1.00 20.00     0.134 C 
HETATM    7 CL6  UNL     1     -31.738   5.317   1.053  1.00 20.00    -0.129 Cl
ENDBRANCH   1   6
TORSDOF 3
ENDMDL
MODEL 6
REMARK VINA RESULT:      -1.9      1.945      2.820
REMARK  3 active torsions:
REMARK  status: ('A' for Active; 'I' for Inactive)
REMARK    1  A    between atoms: C2_2  and  C3_3 
REMARK    2  A    between atoms: C3_3  and  C5_5 
REMARK    3  A    between atoms: C4_4  and  C5_5 
ROOT
HETATM    1  C5  UNL     1     -33.577   6.919   3.776  1.00 20.00     0.096 C 
HETATM    2 CL7  UNL     1     -33.382   8.320   4.884  1.00 20.00    -0.124 Cl
ENDROOT
BRANCH   1   3
HETATM    3  C3  UNL     1     -35.042   6.450   3.770  1.00 20.00     0.021 C 
BRANCH   3   4
HETATM    4  C2  UNL     1     -35.250   5.095   4.456  1.00 20.00    -0.003 C 
HETATM    5  C1  UNL     1     -34.081   4.157   4.193  1.00 20.00     0.005 C 
ENDBRANCH   3   4
ENDBRANCH   1   3
BRANCH   1   6
HETATM    6  C4  UNL     1     -33.079   7.342   2.394  1.00 20.00     0.134 C 
HETATM    7 CL6  UNL     1     -32.688   5.940   1.367  1.00 20.00    -0.129 Cl
ENDBRANCH   1   6
TORSDOF 3
ENDMDL
MODEL 7
REMARK VINA RESULT:      -1.9      2.180      2.820
REMARK  3 active torsions:
REMARK  status: ('A' for Active; 'I' for Inactive)
REMARK    1  A    between atoms: C2_2  and  C3_3 
REMARK    2  A    between atoms: C3_3  and  C5_5 
REMARK    3  A    between atoms: C4_4  and  C5_5 
ROOT
HETATM    1  C5  UNL     1     -34.189   6.167   3.120  1.00 20.00     0.096 C 
HETATM    2 CL7  UNL     1     -33.100   5.559   1.827  1.00 20.00    -0.124 Cl
ENDROOT
BRANCH   1   3
HETATM    3  C3  UNL     1     -34.386   5.087   4.197  1.00 20.00     0.021 C 
BRANCH   3   4
HETATM    4  C2  UNL     1     -33.782   3.730   3.815  1.00 20.00    -0.003 C 
HETATM    5  C1  UNL     1     -33.117   3.064   5.010  1.00 20.00     0.005 C 
ENDBRANCH   3   4
ENDBRANCH   1   3
BRANCH   1   6
HETATM    6  C4  UNL     1     -33.584   7.458   3.673  1.00 20.00     0.134 C 
HETATM    7 CL6  UNL     1     -32.345   8.134   2.585  1.00 20.00    -0.129 Cl
ENDBRANCH   1   6
TORSDOF 3
ENDMDL
MODEL 8
REMARK VINA RESULT:      -1.8      2.621      3.005
REMARK  3 active torsions:
REMARK  status: ('A' for Active; 'I' for Inactive)
REMARK    1  A    between atoms: C2_2  and  C3_3 
REMARK    2  A    between atoms: C3_3  and  C5_5 
REMARK    3  A    between atoms: C4_4  and  C5_5 
ROOT
HETATM    1  C5  UNL     1     -33.469   6.030   3.210  1.00 20.00     0.096 C 
HETATM    2 CL7  UNL     1     -34.882   6.942   3.843  1.00 20.00    -0.124 Cl
ENDROOT
BRANCH   1   3
HETATM    3  C3  UNL     1     -33.783   4.524   3.177  1.00 20.00     0.021 C 
BRANCH   3   4
HETATM    4  C2  UNL     1     -34.005   3.919   4.568  1.00 20.00    -0.003 C 
HETATM    5  C1  UNL     1     -33.033   2.780   4.838  1.00 20.00     0.005 C 
ENDBRANCH   3   4
ENDBRANCH   1   3
BRANCH   1   6
HETATM    6  C4  UNL     1     -33.123   6.599   1.833  1.00 20.00     0.134 C 
HETATM    7 CL6  UNL     1     -32.028   8.000   1.945  1.00 20.00    -0.129 Cl
ENDBRANCH   1   6
TORSDOF 3
ENDMDL
MODEL 9
REMARK VINA RESULT:      -1.8      0.799      2.282
REMARK  3 active torsions:
REMARK  status: ('A' for Active; 'I' for Inactive)
REMARK    1  A    between atoms: C2_2  and  C3_3 
REMARK    2  A    between atoms: C3_3  and  C5_5 
REMARK    3  A    between atoms: C4_4  and  C5_5 
ROOT
HETATM    1  C5  UNL     1     -32.336   8.042   2.118  1.00 20.00     0.096 C 
HETATM    2 CL7  UNL     1     -32.258   9.323   0.861  1.00 20.00    -0.124 Cl
ENDROOT
BRANCH   1   3
HETATM    3  C3  UNL     1     -33.802   7.740   2.475  1.00 20.00     0.021 C 
BRANCH   3   4
HETATM    4  C2  UNL     1     -34.005   7.371   3.949  1.00 20.00    -0.003 C 
HETATM    5  C1  UNL     1     -35.084   6.310   4.111  1.00 20.00     0.005 C 
ENDBRANCH   3   4
ENDBRANCH   1   3
BRANCH   1   6
HETATM    6  C4  UNL     1     -31.587   6.819   1.588  1.00 20.00     0.134 C 
HETATM    7 CL6  UNL     1     -32.677   5.438   1.306  1.00 20.00    -0.129 Cl
ENDBRANCH   1   6
TORSDOF 3
ENDMDL
