MODEL 1
REMARK VINA RESULT:      -2.8      0.000      0.000
REMARK  3 active torsions:
REMARK  status: ('A' for Active; 'I' for Inactive)
REMARK    1  A    between atoms: C1_1  and  C3_3 
REMARK    2  A    between atoms: C3_3  and  C6_6 
REMARK    3  A    between atoms: C6_6  and  C7_7 
ROOT
HETATM    1  C3  UNL     1     -34.486   6.117   3.651  1.00 20.00     0.149 C 
HETATM    2  O8  UNL     1     -35.639   6.247   4.053  1.00 20.00    -0.293 OA
ENDROOT
BRANCH   1   3
HETATM    3  C1  UNL     1     -33.836   4.779   3.552  1.00 20.00     0.045 C 
HETATM    4  C2  UNL     1     -33.883   3.914   4.574  1.00 20.00    -0.027 C 
HETATM    5  C4  UNL     1     -33.252   2.562   4.534  1.00 20.00     0.036 C 
ENDBRANCH   1   3
BRANCH   1   6
HETATM    6  C6  UNL     1     -33.626   7.293   3.219  1.00 20.00     0.082 C 
BRANCH   6   7
HETATM    7  C7  UNL     1     -32.715   6.946   2.044  1.00 20.00     0.003 C 
HETATM    8  C5  UNL     1     -31.850   8.129   1.641  1.00 20.00     0.005 C 
ENDBRANCH   6   7
ENDBRANCH   1   6
TORSDOF 3
ENDMDL
MODEL 2
REMARK VINA RESULT:      -2.7      2.338      3.170
REMARK  3 active torsions:
REMARK  status: ('A' for Active; 'I' for Inactive)
REMARK    1  A    between atoms: C1_1  and  C3_3 
REMARK    2  A    between atoms: C3_3  and  C6_6 
REMARK    3  A    between atoms: C6_6  and  C7_7 
ROOT
HETATM    1  C3  UNL     1     -32.421   7.119   1.938  1.00 20.00     0.149 C 
HETATM    2  O8  UNL     1     -32.122   6.059   1.395  1.00 20.00    -0.293 OA
ENDROOT
BRANCH   1   3
HETATM    3  C1  UNL     1     -33.532   7.206   2.929  1.00 20.00     0.045 C 
HETATM    4  C2  UNL     1     -34.220   6.115   3.289  1.00 20.00    -0.027 C 
HETATM    5  C4  UNL     1     -35.341   6.140   4.275  1.00 20.00     0.036 C 
ENDBRANCH   1   3
BRANCH   1   6
HETATM    6  C6  UNL     1     -31.696   8.423   1.655  1.00 20.00     0.082 C 
BRANCH   6   7
HETATM    7  C7  UNL     1     -31.973   8.950   0.249  1.00 20.00     0.003 C 
HETATM    8  C5  UNL     1     -32.628  10.320   0.286  1.00 20.00     0.005 C 
ENDBRANCH   6   7
ENDBRANCH   1   6
TORSDOF 3
ENDMDL
MODEL 3
REMARK VINA RESULT:      -2.7      0.260      4.070
REMARK  3 active torsions:
REMARK  status: ('A' for Active; 'I' for Inactive)
REMARK    1  A    between atoms: C1_1  and  C3_3 
REMARK    2  A    between atoms: C3_3  and  C6_6 
REMARK    3  A    between atoms: C6_6  and  C7_7 
ROOT
HETATM    1  C3  UNL     1     -34.339   6.209   3.560  1.00 20.00     0.149 C 
HETATM    2  O8  UNL     1     -35.440   6.382   4.074  1.00 20.00    -0.293 OA
ENDROOT
BRANCH   1   3
HETATM    3  C1  UNL     1     -33.516   7.351   3.066  1.00 20.00     0.045 C 
HETATM    4  C2  UNL     1     -32.678   7.199   2.032  1.00 20.00    -0.027 C 
HETATM    5  C4  UNL     1     -31.830   8.303   1.495  1.00 20.00     0.036 C 
ENDBRANCH   1   3
BRANCH   1   6
HETATM    6  C6  UNL     1     -33.717   4.835   3.384  1.00 20.00     0.082 C 
BRANCH   6   7
HETATM    7  C7  UNL     1     -34.108   3.871   4.502  1.00 20.00     0.003 C 
HETATM    8  C5  UNL     1     -33.020   2.843   4.759  1.00 20.00     0.005 C 
ENDBRANCH   6   7
ENDBRANCH   1   6
TORSDOF 3
ENDMDL
MODEL 4
REMARK VINA RESULT:      -2.7      2.271      4.900
REMARK  3 active torsions:
REMARK  status: ('A' for Active; 'I' for Inactive)
REMARK    1  A    between atoms: C1_1  and  C3_3 
REMARK    2  A    between atoms: C3_3  and  C6_6 
REMARK    3  A    between atoms: C6_6  and  C7_7 
ROOT
HETATM    1  C3  UNL     1     -32.674   7.091   2.185  1.00 20.00     0.149 C 
HETATM    2  O8  UNL     1     -32.839   6.009   1.627  1.00 20.00    -0.293 OA
ENDROOT
BRANCH   1   3
HETATM    3  C1  UNL     1     -32.032   8.242   1.487  1.00 20.00     0.045 C 
HETATM    4  C2  UNL     1     -32.761   9.100   0.762  1.00 20.00    -0.027 C 
HETATM    5  C4  UNL     1     -32.175  10.269   0.042  1.00 20.00     0.036 C 
ENDBRANCH   1   3
BRANCH   1   6
HETATM    6  C6  UNL     1     -33.106   7.355   3.617  1.00 20.00     0.082 C 
BRANCH   6   7
HETATM    7  C7  UNL     1     -34.625   7.403   3.767  1.00 20.00     0.003 C 
HETATM    8  C5  UNL     1     -35.194   6.038   4.120  1.00 20.00     0.005 C 
ENDBRANCH   6   7
ENDBRANCH   1   6
TORSDOF 3
ENDMDL
MODEL 5
REMARK VINA RESULT:      -2.4      2.622      5.236
REMARK  3 active torsions:
REMARK  status: ('A' for Active; 'I' for Inactive)
REMARK    1  A    between atoms: C1_1  and  C3_3 
REMARK    2  A    between atoms: C3_3  and  C6_6 
REMARK    3  A    between atoms: C6_6  and  C7_7 
ROOT
HETATM    1  C3  UNL     1     -32.210   8.007   2.445  1.00 20.00     0.149 C 
HETATM    2  O8  UNL     1     -31.498   8.486   3.323  1.00 20.00    -0.293 OA
ENDROOT
BRANCH   1   3
HETATM    3  C1  UNL     1     -32.132   8.473   1.030  1.00 20.00     0.045 C 
HETATM    4  C2  UNL     1     -32.602   9.676   0.675  1.00 20.00    -0.027 C 
HETATM    5  C4  UNL     1     -32.552  10.196  -0.723  1.00 20.00     0.036 C 
ENDBRANCH   1   3
BRANCH   1   6
HETATM    6  C6  UNL     1     -33.223   6.908   2.714  1.00 20.00     0.082 C 
BRANCH   6   7
HETATM    7  C7  UNL     1     -34.185   7.266   3.844  1.00 20.00     0.003 C 
HETATM    8  C5  UNL     1     -35.275   6.220   4.002  1.00 20.00     0.005 C 
ENDBRANCH   6   7
ENDBRANCH   1   6
TORSDOF 3
ENDMDL
MODEL 6
REMARK VINA RESULT:      -1.9      2.194      3.595
REMARK  3 active torsions:
REMARK  status: ('A' for Active; 'I' for Inactive)
REMARK    1  A    between atoms: C1_1  and  C3_3 
REMARK    2  A    between atoms: C3_3  and  C6_6 
REMARK    3  A    between atoms: C6_6  and  C7_7 
ROOT
HETATM    1  C3  UNL     1     -33.004   7.450   2.825  1.00 20.00     0.149 C 
HETATM    2  O8  UNL     1     -32.144   8.321   2.724  1.00 20.00    -0.293 OA
ENDROOT
BRANCH   1   3
HETATM    3  C1  UNL     1     -33.131   6.354   1.821  1.00 20.00     0.045 C 
HETATM    4  C2  UNL     1     -32.063   5.640   1.443  1.00 20.00    -0.027 C 
HETATM    5  C4  UNL     1     -32.128   4.533   0.444  1.00 20.00     0.036 C 
ENDBRANCH   1   3
BRANCH   1   6
HETATM    6  C6  UNL     1     -34.004   7.407   3.967  1.00 20.00     0.082 C 
BRANCH   6   7
HETATM    7  C7  UNL     1     -35.175   6.469   3.680  1.00 20.00     0.003 C 
HETATM    8  C5  UNL     1     -35.041   5.161   4.443  1.00 20.00     0.005 C 
ENDBRANCH   6   7
ENDBRANCH   1   6
TORSDOF 3
ENDMDL
MODEL 7
REMARK VINA RESULT:      -1.6      2.602      3.667
REMARK  3 active torsions:
REMARK  status: ('A' for Active; 'I' for Inactive)
REMARK    1  A    between atoms: C1_1  and  C3_3 
REMARK    2  A    between atoms: C3_3  and  C6_6 
REMARK    3  A    between atoms: C6_6  and  C7_7 
ROOT
HETATM    1  C3  UNL     1     -32.469   7.935   2.244  1.00 20.00     0.149 C 
HETATM    2  O8  UNL     1     -32.551   9.071   1.785  1.00 20.00    -0.293 OA
ENDROOT
BRANCH   1   3
HETATM    3  C1  UNL     1     -31.895   6.809   1.451  1.00 20.00     0.045 C 
HETATM    4  C2  UNL     1     -32.564   5.658   1.308  1.00 20.00    -0.027 C 
HETATM    5  C4  UNL     1     -32.041   4.497   0.528  1.00 20.00     0.036 C 
ENDBRANCH   1   3
BRANCH   1   6
HETATM    6  C6  UNL     1     -32.935   7.575   3.644  1.00 20.00     0.082 C 
BRANCH   6   7
HETATM    7  C7  UNL     1     -34.454   7.647   3.787  1.00 20.00     0.003 C 
HETATM    8  C5  UNL     1     -35.062   6.267   3.978  1.00 20.00     0.005 C 
ENDBRANCH   6   7
ENDBRANCH   1   6
TORSDOF 3
ENDMDL
MODEL 8
REMARK VINA RESULT:      -1.5      2.622      3.058
REMARK  3 active torsions:
REMARK  status: ('A' for Active; 'I' for Inactive)
REMARK    1  A    between atoms: C1_1  and  C3_3 
REMARK    2  A    between atoms: C3_3  and  C6_6 
REMARK    3  A    between atoms: C6_6  and  C7_7 
ROOT
HETATM    1  C3  UNL     1     -32.917   7.399   2.559  1.00 20.00     0.149 C 
HETATM    2  O8  UNL     1     -33.605   7.510   3.571  1.00 20.00    -0.293 OA
ENDROOT
BRANCH   1   3
HETATM    3  C1  UNL     1     -33.004   6.198   1.680  1.00 20.00     0.045 C 
HETATM    4  C2  UNL     1     -31.898   5.555   1.283  1.00 20.00    -0.027 C 
HETATM    5  C4  UNL     1     -31.922   4.349   0.403  1.00 20.00     0.036 C 
ENDBRANCH   1   3
BRANCH   1   6
HETATM    6  C6  UNL     1     -31.929   8.463   2.114  1.00 20.00     0.082 C 
BRANCH   6   7
HETATM    7  C7  UNL     1     -32.099   8.835   0.642  1.00 20.00     0.003 C 
HETATM    8  C5  UNL     1     -32.599  10.261   0.482  1.00 20.00     0.005 C 
ENDBRANCH   6   7
ENDBRANCH   1   6
TORSDOF 3
ENDMDL
MODEL 9
REMARK VINA RESULT:      -1.4      1.862      2.044
REMARK  3 active torsions:
REMARK  status: ('A' for Active; 'I' for Inactive)
REMARK    1  A    between atoms: C1_1  and  C3_3 
REMARK    2  A    between atoms: C3_3  and  C6_6 
REMARK    3  A    between atoms: C6_6  and  C7_7 
ROOT
HETATM    1  C3  UNL     1     -34.103   5.606   3.326  1.00 20.00     0.149 C 
HETATM    2  O8  UNL     1     -33.369   5.756   2.353  1.00 20.00    -0.293 OA
ENDROOT
BRANCH   1   3
HETATM    3  C1  UNL     1     -34.234   4.289   4.015  1.00 20.00     0.045 C 
HETATM    4  C2  UNL     1     -33.172   3.487   4.173  1.00 20.00    -0.027 C 
HETATM    5  C4  UNL     1     -33.242   2.160   4.852  1.00 20.00     0.036 C 
ENDBRANCH   1   3
BRANCH   1   6
HETATM    6  C6  UNL     1     -34.934   6.733   3.914  1.00 20.00     0.082 C 
BRANCH   6   7
HETATM    7  C7  UNL     1     -34.178   8.060   3.940  1.00 20.00     0.003 C 
HETATM    8  C5  UNL     1     -33.156   8.098   5.064  1.00 20.00     0.005 C 
ENDBRANCH   6   7
ENDBRANCH   1   6
TORSDOF 3
ENDMDL
