MODEL 1
REMARK VINA RESULT:      -1.8      0.000      0.000
REMARK  2 active torsions:
REMARK  status: ('A' for Active; 'I' for Inactive)
REMARK    1  A    between atoms: C1_1  and  C3_3 
REMARK    2  A    between atoms: C2_2  and  C3_3 
ROOT
HETATM    1  C3  UNL     1     -34.055   6.114   2.963  1.00 20.00     0.187 C 
HETATM    2 BR7  UNL     1     -34.019   7.629   4.204  1.00 20.00    -0.077 Br
ENDROOT
BRANCH   1   3
HETATM    3  C1  UNL     1     -32.875   6.339   2.013  1.00 20.00     0.190 C 
HETATM    4  O4  UNL     1     -32.407   7.514   2.021  1.00 20.00    -0.647 OA
HETATM    5  O5  UNL     1     -32.516   5.343   1.324  1.00 20.00    -0.647 OA
ENDBRANCH   1   3
BRANCH   1   6
HETATM    6  C2  UNL     1     -34.057   4.823   3.757  1.00 20.00     0.248 C 
HETATM    7  F6  UNL     1     -35.195   4.723   4.496  1.00 20.00    -0.254 F 
ENDBRANCH   1   6
TORSDOF 2
ENDMDL
MODEL 2
REMARK VINA RESULT:      -1.8      3.252      3.824
REMARK  2 active torsions:
REMARK  status: ('A' for Active; 'I' for Inactive)
REMARK    1  A    between atoms: C1_1  and  C3_3 
REMARK    2  A    between atoms: C2_2  and  C3_3 
ROOT
HETATM    1  C3  UNL     1     -33.155   6.995   2.002  1.00 20.00     0.187 C 
HETATM    2 BR7  UNL     1     -32.405   5.306   1.351  1.00 20.00    -0.077 Br
ENDROOT
BRANCH   1   3
HETATM    3  C1  UNL     1     -33.837   6.653   3.329  1.00 20.00     0.190 C 
HETATM    4  O4  UNL     1     -34.031   5.417   3.520  1.00 20.00    -0.647 OA
HETATM    5  O5  UNL     1     -34.142   7.630   4.068  1.00 20.00    -0.647 OA
ENDBRANCH   1   3
BRANCH   1   6
HETATM    6  C2  UNL     1     -32.058   8.040   2.047  1.00 20.00     0.248 C 
HETATM    7  F6  UNL     1     -32.120   8.840   0.948  1.00 20.00    -0.254 F 
ENDBRANCH   1   6
TORSDOF 2
ENDMDL
MODEL 3
REMARK VINA RESULT:      -1.8      2.644      2.725
REMARK  2 active torsions:
REMARK  status: ('A' for Active; 'I' for Inactive)
REMARK    1  A    between atoms: C1_1  and  C3_3 
REMARK    2  A    between atoms: C2_2  and  C3_3 
ROOT
HETATM    1  C3  UNL     1     -33.255   7.019   1.940  1.00 20.00     0.187 C 
HETATM    2 BR7  UNL     1     -34.091   7.195   3.703  1.00 20.00    -0.077 Br
ENDROOT
BRANCH   1   3
HETATM    3  C1  UNL     1     -32.190   8.116   1.883  1.00 20.00     0.190 C 
HETATM    4  O4  UNL     1     -31.532   8.271   2.953  1.00 20.00    -0.647 OA
HETATM    5  O5  UNL     1     -32.097   8.748   0.794  1.00 20.00    -0.647 OA
ENDBRANCH   1   3
BRANCH   1   6
HETATM    6  C2  UNL     1     -32.778   5.592   1.758  1.00 20.00     0.248 C 
HETATM    7  F6  UNL     1     -31.524   5.576   1.228  1.00 20.00    -0.254 F 
ENDBRANCH   1   6
TORSDOF 2
ENDMDL
MODEL 4
REMARK VINA RESULT:      -1.7      2.822      3.134
REMARK  2 active torsions:
REMARK  status: ('A' for Active; 'I' for Inactive)
REMARK    1  A    between atoms: C1_1  and  C3_3 
REMARK    2  A    between atoms: C2_2  and  C3_3 
ROOT
HETATM    1  C3  UNL     1     -33.446   5.686   3.370  1.00 20.00     0.187 C 
HETATM    2 BR7  UNL     1     -34.316   7.351   3.925  1.00 20.00    -0.077 Br
ENDROOT
BRANCH   1   3
HETATM    3  C1  UNL     1     -34.241   4.566   4.047  1.00 20.00     0.190 C 
HETATM    4  O4  UNL     1     -35.391   4.905   4.452  1.00 20.00    -0.647 OA
HETATM    5  O5  UNL     1     -33.662   3.448   4.140  1.00 20.00    -0.647 OA
ENDBRANCH   1   3
BRANCH   1   6
HETATM    6  C2  UNL     1     -33.366   5.649   1.857  1.00 20.00     0.248 C 
HETATM    7  F6  UNL     1     -32.085   5.426   1.456  1.00 20.00    -0.254 F 
ENDBRANCH   1   6
TORSDOF 2
ENDMDL
MODEL 5
REMARK VINA RESULT:      -1.7      2.787      3.239
REMARK  2 active torsions:
REMARK  status: ('A' for Active; 'I' for Inactive)
REMARK    1  A    between atoms: C1_1  and  C3_3 
REMARK    2  A    between atoms: C2_2  and  C3_3 
ROOT
HETATM    1  C3  UNL     1     -34.150   6.325   3.113  1.00 20.00     0.187 C 
HETATM    2 BR7  UNL     1     -32.896   5.718   1.735  1.00 20.00    -0.077 Br
ENDROOT
BRANCH   1   3
HETATM    3  C1  UNL     1     -34.475   5.080   3.943  1.00 20.00     0.190 C 
HETATM    4  O4  UNL     1     -33.603   4.165   3.887  1.00 20.00    -0.647 OA
HETATM    5  O5  UNL     1     -35.570   5.099   4.571  1.00 20.00    -0.647 OA
ENDBRANCH   1   3
BRANCH   1   6
HETATM    6  C2  UNL     1     -33.544   7.501   3.851  1.00 20.00     0.248 C 
HETATM    7  F6  UNL     1     -34.375   7.914   4.847  1.00 20.00    -0.254 F 
ENDBRANCH   1   6
TORSDOF 2
ENDMDL
MODEL 6
REMARK VINA RESULT:      -1.7      2.497      2.635
REMARK  2 active torsions:
REMARK  status: ('A' for Active; 'I' for Inactive)
REMARK    1  A    between atoms: C1_1  and  C3_3 
REMARK    2  A    between atoms: C2_2  and  C3_3 
ROOT
HETATM    1  C3  UNL     1     -33.513   5.471   3.587  1.00 20.00     0.187 C 
HETATM    2 BR7  UNL     1     -32.930   5.722   1.733  1.00 20.00    -0.077 Br
ENDROOT
BRANCH   1   3
HETATM    3  C1  UNL     1     -34.519   6.594   3.852  1.00 20.00     0.190 C 
HETATM    4  O4  UNL     1     -34.002   7.735   4.033  1.00 20.00    -0.647 OA
HETATM    5  O5  UNL     1     -35.736   6.260   3.876  1.00 20.00    -0.647 OA
ENDBRANCH   1   3
BRANCH   1   6
HETATM    6  C2  UNL     1     -34.013   4.051   3.761  1.00 20.00     0.248 C 
HETATM    7  F6  UNL     1     -33.277   3.402   4.705  1.00 20.00    -0.254 F 
ENDBRANCH   1   6
TORSDOF 2
ENDMDL
MODEL 7
REMARK VINA RESULT:      -1.6      2.880      2.997
REMARK  2 active torsions:
REMARK  status: ('A' for Active; 'I' for Inactive)
REMARK    1  A    between atoms: C1_1  and  C3_3 
REMARK    2  A    between atoms: C2_2  and  C3_3 
ROOT
HETATM    1  C3  UNL     1     -32.973   6.581   2.843  1.00 20.00     0.187 C 
HETATM    2 BR7  UNL     1     -32.257   8.237   2.080  1.00 20.00    -0.077 Br
ENDROOT
BRANCH   1   3
HETATM    3  C1  UNL     1     -34.154   7.012   3.715  1.00 20.00     0.190 C 
HETATM    4  O4  UNL     1     -33.946   8.048   4.412  1.00 20.00    -0.647 OA
HETATM    5  O5  UNL     1     -35.186   6.287   3.656  1.00 20.00    -0.647 OA
ENDBRANCH   1   3
BRANCH   1   6
HETATM    6  C2  UNL     1     -33.271   5.606   1.721  1.00 20.00     0.248 C 
HETATM    7  F6  UNL     1     -32.120   5.238   1.095  1.00 20.00    -0.254 F 
ENDBRANCH   1   6
TORSDOF 2
ENDMDL
MODEL 8
REMARK VINA RESULT:      -1.5      1.553      1.685
REMARK  2 active torsions:
REMARK  status: ('A' for Active; 'I' for Inactive)
REMARK    1  A    between atoms: C1_1  and  C3_3 
REMARK    2  A    between atoms: C2_2  and  C3_3 
ROOT
HETATM    1  C3  UNL     1     -33.563   6.263   3.504  1.00 20.00     0.187 C 
HETATM    2 BR7  UNL     1     -33.863   4.337   3.696  1.00 20.00    -0.077 Br
ENDROOT
BRANCH   1   3
HETATM    3  C1  UNL     1     -32.904   6.438   2.134  1.00 20.00     0.190 C 
HETATM    4  O4  UNL     1     -32.413   7.585   1.926  1.00 20.00    -0.647 OA
HETATM    5  O5  UNL     1     -32.937   5.435   1.367  1.00 20.00    -0.647 OA
ENDBRANCH   1   3
BRANCH   1   6
HETATM    6  C2  UNL     1     -34.872   6.993   3.732  1.00 20.00     0.248 C 
HETATM    7  F6  UNL     1     -35.866   6.108   4.015  1.00 20.00    -0.254 F 
ENDBRANCH   1   6
TORSDOF 2
ENDMDL
MODEL 9
REMARK VINA RESULT:      -1.5      1.552      2.072
REMARK  2 active torsions:
REMARK  status: ('A' for Active; 'I' for Inactive)
REMARK    1  A    between atoms: C1_1  and  C3_3 
REMARK    2  A    between atoms: C2_2  and  C3_3 
ROOT
HETATM    1  C3  UNL     1     -33.565   6.271   3.503  1.00 20.00     0.187 C 
HETATM    2 BR7  UNL     1     -33.852   4.342   3.679  1.00 20.00    -0.077 Br
ENDROOT
BRANCH   1   3
HETATM    3  C1  UNL     1     -32.903   6.461   2.136  1.00 20.00     0.190 C 
HETATM    4  O4  UNL     1     -32.932   5.440   1.388  1.00 20.00    -0.647 OA
HETATM    5  O5  UNL     1     -32.395   7.595   1.915  1.00 20.00    -0.647 OA
ENDBRANCH   1   3
BRANCH   1   6
HETATM    6  C2  UNL     1     -34.879   6.991   3.732  1.00 20.00     0.248 C 
HETATM    7  F6  UNL     1     -35.863   6.098   4.026  1.00 20.00    -0.254 F 
ENDBRANCH   1   6
TORSDOF 2
ENDMDL
