MODEL 1
REMARK VINA RESULT:      -1.3      0.000      0.000
REMARK  0 active torsions:
REMARK  status: ('A' for Active; 'I' for Inactive)
ROOT
HETATM    1  C1  UNL     1     -33.790   4.637   3.153  1.00 20.00     0.053 A 
HETATM    2  C2  UNL     1     -33.486   5.730   2.450  1.00 20.00    -0.072 A 
HETATM    3  C3  UNL     1     -34.724   5.088   4.193  1.00 20.00     0.150 A 
HETATM    4  C4  UNL     1     -32.513   5.833   1.322  1.00 20.00     0.034 C 
HETATM    5  C5  UNL     1     -34.976   6.569   4.124  1.00 20.00     0.092 A 
HETATM    6  C6  UNL     1     -31.496   6.942   1.605  1.00 20.00     0.004 C 
HETATM    7  C7  UNL     1     -32.168   8.259   2.011  1.00 20.00     0.001 C 
HETATM    8  C8  UNL     1     -33.117   8.070   3.200  1.00 20.00     0.009 C 
HETATM    9  C9  UNL     1     -34.162   6.993   2.902  1.00 20.00     0.022 A 
HETATM   10  O10 UNL     1     -35.220   4.333   5.016  1.00 20.00    -0.293 OA
ENDROOT
TORSDOF 0
ENDMDL
MODEL 2
REMARK VINA RESULT:      -1.0      0.640      2.059
REMARK  0 active torsions:
REMARK  status: ('A' for Active; 'I' for Inactive)
ROOT
HETATM    1  C1  UNL     1     -34.602   6.942   4.105  1.00 20.00     0.053 A 
HETATM    2  C2  UNL     1     -33.451   7.032   3.436  1.00 20.00    -0.072 A 
HETATM    3  C3  UNL     1     -34.931   5.511   4.129  1.00 20.00     0.150 A 
HETATM    4  C4  UNL     1     -32.719   8.280   3.065  1.00 20.00     0.034 C 
HETATM    5  C5  UNL     1     -33.914   4.684   3.393  1.00 20.00     0.092 A 
HETATM    6  C6  UNL     1     -32.448   8.301   1.558  1.00 20.00     0.004 C 
HETATM    7  C7  UNL     1     -31.811   6.998   1.062  1.00 20.00     0.001 C 
HETATM    8  C8  UNL     1     -32.647   5.773   1.450  1.00 20.00     0.009 C 
HETATM    9  C9  UNL     1     -32.881   5.725   2.962  1.00 20.00     0.022 A 
HETATM   10  O10 UNL     1     -35.927   5.066   4.680  1.00 20.00    -0.293 OA
ENDROOT
TORSDOF 0
ENDMDL
MODEL 3
REMARK VINA RESULT:      -0.8      2.147      4.096
REMARK  0 active torsions:
REMARK  status: ('A' for Active; 'I' for Inactive)
ROOT
HETATM    1  C1  UNL     1     -33.473   7.885   2.957  1.00 20.00     0.053 A 
HETATM    2  C2  UNL     1     -34.036   6.679   3.047  1.00 20.00    -0.072 A 
HETATM    3  C3  UNL     1     -32.321   7.714   2.063  1.00 20.00     0.150 A 
HETATM    4  C4  UNL     1     -35.202   6.289   3.896  1.00 20.00     0.034 C 
HETATM    5  C5  UNL     1     -32.165   6.290   1.606  1.00 20.00     0.092 A 
HETATM    6  C6  UNL     1     -34.836   5.088   4.772  1.00 20.00     0.004 C 
HETATM    7  C7  UNL     1     -34.206   3.947   3.963  1.00 20.00     0.001 C 
HETATM    8  C8  UNL     1     -32.994   4.425   3.155  1.00 20.00     0.009 C 
HETATM    9  C9  UNL     1     -33.369   5.597   2.245  1.00 20.00     0.022 A 
HETATM   10  O10 UNL     1     -31.580   8.633   1.748  1.00 20.00    -0.293 OA
ENDROOT
TORSDOF 0
ENDMDL
MODEL 4
REMARK VINA RESULT:      -0.4      2.357      3.759
REMARK  0 active torsions:
REMARK  status: ('A' for Active; 'I' for Inactive)
ROOT
HETATM    1  C1  UNL     1     -32.458   6.378   1.508  1.00 20.00     0.053 A 
HETATM    2  C2  UNL     1     -33.027   6.190   2.701  1.00 20.00    -0.072 A 
HETATM    3  C3  UNL     1     -32.046   7.788   1.489  1.00 20.00     0.150 A 
HETATM    4  C4  UNL     1     -33.684   4.944   3.200  1.00 20.00     0.034 C 
HETATM    5  C5  UNL     1     -32.423   8.505   2.755  1.00 20.00     0.092 A 
HETATM    6  C6  UNL     1     -35.104   5.255   3.680  1.00 20.00     0.004 C 
HETATM    7  C7  UNL     1     -35.145   6.447   4.644  1.00 20.00     0.001 C 
HETATM    8  C8  UNL     1     -34.488   7.692   4.037  1.00 20.00     0.009 C 
HETATM    9  C9  UNL     1     -33.052   7.395   3.597  1.00 20.00     0.022 A 
HETATM   10  O10 UNL     1     -31.474   8.301   0.539  1.00 20.00    -0.293 OA
ENDROOT
TORSDOF 0
ENDMDL
MODEL 5
REMARK VINA RESULT:       0.6      2.165      3.471
REMARK  0 active torsions:
REMARK  status: ('A' for Active; 'I' for Inactive)
ROOT
HETATM    1  C1  UNL     1     -31.490   6.678   1.518  1.00 20.00     0.053 A 
HETATM    2  C2  UNL     1     -32.504   7.243   2.176  1.00 20.00    -0.072 A 
HETATM    3  C3  UNL     1     -32.023   5.419   0.982  1.00 20.00     0.150 A 
HETATM    4  C4  UNL     1     -32.469   8.507   2.971  1.00 20.00     0.034 C 
HETATM    5  C5  UNL     1     -33.458   5.200   1.374  1.00 20.00     0.092 A 
HETATM    6  C6  UNL     1     -32.997   8.252   4.386  1.00 20.00     0.004 C 
HETATM    7  C7  UNL     1     -34.344   7.519   4.382  1.00 20.00     0.001 C 
HETATM    8  C8  UNL     1     -34.278   6.214   3.580  1.00 20.00     0.009 C 
HETATM    9  C9  UNL     1     -33.794   6.473   2.151  1.00 20.00     0.022 A 
HETATM   10  O10 UNL     1     -31.358   4.647   0.308  1.00 20.00    -0.293 OA
ENDROOT
TORSDOF 0
ENDMDL
MODEL 6
REMARK VINA RESULT:       1.6      2.098      3.451
REMARK  0 active torsions:
REMARK  status: ('A' for Active; 'I' for Inactive)
ROOT
HETATM    1  C1  UNL     1     -33.108   4.573   1.929  1.00 20.00     0.053 A 
HETATM    2  C2  UNL     1     -33.422   5.385   2.940  1.00 20.00    -0.072 A 
HETATM    3  C3  UNL     1     -32.143   5.321   1.112  1.00 20.00     0.150 A 
HETATM    4  C4  UNL     1     -34.424   5.133   4.020  1.00 20.00     0.034 C 
HETATM    5  C5  UNL     1     -31.882   6.696   1.661  1.00 20.00     0.092 A 
HETATM    6  C6  UNL     1     -35.425   6.290   4.087  1.00 20.00     0.004 C 
HETATM    7  C7  UNL     1     -34.733   7.657   4.143  1.00 20.00     0.001 C 
HETATM    8  C8  UNL     1     -33.755   7.847   2.978  1.00 20.00     0.009 C 
HETATM    9  C9  UNL     1     -32.725   6.716   2.936  1.00 20.00     0.022 A 
HETATM   10  O10 UNL     1     -31.631   4.864   0.101  1.00 20.00    -0.293 OA
ENDROOT
TORSDOF 0
ENDMDL
