MODEL 1
REMARK VINA RESULT:      -1.6      0.000      0.000
REMARK  2 active torsions:
REMARK  status: ('A' for Active; 'I' for Inactive)
REMARK    1  A    between atoms: C1_1  and  C4_4 
REMARK    2  A    between atoms: C5_5  and  C8_8 
ROOT
HETATM    1  C2  UNL     1     -32.401   6.593   1.576  1.00 20.00     0.020 C 
HETATM    2  C3  UNL     1     -33.067   8.066   2.964  1.00 20.00     0.020 C 
HETATM    3  C4  UNL     1     -31.932   8.029   1.911  1.00 20.00     0.087 C 
HETATM    4  C5  UNL     1     -32.976   6.520   3.014  1.00 20.00    -0.010 C 
ENDROOT
BRANCH   3   5
HETATM    5  C1  UNL     1     -32.048   9.016   0.807  1.00 20.00     0.177 C 
HETATM    6  O9  UNL     1     -32.920   9.913   0.975  1.00 20.00    -0.648 OA
HETATM    7  O10 UNL     1     -31.254   8.827  -0.158  1.00 20.00    -0.648 OA
ENDBRANCH   3   5
BRANCH   4   8
HETATM    8  C8  UNL     1     -34.280   5.769   3.188  1.00 20.00    -0.019 C 
HETATM    9  C6  UNL     1     -34.042   4.398   3.826  1.00 20.00     0.010 C 
HETATM   10  C7  UNL     1     -35.272   6.577   4.029  1.00 20.00     0.010 C 
ENDBRANCH   4   8
TORSDOF 2
ENDMDL
MODEL 2
REMARK VINA RESULT:      -1.2      3.193      4.718
REMARK  2 active torsions:
REMARK  status: ('A' for Active; 'I' for Inactive)
REMARK    1  A    between atoms: C1_1  and  C4_4 
REMARK    2  A    between atoms: C5_5  and  C8_8 
ROOT
HETATM    1  C2  UNL     1     -33.245   5.715   2.039  1.00 20.00     0.020 C 
HETATM    2  C3  UNL     1     -33.877   7.120   3.511  1.00 20.00     0.020 C 
HETATM    3  C4  UNL     1     -34.417   5.743   3.051  1.00 20.00     0.087 C 
HETATM    4  C5  UNL     1     -33.243   7.264   2.104  1.00 20.00    -0.010 C 
ENDROOT
BRANCH   3   5
HETATM    5  C1  UNL     1     -34.403   4.672   4.079  1.00 20.00     0.177 C 
HETATM    6  O9  UNL     1     -33.398   3.908   4.049  1.00 20.00    -0.648 OA
HETATM    7  O10 UNL     1     -35.402   4.666   4.852  1.00 20.00    -0.648 OA
ENDBRANCH   3   5
BRANCH   4   8
HETATM    8  C8  UNL     1     -31.892   7.945   2.035  1.00 20.00    -0.019 C 
HETATM    9  C6  UNL     1     -31.816   8.894   0.836  1.00 20.00     0.010 C 
HETATM   10  C7  UNL     1     -31.594   8.707   3.330  1.00 20.00     0.010 C 
ENDBRANCH   4   8
TORSDOF 2
ENDMDL
MODEL 3
REMARK VINA RESULT:      -1.0      2.576      4.595
REMARK  2 active torsions:
REMARK  status: ('A' for Active; 'I' for Inactive)
REMARK    1  A    between atoms: C1_1  and  C4_4 
REMARK    2  A    between atoms: C5_5  and  C8_8 
ROOT
HETATM    1  C2  UNL     1     -33.260   8.161   3.038  1.00 20.00     0.020 C 
HETATM    2  C3  UNL     1     -32.693   6.519   1.803  1.00 20.00     0.020 C 
HETATM    3  C4  UNL     1     -33.130   6.638   3.284  1.00 20.00     0.087 C 
HETATM    4  C5  UNL     1     -32.224   7.993   1.896  1.00 20.00    -0.010 C 
ENDROOT
BRANCH   3   5
HETATM    5  C1  UNL     1     -34.390   5.936   3.639  1.00 20.00     0.177 C 
HETATM    6  O9  UNL     1     -35.421   6.662   3.674  1.00 20.00    -0.648 OA
HETATM    7  O10 UNL     1     -34.263   4.698   3.862  1.00 20.00    -0.648 OA
ENDBRANCH   3   5
BRANCH   4   8
HETATM    8  C8  UNL     1     -32.428   8.850   0.663  1.00 20.00    -0.019 C 
HETATM    9  C6  UNL     1     -32.769  10.292   1.047  1.00 20.00     0.010 C 
HETATM   10  C7  UNL     1     -31.189   8.822  -0.236  1.00 20.00     0.010 C 
ENDBRANCH   4   8
TORSDOF 2
ENDMDL
MODEL 4
REMARK VINA RESULT:      -0.9      3.149      4.649
REMARK  2 active torsions:
REMARK  status: ('A' for Active; 'I' for Inactive)
REMARK    1  A    between atoms: C1_1  and  C4_4 
REMARK    2  A    between atoms: C5_5  and  C8_8 
ROOT
HETATM    1  C2  UNL     1     -33.886   6.181   2.102  1.00 20.00     0.020 C 
HETATM    2  C3  UNL     1     -33.718   7.301   3.908  1.00 20.00     0.020 C 
HETATM    3  C4  UNL     1     -34.681   6.187   3.430  1.00 20.00     0.087 C 
HETATM    4  C5  UNL     1     -33.491   7.648   2.414  1.00 20.00    -0.010 C 
ENDROOT
BRANCH   3   5
HETATM    5  C1  UNL     1     -34.638   4.923   4.209  1.00 20.00     0.177 C 
HETATM    6  O9  UNL     1     -33.620   4.203   4.013  1.00 20.00    -0.648 OA
HETATM    7  O10 UNL     1     -35.629   4.735   4.970  1.00 20.00    -0.648 OA
ENDBRANCH   3   5
BRANCH   4   8
HETATM    8  C8  UNL     1     -32.091   8.073   2.021  1.00 20.00    -0.019 C 
HETATM    9  C6  UNL     1     -31.302   6.896   1.442  1.00 20.00     0.010 C 
HETATM   10  C7  UNL     1     -32.130   9.227   1.014  1.00 20.00     0.010 C 
ENDBRANCH   4   8
TORSDOF 2
ENDMDL
MODEL 5
REMARK VINA RESULT:      -0.8      1.368      2.092
REMARK  2 active torsions:
REMARK  status: ('A' for Active; 'I' for Inactive)
REMARK    1  A    between atoms: C1_1  and  C4_4 
REMARK    2  A    between atoms: C5_5  and  C8_8 
ROOT
HETATM    1  C2  UNL     1     -31.639   7.800   0.533  1.00 20.00     0.020 C 
HETATM    2  C3  UNL     1     -32.964   8.401   2.090  1.00 20.00     0.020 C 
HETATM    3  C4  UNL     1     -31.940   9.159   1.211  1.00 20.00     0.087 C 
HETATM    4  C5  UNL     1     -32.128   7.121   1.839  1.00 20.00    -0.010 C 
ENDROOT
BRANCH   3   5
HETATM    5  C1  UNL     1     -32.506  10.207   0.323  1.00 20.00     0.177 C 
HETATM    6  O9  UNL     1     -32.907   9.801  -0.803  1.00 20.00    -0.648 OA
HETATM    7  O10 UNL     1     -32.512  11.371   0.815  1.00 20.00    -0.648 OA
ENDBRANCH   3   5
BRANCH   4   8
HETATM    8  C8  UNL     1     -32.898   5.826   1.684  1.00 20.00    -0.019 C 
HETATM    9  C6  UNL     1     -32.009   4.724   1.101  1.00 20.00     0.010 C 
HETATM   10  C7  UNL     1     -33.488   5.374   3.023  1.00 20.00     0.010 C 
ENDBRANCH   4   8
TORSDOF 2
ENDMDL
MODEL 6
REMARK VINA RESULT:      -0.7      1.344      2.098
REMARK  2 active torsions:
REMARK  status: ('A' for Active; 'I' for Inactive)
REMARK    1  A    between atoms: C1_1  and  C4_4 
REMARK    2  A    between atoms: C5_5  and  C8_8 
ROOT
HETATM    1  C2  UNL     1     -33.998   7.207   2.894  1.00 20.00     0.020 C 
HETATM    2  C3  UNL     1     -32.591   5.782   2.164  1.00 20.00     0.020 C 
HETATM    3  C4  UNL     1     -33.029   7.188   1.686  1.00 20.00     0.087 C 
HETATM    4  C5  UNL     1     -33.978   5.657   2.843  1.00 20.00    -0.010 C 
ENDROOT
BRANCH   3   5
HETATM    5  C1  UNL     1     -31.970   8.230   1.697  1.00 20.00     0.177 C 
HETATM    6  O9  UNL     1     -31.927   8.967   0.674  1.00 20.00    -0.648 OA
HETATM    7  O10 UNL     1     -31.249   8.241   2.735  1.00 20.00    -0.648 OA
ENDBRANCH   3   5
BRANCH   4   8
HETATM    8  C8  UNL     1     -34.020   4.934   4.174  1.00 20.00    -0.019 C 
HETATM    9  C6  UNL     1     -35.416   5.009   4.796  1.00 20.00     0.010 C 
HETATM   10  C7  UNL     1     -33.590   3.472   4.018  1.00 20.00     0.010 C 
ENDBRANCH   4   8
TORSDOF 2
ENDMDL
MODEL 7
REMARK VINA RESULT:       0.0      3.961      5.185
REMARK  2 active torsions:
REMARK  status: ('A' for Active; 'I' for Inactive)
REMARK    1  A    between atoms: C1_1  and  C4_4 
REMARK    2  A    between atoms: C5_5  and  C8_8 
ROOT
HETATM    1  C2  UNL     1     -32.892   4.676   3.017  1.00 20.00     0.020 C 
HETATM    2  C3  UNL     1     -34.414   5.089   4.452  1.00 20.00     0.020 C 
HETATM    3  C4  UNL     1     -33.895   3.787   3.793  1.00 20.00     0.087 C 
HETATM    4  C5  UNL     1     -33.894   5.845   3.203  1.00 20.00    -0.010 C 
ENDROOT
BRANCH   3   5
HETATM    5  C1  UNL     1     -33.291   2.796   4.719  1.00 20.00     0.177 C 
HETATM    6  O9  UNL     1     -32.564   3.281   5.630  1.00 20.00    -0.648 OA
HETATM    7  O10 UNL     1     -33.585   1.592   4.471  1.00 20.00    -0.648 OA
ENDBRANCH   3   5
BRANCH   4   8
HETATM    8  C8  UNL     1     -33.299   7.218   3.440  1.00 20.00    -0.019 C 
HETATM    9  C6  UNL     1     -32.749   7.810   2.139  1.00 20.00     0.010 C 
HETATM   10  C7  UNL     1     -34.332   8.167   4.055  1.00 20.00     0.010 C 
ENDBRANCH   4   8
TORSDOF 2
ENDMDL
MODEL 8
REMARK VINA RESULT:       0.3      2.590      4.543
REMARK  2 active torsions:
REMARK  status: ('A' for Active; 'I' for Inactive)
REMARK    1  A    between atoms: C1_1  and  C4_4 
REMARK    2  A    between atoms: C5_5  and  C8_8 
ROOT
HETATM    1  C2  UNL     1     -32.756   8.224   2.443  1.00 20.00     0.020 C 
HETATM    2  C3  UNL     1     -31.870   7.711   0.573  1.00 20.00     0.020 C 
HETATM    3  C4  UNL     1     -31.994   6.978   1.931  1.00 20.00     0.087 C 
HETATM    4  C5  UNL     1     -32.006   9.040   1.358  1.00 20.00    -0.010 C 
ENDROOT
BRANCH   3   5
HETATM    5  C1  UNL     1     -32.773   5.713   1.909  1.00 20.00     0.177 C 
HETATM    6  O9  UNL     1     -33.634   5.594   2.824  1.00 20.00    -0.648 OA
HETATM    7  O10 UNL     1     -32.471   4.921   0.972  1.00 20.00    -0.648 OA
ENDBRANCH   3   5
BRANCH   4   8
HETATM    8  C8  UNL     1     -32.784  10.151   0.684  1.00 20.00    -0.019 C 
HETATM    9  C6  UNL     1     -32.300  11.525   1.155  1.00 20.00     0.010 C 
HETATM   10  C7  UNL     1     -32.679  10.049  -0.841  1.00 20.00     0.010 C 
ENDBRANCH   4   8
TORSDOF 2
ENDMDL
MODEL 9
REMARK VINA RESULT:       0.7      2.522      3.248
REMARK  2 active torsions:
REMARK  status: ('A' for Active; 'I' for Inactive)
REMARK    1  A    between atoms: C1_1  and  C4_4 
REMARK    2  A    between atoms: C5_5  and  C8_8 
ROOT
HETATM    1  C2  UNL     1     -33.115   5.166   2.808  1.00 20.00     0.020 C 
HETATM    2  C3  UNL     1     -32.627   6.908   1.681  1.00 20.00     0.020 C 
HETATM    3  C4  UNL     1     -32.135   5.441   1.641  1.00 20.00     0.087 C 
HETATM    4  C5  UNL     1     -32.997   6.670   3.167  1.00 20.00    -0.010 C 
ENDROOT
BRANCH   3   5
HETATM    5  C1  UNL     1     -32.414   4.704   0.382  1.00 20.00     0.177 C 
HETATM    6  O9  UNL     1     -31.429   4.093  -0.116  1.00 20.00    -0.648 OA
HETATM    7  O10 UNL     1     -33.608   4.786  -0.026  1.00 20.00    -0.648 OA
ENDBRANCH   3   5
BRANCH   4   8
HETATM    8  C8  UNL     1     -34.255   7.349   3.671  1.00 20.00    -0.019 C 
HETATM    9  C6  UNL     1     -35.343   6.320   3.992  1.00 20.00     0.010 C 
HETATM   10  C7  UNL     1     -33.960   8.206   4.905  1.00 20.00     0.010 C 
ENDBRANCH   4   8
TORSDOF 2
ENDMDL
