MODEL 1
REMARK VINA RESULT:      -1.2      0.000      0.000
REMARK  1 active torsions:
REMARK  status: ('A' for Active; 'I' for Inactive)
REMARK    1  A    between atoms: C4_4  and  C7_7 
ROOT
HETATM    1  C1  UNL     1     -31.949   7.868   1.836  1.00 20.00     0.135 A 
HETATM    2  C2  UNL     1     -32.058   6.608   1.291  1.00 20.00     0.136 A 
HETATM    3  C3  UNL     1     -33.451   7.295   3.462  1.00 20.00     0.143 A 
HETATM    4  C4  UNL     1     -33.560   6.035   2.917  1.00 20.00     0.055 A 
HETATM    5  N8  UNL     1     -32.643   8.235   2.932  1.00 20.00    -0.270 NA
HETATM    6  N9  UNL     1     -32.866   5.668   1.821  1.00 20.00    -0.262 NA
ENDROOT
BRANCH   4   7
HETATM    7  C7  UNL     1     -34.480   5.002   3.540  1.00 20.00     0.031 C 
HETATM    8  C5  UNL     1     -35.481   5.648   4.504  1.00 20.00     0.016 C 
HETATM    9  C6  UNL     1     -33.692   3.891   4.238  1.00 20.00     0.016 C 
ENDBRANCH   4   7
TORSDOF 1
ENDMDL
MODEL 2
REMARK VINA RESULT:      -1.2      0.893      1.594
REMARK  1 active torsions:
REMARK  status: ('A' for Active; 'I' for Inactive)
REMARK    1  A    between atoms: C4_4  and  C7_7 
ROOT
HETATM    1  C1  UNL     1     -31.830   7.847   1.774  1.00 20.00     0.135 A 
HETATM    2  C2  UNL     1     -32.598   8.211   2.858  1.00 20.00     0.136 A 
HETATM    3  C3  UNL     1     -32.773   5.765   1.803  1.00 20.00     0.143 A 
HETATM    4  C4  UNL     1     -33.541   6.127   2.887  1.00 20.00     0.055 A 
HETATM    5  N8  UNL     1     -31.903   6.617   1.227  1.00 20.00    -0.270 NA
HETATM    6  N9  UNL     1     -33.468   7.357   3.434  1.00 20.00    -0.262 NA
ENDROOT
BRANCH   4   7
HETATM    7  C7  UNL     1     -34.510   5.140   3.511  1.00 20.00     0.031 C 
HETATM    8  C5  UNL     1     -35.498   5.838   4.451  1.00 20.00     0.016 C 
HETATM    9  C6  UNL     1     -33.775   4.010   4.236  1.00 20.00     0.016 C 
ENDBRANCH   4   7
TORSDOF 1
ENDMDL
MODEL 3
REMARK VINA RESULT:      -0.9      1.479      3.890
REMARK  1 active torsions:
REMARK  status: ('A' for Active; 'I' for Inactive)
REMARK    1  A    between atoms: C4_4  and  C7_7 
ROOT
HETATM    1  C1  UNL     1     -35.213   5.100   4.676  1.00 20.00     0.135 A 
HETATM    2  C2  UNL     1     -35.292   6.399   4.223  1.00 20.00     0.136 A 
HETATM    3  C3  UNL     1     -33.553   4.674   3.163  1.00 20.00     0.143 A 
HETATM    4  C4  UNL     1     -33.632   5.972   2.709  1.00 20.00     0.055 A 
HETATM    5  N8  UNL     1     -34.341   4.214   4.154  1.00 20.00    -0.270 NA
HETATM    6  N9  UNL     1     -34.503   6.858   3.231  1.00 20.00    -0.262 NA
ENDROOT
BRANCH   4   7
HETATM    7  C7  UNL     1     -32.728   6.454   1.590  1.00 20.00     0.031 C 
HETATM    8  C5  UNL     1     -31.738   5.368   1.158  1.00 20.00     0.016 C 
HETATM    9  C6  UNL     1     -31.992   7.740   1.973  1.00 20.00     0.016 C 
ENDBRANCH   4   7
TORSDOF 1
ENDMDL
MODEL 4
REMARK VINA RESULT:      -0.9      1.174      2.287
REMARK  1 active torsions:
REMARK  status: ('A' for Active; 'I' for Inactive)
REMARK    1  A    between atoms: C4_4  and  C7_7 
ROOT
HETATM    1  C1  UNL     1     -31.623   6.385   0.972  1.00 20.00     0.135 A 
HETATM    2  C2  UNL     1     -31.679   7.647   1.522  1.00 20.00     0.136 A 
HETATM    3  C3  UNL     1     -33.385   5.738   2.278  1.00 20.00     0.143 A 
HETATM    4  C4  UNL     1     -33.441   7.000   2.828  1.00 20.00     0.055 A 
HETATM    5  N8  UNL     1     -32.475   5.408   1.341  1.00 20.00    -0.270 NA
HETATM    6  N9  UNL     1     -32.589   7.977   2.460  1.00 20.00    -0.262 NA
ENDROOT
BRANCH   4   7
HETATM    7  C7  UNL     1     -34.479   7.336   3.883  1.00 20.00     0.031 C 
HETATM    8  C5  UNL     1     -33.839   7.975   5.119  1.00 20.00     0.016 C 
HETATM    9  C6  UNL     1     -35.307   6.109   4.271  1.00 20.00     0.016 C 
ENDBRANCH   4   7
TORSDOF 1
ENDMDL
MODEL 5
REMARK VINA RESULT:      -0.9      1.380      1.943
REMARK  1 active torsions:
REMARK  status: ('A' for Active; 'I' for Inactive)
REMARK    1  A    between atoms: C4_4  and  C7_7 
ROOT
HETATM    1  C1  UNL     1     -31.583   6.447   0.966  1.00 20.00     0.135 A 
HETATM    2  C2  UNL     1     -32.506   5.507   1.370  1.00 20.00     0.136 A 
HETATM    3  C3  UNL     1     -32.497   7.965   2.412  1.00 20.00     0.143 A 
HETATM    4  C4  UNL     1     -33.419   7.026   2.816  1.00 20.00     0.055 A 
HETATM    5  N8  UNL     1     -31.562   7.693   1.480  1.00 20.00    -0.270 NA
HETATM    6  N9  UNL     1     -33.441   5.780   2.302  1.00 20.00    -0.262 NA
ENDROOT
BRANCH   4   7
HETATM    7  C7  UNL     1     -34.457   7.367   3.868  1.00 20.00     0.031 C 
HETATM    8  C5  UNL     1     -33.816   7.998   5.108  1.00 20.00     0.016 C 
HETATM    9  C6  UNL     1     -35.297   6.146   4.250  1.00 20.00     0.016 C 
ENDBRANCH   4   7
TORSDOF 1
ENDMDL
MODEL 6
REMARK VINA RESULT:      -0.8      1.507      3.652
REMARK  1 active torsions:
REMARK  status: ('A' for Active; 'I' for Inactive)
REMARK    1  A    between atoms: C4_4  and  C7_7 
ROOT
HETATM    1  C1  UNL     1     -35.164   4.985   4.680  1.00 20.00     0.135 A 
HETATM    2  C2  UNL     1     -34.179   4.222   4.092  1.00 20.00     0.136 A 
HETATM    3  C3  UNL     1     -34.613   6.741   3.323  1.00 20.00     0.143 A 
HETATM    4  C4  UNL     1     -33.628   5.979   2.735  1.00 20.00     0.055 A 
HETATM    5  N8  UNL     1     -35.399   6.259   4.306  1.00 20.00    -0.270 NA
HETATM    6  N9  UNL     1     -33.393   4.705   3.109  1.00 20.00    -0.262 NA
ENDROOT
BRANCH   4   7
HETATM    7  C7  UNL     1     -32.761   6.556   1.632  1.00 20.00     0.031 C 
HETATM    8  C5  UNL     1     -31.760   5.523   1.104  1.00 20.00     0.016 C 
HETATM    9  C6  UNL     1     -32.042   7.829   2.085  1.00 20.00     0.016 C 
ENDBRANCH   4   7
TORSDOF 1
ENDMDL
MODEL 7
REMARK VINA RESULT:      -0.8      1.485      3.744
REMARK  1 active torsions:
REMARK  status: ('A' for Active; 'I' for Inactive)
REMARK    1  A    between atoms: C4_4  and  C7_7 
ROOT
HETATM    1  C1  UNL     1     -35.386   5.292   4.565  1.00 20.00     0.135 A 
HETATM    2  C2  UNL     1     -35.210   6.575   4.096  1.00 20.00     0.136 A 
HETATM    3  C3  UNL     1     -33.537   4.614   3.403  1.00 20.00     0.143 A 
HETATM    4  C4  UNL     1     -33.361   5.896   2.933  1.00 20.00     0.055 A 
HETATM    5  N8  UNL     1     -34.552   4.287   4.227  1.00 20.00    -0.270 NA
HETATM    6  N9  UNL     1     -34.195   6.900   3.271  1.00 20.00    -0.262 NA
ENDROOT
BRANCH   4   7
HETATM    7  C7  UNL     1     -32.207   6.226   2.006  1.00 20.00     0.031 C 
HETATM    8  C5  UNL     1     -32.175   7.717   1.655  1.00 20.00     0.016 C 
HETATM    9  C6  UNL     1     -32.238   5.369   0.738  1.00 20.00     0.016 C 
ENDBRANCH   4   7
TORSDOF 1
ENDMDL
MODEL 8
REMARK VINA RESULT:      -0.5      1.375      3.473
REMARK  1 active torsions:
REMARK  status: ('A' for Active; 'I' for Inactive)
REMARK    1  A    between atoms: C4_4  and  C7_7 
ROOT
HETATM    1  C1  UNL     1     -35.319   5.414   4.517  1.00 20.00     0.135 A 
HETATM    2  C2  UNL     1     -34.442   4.449   4.071  1.00 20.00     0.136 A 
HETATM    3  C3  UNL     1     -34.161   7.005   3.353  1.00 20.00     0.143 A 
HETATM    4  C4  UNL     1     -33.284   6.042   2.907  1.00 20.00     0.055 A 
HETATM    5  N8  UNL     1     -35.195   6.709   4.166  1.00 20.00    -0.270 NA
HETATM    6  N9  UNL     1     -33.408   4.746   3.258  1.00 20.00    -0.262 NA
ENDROOT
BRANCH   4   7
HETATM    7  C7  UNL     1     -32.131   6.412   1.994  1.00 20.00     0.031 C 
HETATM    8  C5  UNL     1     -32.173   7.894   1.606  1.00 20.00     0.016 C 
HETATM    9  C6  UNL     1     -32.090   5.525   0.747  1.00 20.00     0.016 C 
ENDBRANCH   4   7
TORSDOF 1
ENDMDL
MODEL 9
REMARK VINA RESULT:      -0.1      1.277      4.223
REMARK  1 active torsions:
REMARK  status: ('A' for Active; 'I' for Inactive)
REMARK    1  A    between atoms: C4_4  and  C7_7 
ROOT
HETATM    1  C1  UNL     1     -33.848   5.940   3.251  1.00 20.00     0.135 A 
HETATM    2  C2  UNL     1     -33.855   7.241   3.706  1.00 20.00     0.136 A 
HETATM    3  C3  UNL     1     -32.554   6.569   1.473  1.00 20.00     0.143 A 
HETATM    4  C4  UNL     1     -32.562   7.869   1.927  1.00 20.00     0.055 A 
HETATM    5  N8  UNL     1     -33.197   5.581   2.126  1.00 20.00    -0.270 NA
HETATM    6  N9  UNL     1     -33.212   8.229   3.051  1.00 20.00    -0.262 NA
ENDROOT
BRANCH   4   7
HETATM    7  C7  UNL     1     -31.827   8.956   1.165  1.00 20.00     0.031 C 
HETATM    8  C5  UNL     1     -32.765  10.104   0.778  1.00 20.00     0.016 C 
HETATM    9  C6  UNL     1     -31.113   8.397  -0.069  1.00 20.00     0.016 C 
ENDBRANCH   4   7
TORSDOF 1
ENDMDL
