MODEL 1
REMARK VINA RESULT:      -0.2      0.000      0.000
REMARK  0 active torsions:
REMARK  status: ('A' for Active; 'I' for Inactive)
ROOT
HETATM    1  C1  UNL     1     -33.722   5.434   2.004  1.00 20.00     0.003 C 
HETATM    2  C2  UNL     1     -32.620   5.595   1.265  1.00 20.00    -0.025 C 
HETATM    3  C3  UNL     1     -33.999   6.269   3.163  1.00 20.00    -0.059 C 
HETATM    4  C4  UNL     1     -33.335   7.438   3.344  1.00 20.00    -0.070 C 
HETATM    5  C5  UNL     1     -31.623   6.664   1.589  1.00 20.00     0.040 C 
HETATM    6  C6  UNL     1     -32.236   7.881   2.348  1.00 20.00    -0.021 C 
HETATM    7  C7  UNL     1     -35.063   5.714   4.071  1.00 20.00     0.048 C 
HETATM    8  C8  UNL     1     -33.651   8.394   4.468  1.00 20.00     0.044 C 
HETATM    9  C9  UNL     1     -31.067   8.608   3.047  1.00 20.00     0.020 C 
HETATM   10  C10 UNL     1     -32.870   8.849   1.322  1.00 20.00     0.020 C 
ENDROOT
TORSDOF 0
ENDMDL
MODEL 2
REMARK VINA RESULT:      -0.1      1.121      3.054
REMARK  0 active torsions:
REMARK  status: ('A' for Active; 'I' for Inactive)
ROOT
HETATM    1  C1  UNL     1     -33.613   4.760   3.167  1.00 20.00     0.003 C 
HETATM    2  C2  UNL     1     -34.622   5.110   3.972  1.00 20.00    -0.025 C 
HETATM    3  C3  UNL     1     -32.930   5.731   2.325  1.00 20.00    -0.059 C 
HETATM    4  C4  UNL     1     -33.062   7.060   2.562  1.00 20.00    -0.070 C 
HETATM    5  C5  UNL     1     -35.084   6.530   4.057  1.00 20.00     0.040 C 
HETATM    6  C6  UNL     1     -33.979   7.571   3.699  1.00 20.00    -0.021 C 
HETATM    7  C7  UNL     1     -32.098   5.111   1.237  1.00 20.00     0.048 C 
HETATM    8  C8  UNL     1     -32.299   8.109   1.789  1.00 20.00     0.044 C 
HETATM    9  C9  UNL     1     -34.702   8.883   3.328  1.00 20.00     0.020 C 
HETATM   10  C10 UNL     1     -33.106   7.830   4.949  1.00 20.00     0.020 C 
ENDROOT
TORSDOF 0
ENDMDL
MODEL 3
REMARK VINA RESULT:       0.1      0.970      2.779
REMARK  0 active torsions:
REMARK  status: ('A' for Active; 'I' for Inactive)
ROOT
HETATM    1  C1  UNL     1     -34.636   6.160   4.091  1.00 20.00     0.003 C 
HETATM    2  C2  UNL     1     -34.483   4.886   3.718  1.00 20.00    -0.025 C 
HETATM    3  C3  UNL     1     -33.751   7.212   3.613  1.00 20.00    -0.059 C 
HETATM    4  C4  UNL     1     -32.959   7.006   2.531  1.00 20.00    -0.070 C 
HETATM    5  C5  UNL     1     -33.400   4.485   2.767  1.00 20.00     0.040 C 
HETATM    6  C6  UNL     1     -32.945   5.634   1.816  1.00 20.00    -0.021 C 
HETATM    7  C7  UNL     1     -33.834   8.485   4.411  1.00 20.00     0.048 C 
HETATM    8  C8  UNL     1     -32.099   8.091   1.928  1.00 20.00     0.044 C 
HETATM    9  C9  UNL     1     -31.541   5.256   1.295  1.00 20.00     0.020 C 
HETATM   10  C10 UNL     1     -33.911   5.703   0.611  1.00 20.00     0.020 C 
ENDROOT
TORSDOF 0
ENDMDL
MODEL 4
REMARK VINA RESULT:       0.5      0.945      2.997
REMARK  0 active torsions:
REMARK  status: ('A' for Active; 'I' for Inactive)
ROOT
HETATM    1  C1  UNL     1     -32.310   8.407   2.906  1.00 20.00     0.003 C 
HETATM    2  C2  UNL     1     -31.898   8.339   1.636  1.00 20.00    -0.025 C 
HETATM    3  C3  UNL     1     -33.239   7.437   3.465  1.00 20.00    -0.059 C 
HETATM    4  C4  UNL     1     -33.461   6.256   2.836  1.00 20.00    -0.070 C 
HETATM    5  C5  UNL     1     -32.362   7.241   0.732  1.00 20.00     0.040 C 
HETATM    6  C6  UNL     1     -32.771   5.939   1.488  1.00 20.00    -0.021 C 
HETATM    7  C7  UNL     1     -33.868   7.875   4.759  1.00 20.00     0.048 C 
HETATM    8  C8  UNL     1     -34.332   5.169   3.419  1.00 20.00     0.044 C 
HETATM    9  C9  UNL     1     -33.681   5.135   0.535  1.00 20.00     0.020 C 
HETATM   10  C10 UNL     1     -31.503   5.103   1.775  1.00 20.00     0.020 C 
ENDROOT
TORSDOF 0
ENDMDL
MODEL 5
REMARK VINA RESULT:       0.5      1.068      3.877
REMARK  0 active torsions:
REMARK  status: ('A' for Active; 'I' for Inactive)
ROOT
HETATM    1  C1  UNL     1     -32.804   8.615   3.375  1.00 20.00     0.003 C 
HETATM    2  C2  UNL     1     -33.434   8.386   4.531  1.00 20.00    -0.025 C 
HETATM    3  C3  UNL     1     -32.607   7.565   2.387  1.00 20.00    -0.059 C 
HETATM    4  C4  UNL     1     -33.330   6.419   2.447  1.00 20.00    -0.070 C 
HETATM    5  C5  UNL     1     -33.987   7.034   4.855  1.00 20.00     0.040 C 
HETATM    6  C6  UNL     1     -34.341   6.185   3.595  1.00 20.00    -0.021 C 
HETATM    7  C7  UNL     1     -31.576   7.899   1.343  1.00 20.00     0.048 C 
HETATM    8  C8  UNL     1     -33.244   5.340   1.394  1.00 20.00     0.044 C 
HETATM    9  C9  UNL     1     -34.387   4.710   4.047  1.00 20.00     0.020 C 
HETATM   10  C10 UNL     1     -35.747   6.588   3.094  1.00 20.00     0.020 C 
ENDROOT
TORSDOF 0
ENDMDL
MODEL 6
REMARK VINA RESULT:       0.9      0.744      3.192
REMARK  0 active torsions:
REMARK  status: ('A' for Active; 'I' for Inactive)
ROOT
HETATM    1  C1  UNL     1     -31.973   6.744   1.557  1.00 20.00     0.003 C 
HETATM    2  C2  UNL     1     -32.796   5.777   1.138  1.00 20.00    -0.025 C 
HETATM    3  C3  UNL     1     -32.318   7.619   2.667  1.00 20.00    -0.059 C 
HETATM    4  C4  UNL     1     -33.319   7.287   3.521  1.00 20.00    -0.070 C 
HETATM    5  C5  UNL     1     -34.111   5.538   1.811  1.00 20.00     0.040 C 
HETATM    6  C6  UNL     1     -34.144   5.996   3.302  1.00 20.00    -0.021 C 
HETATM    7  C7  UNL     1     -31.466   8.856   2.752  1.00 20.00     0.048 C 
HETATM    8  C8  UNL     1     -33.653   8.102   4.747  1.00 20.00     0.044 C 
HETATM    9  C9  UNL     1     -35.629   6.175   3.684  1.00 20.00     0.020 C 
HETATM   10  C10 UNL     1     -33.543   4.879   4.186  1.00 20.00     0.020 C 
ENDROOT
TORSDOF 0
ENDMDL
MODEL 7
REMARK VINA RESULT:       1.0      1.025      2.725
REMARK  0 active torsions:
REMARK  status: ('A' for Active; 'I' for Inactive)
ROOT
HETATM    1  C1  UNL     1     -34.234   6.689   4.202  1.00 20.00     0.003 C 
HETATM    2  C2  UNL     1     -34.296   8.014   4.034  1.00 20.00    -0.025 C 
HETATM    3  C3  UNL     1     -33.642   5.815   3.200  1.00 20.00    -0.059 C 
HETATM    4  C4  UNL     1     -32.845   6.323   2.228  1.00 20.00    -0.070 C 
HETATM    5  C5  UNL     1     -33.737   8.663   2.807  1.00 20.00     0.040 C 
HETATM    6  C6  UNL     1     -32.591   7.847   2.135  1.00 20.00    -0.021 C 
HETATM    7  C7  UNL     1     -33.990   4.362   3.381  1.00 20.00     0.048 C 
HETATM    8  C8  UNL     1     -32.121   5.456   1.226  1.00 20.00     0.044 C 
HETATM    9  C9  UNL     1     -32.488   8.338   0.675  1.00 20.00     0.020 C 
HETATM   10  C10 UNL     1     -31.258   8.163   2.852  1.00 20.00     0.020 C 
ENDROOT
TORSDOF 0
ENDMDL
MODEL 8
REMARK VINA RESULT:       1.0      0.962      2.709
REMARK  0 active torsions:
REMARK  status: ('A' for Active; 'I' for Inactive)
ROOT
HETATM    1  C1  UNL     1     -32.109   7.135   1.165  1.00 20.00     0.003 C 
HETATM    2  C2  UNL     1     -31.838   8.295   1.771  1.00 20.00    -0.025 C 
HETATM    3  C3  UNL     1     -32.795   6.051   1.852  1.00 20.00    -0.059 C 
HETATM    4  C4  UNL     1     -33.472   6.286   3.004  1.00 20.00    -0.070 C 
HETATM    5  C5  UNL     1     -32.250   8.541   3.188  1.00 20.00     0.040 C 
HETATM    6  C6  UNL     1     -33.486   7.700   3.635  1.00 20.00    -0.021 C 
HETATM    7  C7  UNL     1     -32.680   4.722   1.157  1.00 20.00     0.048 C 
HETATM    8  C8  UNL     1     -34.287   5.227   3.705  1.00 20.00     0.044 C 
HETATM    9  C9  UNL     1     -33.464   7.655   5.178  1.00 20.00     0.020 C 
HETATM   10  C10 UNL     1     -34.777   8.421   3.184  1.00 20.00     0.020 C 
ENDROOT
TORSDOF 0
ENDMDL
MODEL 9
REMARK VINA RESULT:       2.8      0.972      2.675
REMARK  0 active torsions:
REMARK  status: ('A' for Active; 'I' for Inactive)
ROOT
HETATM    1  C1  UNL     1     -33.449   7.525   4.613  1.00 20.00     0.003 C 
HETATM    2  C2  UNL     1     -32.562   8.514   4.461  1.00 20.00    -0.025 C 
HETATM    3  C3  UNL     1     -34.059   6.859   3.472  1.00 20.00    -0.059 C 
HETATM    4  C4  UNL     1     -33.519   6.981   2.234  1.00 20.00    -0.070 C 
HETATM    5  C5  UNL     1     -32.140   8.970   3.100  1.00 20.00     0.040 C 
HETATM    6  C6  UNL     1     -32.273   7.870   2.002  1.00 20.00    -0.021 C 
HETATM    7  C7  UNL     1     -35.281   6.054   3.822  1.00 20.00     0.048 C 
HETATM    8  C8  UNL     1     -34.047   6.233   1.033  1.00 20.00     0.044 C 
HETATM    9  C9  UNL     1     -32.314   8.597   0.641  1.00 20.00     0.020 C 
HETATM   10  C10 UNL     1     -31.019   6.967   2.037  1.00 20.00     0.020 C 
ENDROOT
TORSDOF 0
ENDMDL
