MODEL 1
REMARK VINA RESULT:       1.2      0.000      0.000
REMARK  0 active torsions:
REMARK  status: ('A' for Active; 'I' for Inactive)
ROOT
HETATM    1  C1  UNL     1     -34.160   5.748   3.088  1.00 20.00     0.117 C 
HETATM    2  C2  UNL     1     -32.267   7.675   2.247  1.00 20.00     0.117 C 
HETATM    3  C3  UNL     1     -34.104   4.411   3.815  1.00 20.00     0.033 C 
HETATM    4  C4  UNL     1     -31.877   8.312   0.920  1.00 20.00     0.033 C 
HETATM    5  S5  UNL     1     -32.702   5.909   1.980  1.00 20.00    -0.137 SA
HETATM    6  S6  UNL     1     -34.214   7.106   4.285  1.00 20.00    -0.081 SA
HETATM    7  S7  UNL     1     -33.653   8.576   2.985  1.00 20.00    -0.081 SA
ENDROOT
TORSDOF 0
ENDMDL
MODEL 2
REMARK VINA RESULT:       1.2      0.033      3.411
REMARK  0 active torsions:
REMARK  status: ('A' for Active; 'I' for Inactive)
ROOT
HETATM    1  C1  UNL     1     -32.292   7.708   2.255  1.00 20.00     0.117 C 
HETATM    2  C2  UNL     1     -34.160   5.757   3.097  1.00 20.00     0.117 C 
HETATM    3  C3  UNL     1     -31.911   8.350   0.928  1.00 20.00     0.033 C 
HETATM    4  C4  UNL     1     -34.088   4.421   3.822  1.00 20.00     0.033 C 
HETATM    5  S5  UNL     1     -32.706   5.937   1.987  1.00 20.00    -0.137 SA
HETATM    6  S6  UNL     1     -33.688   8.592   2.996  1.00 20.00    -0.081 SA
HETATM    7  S7  UNL     1     -34.229   7.113   4.294  1.00 20.00    -0.081 SA
ENDROOT
TORSDOF 0
ENDMDL
MODEL 3
REMARK VINA RESULT:       1.4      2.125      2.974
REMARK  0 active torsions:
REMARK  status: ('A' for Active; 'I' for Inactive)
ROOT
HETATM    1  C1  UNL     1     -32.259   5.814   1.758  1.00 20.00     0.117 C 
HETATM    2  C2  UNL     1     -33.785   7.573   3.365  1.00 20.00     0.117 C 
HETATM    3  C3  UNL     1     -32.539   4.907   0.567  1.00 20.00     0.033 C 
HETATM    4  C4  UNL     1     -34.098   7.698   4.849  1.00 20.00     0.033 C 
HETATM    5  S5  UNL     1     -33.702   5.797   2.898  1.00 20.00    -0.137 SA
HETATM    6  S6  UNL     1     -31.905   7.496   1.190  1.00 20.00    -0.081 SA
HETATM    7  S7  UNL     1     -32.227   8.413   2.985  1.00 20.00    -0.081 SA
ENDROOT
TORSDOF 0
ENDMDL
MODEL 4
REMARK VINA RESULT:       1.4      2.126      2.602
REMARK  0 active torsions:
REMARK  status: ('A' for Active; 'I' for Inactive)
ROOT
HETATM    1  C1  UNL     1     -33.807   7.526   3.327  1.00 20.00     0.117 C 
HETATM    2  C2  UNL     1     -32.216   5.796   1.752  1.00 20.00     0.117 C 
HETATM    3  C3  UNL     1     -34.145   7.650   4.806  1.00 20.00     0.033 C 
HETATM    4  C4  UNL     1     -32.456   4.877   0.562  1.00 20.00     0.033 C 
HETATM    5  S5  UNL     1     -33.674   5.750   2.871  1.00 20.00    -0.137 SA
HETATM    6  S6  UNL     1     -32.265   8.403   2.964  1.00 20.00    -0.081 SA
HETATM    7  S7  UNL     1     -31.896   7.484   1.180  1.00 20.00    -0.081 SA
ENDROOT
TORSDOF 0
ENDMDL
MODEL 5
REMARK VINA RESULT:       1.4      1.089      3.874
REMARK  0 active torsions:
REMARK  status: ('A' for Active; 'I' for Inactive)
ROOT
HETATM    1  C1  UNL     1     -32.516   7.717   1.878  1.00 20.00     0.117 C 
HETATM    2  C2  UNL     1     -33.975   6.095   3.679  1.00 20.00     0.117 C 
HETATM    3  C3  UNL     1     -31.284   8.606   1.967  1.00 20.00     0.033 C 
HETATM    4  C4  UNL     1     -35.417   6.028   4.163  1.00 20.00     0.033 C 
HETATM    5  S5  UNL     1     -33.486   7.849   3.435  1.00 20.00    -0.137 SA
HETATM    6  S6  UNL     1     -32.026   6.002   1.567  1.00 20.00    -0.081 SA
HETATM    7  S7  UNL     1     -33.790   5.154   2.143  1.00 20.00    -0.081 SA
ENDROOT
TORSDOF 0
ENDMDL
MODEL 6
REMARK VINA RESULT:       1.4      1.083      2.170
REMARK  0 active torsions:
REMARK  status: ('A' for Active; 'I' for Inactive)
ROOT
HETATM    1  C1  UNL     1     -33.970   6.102   3.681  1.00 20.00     0.117 C 
HETATM    2  C2  UNL     1     -32.538   7.701   1.837  1.00 20.00     0.117 C 
HETATM    3  C3  UNL     1     -35.407   6.035   4.176  1.00 20.00     0.033 C 
HETATM    4  C4  UNL     1     -31.313   8.602   1.898  1.00 20.00     0.033 C 
HETATM    5  S5  UNL     1     -33.497   7.857   3.397  1.00 20.00    -0.137 SA
HETATM    6  S6  UNL     1     -33.787   5.132   2.163  1.00 20.00    -0.081 SA
HETATM    7  S7  UNL     1     -32.035   5.985   1.558  1.00 20.00    -0.081 SA
ENDROOT
TORSDOF 0
ENDMDL
MODEL 7
REMARK VINA RESULT:       2.0      2.113      2.827
REMARK  0 active torsions:
REMARK  status: ('A' for Active; 'I' for Inactive)
ROOT
HETATM    1  C1  UNL     1     -33.074   5.717   1.697  1.00 20.00     0.117 C 
HETATM    2  C2  UNL     1     -33.598   7.390   3.918  1.00 20.00     0.117 C 
HETATM    3  C3  UNL     1     -31.832   5.104   1.065  1.00 20.00     0.033 C 
HETATM    4  C4  UNL     1     -34.267   8.741   4.130  1.00 20.00     0.033 C 
HETATM    5  S5  UNL     1     -32.679   7.399   2.326  1.00 20.00    -0.137 SA
HETATM    6  S6  UNL     1     -33.682   4.656   3.032  1.00 20.00    -0.081 SA
HETATM    7  S7  UNL     1     -34.839   6.072   3.938  1.00 20.00    -0.081 SA
ENDROOT
TORSDOF 0
ENDMDL
MODEL 8
REMARK VINA RESULT:       2.0      2.110      2.849
REMARK  0 active torsions:
REMARK  status: ('A' for Active; 'I' for Inactive)
ROOT
HETATM    1  C1  UNL     1     -33.577   7.377   3.901  1.00 20.00     0.117 C 
HETATM    2  C2  UNL     1     -33.051   5.709   1.677  1.00 20.00     0.117 C 
HETATM    3  C3  UNL     1     -34.259   8.721   4.117  1.00 20.00     0.033 C 
HETATM    4  C4  UNL     1     -31.808   5.110   1.035  1.00 20.00     0.033 C 
HETATM    5  S5  UNL     1     -32.671   7.396   2.301  1.00 20.00    -0.137 SA
HETATM    6  S6  UNL     1     -34.802   6.045   3.933  1.00 20.00    -0.081 SA
HETATM    7  S7  UNL     1     -33.635   4.642   3.018  1.00 20.00    -0.081 SA
ENDROOT
TORSDOF 0
ENDMDL
MODEL 9
REMARK VINA RESULT:       3.2      1.896      2.034
REMARK  0 active torsions:
REMARK  status: ('A' for Active; 'I' for Inactive)
ROOT
HETATM    1  C1  UNL     1     -32.831   5.730   1.398  1.00 20.00     0.117 C 
HETATM    2  C2  UNL     1     -32.377   8.311   2.466  1.00 20.00     0.117 C 
HETATM    3  C3  UNL     1     -31.973   4.506   1.107  1.00 20.00     0.033 C 
HETATM    4  C4  UNL     1     -32.590   9.740   1.988  1.00 20.00     0.033 C 
HETATM    5  S5  UNL     1     -31.865   7.256   1.050  1.00 20.00    -0.137 SA
HETATM    6  S6  UNL     1     -33.393   5.701   3.119  1.00 20.00    -0.081 SA
HETATM    7  S7  UNL     1     -33.892   7.677   3.227  1.00 20.00    -0.081 SA
ENDROOT
TORSDOF 0
ENDMDL
