MODEL 1
REMARK VINA RESULT:      -2.3      0.000      0.000
REMARK  2 active torsions:
REMARK  status: ('A' for Active; 'I' for Inactive)
REMARK    1  A    between atoms: C1_1  and  C2_2 
REMARK    2  A    between atoms: C1_1  and  C3_3 
ROOT
HETATM    1  C1  UNL     1     -33.032   7.074   2.418  1.00 20.00     0.173 C 
HETATM    2  O4  UNL     1     -33.162   5.957   1.916  1.00 20.00    -0.294 OA
ENDROOT
BRANCH   1   3
HETATM    3  C2  UNL     1     -31.897   8.009   2.057  1.00 20.00     0.195 C 
HETATM    4 CL5  UNL     1     -32.398   9.147   0.798  1.00 20.00    -0.122 Cl
ENDBRANCH   1   3
BRANCH   1   5
HETATM    5  C3  UNL     1     -33.988   7.585   3.473  1.00 20.00     0.248 C 
HETATM    6 CL6  UNL     1     -33.029   8.114   4.859  1.00 20.00    -0.100 Cl
HETATM    7 CL7  UNL     1     -35.112   6.293   3.916  1.00 20.00    -0.100 Cl
ENDBRANCH   1   5
TORSDOF 2
ENDMDL
MODEL 2
REMARK VINA RESULT:      -2.0      2.171      3.529
REMARK  2 active torsions:
REMARK  status: ('A' for Active; 'I' for Inactive)
REMARK    1  A    between atoms: C1_1  and  C2_2 
REMARK    2  A    between atoms: C1_1  and  C3_3 
ROOT
HETATM    1  C1  UNL     1     -34.469   6.261   3.684  1.00 20.00     0.173 C 
HETATM    2  O4  UNL     1     -35.591   6.095   4.163  1.00 20.00    -0.294 OA
ENDROOT
BRANCH   1   3
HETATM    3  C2  UNL     1     -33.591   5.112   3.234  1.00 20.00     0.195 C 
HETATM    4 CL5  UNL     1     -33.821   3.700   4.277  1.00 20.00    -0.122 Cl
ENDBRANCH   1   3
BRANCH   1   5
HETATM    5  C3  UNL     1     -33.862   7.639   3.544  1.00 20.00     0.248 C 
HETATM    6 CL6  UNL     1     -32.583   7.545   2.328  1.00 20.00    -0.100 Cl
HETATM    7 CL7  UNL     1     -33.230   8.160   5.112  1.00 20.00    -0.100 Cl
ENDBRANCH   1   5
TORSDOF 2
ENDMDL
MODEL 3
REMARK VINA RESULT:      -2.0      2.064      2.346
REMARK  2 active torsions:
REMARK  status: ('A' for Active; 'I' for Inactive)
REMARK    1  A    between atoms: C1_1  and  C2_2 
REMARK    2  A    between atoms: C1_1  and  C3_3 
ROOT
HETATM    1  C1  UNL     1     -32.186   8.002   1.923  1.00 20.00     0.173 C 
HETATM    2  O4  UNL     1     -31.735   8.390   3.000  1.00 20.00    -0.294 OA
ENDROOT
BRANCH   1   3
HETATM    3  C2  UNL     1     -31.826   8.649   0.601  1.00 20.00     0.195 C 
HETATM    4 CL5  UNL     1     -32.621  10.221   0.435  1.00 20.00    -0.122 Cl
ENDBRANCH   1   3
BRANCH   1   5
HETATM    5  C3  UNL     1     -33.177   6.862   1.842  1.00 20.00     0.248 C 
HETATM    6 CL6  UNL     1     -33.959   6.713   3.420  1.00 20.00    -0.100 Cl
HETATM    7 CL7  UNL     1     -32.322   5.378   1.399  1.00 20.00    -0.100 Cl
ENDBRANCH   1   5
TORSDOF 2
ENDMDL
MODEL 4
REMARK VINA RESULT:      -1.9      1.790      1.955
REMARK  2 active torsions:
REMARK  status: ('A' for Active; 'I' for Inactive)
REMARK    1  A    between atoms: C1_1  and  C2_2 
REMARK    2  A    between atoms: C1_1  and  C3_3 
ROOT
HETATM    1  C1  UNL     1     -33.103   7.197   2.633  1.00 20.00     0.173 C 
HETATM    2  O4  UNL     1     -32.260   7.988   2.211  1.00 20.00    -0.294 OA
ENDROOT
BRANCH   1   3
HETATM    3  C2  UNL     1     -33.227   5.778   2.119  1.00 20.00     0.195 C 
HETATM    4 CL5  UNL     1     -31.852   5.362   1.085  1.00 20.00    -0.122 Cl
ENDBRANCH   1   3
BRANCH   1   5
HETATM    5  C3  UNL     1     -34.114   7.601   3.683  1.00 20.00     0.248 C 
HETATM    6 CL6  UNL     1     -33.225   8.098   5.127  1.00 20.00    -0.100 Cl
HETATM    7 CL7  UNL     1     -35.185   6.233   4.018  1.00 20.00    -0.100 Cl
ENDBRANCH   1   5
TORSDOF 2
ENDMDL
MODEL 5
REMARK VINA RESULT:      -1.9      2.034      3.816
REMARK  2 active torsions:
REMARK  status: ('A' for Active; 'I' for Inactive)
REMARK    1  A    between atoms: C1_1  and  C2_2 
REMARK    2  A    between atoms: C1_1  and  C3_3 
ROOT
HETATM    1  C1  UNL     1     -33.849   7.180   3.569  1.00 20.00     0.173 C 
HETATM    2  O4  UNL     1     -33.290   7.777   4.489  1.00 20.00    -0.294 OA
ENDROOT
BRANCH   1   3
HETATM    3  C2  UNL     1     -35.115   6.373   3.763  1.00 20.00     0.195 C 
HETATM    4 CL5  UNL     1     -34.742   4.761   4.390  1.00 20.00    -0.122 Cl
ENDBRANCH   1   3
BRANCH   1   5
HETATM    5  C3  UNL     1     -33.283   7.178   2.166  1.00 20.00     0.248 C 
HETATM    6 CL6  UNL     1     -32.857   5.512   1.758  1.00 20.00    -0.100 Cl
HETATM    7 CL7  UNL     1     -31.872   8.243   2.104  1.00 20.00    -0.100 Cl
ENDBRANCH   1   5
TORSDOF 2
ENDMDL
MODEL 6
REMARK VINA RESULT:      -1.8      1.911      3.346
REMARK  2 active torsions:
REMARK  status: ('A' for Active; 'I' for Inactive)
REMARK    1  A    between atoms: C1_1  and  C2_2 
REMARK    2  A    between atoms: C1_1  and  C3_3 
ROOT
HETATM    1  C1  UNL     1     -33.738   6.228   3.123  1.00 20.00     0.173 C 
HETATM    2  O4  UNL     1     -33.747   5.077   3.557  1.00 20.00    -0.294 OA
ENDROOT
BRANCH   1   3
HETATM    3  C2  UNL     1     -34.397   7.384   3.846  1.00 20.00     0.195 C 
HETATM    4 CL5  UNL     1     -33.316   8.053   5.077  1.00 20.00    -0.122 Cl
ENDBRANCH   1   3
BRANCH   1   5
HETATM    5  C3  UNL     1     -33.092   6.571   1.799  1.00 20.00     0.248 C 
HETATM    6 CL6  UNL     1     -32.137   5.176   1.286  1.00 20.00    -0.100 Cl
HETATM    7 CL7  UNL     1     -32.083   8.011   1.998  1.00 20.00    -0.100 Cl
ENDBRANCH   1   5
TORSDOF 2
ENDMDL
MODEL 7
REMARK VINA RESULT:      -1.7      1.679      3.308
REMARK  2 active torsions:
REMARK  status: ('A' for Active; 'I' for Inactive)
REMARK    1  A    between atoms: C1_1  and  C2_2 
REMARK    2  A    between atoms: C1_1  and  C3_3 
ROOT
HETATM    1  C1  UNL     1     -33.629   6.032   2.844  1.00 20.00     0.173 C 
HETATM    2  O4  UNL     1     -33.033   5.442   1.943  1.00 20.00    -0.294 OA
ENDROOT
BRANCH   1   3
HETATM    3  C2  UNL     1     -34.489   5.316   3.865  1.00 20.00     0.195 C 
HETATM    4 CL5  UNL     1     -33.820   3.722   4.242  1.00 20.00    -0.122 Cl
ENDBRANCH   1   3
BRANCH   1   5
HETATM    5  C3  UNL     1     -33.576   7.538   2.977  1.00 20.00     0.248 C 
HETATM    6 CL6  UNL     1     -32.100   8.098   2.184  1.00 20.00    -0.100 Cl
HETATM    7 CL7  UNL     1     -33.597   7.973   4.692  1.00 20.00    -0.100 Cl
ENDBRANCH   1   5
TORSDOF 2
ENDMDL
MODEL 8
REMARK VINA RESULT:      -1.7      3.079      4.171
REMARK  2 active torsions:
REMARK  status: ('A' for Active; 'I' for Inactive)
REMARK    1  A    between atoms: C1_1  and  C2_2 
REMARK    2  A    between atoms: C1_1  and  C3_3 
ROOT
HETATM    1  C1  UNL     1     -34.341   4.841   4.007  1.00 20.00     0.173 C 
HETATM    2  O4  UNL     1     -35.446   4.936   4.541  1.00 20.00    -0.294 OA
ENDROOT
BRANCH   1   3
HETATM    3  C2  UNL     1     -33.649   3.512   3.784  1.00 20.00     0.195 C 
HETATM    4 CL5  UNL     1     -32.905   2.933   5.283  1.00 20.00    -0.122 Cl
ENDBRANCH   1   3
BRANCH   1   5
HETATM    5  C3  UNL     1     -33.566   6.062   3.562  1.00 20.00     0.248 C 
HETATM    6 CL6  UNL     1     -34.551   7.485   3.919  1.00 20.00    -0.100 Cl
HETATM    7 CL7  UNL     1     -33.216   5.932   1.833  1.00 20.00    -0.100 Cl
ENDBRANCH   1   5
TORSDOF 2
ENDMDL
MODEL 9
REMARK VINA RESULT:      -1.7      1.880      3.514
REMARK  2 active torsions:
REMARK  status: ('A' for Active; 'I' for Inactive)
REMARK    1  A    between atoms: C1_1  and  C2_2 
REMARK    2  A    between atoms: C1_1  and  C3_3 
ROOT
HETATM    1  C1  UNL     1     -33.225   7.225   3.162  1.00 20.00     0.173 C 
HETATM    2  O4  UNL     1     -33.431   8.135   3.966  1.00 20.00    -0.294 OA
ENDROOT
BRANCH   1   3
HETATM    3  C2  UNL     1     -34.035   5.945   3.147  1.00 20.00     0.195 C 
HETATM    4 CL5  UNL     1     -35.479   6.104   4.158  1.00 20.00    -0.122 Cl
ENDBRANCH   1   3
BRANCH   1   5
HETATM    5  C3  UNL     1     -32.110   7.304   2.143  1.00 20.00     0.248 C 
HETATM    6 CL6  UNL     1     -32.387   8.737   1.149  1.00 20.00    -0.100 Cl
HETATM    7 CL7  UNL     1     -32.106   5.828   1.168  1.00 20.00    -0.100 Cl
ENDBRANCH   1   5
TORSDOF 2
ENDMDL
