MODEL 1
REMARK VINA RESULT:      -2.4      0.000      0.000
REMARK  0 active torsions:
REMARK  status: ('A' for Active; 'I' for Inactive)
ROOT
HETATM    1  C1  UNL     1     -32.328   7.765   2.056  1.00 20.00    -0.089 C 
HETATM    2  C2  UNL     1     -33.974   5.704   3.217  1.00 20.00    -0.089 C 
HETATM    3  C3  UNL     1     -32.050   8.796   1.245  1.00 20.00     0.014 C 
HETATM    4  C4  UNL     1     -34.252   4.673   4.028  1.00 20.00     0.014 C 
HETATM    5  C5  UNL     1     -32.886   7.951   3.446  1.00 20.00     0.037 C 
HETATM    6  C6  UNL     1     -32.128   6.327   1.638  1.00 20.00     0.037 C 
HETATM    7  C7  UNL     1     -34.173   7.141   3.634  1.00 20.00     0.037 C 
HETATM    8  C8  UNL     1     -33.415   5.516   1.828  1.00 20.00     0.037 C 
ENDROOT
TORSDOF 0
ENDMDL
MODEL 2
REMARK VINA RESULT:      -2.4      0.083      3.264
REMARK  0 active torsions:
REMARK  status: ('A' for Active; 'I' for Inactive)
ROOT
HETATM    1  C1  UNL     1     -33.959   5.784   3.198  1.00 20.00    -0.089 C 
HETATM    2  C2  UNL     1     -32.297   7.815   2.006  1.00 20.00    -0.089 C 
HETATM    3  C3  UNL     1     -34.243   4.766   4.022  1.00 20.00     0.014 C 
HETATM    4  C4  UNL     1     -32.012   8.834   1.182  1.00 20.00     0.014 C 
HETATM    5  C5  UNL     1     -34.145   7.228   3.596  1.00 20.00     0.037 C 
HETATM    6  C6  UNL     1     -33.404   5.574   1.809  1.00 20.00     0.037 C 
HETATM    7  C7  UNL     1     -32.851   8.025   3.395  1.00 20.00     0.037 C 
HETATM    8  C8  UNL     1     -32.111   6.371   1.606  1.00 20.00     0.037 C 
ENDROOT
TORSDOF 0
ENDMDL
MODEL 3
REMARK VINA RESULT:      -2.0      0.997      3.602
REMARK  0 active torsions:
REMARK  status: ('A' for Active; 'I' for Inactive)
ROOT
HETATM    1  C1  UNL     1     -34.343   6.270   3.747  1.00 20.00    -0.089 C 
HETATM    2  C2  UNL     1     -32.448   7.454   1.926  1.00 20.00    -0.089 C 
HETATM    3  C3  UNL     1     -35.554   5.872   4.163  1.00 20.00     0.014 C 
HETATM    4  C4  UNL     1     -31.237   7.851   1.509  1.00 20.00     0.014 C 
HETATM    5  C5  UNL     1     -33.429   5.381   2.939  1.00 20.00     0.037 C 
HETATM    6  C6  UNL     1     -33.800   7.651   4.029  1.00 20.00     0.037 C 
HETATM    7  C7  UNL     1     -32.991   6.074   1.644  1.00 20.00     0.037 C 
HETATM    8  C8  UNL     1     -33.361   8.344   2.734  1.00 20.00     0.037 C 
ENDROOT
TORSDOF 0
ENDMDL
MODEL 4
REMARK VINA RESULT:      -2.0      0.997      2.028
REMARK  0 active torsions:
REMARK  status: ('A' for Active; 'I' for Inactive)
ROOT
HETATM    1  C1  UNL     1     -32.446   7.456   1.930  1.00 20.00    -0.089 C 
HETATM    2  C2  UNL     1     -34.344   6.272   3.748  1.00 20.00    -0.089 C 
HETATM    3  C3  UNL     1     -31.235   7.855   1.516  1.00 20.00     0.014 C 
HETATM    4  C4  UNL     1     -35.555   5.872   4.162  1.00 20.00     0.014 C 
HETATM    5  C5  UNL     1     -32.987   6.076   1.648  1.00 20.00     0.037 C 
HETATM    6  C6  UNL     1     -33.362   8.346   2.737  1.00 20.00     0.037 C 
HETATM    7  C7  UNL     1     -33.427   5.382   2.942  1.00 20.00     0.037 C 
HETATM    8  C8  UNL     1     -33.803   7.652   4.030  1.00 20.00     0.037 C 
ENDROOT
TORSDOF 0
ENDMDL
MODEL 5
REMARK VINA RESULT:      -1.6      1.014      2.611
REMARK  0 active torsions:
REMARK  status: ('A' for Active; 'I' for Inactive)
ROOT
HETATM    1  C1  UNL     1     -32.857   5.781   1.721  1.00 20.00    -0.089 C 
HETATM    2  C2  UNL     1     -33.621   7.638   3.789  1.00 20.00    -0.089 C 
HETATM    3  C3  UNL     1     -32.949   5.171   0.530  1.00 20.00     0.014 C 
HETATM    4  C4  UNL     1     -33.528   8.248   4.979  1.00 20.00     0.014 C 
HETATM    5  C5  UNL     1     -32.049   7.039   1.930  1.00 20.00     0.037 C 
HETATM    6  C6  UNL     1     -33.575   5.275   2.950  1.00 20.00     0.037 C 
HETATM    7  C7  UNL     1     -32.904   8.143   2.560  1.00 20.00     0.037 C 
HETATM    8  C8  UNL     1     -34.429   6.380   3.581  1.00 20.00     0.037 C 
ENDROOT
TORSDOF 0
ENDMDL
MODEL 6
REMARK VINA RESULT:      -1.6      1.003      2.673
REMARK  0 active torsions:
REMARK  status: ('A' for Active; 'I' for Inactive)
ROOT
HETATM    1  C1  UNL     1     -33.590   7.655   3.789  1.00 20.00    -0.089 C 
HETATM    2  C2  UNL     1     -32.886   5.783   1.714  1.00 20.00    -0.089 C 
HETATM    3  C3  UNL     1     -33.474   8.262   4.979  1.00 20.00     0.014 C 
HETATM    4  C4  UNL     1     -33.001   5.176   0.525  1.00 20.00     0.014 C 
HETATM    5  C5  UNL     1     -32.877   8.146   2.553  1.00 20.00     0.037 C 
HETATM    6  C6  UNL     1     -34.426   6.412   3.591  1.00 20.00     0.037 C 
HETATM    7  C7  UNL     1     -32.050   7.025   1.914  1.00 20.00     0.037 C 
HETATM    8  C8  UNL     1     -33.600   5.292   2.950  1.00 20.00     0.037 C 
ENDROOT
TORSDOF 0
ENDMDL
MODEL 7
REMARK VINA RESULT:      -0.5      0.878      2.587
REMARK  0 active torsions:
REMARK  status: ('A' for Active; 'I' for Inactive)
ROOT
HETATM    1  C1  UNL     1     -32.452   5.884   1.401  1.00 20.00    -0.089 C 
HETATM    2  C2  UNL     1     -33.571   7.333   3.626  1.00 20.00    -0.089 C 
HETATM    3  C3  UNL     1     -31.585   5.066   0.786  1.00 20.00     0.014 C 
HETATM    4  C4  UNL     1     -34.438   8.150   4.241  1.00 20.00     0.014 C 
HETATM    5  C5  UNL     1     -33.716   5.384   2.056  1.00 20.00     0.037 C 
HETATM    6  C6  UNL     1     -32.223   7.373   1.512  1.00 20.00     0.037 C 
HETATM    7  C7  UNL     1     -33.798   5.844   3.515  1.00 20.00     0.037 C 
HETATM    8  C8  UNL     1     -32.307   7.834   2.971  1.00 20.00     0.037 C 
ENDROOT
TORSDOF 0
ENDMDL
