MODEL 1
REMARK VINA RESULT:      -1.4      0.000      0.000
REMARK  4 active torsions:
REMARK  status: ('A' for Active; 'I' for Inactive)
REMARK    1  A    between atoms: C2_2  and  C5_5 
REMARK    2  A    between atoms: C2_2  and  C6_6 
REMARK    3  A    between atoms: C5_5  and  O7_7 
REMARK    4  A    between atoms: C6_6  and  S8_8 
ROOT
HETATM    1  C1  UNL     1     -33.892   6.667   3.185  1.00 20.00    -0.025 C 
HETATM    2  C2  UNL     1     -32.972   6.863   2.218  1.00 20.00    -0.051 C 
HETATM    3  C3  UNL     1     -34.255   7.589   4.303  1.00 20.00     0.036 C 
ENDROOT
BRANCH   2   4
HETATM    4  C5  UNL     1     -32.765   5.809   1.157  1.00 20.00     0.198 C 
BRANCH   4   5
HETATM    5  O7  UNL     1     -31.525   5.149   1.377  1.00 20.00    -0.397 OA
HETATM    6  H20 UNL     1     -30.827   5.809   1.230  1.00 20.00     0.209 HD
ENDBRANCH   4   5
ENDBRANCH   2   4
BRANCH   2   7
HETATM    7  C6  UNL     1     -32.088   8.082   2.127  1.00 20.00     0.109 C 
BRANCH   7   8
HETATM    8  S8  UNL     1     -31.816   8.552   0.395  1.00 20.00    -0.169 SA
HETATM    9  C4  UNL     1     -32.590  10.184   0.440  1.00 20.00     0.090 C 
ENDBRANCH   7   8
ENDBRANCH   2   7
TORSDOF 4
ENDMDL
MODEL 2
REMARK VINA RESULT:      -1.1      1.681      2.595
REMARK  4 active torsions:
REMARK  status: ('A' for Active; 'I' for Inactive)
REMARK    1  A    between atoms: C2_2  and  C5_5 
REMARK    2  A    between atoms: C2_2  and  C6_6 
REMARK    3  A    between atoms: C5_5  and  O7_7 
REMARK    4  A    between atoms: C6_6  and  S8_8 
ROOT
HETATM    1  C1  UNL     1     -33.087   5.929   2.071  1.00 20.00    -0.025 C 
HETATM    2  C2  UNL     1     -33.016   7.165   2.605  1.00 20.00    -0.051 C 
HETATM    3  C3  UNL     1     -32.179   5.319   1.053  1.00 20.00     0.036 C 
ENDROOT
BRANCH   2   4
HETATM    4  C5  UNL     1     -34.026   7.591   3.644  1.00 20.00     0.198 C 
BRANCH   4   5
HETATM    5  O7  UNL     1     -34.974   6.549   3.840  1.00 20.00    -0.397 OA
HETATM    6  H20 UNL     1     -34.635   5.995   4.562  1.00 20.00     0.209 HD
ENDBRANCH   4   5
ENDBRANCH   2   4
BRANCH   2   7
HETATM    7  C6  UNL     1     -31.986   8.197   2.216  1.00 20.00     0.109 C 
BRANCH   7   8
HETATM    8  S8  UNL     1     -32.167   8.661   0.471  1.00 20.00    -0.169 SA
HETATM    9  C4  UNL     1     -32.666  10.382   0.707  1.00 20.00     0.090 C 
ENDBRANCH   7   8
ENDBRANCH   2   7
TORSDOF 4
ENDMDL
MODEL 3
REMARK VINA RESULT:      -1.0      2.707      3.383
REMARK  4 active torsions:
REMARK  status: ('A' for Active; 'I' for Inactive)
REMARK    1  A    between atoms: C2_2  and  C5_5 
REMARK    2  A    between atoms: C2_2  and  C6_6 
REMARK    3  A    between atoms: C5_5  and  O7_7 
REMARK    4  A    between atoms: C6_6  and  S8_8 
ROOT
HETATM    1  C1  UNL     1     -34.223   4.234   4.427  1.00 20.00    -0.025 C 
HETATM    2  C2  UNL     1     -33.975   5.310   3.653  1.00 20.00    -0.051 C 
HETATM    3  C3  UNL     1     -33.410   2.987   4.548  1.00 20.00     0.036 C 
ENDROOT
BRANCH   2   4
HETATM    4  C5  UNL     1     -34.917   6.490   3.687  1.00 20.00     0.198 C 
BRANCH   4   5
HETATM    5  O7  UNL     1     -34.319   7.556   4.413  1.00 20.00    -0.397 OA
HETATM    6  H20 UNL     1     -34.729   7.559   5.293  1.00 20.00     0.209 HD
ENDBRANCH   4   5
ENDBRANCH   2   4
BRANCH   2   7
HETATM    7  C6  UNL     1     -32.805   5.420   2.708  1.00 20.00     0.109 C 
BRANCH   7   8
HETATM    8  S8  UNL     1     -33.167   6.588   1.367  1.00 20.00    -0.169 SA
HETATM    9  C4  UNL     1     -31.938   7.848   1.775  1.00 20.00     0.090 C 
ENDBRANCH   7   8
ENDBRANCH   2   7
TORSDOF 4
ENDMDL
MODEL 4
REMARK VINA RESULT:      -0.8      3.235      4.685
REMARK  4 active torsions:
REMARK  status: ('A' for Active; 'I' for Inactive)
REMARK    1  A    between atoms: C2_2  and  C5_5 
REMARK    2  A    between atoms: C2_2  and  C6_6 
REMARK    3  A    between atoms: C5_5  and  O7_7 
REMARK    4  A    between atoms: C6_6  and  S8_8 
ROOT
HETATM    1  C1  UNL     1     -32.716   7.759   2.455  1.00 20.00    -0.025 C 
HETATM    2  C2  UNL     1     -33.508   6.905   3.134  1.00 20.00    -0.051 C 
HETATM    3  C3  UNL     1     -31.745   7.438   1.366  1.00 20.00     0.036 C 
ENDROOT
BRANCH   2   4
HETATM    4  C5  UNL     1     -34.443   7.434   4.196  1.00 20.00     0.198 C 
BRANCH   4   5
HETATM    5  O7  UNL     1     -33.701   8.172   5.158  1.00 20.00    -0.397 OA
HETATM    6  H20 UNL     1     -33.013   8.656   4.670  1.00 20.00     0.209 HD
ENDBRANCH   4   5
ENDBRANCH   2   4
BRANCH   2   7
HETATM    7  C6  UNL     1     -33.514   5.411   2.926  1.00 20.00     0.109 C 
BRANCH   7   8
HETATM    8  S8  UNL     1     -34.447   4.582   4.244  1.00 20.00    -0.169 SA
HETATM    9  C4  UNL     1     -33.347   3.170   4.496  1.00 20.00     0.090 C 
ENDBRANCH   7   8
ENDBRANCH   2   7
TORSDOF 4
ENDMDL
MODEL 5
REMARK VINA RESULT:      -0.8      2.331      2.943
REMARK  4 active torsions:
REMARK  status: ('A' for Active; 'I' for Inactive)
REMARK    1  A    between atoms: C2_2  and  C5_5 
REMARK    2  A    between atoms: C2_2  and  C6_6 
REMARK    3  A    between atoms: C5_5  and  O7_7 
REMARK    4  A    between atoms: C6_6  and  S8_8 
ROOT
HETATM    1  C1  UNL     1     -34.227   5.344   4.096  1.00 20.00    -0.025 C 
HETATM    2  C2  UNL     1     -33.917   6.448   3.387  1.00 20.00    -0.051 C 
HETATM    3  C3  UNL     1     -33.911   3.922   3.761  1.00 20.00     0.036 C 
ENDROOT
BRANCH   2   4
HETATM    4  C5  UNL     1     -34.313   7.809   3.909  1.00 20.00     0.198 C 
BRANCH   4   5
HETATM    5  O7  UNL     1     -33.568   8.102   5.084  1.00 20.00    -0.397 OA
HETATM    6  H20 UNL     1     -33.171   8.980   4.951  1.00 20.00     0.209 HD
ENDBRANCH   4   5
ENDBRANCH   2   4
BRANCH   2   7
HETATM    7  C6  UNL     1     -33.204   6.427   2.058  1.00 20.00     0.109 C 
BRANCH   7   8
HETATM    8  S8  UNL     1     -31.828   7.611   2.046  1.00 20.00    -0.169 SA
HETATM    9  C4  UNL     1     -32.516   8.801   0.873  1.00 20.00     0.090 C 
ENDBRANCH   7   8
ENDBRANCH   2   7
TORSDOF 4
ENDMDL
MODEL 6
REMARK VINA RESULT:      -0.7      2.549      3.121
REMARK  4 active torsions:
REMARK  status: ('A' for Active; 'I' for Inactive)
REMARK    1  A    between atoms: C2_2  and  C5_5 
REMARK    2  A    between atoms: C2_2  and  C6_6 
REMARK    3  A    between atoms: C5_5  and  O7_7 
REMARK    4  A    between atoms: C6_6  and  S8_8 
ROOT
HETATM    1  C1  UNL     1     -34.004   7.750   4.526  1.00 20.00    -0.025 C 
HETATM    2  C2  UNL     1     -34.237   6.600   3.862  1.00 20.00    -0.051 C 
HETATM    3  C3  UNL     1     -32.705   8.472   4.676  1.00 20.00     0.036 C 
ENDROOT
BRANCH   2   4
HETATM    4  C5  UNL     1     -35.637   6.036   3.810  1.00 20.00     0.198 C 
BRANCH   4   5
HETATM    5  O7  UNL     1     -35.713   4.875   4.628  1.00 20.00    -0.397 OA
HETATM    6  H20 UNL     1     -36.613   4.523   4.530  1.00 20.00     0.209 HD
ENDBRANCH   4   5
ENDBRANCH   2   4
BRANCH   2   7
HETATM    7  C6  UNL     1     -33.169   5.794   3.164  1.00 20.00     0.109 C 
BRANCH   7   8
HETATM    8  S8  UNL     1     -33.052   6.259   1.414  1.00 20.00    -0.169 SA
HETATM    9  C4  UNL     1     -31.869   7.615   1.580  1.00 20.00     0.090 C 
ENDBRANCH   7   8
ENDBRANCH   2   7
TORSDOF 4
ENDMDL
MODEL 7
REMARK VINA RESULT:      -0.6      2.051      2.831
REMARK  4 active torsions:
REMARK  status: ('A' for Active; 'I' for Inactive)
REMARK    1  A    between atoms: C2_2  and  C5_5 
REMARK    2  A    between atoms: C2_2  and  C6_6 
REMARK    3  A    between atoms: C5_5  and  O7_7 
REMARK    4  A    between atoms: C6_6  and  S8_8 
ROOT
HETATM    1  C1  UNL     1     -33.570   5.509   2.339  1.00 20.00    -0.025 C 
HETATM    2  C2  UNL     1     -33.892   6.553   3.129  1.00 20.00    -0.051 C 
HETATM    3  C3  UNL     1     -32.411   5.394   1.403  1.00 20.00     0.036 C 
ENDROOT
BRANCH   2   4
HETATM    4  C5  UNL     1     -35.105   6.466   4.026  1.00 20.00     0.198 C 
BRANCH   4   5
HETATM    5  O7  UNL     1     -35.359   5.106   4.351  1.00 20.00    -0.397 OA
HETATM    6  H20 UNL     1     -35.639   5.089   5.282  1.00 20.00     0.209 HD
ENDBRANCH   4   5
ENDBRANCH   2   4
BRANCH   2   7
HETATM    7  C6  UNL     1     -33.125   7.851   3.172  1.00 20.00     0.109 C 
BRANCH   7   8
HETATM    8  S8  UNL     1     -31.864   7.896   1.868  1.00 20.00    -0.169 SA
HETATM    9  C4  UNL     1     -32.512   9.294   0.923  1.00 20.00     0.090 C 
ENDBRANCH   7   8
ENDBRANCH   2   7
TORSDOF 4
ENDMDL
MODEL 8
REMARK VINA RESULT:      -0.6      1.907      3.507
REMARK  4 active torsions:
REMARK  status: ('A' for Active; 'I' for Inactive)
REMARK    1  A    between atoms: C2_2  and  C5_5 
REMARK    2  A    between atoms: C2_2  and  C6_6 
REMARK    3  A    between atoms: C5_5  and  O7_7 
REMARK    4  A    between atoms: C6_6  and  S8_8 
ROOT
HETATM    1  C1  UNL     1     -32.000   8.754   0.718  1.00 20.00    -0.025 C 
HETATM    2  C2  UNL     1     -32.499   7.952   1.680  1.00 20.00    -0.051 C 
HETATM    3  C3  UNL     1     -32.439  10.137   0.362  1.00 20.00     0.036 C 
ENDROOT
BRANCH   2   4
HETATM    4  C5  UNL     1     -31.901   6.582   1.898  1.00 20.00     0.198 C 
BRANCH   4   5
HETATM    5  O7  UNL     1     -32.738   5.598   1.305  1.00 20.00    -0.397 OA
HETATM    6  H20 UNL     1     -33.653   5.908   1.412  1.00 20.00     0.209 HD
ENDBRANCH   4   5
ENDBRANCH   2   4
BRANCH   2   7
HETATM    7  C6  UNL     1     -33.662   8.319   2.569  1.00 20.00     0.109 C 
BRANCH   7   8
HETATM    8  S8  UNL     1     -33.602   7.388   4.125  1.00 20.00    -0.169 SA
HETATM    9  C4  UNL     1     -35.099   6.401   3.900  1.00 20.00     0.090 C 
ENDBRANCH   7   8
ENDBRANCH   2   7
TORSDOF 4
ENDMDL
MODEL 9
REMARK VINA RESULT:      -0.5      3.377      4.769
REMARK  4 active torsions:
REMARK  status: ('A' for Active; 'I' for Inactive)
REMARK    1  A    between atoms: C2_2  and  C5_5 
REMARK    2  A    between atoms: C2_2  and  C6_6 
REMARK    3  A    between atoms: C5_5  and  O7_7 
REMARK    4  A    between atoms: C6_6  and  S8_8 
ROOT
HETATM    1  C1  UNL     1     -33.096   7.570   2.621  1.00 20.00    -0.025 C 
HETATM    2  C2  UNL     1     -33.740   6.567   3.252  1.00 20.00    -0.051 C 
HETATM    3  C3  UNL     1     -31.936   7.467   1.685  1.00 20.00     0.036 C 
ENDROOT
BRANCH   2   4
HETATM    4  C5  UNL     1     -34.913   6.879   4.151  1.00 20.00     0.198 C 
BRANCH   4   5
HETATM    5  O7  UNL     1     -36.113   6.418   3.544  1.00 20.00    -0.397 OA
HETATM    6  H20 UNL     1     -36.798   7.078   3.741  1.00 20.00     0.209 HD
ENDBRANCH   4   5
ENDBRANCH   2   4
BRANCH   2   7
HETATM    7  C6  UNL     1     -33.352   5.114   3.145  1.00 20.00     0.109 C 
BRANCH   7   8
HETATM    8  S8  UNL     1     -34.181   4.130   4.425  1.00 20.00    -0.169 SA
HETATM    9  C4  UNL     1     -32.892   2.890   4.681  1.00 20.00     0.090 C 
ENDBRANCH   7   8
ENDBRANCH   2   7
TORSDOF 4
ENDMDL
