MODEL 1
REMARK VINA RESULT:      -2.6      0.000      0.000
REMARK  2 active torsions:
REMARK  status: ('A' for Active; 'I' for Inactive)
REMARK    1  A    between atoms: C5_5  and  C7_7 
REMARK    2  A    between atoms: C7_7  and  C8_8 
ROOT
HETATM    1  C1  UNL     1     -32.398   6.765   1.864  1.00 20.00    -0.030 C 
HETATM    2  C2  UNL     1     -33.246   5.767   2.130  1.00 20.00    -0.026 C 
HETATM    3  C3  UNL     1     -32.690   7.976   2.686  1.00 20.00     0.027 C 
HETATM    4  C4  UNL     1     -33.638   7.436   3.757  1.00 20.00     0.012 C 
HETATM    5  C5  UNL     1     -34.250   6.154   3.174  1.00 20.00     0.008 C 
ENDROOT
BRANCH   5   6
HETATM    6  C7  UNL     1     -34.457   5.079   4.230  1.00 20.00     0.008 C 
BRANCH   6   7
HETATM    7  C8  UNL     1     -33.799   3.762   3.824  1.00 20.00    -0.004 C 
HETATM    8  C6  UNL     1     -33.138   3.081   5.012  1.00 20.00     0.005 C 
ENDBRANCH   6   7
ENDBRANCH   5   6
TORSDOF 2
ENDMDL
MODEL 2
REMARK VINA RESULT:      -2.5      1.541      4.517
REMARK  2 active torsions:
REMARK  status: ('A' for Active; 'I' for Inactive)
REMARK    1  A    between atoms: C5_5  and  C7_7 
REMARK    2  A    between atoms: C7_7  and  C8_8 
ROOT
HETATM    1  C1  UNL     1     -34.290   6.999   4.167  1.00 20.00    -0.030 C 
HETATM    2  C2  UNL     1     -33.709   8.005   3.507  1.00 20.00    -0.026 C 
HETATM    3  C3  UNL     1     -34.236   5.723   3.395  1.00 20.00     0.027 C 
HETATM    4  C4  UNL     1     -33.211   6.032   2.304  1.00 20.00     0.012 C 
HETATM    5  C5  UNL     1     -33.176   7.562   2.178  1.00 20.00     0.008 C 
ENDROOT
BRANCH   5   6
HETATM    6  C7  UNL     1     -31.777   8.087   1.891  1.00 20.00     0.008 C 
BRANCH   6   7
HETATM    7  C8  UNL     1     -31.695   8.731   0.509  1.00 20.00    -0.004 C 
HETATM    8  C6  UNL     1     -32.557   9.980   0.425  1.00 20.00     0.005 C 
ENDBRANCH   6   7
ENDBRANCH   5   6
TORSDOF 2
ENDMDL
MODEL 3
REMARK VINA RESULT:      -2.4      1.746      4.466
REMARK  2 active torsions:
REMARK  status: ('A' for Active; 'I' for Inactive)
REMARK    1  A    between atoms: C5_5  and  C7_7 
REMARK    2  A    between atoms: C7_7  and  C8_8 
ROOT
HETATM    1  C1  UNL     1     -34.202   6.151   3.159  1.00 20.00    -0.030 C 
HETATM    2  C2  UNL     1     -33.214   6.131   2.260  1.00 20.00    -0.026 C 
HETATM    3  C3  UNL     1     -34.129   7.354   4.039  1.00 20.00     0.027 C 
HETATM    4  C4  UNL     1     -33.137   8.252   3.299  1.00 20.00     0.012 C 
HETATM    5  C5  UNL     1     -32.313   7.321   2.398  1.00 20.00     0.008 C 
ENDROOT
BRANCH   5   6
HETATM    6  C7  UNL     1     -31.966   7.965   1.064  1.00 20.00     0.008 C 
BRANCH   6   7
HETATM    7  C8  UNL     1     -32.289   9.458   1.064  1.00 20.00    -0.004 C 
HETATM    8  C6  UNL     1     -32.623   9.955  -0.334  1.00 20.00     0.005 C 
ENDBRANCH   6   7
ENDBRANCH   5   6
TORSDOF 2
ENDMDL
MODEL 4
REMARK VINA RESULT:      -2.3      1.279      1.940
REMARK  2 active torsions:
REMARK  status: ('A' for Active; 'I' for Inactive)
REMARK    1  A    between atoms: C5_5  and  C7_7 
REMARK    2  A    between atoms: C7_7  and  C8_8 
ROOT
HETATM    1  C1  UNL     1     -31.960   6.207   1.313  1.00 20.00    -0.030 C 
HETATM    2  C2  UNL     1     -33.135   6.068   1.933  1.00 20.00    -0.026 C 
HETATM    3  C3  UNL     1     -31.438   7.601   1.420  1.00 20.00     0.027 C 
HETATM    4  C4  UNL     1     -32.318   8.208   2.512  1.00 20.00     0.012 C 
HETATM    5  C5  UNL     1     -33.593   7.353   2.552  1.00 20.00     0.008 C 
ENDROOT
BRANCH   5   6
HETATM    6  C7  UNL     1     -34.128   7.179   3.965  1.00 20.00     0.008 C 
BRANCH   6   7
HETATM    7  C8  UNL     1     -35.328   6.234   3.995  1.00 20.00    -0.004 C 
HETATM    8  C6  UNL     1     -34.933   4.848   4.482  1.00 20.00     0.005 C 
ENDBRANCH   6   7
ENDBRANCH   5   6
TORSDOF 2
ENDMDL
MODEL 5
REMARK VINA RESULT:      -2.3      0.882      1.838
REMARK  2 active torsions:
REMARK  status: ('A' for Active; 'I' for Inactive)
REMARK    1  A    between atoms: C5_5  and  C7_7 
REMARK    2  A    between atoms: C7_7  and  C8_8 
ROOT
HETATM    1  C1  UNL     1     -32.182   8.255   2.337  1.00 20.00    -0.030 C 
HETATM    2  C2  UNL     1     -32.952   7.926   3.380  1.00 20.00    -0.026 C 
HETATM    3  C3  UNL     1     -32.040   7.125   1.374  1.00 20.00     0.027 C 
HETATM    4  C4  UNL     1     -33.139   6.161   1.820  1.00 20.00     0.012 C 
HETATM    5  C5  UNL     1     -33.445   6.515   3.283  1.00 20.00     0.008 C 
ENDROOT
BRANCH   5   6
HETATM    6  C7  UNL     1     -34.923   6.374   3.615  1.00 20.00     0.008 C 
BRANCH   6   7
HETATM    7  C8  UNL     1     -35.188   5.132   4.464  1.00 20.00    -0.004 C 
HETATM    8  C6  UNL     1     -34.091   4.093   4.290  1.00 20.00     0.005 C 
ENDBRANCH   6   7
ENDBRANCH   5   6
TORSDOF 2
ENDMDL
MODEL 6
REMARK VINA RESULT:      -2.2      1.134      4.082
REMARK  2 active torsions:
REMARK  status: ('A' for Active; 'I' for Inactive)
REMARK    1  A    between atoms: C5_5  and  C7_7 
REMARK    2  A    between atoms: C7_7  and  C8_8 
ROOT
HETATM    1  C1  UNL     1     -35.228   5.458   4.463  1.00 20.00    -0.030 C 
HETATM    2  C2  UNL     1     -35.020   6.637   3.868  1.00 20.00    -0.026 C 
HETATM    3  C3  UNL     1     -34.297   4.408   3.955  1.00 20.00     0.027 C 
HETATM    4  C4  UNL     1     -33.246   5.225   3.203  1.00 20.00     0.012 C 
HETATM    5  C5  UNL     1     -33.916   6.562   2.857  1.00 20.00     0.008 C 
ENDROOT
BRANCH   5   6
HETATM    6  C7  UNL     1     -32.949   7.733   2.942  1.00 20.00     0.008 C 
BRANCH   6   7
HETATM    7  C8  UNL     1     -31.988   7.750   1.755  1.00 20.00    -0.004 C 
HETATM    8  C6  UNL     1     -32.168   9.003   0.911  1.00 20.00     0.005 C 
ENDBRANCH   6   7
ENDBRANCH   5   6
TORSDOF 2
ENDMDL
MODEL 7
REMARK VINA RESULT:      -2.1      1.263      3.952
REMARK  2 active torsions:
REMARK  status: ('A' for Active; 'I' for Inactive)
REMARK    1  A    between atoms: C5_5  and  C7_7 
REMARK    2  A    between atoms: C7_7  and  C8_8 
ROOT
HETATM    1  C1  UNL     1     -34.567   4.673   4.026  1.00 20.00    -0.030 C 
HETATM    2  C2  UNL     1     -33.449   4.987   3.364  1.00 20.00    -0.026 C 
HETATM    3  C3  UNL     1     -35.363   5.885   4.378  1.00 20.00     0.027 C 
HETATM    4  C4  UNL     1     -34.725   6.971   3.511  1.00 20.00     0.012 C 
HETATM    5  C5  UNL     1     -33.314   6.467   3.172  1.00 20.00     0.008 C 
ENDROOT
BRANCH   5   6
HETATM    6  C7  UNL     1     -32.887   6.850   1.763  1.00 20.00     0.008 C 
BRANCH   6   7
HETATM    7  C8  UNL     1     -31.876   7.995   1.778  1.00 20.00    -0.004 C 
HETATM    8  C6  UNL     1     -32.246   9.077   0.775  1.00 20.00     0.005 C 
ENDBRANCH   6   7
ENDBRANCH   5   6
TORSDOF 2
ENDMDL
MODEL 8
REMARK VINA RESULT:      -1.7      0.765      1.323
REMARK  2 active torsions:
REMARK  status: ('A' for Active; 'I' for Inactive)
REMARK    1  A    between atoms: C5_5  and  C7_7 
REMARK    2  A    between atoms: C7_7  and  C8_8 
ROOT
HETATM    1  C1  UNL     1     -32.944   7.940   3.137  1.00 20.00    -0.030 C 
HETATM    2  C2  UNL     1     -32.840   6.797   2.451  1.00 20.00    -0.026 C 
HETATM    3  C3  UNL     1     -34.160   7.959   4.001  1.00 20.00     0.027 C 
HETATM    4  C4  UNL     1     -34.598   6.495   4.000  1.00 20.00     0.012 C 
HETATM    5  C5  UNL     1     -33.978   5.868   2.743  1.00 20.00     0.008 C 
ENDROOT
BRANCH   5   6
HETATM    6  C7  UNL     1     -33.533   4.432   2.972  1.00 20.00     0.008 C 
BRANCH   6   7
HETATM    7  C8  UNL     1     -33.965   3.925   4.347  1.00 20.00    -0.004 C 
HETATM    8  C6  UNL     1     -33.027   2.844   4.862  1.00 20.00     0.005 C 
ENDBRANCH   6   7
ENDBRANCH   5   6
TORSDOF 2
ENDMDL
MODEL 9
REMARK VINA RESULT:      -1.3      2.003      3.374
REMARK  2 active torsions:
REMARK  status: ('A' for Active; 'I' for Inactive)
REMARK    1  A    between atoms: C5_5  and  C7_7 
REMARK    2  A    between atoms: C7_7  and  C8_8 
ROOT
HETATM    1  C1  UNL     1     -32.392   9.686   0.484  1.00 20.00    -0.030 C 
HETATM    2  C2  UNL     1     -32.950   9.234   1.612  1.00 20.00    -0.026 C 
HETATM    3  C3  UNL     1     -31.232   8.847   0.063  1.00 20.00     0.027 C 
HETATM    4  C4  UNL     1     -31.390   7.597   0.928  1.00 20.00     0.012 C 
HETATM    5  C5  UNL     1     -32.245   8.018   2.131  1.00 20.00     0.008 C 
ENDROOT
BRANCH   5   6
HETATM    6  C7  UNL     1     -33.198   6.920   2.577  1.00 20.00     0.008 C 
BRANCH   6   7
HETATM    7  C8  UNL     1     -34.064   7.373   3.750  1.00 20.00    -0.004 C 
HETATM    8  C6  UNL     1     -35.179   6.380   4.036  1.00 20.00     0.005 C 
ENDBRANCH   6   7
ENDBRANCH   5   6
TORSDOF 2
ENDMDL
