MODEL 1
REMARK VINA RESULT:      -2.8      0.000      0.000
REMARK  3 active torsions:
REMARK  status: ('A' for Active; 'I' for Inactive)
REMARK    1  A    between atoms: C3_3  and  C5_5 
REMARK    2  A    between atoms: C4_4  and  C6_6 
REMARK    3  A    between atoms: C5_5  and  C6_6 
ROOT
HETATM    1  C6  UNL     1     -32.932   7.337   1.992  1.00 20.00     0.082 C 
HETATM    2 CL7  UNL     1     -32.601   5.656   1.463  1.00 20.00    -0.125 Cl
ENDROOT
BRANCH   1   3
HETATM    3  C4  UNL     1     -31.826   8.281   1.497  1.00 20.00     0.016 C 
HETATM    4  C2  UNL     1     -32.337   9.400   0.598  1.00 20.00     0.006 C 
ENDBRANCH   1   3
BRANCH   1   5
HETATM    5  C5  UNL     1     -33.055   7.399   3.523  1.00 20.00     0.020 C 
BRANCH   5   6
HETATM    6  C3  UNL     1     -34.500   7.509   4.016  1.00 20.00    -0.003 C 
HETATM    7  C1  UNL     1     -35.206   6.162   3.972  1.00 20.00     0.005 C 
ENDBRANCH   5   6
ENDBRANCH   1   5
TORSDOF 3
ENDMDL
MODEL 2
REMARK VINA RESULT:      -2.7      0.613      3.664
REMARK  3 active torsions:
REMARK  status: ('A' for Active; 'I' for Inactive)
REMARK    1  A    between atoms: C3_3  and  C5_5 
REMARK    2  A    between atoms: C4_4  and  C6_6 
REMARK    3  A    between atoms: C5_5  and  C6_6 
ROOT
HETATM    1  C6  UNL     1     -32.847   7.124   3.004  1.00 20.00     0.082 C 
HETATM    2 CL7  UNL     1     -33.107   5.959   1.666  1.00 20.00    -0.125 Cl
ENDROOT
BRANCH   1   3
HETATM    3  C4  UNL     1     -34.182   7.456   3.689  1.00 20.00     0.016 C 
HETATM    4  C2  UNL     1     -35.072   6.240   3.913  1.00 20.00     0.006 C 
ENDBRANCH   1   3
BRANCH   1   5
HETATM    5  C5  UNL     1     -32.175   8.401   2.476  1.00 20.00     0.020 C 
BRANCH   5   6
HETATM    6  C3  UNL     1     -31.989   8.409   0.956  1.00 20.00    -0.003 C 
HETATM    7  C1  UNL     1     -32.417   9.738   0.352  1.00 20.00     0.005 C 
ENDBRANCH   5   6
ENDBRANCH   1   5
TORSDOF 3
ENDMDL
MODEL 3
REMARK VINA RESULT:      -2.4      1.724      3.623
REMARK  3 active torsions:
REMARK  status: ('A' for Active; 'I' for Inactive)
REMARK    1  A    between atoms: C3_3  and  C5_5 
REMARK    2  A    between atoms: C4_4  and  C6_6 
REMARK    3  A    between atoms: C5_5  and  C6_6 
ROOT
HETATM    1  C6  UNL     1     -33.557   5.619   3.384  1.00 20.00     0.082 C 
HETATM    2 CL7  UNL     1     -33.917   3.951   3.935  1.00 20.00    -0.125 Cl
ENDROOT
BRANCH   1   3
HETATM    3  C4  UNL     1     -34.692   6.572   3.787  1.00 20.00     0.016 C 
HETATM    4  C2  UNL     1     -34.203   7.872   4.415  1.00 20.00     0.006 C 
ENDBRANCH   1   3
BRANCH   1   5
HETATM    5  C5  UNL     1     -33.343   5.642   1.862  1.00 20.00     0.020 C 
BRANCH   5   6
HETATM    6  C3  UNL     1     -31.986   6.218   1.445  1.00 20.00    -0.003 C 
HETATM    7  C1  UNL     1     -31.946   7.728   1.627  1.00 20.00     0.005 C 
ENDBRANCH   5   6
ENDBRANCH   1   5
TORSDOF 3
ENDMDL
MODEL 4
REMARK VINA RESULT:      -2.2      1.847      4.140
REMARK  3 active torsions:
REMARK  status: ('A' for Active; 'I' for Inactive)
REMARK    1  A    between atoms: C3_3  and  C5_5 
REMARK    2  A    between atoms: C4_4  and  C6_6 
REMARK    3  A    between atoms: C5_5  and  C6_6 
ROOT
HETATM    1  C6  UNL     1     -34.222   7.059   3.489  1.00 20.00     0.082 C 
HETATM    2 CL7  UNL     1     -33.493   8.047   4.795  1.00 20.00    -0.125 Cl
ENDROOT
BRANCH   1   3
HETATM    3  C4  UNL     1     -35.378   6.212   4.042  1.00 20.00     0.016 C 
HETATM    4  C2  UNL     1     -34.963   4.803   4.448  1.00 20.00     0.006 C 
ENDBRANCH   1   3
BRANCH   1   5
HETATM    5  C5  UNL     1     -33.154   6.163   2.840  1.00 20.00     0.020 C 
BRANCH   5   6
HETATM    6  C3  UNL     1     -32.638   6.699   1.502  1.00 20.00    -0.003 C 
HETATM    7  C1  UNL     1     -31.879   8.005   1.684  1.00 20.00     0.005 C 
ENDBRANCH   5   6
ENDBRANCH   1   5
TORSDOF 3
ENDMDL
MODEL 5
REMARK VINA RESULT:      -2.2      0.930      1.221
REMARK  3 active torsions:
REMARK  status: ('A' for Active; 'I' for Inactive)
REMARK    1  A    between atoms: C3_3  and  C5_5 
REMARK    2  A    between atoms: C4_4  and  C6_6 
REMARK    3  A    between atoms: C5_5  and  C6_6 
ROOT
HETATM    1  C6  UNL     1     -32.906   6.599   1.736  1.00 20.00     0.082 C 
HETATM    2 CL7  UNL     1     -32.049   5.191   1.031  1.00 20.00    -0.125 Cl
ENDROOT
BRANCH   1   3
HETATM    3  C4  UNL     1     -31.948   7.793   1.875  1.00 20.00     0.016 C 
HETATM    4  C2  UNL     1     -32.267   8.943   0.927  1.00 20.00     0.006 C 
ENDBRANCH   1   3
BRANCH   1   5
HETATM    5  C5  UNL     1     -33.510   6.227   3.100  1.00 20.00     0.020 C 
BRANCH   5   6
HETATM    6  C3  UNL     1     -34.381   7.332   3.704  1.00 20.00    -0.003 C 
HETATM    7  C1  UNL     1     -33.690   8.000   4.884  1.00 20.00     0.005 C 
ENDBRANCH   5   6
ENDBRANCH   1   5
TORSDOF 3
ENDMDL
MODEL 6
REMARK VINA RESULT:      -2.1      1.970      3.657
REMARK  3 active torsions:
REMARK  status: ('A' for Active; 'I' for Inactive)
REMARK    1  A    between atoms: C3_3  and  C5_5 
REMARK    2  A    between atoms: C4_4  and  C6_6 
REMARK    3  A    between atoms: C5_5  and  C6_6 
ROOT
HETATM    1  C6  UNL     1     -33.250   7.282   2.171  1.00 20.00     0.082 C 
HETATM    2 CL7  UNL     1     -33.816   7.638   3.834  1.00 20.00    -0.125 Cl
ENDROOT
BRANCH   1   3
HETATM    3  C4  UNL     1     -33.058   5.769   1.985  1.00 20.00     0.016 C 
HETATM    4  C2  UNL     1     -31.889   5.410   1.074  1.00 20.00     0.006 C 
ENDBRANCH   1   3
BRANCH   1   5
HETATM    5  C5  UNL     1     -31.941   8.035   1.881  1.00 20.00     0.020 C 
BRANCH   5   6
HETATM    6  C3  UNL     1     -31.943   8.765   0.534  1.00 20.00    -0.003 C 
HETATM    7  C1  UNL     1     -32.623  10.122   0.640  1.00 20.00     0.005 C 
ENDBRANCH   5   6
ENDBRANCH   1   5
TORSDOF 3
ENDMDL
MODEL 7
REMARK VINA RESULT:      -2.1      2.521      2.984
REMARK  3 active torsions:
REMARK  status: ('A' for Active; 'I' for Inactive)
REMARK    1  A    between atoms: C3_3  and  C5_5 
REMARK    2  A    between atoms: C4_4  and  C6_6 
REMARK    3  A    between atoms: C5_5  and  C6_6 
ROOT
HETATM    1  C6  UNL     1     -33.510   6.159   3.229  1.00 20.00     0.082 C 
HETATM    2 CL7  UNL     1     -35.093   6.771   3.807  1.00 20.00    -0.125 Cl
ENDROOT
BRANCH   1   3
HETATM    3  C4  UNL     1     -33.165   6.775   1.865  1.00 20.00     0.016 C 
HETATM    4  C2  UNL     1     -32.077   7.839   1.934  1.00 20.00     0.006 C 
ENDBRANCH   1   3
BRANCH   1   5
HETATM    5  C5  UNL     1     -33.532   4.624   3.143  1.00 20.00     0.020 C 
BRANCH   5   6
HETATM    6  C3  UNL     1     -34.011   3.947   4.430  1.00 20.00    -0.003 C 
HETATM    7  C1  UNL     1     -33.090   2.804   4.830  1.00 20.00     0.005 C 
ENDBRANCH   5   6
ENDBRANCH   1   5
TORSDOF 3
ENDMDL
MODEL 8
REMARK VINA RESULT:      -2.1      2.257      3.271
REMARK  3 active torsions:
REMARK  status: ('A' for Active; 'I' for Inactive)
REMARK    1  A    between atoms: C3_3  and  C5_5 
REMARK    2  A    between atoms: C4_4  and  C6_6 
REMARK    3  A    between atoms: C5_5  and  C6_6 
ROOT
HETATM    1  C6  UNL     1     -33.810   6.142   2.647  1.00 20.00     0.082 C 
HETATM    2 CL7  UNL     1     -32.510   7.253   2.110  1.00 20.00    -0.125 Cl
ENDROOT
BRANCH   1   3
HETATM    3  C4  UNL     1     -34.592   6.759   3.816  1.00 20.00     0.016 C 
HETATM    4  C2  UNL     1     -33.864   7.913   4.495  1.00 20.00     0.006 C 
ENDBRANCH   1   3
BRANCH   1   5
HETATM    5  C5  UNL     1     -33.217   4.782   3.048  1.00 20.00     0.020 C 
BRANCH   5   6
HETATM    6  C3  UNL     1     -34.002   4.076   4.157  1.00 20.00    -0.003 C 
HETATM    7  C1  UNL     1     -33.201   2.932   4.762  1.00 20.00     0.005 C 
ENDBRANCH   5   6
ENDBRANCH   1   5
TORSDOF 3
ENDMDL
MODEL 9
REMARK VINA RESULT:      -2.0      2.153      2.774
REMARK  3 active torsions:
REMARK  status: ('A' for Active; 'I' for Inactive)
REMARK    1  A    between atoms: C3_3  and  C5_5 
REMARK    2  A    between atoms: C4_4  and  C6_6 
REMARK    3  A    between atoms: C5_5  and  C6_6 
ROOT
HETATM    1  C6  UNL     1     -33.534   6.920   3.748  1.00 20.00     0.082 C 
HETATM    2 CL7  UNL     1     -33.348   8.288   4.892  1.00 20.00    -0.125 Cl
ENDROOT
BRANCH   1   3
HETATM    3  C4  UNL     1     -33.058   7.329   2.345  1.00 20.00     0.016 C 
HETATM    4  C2  UNL     1     -32.660   6.148   1.468  1.00 20.00     0.006 C 
ENDBRANCH   1   3
BRANCH   1   5
HETATM    5  C5  UNL     1     -34.997   6.452   3.710  1.00 20.00     0.020 C 
BRANCH   5   6
HETATM    6  C3  UNL     1     -35.234   5.129   4.445  1.00 20.00    -0.003 C 
HETATM    7  C1  UNL     1     -34.093   4.151   4.206  1.00 20.00     0.005 C 
ENDBRANCH   5   6
ENDBRANCH   1   5
TORSDOF 3
ENDMDL
