MODEL 1
REMARK VINA RESULT:      -0.7      0.000      0.000
REMARK  2 active torsions:
REMARK  status: ('A' for Active; 'I' for Inactive)
REMARK    1  A    between atoms: C1_1  and  C5_5 
REMARK    2  A    between atoms: C1_1  and  C6_6 
ROOT
HETATM    1  C1  UNL     1     -33.453   5.795   2.907  1.00 20.00     0.167 C 
HETATM    2  O7  UNL     1     -33.296   4.722   3.496  1.00 20.00    -0.294 OA
ENDROOT
BRANCH   1   3
HETATM    3  C5  UNL     1     -34.383   6.851   3.471  1.00 20.00     0.248 C 
HETATM    4 CL8  UNL     1     -33.461   7.852   4.603  1.00 20.00    -0.100 Cl
HETATM    5 CL9  UNL     1     -35.724   6.029   4.285  1.00 20.00    -0.100 Cl
ENDBRANCH   1   3
BRANCH   1   6
HETATM    6  C6  UNL     1     -32.717   6.099   1.585  1.00 20.00     0.012 C 
HETATM    7  C2  UNL     1     -31.583   5.077   1.380  1.00 20.00     0.022 C 
HETATM    8  C3  UNL     1     -33.695   5.984   0.409  1.00 20.00     0.022 C 
HETATM    9  C4  UNL     1     -32.103   7.503   1.642  1.00 20.00     0.022 C 
ENDBRANCH   1   6
TORSDOF 2
ENDMDL
MODEL 2
REMARK VINA RESULT:      -0.4      1.412      1.742
REMARK  2 active torsions:
REMARK  status: ('A' for Active; 'I' for Inactive)
REMARK    1  A    between atoms: C1_1  and  C5_5 
REMARK    2  A    between atoms: C1_1  and  C6_6 
ROOT
HETATM    1  C1  UNL     1     -33.430   6.473   3.034  1.00 20.00     0.167 C 
HETATM    2  O7  UNL     1     -33.227   7.361   3.867  1.00 20.00    -0.294 OA
ENDROOT
BRANCH   1   3
HETATM    3  C5  UNL     1     -34.428   5.368   3.319  1.00 20.00     0.248 C 
HETATM    4 CL8  UNL     1     -35.712   6.033   4.342  1.00 20.00    -0.100 Cl
HETATM    5 CL9  UNL     1     -33.573   4.050   4.136  1.00 20.00    -0.100 Cl
ENDBRANCH   1   3
BRANCH   1   6
HETATM    6  C6  UNL     1     -32.682   6.454   1.684  1.00 20.00     0.012 C 
HETATM    7  C2  UNL     1     -31.651   5.311   1.683  1.00 20.00     0.022 C 
HETATM    8  C3  UNL     1     -33.679   6.212   0.543  1.00 20.00     0.022 C 
HETATM    9  C4  UNL     1     -31.940   7.780   1.481  1.00 20.00     0.022 C 
ENDBRANCH   1   6
TORSDOF 2
ENDMDL
MODEL 3
REMARK VINA RESULT:      -0.4      1.417      2.256
REMARK  2 active torsions:
REMARK  status: ('A' for Active; 'I' for Inactive)
REMARK    1  A    between atoms: C1_1  and  C5_5 
REMARK    2  A    between atoms: C1_1  and  C6_6 
ROOT
HETATM    1  C1  UNL     1     -33.420   6.498   3.027  1.00 20.00     0.167 C 
HETATM    2  O7  UNL     1     -33.226   7.393   3.854  1.00 20.00    -0.294 OA
ENDROOT
BRANCH   1   3
HETATM    3  C5  UNL     1     -34.423   5.397   3.309  1.00 20.00     0.248 C 
HETATM    4 CL8  UNL     1     -35.701   6.064   4.337  1.00 20.00    -0.100 Cl
HETATM    5 CL9  UNL     1     -33.574   4.070   4.118  1.00 20.00    -0.100 Cl
ENDBRANCH   1   3
BRANCH   1   6
HETATM    6  C6  UNL     1     -32.654   6.465   1.687  1.00 20.00     0.012 C 
HETATM    7  C2  UNL     1     -33.648   6.253   0.530  1.00 20.00     0.022 C 
HETATM    8  C3  UNL     1     -31.932   7.801   1.469  1.00 20.00     0.022 C 
HETATM    9  C4  UNL     1     -31.653   5.303   1.688  1.00 20.00     0.022 C 
ENDBRANCH   1   6
TORSDOF 2
ENDMDL
MODEL 4
REMARK VINA RESULT:      -0.4      1.414      2.257
REMARK  2 active torsions:
REMARK  status: ('A' for Active; 'I' for Inactive)
REMARK    1  A    between atoms: C1_1  and  C5_5 
REMARK    2  A    between atoms: C1_1  and  C6_6 
ROOT
HETATM    1  C1  UNL     1     -33.426   6.484   3.021  1.00 20.00     0.167 C 
HETATM    2  O7  UNL     1     -33.226   7.383   3.842  1.00 20.00    -0.294 OA
ENDROOT
BRANCH   1   3
HETATM    3  C5  UNL     1     -34.430   5.386   3.314  1.00 20.00     0.248 C 
HETATM    4 CL8  UNL     1     -35.699   6.060   4.348  1.00 20.00    -0.100 Cl
HETATM    5 CL9  UNL     1     -33.578   4.061   4.123  1.00 20.00    -0.100 Cl
ENDBRANCH   1   3
BRANCH   1   6
HETATM    6  C6  UNL     1     -32.668   6.442   1.677  1.00 20.00     0.012 C 
HETATM    7  C2  UNL     1     -31.929   7.776   1.461  1.00 20.00     0.022 C 
HETATM    8  C3  UNL     1     -31.632   5.311   1.701  1.00 20.00     0.022 C 
HETATM    9  C4  UNL     1     -33.660   6.242   0.525  1.00 20.00     0.022 C 
ENDBRANCH   1   6
TORSDOF 2
ENDMDL
MODEL 5
REMARK VINA RESULT:      -0.3      2.111      3.572
REMARK  2 active torsions:
REMARK  status: ('A' for Active; 'I' for Inactive)
REMARK    1  A    between atoms: C1_1  and  C5_5 
REMARK    2  A    between atoms: C1_1  and  C6_6 
ROOT
HETATM    1  C1  UNL     1     -33.583   5.715   2.991  1.00 20.00     0.167 C 
HETATM    2  O7  UNL     1     -33.103   4.642   3.370  1.00 20.00    -0.294 OA
ENDROOT
BRANCH   1   3
HETATM    3  C5  UNL     1     -33.089   6.369   1.716  1.00 20.00     0.248 C 
HETATM    4 CL8  UNL     1     -32.064   5.206   0.860  1.00 20.00    -0.100 Cl
HETATM    5 CL9  UNL     1     -32.181   7.823   2.157  1.00 20.00    -0.100 Cl
ENDBRANCH   1   3
BRANCH   1   6
HETATM    6  C6  UNL     1     -34.691   6.425   3.796  1.00 20.00     0.012 C 
HETATM    7  C2  UNL     1     -35.728   7.024   2.828  1.00 20.00     0.022 C 
HETATM    8  C3  UNL     1     -35.401   5.414   4.706  1.00 20.00     0.022 C 
HETATM    9  C4  UNL     1     -34.084   7.564   4.625  1.00 20.00     0.022 C 
ENDBRANCH   1   6
TORSDOF 2
ENDMDL
MODEL 6
REMARK VINA RESULT:      -0.0      2.649      3.664
REMARK  2 active torsions:
REMARK  status: ('A' for Active; 'I' for Inactive)
REMARK    1  A    between atoms: C1_1  and  C5_5 
REMARK    2  A    between atoms: C1_1  and  C6_6 
ROOT
HETATM    1  C1  UNL     1     -33.327   6.663   2.436  1.00 20.00     0.167 C 
HETATM    2  O7  UNL     1     -32.672   7.686   2.217  1.00 20.00    -0.294 OA
ENDROOT
BRANCH   1   3
HETATM    3  C5  UNL     1     -33.172   5.447   1.543  1.00 20.00     0.248 C 
HETATM    4 CL8  UNL     1     -31.446   5.215   1.219  1.00 20.00    -0.100 Cl
HETATM    5 CL9  UNL     1     -34.072   5.743   0.047  1.00 20.00    -0.100 Cl
ENDBRANCH   1   3
BRANCH   1   6
HETATM    6  C6  UNL     1     -34.319   6.583   3.614  1.00 20.00     0.012 C 
HETATM    7  C2  UNL     1     -35.739   6.912   3.116  1.00 20.00     0.022 C 
HETATM    8  C3  UNL     1     -34.324   5.163   4.194  1.00 20.00     0.022 C 
HETATM    9  C4  UNL     1     -33.932   7.605   4.691  1.00 20.00     0.022 C 
ENDBRANCH   1   6
TORSDOF 2
ENDMDL
MODEL 7
REMARK VINA RESULT:       0.0      2.614      3.604
REMARK  2 active torsions:
REMARK  status: ('A' for Active; 'I' for Inactive)
REMARK    1  A    between atoms: C1_1  and  C5_5 
REMARK    2  A    between atoms: C1_1  and  C6_6 
ROOT
HETATM    1  C1  UNL     1     -33.181   6.973   2.369  1.00 20.00     0.167 C 
HETATM    2  O7  UNL     1     -32.888   6.101   1.546  1.00 20.00    -0.294 OA
ENDROOT
BRANCH   1   3
HETATM    3  C5  UNL     1     -32.582   8.362   2.262  1.00 20.00     0.248 C 
HETATM    4 CL8  UNL     1     -32.516   8.804   0.548  1.00 20.00    -0.100 Cl
HETATM    5 CL9  UNL     1     -30.964   8.322   2.979  1.00 20.00    -0.100 Cl
ENDBRANCH   1   3
BRANCH   1   6
HETATM    6  C6  UNL     1     -34.157   6.684   3.529  1.00 20.00     0.012 C 
HETATM    7  C2  UNL     1     -35.603   6.924   3.058  1.00 20.00     0.022 C 
HETATM    8  C3  UNL     1     -34.024   5.219   3.966  1.00 20.00     0.022 C 
HETATM    9  C4  UNL     1     -33.864   7.626   4.703  1.00 20.00     0.022 C 
ENDBRANCH   1   6
TORSDOF 2
ENDMDL
MODEL 8
REMARK VINA RESULT:       0.1      2.614      3.611
REMARK  2 active torsions:
REMARK  status: ('A' for Active; 'I' for Inactive)
REMARK    1  A    between atoms: C1_1  and  C5_5 
REMARK    2  A    between atoms: C1_1  and  C6_6 
ROOT
HETATM    1  C1  UNL     1     -33.194   6.971   2.369  1.00 20.00     0.167 C 
HETATM    2  O7  UNL     1     -32.898   6.090   1.556  1.00 20.00    -0.294 OA
ENDROOT
BRANCH   1   3
HETATM    3  C5  UNL     1     -32.588   8.355   2.255  1.00 20.00     0.248 C 
HETATM    4 CL8  UNL     1     -32.534   8.796   0.541  1.00 20.00    -0.100 Cl
HETATM    5 CL9  UNL     1     -30.963   8.306   2.957  1.00 20.00    -0.100 Cl
ENDBRANCH   1   3
BRANCH   1   6
HETATM    6  C6  UNL     1     -34.183   6.697   3.522  1.00 20.00     0.012 C 
HETATM    7  C2  UNL     1     -34.041   5.236   3.987  1.00 20.00     0.022 C 
HETATM    8  C3  UNL     1     -33.866   7.619   4.706  1.00 20.00     0.022 C 
HETATM    9  C4  UNL     1     -35.622   6.916   3.037  1.00 20.00     0.022 C 
ENDBRANCH   1   6
TORSDOF 2
ENDMDL
MODEL 9
REMARK VINA RESULT:       0.1      1.459      1.813
REMARK  2 active torsions:
REMARK  status: ('A' for Active; 'I' for Inactive)
REMARK    1  A    between atoms: C1_1  and  C5_5 
REMARK    2  A    between atoms: C1_1  and  C6_6 
ROOT
HETATM    1  C1  UNL     1     -33.221   7.038   2.596  1.00 20.00     0.167 C 
HETATM    2  O7  UNL     1     -33.270   5.855   2.249  1.00 20.00    -0.294 OA
ENDROOT
BRANCH   1   3
HETATM    3  C5  UNL     1     -34.207   7.581   3.612  1.00 20.00     0.248 C 
HETATM    4 CL8  UNL     1     -33.310   8.012   5.077  1.00 20.00    -0.100 Cl
HETATM    5 CL9  UNL     1     -35.410   6.324   3.940  1.00 20.00    -0.100 Cl
ENDBRANCH   1   3
BRANCH   1   6
HETATM    6  C6  UNL     1     -32.164   8.001   2.014  1.00 20.00     0.012 C 
HETATM    7  C2  UNL     1     -31.195   7.217   1.110  1.00 20.00     0.022 C 
HETATM    8  C3  UNL     1     -32.855   9.079   1.169  1.00 20.00     0.022 C 
HETATM    9  C4  UNL     1     -31.359   8.640   3.152  1.00 20.00     0.022 C 
ENDBRANCH   1   6
TORSDOF 2
ENDMDL
