MODEL 1
REMARK VINA RESULT:       2.3      0.000      0.000
REMARK  0 active torsions:
REMARK  status: ('A' for Active; 'I' for Inactive)
ROOT
HETATM    1  C1  UNL     1     -35.617   5.602   4.406  1.00 20.00     0.002 C 
HETATM    2  C2  UNL     1     -34.457   4.628   4.617  1.00 20.00     0.002 C 
HETATM    3  C3  UNL     1     -35.284   6.394   3.140  1.00 20.00     0.032 C 
HETATM    4  C4  UNL     1     -33.474   4.881   3.472  1.00 20.00     0.032 C 
HETATM    5  C5  UNL     1     -31.783   7.624   1.691  1.00 20.00     0.086 C 
HETATM    6  C6  UNL     1     -32.193   8.547   2.819  1.00 20.00     0.086 C 
HETATM    7  C7  UNL     1     -33.761   6.312   3.013  1.00 20.00     0.056 C 
HETATM    8  S8  UNL     1     -33.214   6.593   1.296  1.00 20.00    -0.147 SA
HETATM    9  S9  UNL     1     -32.937   7.529   4.118  1.00 20.00    -0.147 SA
ENDROOT
TORSDOF 0
ENDMDL
MODEL 2
REMARK VINA RESULT:       2.8      0.751      2.127
REMARK  0 active torsions:
REMARK  status: ('A' for Active; 'I' for Inactive)
ROOT
HETATM    1  C1  UNL     1     -34.677   4.678   4.393  1.00 20.00     0.002 C 
HETATM    2  C2  UNL     1     -35.757   5.654   3.924  1.00 20.00     0.002 C 
HETATM    3  C3  UNL     1     -33.358   5.452   4.356  1.00 20.00     0.032 C 
HETATM    4  C4  UNL     1     -35.039   6.971   3.619  1.00 20.00     0.032 C 
HETATM    5  C5  UNL     1     -32.080   8.291   1.870  1.00 20.00     0.086 C 
HETATM    6  C6  UNL     1     -31.944   6.948   1.185  1.00 20.00     0.086 C 
HETATM    7  C7  UNL     1     -33.587   6.574   3.341  1.00 20.00     0.056 C 
HETATM    8  S8  UNL     1     -32.444   7.969   3.612  1.00 20.00    -0.147 SA
HETATM    9  S9  UNL     1     -33.398   5.960   1.618  1.00 20.00    -0.147 SA
ENDROOT
TORSDOF 0
ENDMDL
MODEL 3
REMARK VINA RESULT:       2.9      1.536      3.822
REMARK  0 active torsions:
REMARK  status: ('A' for Active; 'I' for Inactive)
ROOT
HETATM    1  C1  UNL     1     -32.235   7.398   1.266  1.00 20.00     0.002 C 
HETATM    2  C2  UNL     1     -31.851   8.052   2.595  1.00 20.00     0.002 C 
HETATM    3  C3  UNL     1     -33.603   6.751   1.490  1.00 20.00     0.032 C 
HETATM    4  C4  UNL     1     -33.001   7.763   3.562  1.00 20.00     0.032 C 
HETATM    5  C5  UNL     1     -35.157   5.012   4.721  1.00 20.00     0.086 C 
HETATM    6  C6  UNL     1     -34.197   4.045   4.062  1.00 20.00     0.086 C 
HETATM    7  C7  UNL     1     -33.685   6.514   3.000  1.00 20.00     0.056 C 
HETATM    8  S8  UNL     1     -35.413   6.380   3.566  1.00 20.00    -0.147 SA
HETATM    9  S9  UNL     1     -32.769   4.995   3.484  1.00 20.00    -0.147 SA
ENDROOT
TORSDOF 0
ENDMDL
MODEL 4
REMARK VINA RESULT:       3.2      2.274      3.302
REMARK  0 active torsions:
REMARK  status: ('A' for Active; 'I' for Inactive)
ROOT
HETATM    1  C1  UNL     1     -32.890   4.591   0.126  1.00 20.00     0.002 C 
HETATM    2  C2  UNL     1     -31.622   4.483   0.974  1.00 20.00     0.002 C 
HETATM    3  C3  UNL     1     -33.562   5.905   0.530  1.00 20.00     0.032 C 
HETATM    4  C4  UNL     1     -31.590   5.733   1.856  1.00 20.00     0.032 C 
HETATM    5  C5  UNL     1     -33.744   7.754   4.055  1.00 20.00     0.086 C 
HETATM    6  C6  UNL     1     -34.738   6.612   4.053  1.00 20.00     0.086 C 
HETATM    7  C7  UNL     1     -33.047   6.194   1.942  1.00 20.00     0.056 C 
HETATM    8  S8  UNL     1     -33.171   7.966   2.353  1.00 20.00    -0.147 SA
HETATM    9  S9  UNL     1     -33.967   5.215   3.197  1.00 20.00    -0.147 SA
ENDROOT
TORSDOF 0
ENDMDL
MODEL 5
REMARK VINA RESULT:       3.5      1.974      2.590
REMARK  0 active torsions:
REMARK  status: ('A' for Active; 'I' for Inactive)
ROOT
HETATM    1  C1  UNL     1     -34.569   7.285   3.965  1.00 20.00     0.002 C 
HETATM    2  C2  UNL     1     -33.549   8.071   4.790  1.00 20.00     0.002 C 
HETATM    3  C3  UNL     1     -33.871   6.929   2.651  1.00 20.00     0.032 C 
HETATM    4  C4  UNL     1     -32.285   8.160   3.933  1.00 20.00     0.032 C 
HETATM    5  C5  UNL     1     -31.185   8.945   0.507  1.00 20.00     0.086 C 
HETATM    6  C6  UNL     1     -32.554   9.539   0.254  1.00 20.00     0.086 C 
HETATM    7  C7  UNL     1     -32.769   7.979   2.493  1.00 20.00     0.056 C 
HETATM    8  S8  UNL     1     -31.433   7.392   1.400  1.00 20.00    -0.147 SA
HETATM    9  S9  UNL     1     -33.446   9.556   1.830  1.00 20.00    -0.147 SA
ENDROOT
TORSDOF 0
ENDMDL
MODEL 6
REMARK VINA RESULT:       3.8      1.336      4.209
REMARK  0 active torsions:
REMARK  status: ('A' for Active; 'I' for Inactive)
ROOT
HETATM    1  C1  UNL     1     -32.013   9.029   0.314  1.00 20.00     0.002 C 
HETATM    2  C2  UNL     1     -30.809   8.729   1.209  1.00 20.00     0.002 C 
HETATM    3  C3  UNL     1     -33.255   8.704   1.147  1.00 20.00     0.032 C 
HETATM    4  C4  UNL     1     -31.379   8.231   2.539  1.00 20.00     0.032 C 
HETATM    5  C5  UNL     1     -33.874   5.887   3.896  1.00 20.00     0.086 C 
HETATM    6  C6  UNL     1     -33.957   5.254   2.524  1.00 20.00     0.086 C 
HETATM    7  C7  UNL     1     -32.773   7.699   2.197  1.00 20.00     0.056 C 
HETATM    8  S8  UNL     1     -33.864   7.680   3.658  1.00 20.00    -0.147 SA
HETATM    9  S9  UNL     1     -32.670   6.003   1.494  1.00 20.00    -0.147 SA
ENDROOT
TORSDOF 0
ENDMDL
MODEL 7
REMARK VINA RESULT:       4.0      1.491      4.159
REMARK  0 active torsions:
REMARK  status: ('A' for Active; 'I' for Inactive)
ROOT
HETATM    1  C1  UNL     1     -31.260   9.295   1.073  1.00 20.00     0.002 C 
HETATM    2  C2  UNL     1     -32.501   9.290   0.179  1.00 20.00     0.002 C 
HETATM    3  C3  UNL     1     -31.263   7.955   1.813  1.00 20.00     0.032 C 
HETATM    4  C4  UNL     1     -33.200   7.952   0.424  1.00 20.00     0.032 C 
HETATM    5  C5  UNL     1     -34.288   5.740   3.159  1.00 20.00     0.086 C 
HETATM    6  C6  UNL     1     -34.065   6.890   4.117  1.00 20.00     0.086 C 
HETATM    7  C7  UNL     1     -32.727   7.508   1.811  1.00 20.00     0.056 C 
HETATM    8  S8  UNL     1     -32.877   5.703   2.028  1.00 20.00    -0.147 SA
HETATM    9  S9  UNL     1     -33.683   8.360   3.130  1.00 20.00    -0.147 SA
ENDROOT
TORSDOF 0
ENDMDL
MODEL 8
REMARK VINA RESULT:       4.0      1.486      3.781
REMARK  0 active torsions:
REMARK  status: ('A' for Active; 'I' for Inactive)
ROOT
HETATM    1  C1  UNL     1     -32.063   8.306   1.913  1.00 20.00     0.002 C 
HETATM    2  C2  UNL     1     -32.522   7.410   0.760  1.00 20.00     0.002 C 
HETATM    3  C3  UNL     1     -32.190   7.463   3.183  1.00 20.00     0.032 C 
HETATM    4  C4  UNL     1     -32.911   6.071   1.389  1.00 20.00     0.032 C 
HETATM    5  C5  UNL     1     -34.842   4.667   4.192  1.00 20.00     0.086 C 
HETATM    6  C6  UNL     1     -35.478   6.028   4.375  1.00 20.00     0.086 C 
HETATM    7  C7  UNL     1     -33.237   6.399   2.848  1.00 20.00     0.056 C 
HETATM    8  S8  UNL     1     -33.074   4.934   3.922  1.00 20.00    -0.147 SA
HETATM    9  S9  UNL     1     -34.941   7.074   2.999  1.00 20.00    -0.147 SA
ENDROOT
TORSDOF 0
ENDMDL
MODEL 9
REMARK VINA RESULT:       4.3      2.100      3.333
REMARK  0 active torsions:
REMARK  status: ('A' for Active; 'I' for Inactive)
ROOT
HETATM    1  C1  UNL     1     -31.567   4.716   1.068  1.00 20.00     0.002 C 
HETATM    2  C2  UNL     1     -32.669   5.220   0.135  1.00 20.00     0.002 C 
HETATM    3  C3  UNL     1     -32.128   4.824   2.488  1.00 20.00     0.032 C 
HETATM    4  C4  UNL     1     -33.842   5.615   1.035  1.00 20.00     0.032 C 
HETATM    5  C5  UNL     1     -34.598   7.496   4.109  1.00 20.00     0.086 C 
HETATM    6  C6  UNL     1     -33.214   8.103   4.022  1.00 20.00     0.086 C 
HETATM    7  C7  UNL     1     -33.214   5.898   2.402  1.00 20.00     0.056 C 
HETATM    8  S8  UNL     1     -34.431   5.732   3.750  1.00 20.00    -0.147 SA
HETATM    9  S9  UNL     1     -32.485   7.585   2.448  1.00 20.00    -0.147 SA
ENDROOT
TORSDOF 0
ENDMDL
