MODEL 1
REMARK VINA RESULT:      -3.2      0.000      0.000
REMARK  2 active torsions:
REMARK  status: ('A' for Active; 'I' for Inactive)
REMARK    1  A    between atoms: C1_1  and  C2_2 
REMARK    2  A    between atoms: C2_2  and  C3_3 
ROOT
HETATM    1  C2  UNL     1     -33.302   7.239   2.198  1.00 20.00     0.203 C 
HETATM    2 CL8  UNL     1     -32.928   5.564   1.684  1.00 20.00    -0.115 Cl
ENDROOT
BRANCH   1   3
HETATM    3  C1  UNL     1     -33.747   7.271   3.659  1.00 20.00     0.143 C 
HETATM    4 CL7  UNL     1     -35.244   6.339   3.920  1.00 20.00    -0.129 Cl
ENDBRANCH   1   3
BRANCH   1   5
HETATM    5  C3  UNL     1     -32.074   8.105   1.979  1.00 20.00     0.405 C 
HETATM    6  F4  UNL     1     -31.552   8.543   3.145  1.00 20.00    -0.169 F 
HETATM    7  F5  UNL     1     -31.108   7.413   1.331  1.00 20.00    -0.169 F 
HETATM    8  F6  UNL     1     -32.365   9.188   1.223  1.00 20.00    -0.169 F 
ENDBRANCH   1   5
TORSDOF 2
ENDMDL
MODEL 2
REMARK VINA RESULT:      -3.0      2.466      3.373
REMARK  2 active torsions:
REMARK  status: ('A' for Active; 'I' for Inactive)
REMARK    1  A    between atoms: C1_1  and  C2_2 
REMARK    2  A    between atoms: C2_2  and  C3_3 
ROOT
HETATM    1  C2  UNL     1     -33.145   7.248   1.978  1.00 20.00     0.203 C 
HETATM    2 CL8  UNL     1     -33.714   7.355   3.673  1.00 20.00    -0.115 Cl
ENDROOT
BRANCH   1   3
HETATM    3  C1  UNL     1     -31.919   8.134   1.762  1.00 20.00     0.143 C 
HETATM    4 CL7  UNL     1     -32.228   9.418   0.563  1.00 20.00    -0.129 Cl
ENDBRANCH   1   3
BRANCH   1   5
HETATM    5  C3  UNL     1     -32.837   5.797   1.655  1.00 20.00     0.405 C 
HETATM    6  F4  UNL     1     -33.203   4.969   2.657  1.00 20.00    -0.169 F 
HETATM    7  F5  UNL     1     -33.492   5.404   0.538  1.00 20.00    -0.169 F 
HETATM    8  F6  UNL     1     -31.516   5.615   1.427  1.00 20.00    -0.169 F 
ENDBRANCH   1   5
TORSDOF 2
ENDMDL
MODEL 3
REMARK VINA RESULT:      -3.0      2.469      3.379
REMARK  2 active torsions:
REMARK  status: ('A' for Active; 'I' for Inactive)
REMARK    1  A    between atoms: C1_1  and  C2_2 
REMARK    2  A    between atoms: C2_2  and  C3_3 
ROOT
HETATM    1  C2  UNL     1     -33.137   7.262   1.980  1.00 20.00     0.203 C 
HETATM    2 CL8  UNL     1     -33.682   7.366   3.683  1.00 20.00    -0.115 Cl
ENDROOT
BRANCH   1   3
HETATM    3  C1  UNL     1     -31.911   8.144   1.750  1.00 20.00     0.143 C 
HETATM    4 CL7  UNL     1     -32.218   9.407   0.529  1.00 20.00    -0.129 Cl
ENDBRANCH   1   3
BRANCH   1   5
HETATM    5  C3  UNL     1     -32.839   5.811   1.648  1.00 20.00     0.405 C 
HETATM    6  F4  UNL     1     -31.522   5.602   1.435  1.00 20.00    -0.169 F 
HETATM    7  F5  UNL     1     -33.225   4.998   2.659  1.00 20.00    -0.169 F 
HETATM    8  F6  UNL     1     -33.506   5.414   0.541  1.00 20.00    -0.169 F 
ENDBRANCH   1   5
TORSDOF 2
ENDMDL
MODEL 4
REMARK VINA RESULT:      -3.0      2.466      3.461
REMARK  2 active torsions:
REMARK  status: ('A' for Active; 'I' for Inactive)
REMARK    1  A    between atoms: C1_1  and  C2_2 
REMARK    2  A    between atoms: C2_2  and  C3_3 
ROOT
HETATM    1  C2  UNL     1     -33.147   7.243   1.970  1.00 20.00     0.203 C 
HETATM    2 CL8  UNL     1     -33.719   7.343   3.665  1.00 20.00    -0.115 Cl
ENDROOT
BRANCH   1   3
HETATM    3  C1  UNL     1     -31.921   8.129   1.760  1.00 20.00     0.143 C 
HETATM    4 CL7  UNL     1     -32.227   9.417   0.565  1.00 20.00    -0.129 Cl
ENDBRANCH   1   3
BRANCH   1   5
HETATM    5  C3  UNL     1     -32.839   5.793   1.642  1.00 20.00     0.405 C 
HETATM    6  F4  UNL     1     -33.485   5.380   0.530  1.00 20.00    -0.169 F 
HETATM    7  F5  UNL     1     -31.514   5.619   1.433  1.00 20.00    -0.169 F 
HETATM    8  F6  UNL     1     -33.195   4.973   2.657  1.00 20.00    -0.169 F 
ENDBRANCH   1   5
TORSDOF 2
ENDMDL
MODEL 5
REMARK VINA RESULT:      -2.9      3.054      3.767
REMARK  2 active torsions:
REMARK  status: ('A' for Active; 'I' for Inactive)
REMARK    1  A    between atoms: C1_1  and  C2_2 
REMARK    2  A    between atoms: C2_2  and  C3_3 
ROOT
HETATM    1  C2  UNL     1     -33.621   5.709   3.524  1.00 20.00     0.203 C 
HETATM    2 CL8  UNL     1     -33.885   3.975   3.888  1.00 20.00    -0.115 Cl
ENDROOT
BRANCH   1   3
HETATM    3  C1  UNL     1     -33.293   5.908   2.045  1.00 20.00     0.143 C 
HETATM    4 CL7  UNL     1     -32.279   7.350   1.776  1.00 20.00    -0.129 Cl
ENDBRANCH   1   3
BRANCH   1   5
HETATM    5  C3  UNL     1     -34.862   6.488   3.922  1.00 20.00     0.405 C 
HETATM    6  F4  UNL     1     -35.650   5.785   4.763  1.00 20.00    -0.169 F 
HETATM    7  F5  UNL     1     -34.526   7.642   4.543  1.00 20.00    -0.169 F 
HETATM    8  F6  UNL     1     -35.602   6.818   2.839  1.00 20.00    -0.169 F 
ENDBRANCH   1   5
TORSDOF 2
ENDMDL
MODEL 6
REMARK VINA RESULT:      -2.9      3.060      3.852
REMARK  2 active torsions:
REMARK  status: ('A' for Active; 'I' for Inactive)
REMARK    1  A    between atoms: C1_1  and  C2_2 
REMARK    2  A    between atoms: C2_2  and  C3_3 
ROOT
HETATM    1  C2  UNL     1     -33.624   5.707   3.526  1.00 20.00     0.203 C 
HETATM    2 CL8  UNL     1     -33.890   3.974   3.895  1.00 20.00    -0.115 Cl
ENDROOT
BRANCH   1   3
HETATM    3  C1  UNL     1     -33.291   5.900   2.048  1.00 20.00     0.143 C 
HETATM    4 CL7  UNL     1     -32.277   7.342   1.777  1.00 20.00    -0.129 Cl
ENDBRANCH   1   3
BRANCH   1   5
HETATM    5  C3  UNL     1     -34.867   6.487   3.916  1.00 20.00     0.405 C 
HETATM    6  F4  UNL     1     -35.618   6.807   2.840  1.00 20.00    -0.169 F 
HETATM    7  F5  UNL     1     -35.643   5.767   4.758  1.00 20.00    -0.169 F 
HETATM    8  F6  UNL     1     -34.545   7.636   4.553  1.00 20.00    -0.169 F 
ENDBRANCH   1   5
TORSDOF 2
ENDMDL
MODEL 7
REMARK VINA RESULT:      -2.3      3.015      3.672
REMARK  2 active torsions:
REMARK  status: ('A' for Active; 'I' for Inactive)
REMARK    1  A    between atoms: C1_1  and  C2_2 
REMARK    2  A    between atoms: C2_2  and  C3_3 
ROOT
HETATM    1  C2  UNL     1     -33.361   6.456   3.181  1.00 20.00     0.203 C 
HETATM    2 CL8  UNL     1     -33.405   5.543   1.640  1.00 20.00    -0.115 Cl
ENDROOT
BRANCH   1   3
HETATM    3  C1  UNL     1     -32.915   7.898   2.944  1.00 20.00     0.143 C 
HETATM    4 CL7  UNL     1     -31.874   8.045   1.504  1.00 20.00    -0.129 Cl
ENDBRANCH   1   3
BRANCH   1   5
HETATM    5  C3  UNL     1     -34.738   6.405   3.821  1.00 20.00     0.405 C 
HETATM    6  F4  UNL     1     -35.022   5.178   4.308  1.00 20.00    -0.169 F 
HETATM    7  F5  UNL     1     -34.823   7.283   4.846  1.00 20.00    -0.169 F 
HETATM    8  F6  UNL     1     -35.703   6.733   2.933  1.00 20.00    -0.169 F 
ENDBRANCH   1   5
TORSDOF 2
ENDMDL
MODEL 8
REMARK VINA RESULT:      -2.3      3.357      4.129
REMARK  2 active torsions:
REMARK  status: ('A' for Active; 'I' for Inactive)
REMARK    1  A    between atoms: C1_1  and  C2_2 
REMARK    2  A    between atoms: C2_2  and  C3_3 
ROOT
HETATM    1  C2  UNL     1     -34.034   7.368   3.419  1.00 20.00     0.203 C 
HETATM    2 CL8  UNL     1     -33.180   8.093   4.817  1.00 20.00    -0.115 Cl
ENDROOT
BRANCH   1   3
HETATM    3  C1  UNL     1     -33.044   6.704   2.465  1.00 20.00     0.143 C 
HETATM    4 CL7  UNL     1     -31.947   7.890   1.710  1.00 20.00    -0.129 Cl
ENDBRANCH   1   3
BRANCH   1   5
HETATM    5  C3  UNL     1     -35.056   6.369   3.933  1.00 20.00     0.405 C 
HETATM    6  F4  UNL     1     -34.598   5.101   3.866  1.00 20.00    -0.169 F 
HETATM    7  F5  UNL     1     -35.370   6.624   5.224  1.00 20.00    -0.169 F 
HETATM    8  F6  UNL     1     -36.205   6.433   3.223  1.00 20.00    -0.169 F 
ENDBRANCH   1   5
TORSDOF 2
ENDMDL
MODEL 9
REMARK VINA RESULT:      -2.3      2.448      2.740
REMARK  2 active torsions:
REMARK  status: ('A' for Active; 'I' for Inactive)
REMARK    1  A    between atoms: C1_1  and  C2_2 
REMARK    2  A    between atoms: C2_2  and  C3_3 
ROOT
HETATM    1  C2  UNL     1     -32.566   7.201   2.475  1.00 20.00     0.203 C 
HETATM    2 CL8  UNL     1     -32.220   8.489   1.278  1.00 20.00    -0.115 Cl
ENDROOT
BRANCH   1   3
HETATM    3  C1  UNL     1     -33.820   7.534   3.281  1.00 20.00     0.143 C 
HETATM    4 CL7  UNL     1     -33.426   8.059   4.939  1.00 20.00    -0.129 Cl
ENDBRANCH   1   3
BRANCH   1   5
HETATM    5  C3  UNL     1     -32.720   5.880   1.742  1.00 20.00     0.405 C 
HETATM    6  F4  UNL     1     -31.534   5.409   1.300  1.00 20.00    -0.169 F 
HETATM    7  F5  UNL     1     -33.257   4.940   2.555  1.00 20.00    -0.169 F 
HETATM    8  F6  UNL     1     -33.542   6.003   0.676  1.00 20.00    -0.169 F 
ENDBRANCH   1   5
TORSDOF 2
ENDMDL
