MODEL 1
REMARK VINA RESULT:      -1.6      0.000      0.000
REMARK  0 active torsions:
REMARK  status: ('A' for Active; 'I' for Inactive)
ROOT
HETATM    1  C1  UNL     1     -34.089   7.477   4.540  1.00 20.00     0.051 C 
HETATM    2  C2  UNL     1     -34.625   5.027   4.363  1.00 20.00     0.051 C 
HETATM    3  C3  UNL     1     -33.636   6.243   2.397  1.00 20.00     0.051 C 
HETATM    4  C4  UNL     1     -34.541   6.353   3.618  1.00 20.00     0.092 C 
HETATM    5  F5  UNL     1     -35.797   6.660   3.176  1.00 20.00    -0.244 F 
ENDROOT
TORSDOF 0
ENDMDL
MODEL 2
REMARK VINA RESULT:      -1.6      0.014      1.950
REMARK  0 active torsions:
REMARK  status: ('A' for Active; 'I' for Inactive)
ROOT
HETATM    1  C1  UNL     1     -34.617   5.018   4.352  1.00 20.00     0.051 C 
HETATM    2  C2  UNL     1     -33.623   6.244   2.395  1.00 20.00     0.051 C 
HETATM    3  C3  UNL     1     -34.086   7.467   4.541  1.00 20.00     0.051 C 
HETATM    4  C4  UNL     1     -34.533   6.346   3.612  1.00 20.00     0.092 C 
HETATM    5  F5  UNL     1     -35.787   6.652   3.167  1.00 20.00    -0.244 F 
ENDROOT
TORSDOF 0
ENDMDL
MODEL 3
REMARK VINA RESULT:      -1.6      0.153      1.979
REMARK  0 active torsions:
REMARK  status: ('A' for Active; 'I' for Inactive)
ROOT
HETATM    1  C1  UNL     1     -33.613   6.112   2.507  1.00 20.00     0.051 C 
HETATM    2  C2  UNL     1     -34.135   7.496   4.540  1.00 20.00     0.051 C 
HETATM    3  C3  UNL     1     -34.856   5.090   4.437  1.00 20.00     0.051 C 
HETATM    4  C4  UNL     1     -34.602   6.361   3.638  1.00 20.00     0.092 C 
HETATM    5  F5  UNL     1     -35.787   6.741   3.075  1.00 20.00    -0.244 F 
ENDROOT
TORSDOF 0
ENDMDL
MODEL 4
REMARK VINA RESULT:      -1.4      3.077      3.806
REMARK  0 active torsions:
REMARK  status: ('A' for Active; 'I' for Inactive)
ROOT
HETATM    1  C1  UNL     1     -32.215   6.394   1.341  1.00 20.00     0.051 C 
HETATM    2  C2  UNL     1     -33.217   7.856   3.123  1.00 20.00     0.051 C 
HETATM    3  C3  UNL     1     -32.459   8.864   0.949  1.00 20.00     0.051 C 
HETATM    4  C4  UNL     1     -32.210   7.774   1.983  1.00 20.00     0.092 C 
HETATM    5  F5  UNL     1     -30.968   7.981   2.512  1.00 20.00    -0.244 F 
ENDROOT
TORSDOF 0
ENDMDL
MODEL 5
REMARK VINA RESULT:      -1.3      3.088      3.838
REMARK  0 active torsions:
REMARK  status: ('A' for Active; 'I' for Inactive)
ROOT
HETATM    1  C1  UNL     1     -32.455   8.890   0.940  1.00 20.00     0.051 C 
HETATM    2  C2  UNL     1     -32.237   6.414   1.318  1.00 20.00     0.051 C 
HETATM    3  C3  UNL     1     -33.215   7.879   3.111  1.00 20.00     0.051 C 
HETATM    4  C4  UNL     1     -32.214   7.792   1.967  1.00 20.00     0.092 C 
HETATM    5  F5  UNL     1     -30.968   7.982   2.492  1.00 20.00    -0.244 F 
ENDROOT
TORSDOF 0
ENDMDL
MODEL 6
REMARK VINA RESULT:      -1.3      3.102      3.830
REMARK  0 active torsions:
REMARK  status: ('A' for Active; 'I' for Inactive)
ROOT
HETATM    1  C1  UNL     1     -33.166   7.894   3.132  1.00 20.00     0.051 C 
HETATM    2  C2  UNL     1     -32.443   8.880   0.936  1.00 20.00     0.051 C 
HETATM    3  C3  UNL     1     -32.298   6.399   1.308  1.00 20.00     0.051 C 
HETATM    4  C4  UNL     1     -32.207   7.774   1.956  1.00 20.00     0.092 C 
HETATM    5  F5  UNL     1     -30.938   7.920   2.440  1.00 20.00    -0.244 F 
ENDROOT
TORSDOF 0
ENDMDL
MODEL 7
REMARK VINA RESULT:      -1.2      2.090      2.875
REMARK  0 active torsions:
REMARK  status: ('A' for Active; 'I' for Inactive)
ROOT
HETATM    1  C1  UNL     1     -33.670   6.251   3.023  1.00 20.00     0.051 C 
HETATM    2  C2  UNL     1     -31.876   5.250   1.574  1.00 20.00     0.051 C 
HETATM    3  C3  UNL     1     -32.112   7.747   1.740  1.00 20.00     0.051 C 
HETATM    4  C4  UNL     1     -32.844   6.412   1.754  1.00 20.00     0.092 C 
HETATM    5  F5  UNL     1     -33.706   6.401   0.695  1.00 20.00    -0.244 F 
ENDROOT
TORSDOF 0
ENDMDL
MODEL 8
REMARK VINA RESULT:      -1.2      2.096      2.759
REMARK  0 active torsions:
REMARK  status: ('A' for Active; 'I' for Inactive)
ROOT
HETATM    1  C1  UNL     1     -32.089   7.746   1.727  1.00 20.00     0.051 C 
HETATM    2  C2  UNL     1     -33.659   6.271   3.022  1.00 20.00     0.051 C 
HETATM    3  C3  UNL     1     -31.881   5.246   1.571  1.00 20.00     0.051 C 
HETATM    4  C4  UNL     1     -32.835   6.420   1.749  1.00 20.00     0.092 C 
HETATM    5  F5  UNL     1     -33.701   6.413   0.693  1.00 20.00    -0.244 F 
ENDROOT
TORSDOF 0
ENDMDL
MODEL 9
REMARK VINA RESULT:      -1.2      2.101      3.386
REMARK  0 active torsions:
REMARK  status: ('A' for Active; 'I' for Inactive)
ROOT
HETATM    1  C1  UNL     1     -31.894   5.216   1.531  1.00 20.00     0.051 C 
HETATM    2  C2  UNL     1     -32.078   7.718   1.696  1.00 20.00     0.051 C 
HETATM    3  C3  UNL     1     -33.645   6.253   3.006  1.00 20.00     0.051 C 
HETATM    4  C4  UNL     1     -32.835   6.397   1.724  1.00 20.00     0.092 C 
HETATM    5  F5  UNL     1     -33.714   6.402   0.678  1.00 20.00    -0.244 F 
ENDROOT
TORSDOF 0
ENDMDL
