MODEL 1
REMARK VINA RESULT:      -1.8      0.000      0.000
REMARK  2 active torsions:
REMARK  status: ('A' for Active; 'I' for Inactive)
REMARK    1  A    between atoms: C6_6  and  C7_7 
REMARK    2  A    between atoms: C7_7  and  O8_8 
ROOT
HETATM    1  C1  UNL     1     -33.902   3.971   4.256  1.00 20.00     0.015 C 
HETATM    2  C2  UNL     1     -34.040   5.106   3.886  1.00 20.00    -0.079 C 
HETATM    3  C5  UNL     1     -33.836   7.454   4.579  1.00 20.00     0.061 C 
HETATM    4  C7  UNL     1     -34.214   6.502   3.437  1.00 20.00     0.119 C 
ENDROOT
BRANCH   4   5
HETATM    5  C6  UNL     1     -33.417   6.805   2.135  1.00 20.00     0.024 C 
HETATM    6  C3  UNL     1     -32.328   7.871   2.305  1.00 20.00     0.014 C 
HETATM    7  C4  UNL     1     -32.802   5.541   1.510  1.00 20.00     0.014 C 
ENDBRANCH   4   5
BRANCH   4   8
HETATM    8  O8  UNL     1     -35.608   6.707   3.172  1.00 20.00    -0.378 OA
HETATM    9  H20 UNL     1     -36.039   6.766   4.037  1.00 20.00     0.211 HD
ENDBRANCH   4   8
TORSDOF 2
ENDMDL
MODEL 2
REMARK VINA RESULT:      -1.7      2.261      4.171
REMARK  2 active torsions:
REMARK  status: ('A' for Active; 'I' for Inactive)
REMARK    1  A    between atoms: C6_6  and  C7_7 
REMARK    2  A    between atoms: C7_7  and  O8_8 
ROOT
HETATM    1  C1  UNL     1     -32.563   9.917   0.036  1.00 20.00     0.015 C 
HETATM    2  C2  UNL     1     -32.355   9.088   0.879  1.00 20.00    -0.079 C 
HETATM    3  C5  UNL     1     -31.605   8.763   3.195  1.00 20.00     0.061 C 
HETATM    4  C7  UNL     1     -32.093   8.070   1.916  1.00 20.00     0.119 C 
ENDROOT
BRANCH   4   5
HETATM    5  C6  UNL     1     -33.331   7.163   2.178  1.00 20.00     0.024 C 
HETATM    6  C3  UNL     1     -33.105   5.686   1.832  1.00 20.00     0.014 C 
HETATM    7  C4  UNL     1     -33.853   7.278   3.619  1.00 20.00     0.014 C 
ENDBRANCH   4   5
BRANCH   4   8
HETATM    8  O8  UNL     1     -31.015   7.244   1.457  1.00 20.00    -0.378 OA
HETATM    9  H20 UNL     1     -30.557   6.935   2.252  1.00 20.00     0.211 HD
ENDBRANCH   4   8
TORSDOF 2
ENDMDL
MODEL 3
REMARK VINA RESULT:      -1.3      1.296      1.805
REMARK  2 active torsions:
REMARK  status: ('A' for Active; 'I' for Inactive)
REMARK    1  A    between atoms: C6_6  and  C7_7 
REMARK    2  A    between atoms: C7_7  and  O8_8 
ROOT
HETATM    1  C1  UNL     1     -35.318   5.448   4.244  1.00 20.00     0.015 C 
HETATM    2  C2  UNL     1     -34.585   6.346   3.929  1.00 20.00    -0.079 C 
HETATM    3  C5  UNL     1     -33.099   8.092   4.810  1.00 20.00     0.061 C 
HETATM    4  C7  UNL     1     -33.688   7.454   3.545  1.00 20.00     0.119 C 
ENDROOT
BRANCH   4   5
HETATM    5  C6  UNL     1     -32.580   6.998   2.550  1.00 20.00     0.024 C 
HETATM    6  C3  UNL     1     -33.018   5.872   1.605  1.00 20.00     0.014 C 
HETATM    7  C4  UNL     1     -32.008   8.163   1.728  1.00 20.00     0.014 C 
ENDBRANCH   4   5
BRANCH   4   8
HETATM    8  O8  UNL     1     -34.483   8.461   2.906  1.00 20.00    -0.378 OA
HETATM    9  H20 UNL     1     -34.482   8.245   1.962  1.00 20.00     0.211 HD
ENDBRANCH   4   8
TORSDOF 2
ENDMDL
MODEL 4
REMARK VINA RESULT:      -1.3      2.069      3.420
REMARK  2 active torsions:
REMARK  status: ('A' for Active; 'I' for Inactive)
REMARK    1  A    between atoms: C6_6  and  C7_7 
REMARK    2  A    between atoms: C7_7  and  O8_8 
ROOT
HETATM    1  C1  UNL     1     -32.299   5.388   1.151  1.00 20.00     0.015 C 
HETATM    2  C2  UNL     1     -32.396   6.473   1.658  1.00 20.00    -0.079 C 
HETATM    3  C5  UNL     1     -32.736   8.858   1.181  1.00 20.00     0.061 C 
HETATM    4  C7  UNL     1     -32.508   7.809   2.277  1.00 20.00     0.119 C 
ENDROOT
BRANCH   4   5
HETATM    5  C6  UNL     1     -33.613   7.858   3.372  1.00 20.00     0.024 C 
HETATM    6  C3  UNL     1     -34.432   6.566   3.490  1.00 20.00     0.014 C 
HETATM    7  C4  UNL     1     -33.058   8.240   4.754  1.00 20.00     0.014 C 
ENDBRANCH   4   5
BRANCH   4   8
HETATM    8  O8  UNL     1     -31.250   8.117   2.888  1.00 20.00    -0.378 OA
HETATM    9  H20 UNL     1     -31.457   8.606   3.698  1.00 20.00     0.211 HD
ENDBRANCH   4   8
TORSDOF 2
ENDMDL
MODEL 5
REMARK VINA RESULT:      -1.1      1.319      3.442
REMARK  2 active torsions:
REMARK  status: ('A' for Active; 'I' for Inactive)
REMARK    1  A    between atoms: C6_6  and  C7_7 
REMARK    2  A    between atoms: C7_7  and  O8_8 
ROOT
HETATM    1  C1  UNL     1     -31.858   8.544   1.511  1.00 20.00     0.015 C 
HETATM    2  C2  UNL     1     -32.320   7.447   1.676  1.00 20.00    -0.079 C 
HETATM    3  C5  UNL     1     -31.814   5.046   1.554  1.00 20.00     0.061 C 
HETATM    4  C7  UNL     1     -32.886   6.098   1.870  1.00 20.00     0.119 C 
ENDROOT
BRANCH   4   5
HETATM    5  C6  UNL     1     -33.486   5.911   3.295  1.00 20.00     0.024 C 
HETATM    6  C3  UNL     1     -34.644   6.866   3.614  1.00 20.00     0.014 C 
HETATM    7  C4  UNL     1     -33.927   4.464   3.566  1.00 20.00     0.014 C 
ENDBRANCH   4   5
BRANCH   4   8
HETATM    8  O8  UNL     1     -33.936   5.919   0.911  1.00 20.00    -0.378 OA
HETATM    9  H20 UNL     1     -34.003   6.756   0.428  1.00 20.00     0.211 HD
ENDBRANCH   4   8
TORSDOF 2
ENDMDL
MODEL 6
REMARK VINA RESULT:      -1.1      1.438      2.191
REMARK  2 active torsions:
REMARK  status: ('A' for Active; 'I' for Inactive)
REMARK    1  A    between atoms: C6_6  and  C7_7 
REMARK    2  A    between atoms: C7_7  and  O8_8 
ROOT
HETATM    1  C1  UNL     1     -33.137   8.329   5.177  1.00 20.00     0.015 C 
HETATM    2  C2  UNL     1     -33.530   7.547   4.353  1.00 20.00    -0.079 C 
HETATM    3  C5  UNL     1     -35.541   6.699   3.228  1.00 20.00     0.061 C 
HETATM    4  C7  UNL     1     -34.016   6.583   3.347  1.00 20.00     0.119 C 
ENDROOT
BRANCH   4   5
HETATM    5  C6  UNL     1     -33.307   6.760   1.972  1.00 20.00     0.024 C 
HETATM    6  C3  UNL     1     -32.246   7.868   1.956  1.00 20.00     0.014 C 
HETATM    7  C4  UNL     1     -32.689   5.452   1.452  1.00 20.00     0.014 C 
ENDBRANCH   4   5
BRANCH   4   8
HETATM    8  O8  UNL     1     -33.738   5.264   3.832  1.00 20.00    -0.378 OA
HETATM    9  H20 UNL     1     -33.038   5.363   4.494  1.00 20.00     0.211 HD
ENDBRANCH   4   8
TORSDOF 2
ENDMDL
MODEL 7
REMARK VINA RESULT:      -0.6      1.739      2.668
REMARK  2 active torsions:
REMARK  status: ('A' for Active; 'I' for Inactive)
REMARK    1  A    between atoms: C6_6  and  C7_7 
REMARK    2  A    between atoms: C7_7  and  O8_8 
ROOT
HETATM    1  C1  UNL     1     -33.925   4.187   3.883  1.00 20.00     0.015 C 
HETATM    2  C2  UNL     1     -33.511   4.890   3.001  1.00 20.00    -0.079 C 
HETATM    3  C5  UNL     1     -33.660   5.339   0.591  1.00 20.00     0.061 C 
HETATM    4  C7  UNL     1     -33.000   5.749   1.914  1.00 20.00     0.119 C 
ENDROOT
BRANCH   4   5
HETATM    5  C6  UNL     1     -33.194   7.263   2.220  1.00 20.00     0.024 C 
HETATM    6  C3  UNL     1     -33.663   7.554   3.651  1.00 20.00     0.014 C 
HETATM    7  C4  UNL     1     -31.937   8.093   1.913  1.00 20.00     0.014 C 
ENDBRANCH   4   5
BRANCH   4   8
HETATM    8  O8  UNL     1     -31.598   5.491   1.773  1.00 20.00    -0.378 OA
HETATM    9  H20 UNL     1     -31.500   4.527   1.774  1.00 20.00     0.211 HD
ENDBRANCH   4   8
TORSDOF 2
ENDMDL
MODEL 8
REMARK VINA RESULT:      -0.6      1.957      2.958
REMARK  2 active torsions:
REMARK  status: ('A' for Active; 'I' for Inactive)
REMARK    1  A    between atoms: C6_6  and  C7_7 
REMARK    2  A    between atoms: C7_7  and  O8_8 
ROOT
HETATM    1  C1  UNL     1     -34.527   6.526   3.775  1.00 20.00     0.015 C 
HETATM    2  C2  UNL     1     -33.748   6.539   2.861  1.00 20.00    -0.079 C 
HETATM    3  C5  UNL     1     -33.557   6.367   0.419  1.00 20.00     0.061 C 
HETATM    4  C7  UNL     1     -32.792   6.548   1.736  1.00 20.00     0.119 C 
ENDROOT
BRANCH   4   5
HETATM    5  C6  UNL     1     -31.906   7.828   1.727  1.00 20.00     0.024 C 
HETATM    6  C3  UNL     1     -32.338   8.877   0.694  1.00 20.00     0.014 C 
HETATM    7  C4  UNL     1     -31.804   8.486   3.112  1.00 20.00     0.014 C 
ENDBRANCH   4   5
BRANCH   4   8
HETATM    8  O8  UNL     1     -31.937   5.407   1.877  1.00 20.00    -0.378 OA
HETATM    9  H20 UNL     1     -31.634   5.410   2.797  1.00 20.00     0.211 HD
ENDBRANCH   4   8
TORSDOF 2
ENDMDL
MODEL 9
REMARK VINA RESULT:      -0.5      2.457      3.502
REMARK  2 active torsions:
REMARK  status: ('A' for Active; 'I' for Inactive)
REMARK    1  A    between atoms: C6_6  and  C7_7 
REMARK    2  A    between atoms: C7_7  and  O8_8 
ROOT
HETATM    1  C1  UNL     1     -34.141   7.553   3.815  1.00 20.00     0.015 C 
HETATM    2  C2  UNL     1     -33.291   7.710   2.981  1.00 20.00    -0.079 C 
HETATM    3  C5  UNL     1     -31.874   6.538   1.353  1.00 20.00     0.061 C 
HETATM    4  C7  UNL     1     -32.242   7.898   1.960  1.00 20.00     0.119 C 
ENDROOT
BRANCH   4   5
HETATM    5  C6  UNL     1     -32.659   8.931   0.871  1.00 20.00     0.024 C 
HETATM    6  C3  UNL     1     -32.805  10.365   1.396  1.00 20.00     0.014 C 
HETATM    7  C4  UNL     1     -31.716   8.923  -0.343  1.00 20.00     0.014 C 
ENDBRANCH   4   5
BRANCH   4   8
HETATM    8  O8  UNL     1     -31.068   8.387   2.621  1.00 20.00    -0.378 OA
HETATM    9  H20 UNL     1     -30.804   7.696   3.245  1.00 20.00     0.211 HD
ENDBRANCH   4   8
TORSDOF 2
ENDMDL
