MODEL 1
REMARK VINA RESULT:      -2.7      0.000      0.000
REMARK  2 active torsions:
REMARK  status: ('A' for Active; 'I' for Inactive)
REMARK    1  A    between atoms: C2_2  and  C3_3 
REMARK    2  A    between atoms: C3_3  and  O4_4 
ROOT
HETATM    1  C3  UNL     1     -33.949   7.353   3.695  1.00 20.00     0.398 C 
HETATM    2  F6  UNL     1     -33.130   7.756   4.695  1.00 20.00    -0.171 F 
HETATM    3  F7  UNL     1     -34.646   8.439   3.272  1.00 20.00    -0.171 F 
ENDROOT
BRANCH   1   4
HETATM    4  C2  UNL     1     -34.920   6.305   4.191  1.00 20.00     0.367 C 
HETATM    5  F5  UNL     1     -36.080   6.420   3.492  1.00 20.00    -0.223 F 
HETATM    6 CL8  UNL     1     -34.281   4.662   3.960  1.00 20.00    -0.080 Cl
ENDBRANCH   1   4
BRANCH   1   7
HETATM    7  O4  UNL     1     -33.174   6.860   2.608  1.00 20.00    -0.328 OA
HETATM    8  C1  UNL     1     -32.272   7.830   2.095  1.00 20.00     0.208 C 
ENDBRANCH   1   7
TORSDOF 2
ENDMDL
MODEL 2
REMARK VINA RESULT:      -2.7      2.731      3.212
REMARK  2 active torsions:
REMARK  status: ('A' for Active; 'I' for Inactive)
REMARK    1  A    between atoms: C2_2  and  C3_3 
REMARK    2  A    between atoms: C3_3  and  O4_4 
ROOT
HETATM    1  C3  UNL     1     -32.098   8.085   1.782  1.00 20.00     0.398 C 
HETATM    2  F6  UNL     1     -31.045   7.805   0.977  1.00 20.00    -0.171 F 
HETATM    3  F7  UNL     1     -31.614   8.298   3.032  1.00 20.00    -0.171 F 
ENDROOT
BRANCH   1   4
HETATM    4  C2  UNL     1     -33.066   6.923   1.816  1.00 20.00     0.367 C 
HETATM    5  F5  UNL     1     -32.375   5.775   1.587  1.00 20.00    -0.223 F 
HETATM    6 CL8  UNL     1     -33.874   6.792   3.393  1.00 20.00    -0.080 Cl
ENDBRANCH   1   4
BRANCH   1   7
HETATM    7  O4  UNL     1     -32.741   9.273   1.336  1.00 20.00    -0.328 OA
HETATM    8  C1  UNL     1     -32.315   9.672   0.040  1.00 20.00     0.208 C 
ENDBRANCH   1   7
TORSDOF 2
ENDMDL
MODEL 3
REMARK VINA RESULT:      -2.6      1.650      3.040
REMARK  2 active torsions:
REMARK  status: ('A' for Active; 'I' for Inactive)
REMARK    1  A    between atoms: C2_2  and  C3_3 
REMARK    2  A    between atoms: C3_3  and  O4_4 
ROOT
HETATM    1  C3  UNL     1     -33.611   7.441   3.521  1.00 20.00     0.398 C 
HETATM    2  F6  UNL     1     -34.680   8.272   3.517  1.00 20.00    -0.171 F 
HETATM    3  F7  UNL     1     -32.816   7.799   4.562  1.00 20.00    -0.171 F 
ENDROOT
BRANCH   1   4
HETATM    4  C2  UNL     1     -32.830   7.573   2.233  1.00 20.00     0.367 C 
HETATM    5  F5  UNL     1     -31.619   8.124   2.513  1.00 20.00    -0.223 F 
HETATM    6 CL8  UNL     1     -32.568   5.993   1.462  1.00 20.00    -0.080 Cl
ENDBRANCH   1   4
BRANCH   1   7
HETATM    7  O4  UNL     1     -34.045   6.101   3.721  1.00 20.00    -0.328 OA
HETATM    8  C1  UNL     1     -35.406   6.021   4.120  1.00 20.00     0.208 C 
ENDBRANCH   1   7
TORSDOF 2
ENDMDL
MODEL 4
REMARK VINA RESULT:      -2.3      2.345      3.269
REMARK  2 active torsions:
REMARK  status: ('A' for Active; 'I' for Inactive)
REMARK    1  A    between atoms: C2_2  and  C3_3 
REMARK    2  A    between atoms: C3_3  and  O4_4 
ROOT
HETATM    1  C3  UNL     1     -33.425   7.511   3.332  1.00 20.00     0.398 C 
HETATM    2  F6  UNL     1     -34.375   8.423   3.016  1.00 20.00    -0.171 F 
HETATM    3  F7  UNL     1     -32.910   7.854   4.539  1.00 20.00    -0.171 F 
ENDROOT
BRANCH   1   4
HETATM    4  C2  UNL     1     -32.318   7.518   2.301  1.00 20.00     0.367 C 
HETATM    5  F5  UNL     1     -32.411   6.385   1.556  1.00 20.00    -0.223 F 
HETATM    6 CL8  UNL     1     -32.443   8.920   1.216  1.00 20.00    -0.080 Cl
ENDBRANCH   1   4
BRANCH   1   7
HETATM    7  O4  UNL     1     -34.015   6.221   3.440  1.00 20.00    -0.328 OA
HETATM    8  C1  UNL     1     -35.312   6.259   4.020  1.00 20.00     0.208 C 
ENDBRANCH   1   7
TORSDOF 2
ENDMDL
MODEL 5
REMARK VINA RESULT:      -2.3      3.072      3.865
REMARK  2 active torsions:
REMARK  status: ('A' for Active; 'I' for Inactive)
REMARK    1  A    between atoms: C2_2  and  C3_3 
REMARK    2  A    between atoms: C3_3  and  O4_4 
ROOT
HETATM    1  C3  UNL     1     -32.763   6.549   1.727  1.00 20.00     0.398 C 
HETATM    2  F6  UNL     1     -31.739   5.691   1.503  1.00 20.00    -0.171 F 
HETATM    3  F7  UNL     1     -33.542   6.558   0.615  1.00 20.00    -0.171 F 
ENDROOT
BRANCH   1   4
HETATM    4  C2  UNL     1     -32.242   7.946   1.978  1.00 20.00     0.367 C 
HETATM    5  F5  UNL     1     -30.924   7.867   2.300  1.00 20.00    -0.223 F 
HETATM    6 CL8  UNL     1     -32.413   8.976   0.540  1.00 20.00    -0.080 Cl
ENDBRANCH   1   4
BRANCH   1   7
HETATM    7  O4  UNL     1     -33.544   6.089   2.824  1.00 20.00    -0.328 OA
HETATM    8  C1  UNL     1     -34.044   7.152   3.623  1.00 20.00     0.208 C 
ENDBRANCH   1   7
TORSDOF 2
ENDMDL
MODEL 6
REMARK VINA RESULT:      -2.2      2.479      2.756
REMARK  2 active torsions:
REMARK  status: ('A' for Active; 'I' for Inactive)
REMARK    1  A    between atoms: C2_2  and  C3_3 
REMARK    2  A    between atoms: C3_3  and  O4_4 
ROOT
HETATM    1  C3  UNL     1     -33.007   6.358   1.952  1.00 20.00     0.398 C 
HETATM    2  F6  UNL     1     -33.562   6.472   0.721  1.00 20.00    -0.171 F 
HETATM    3  F7  UNL     1     -32.154   5.303   1.922  1.00 20.00    -0.171 F 
ENDROOT
BRANCH   1   4
HETATM    4  C2  UNL     1     -34.073   6.104   2.995  1.00 20.00     0.367 C 
HETATM    5  F5  UNL     1     -33.740   4.987   3.693  1.00 20.00    -0.223 F 
HETATM    6 CL8  UNL     1     -34.210   7.463   4.132  1.00 20.00    -0.080 Cl
ENDBRANCH   1   4
BRANCH   1   7
HETATM    7  O4  UNL     1     -32.265   7.534   2.254  1.00 20.00    -0.328 OA
HETATM    8  C1  UNL     1     -32.020   8.336   1.107  1.00 20.00     0.208 C 
ENDBRANCH   1   7
TORSDOF 2
ENDMDL
MODEL 7
REMARK VINA RESULT:      -2.2      1.902      3.048
REMARK  2 active torsions:
REMARK  status: ('A' for Active; 'I' for Inactive)
REMARK    1  A    between atoms: C2_2  and  C3_3 
REMARK    2  A    between atoms: C3_3  and  O4_4 
ROOT
HETATM    1  C3  UNL     1     -34.914   6.457   3.815  1.00 20.00     0.398 C 
HETATM    2  F6  UNL     1     -36.006   6.584   3.024  1.00 20.00    -0.171 F 
HETATM    3  F7  UNL     1     -35.346   6.169   5.069  1.00 20.00    -0.171 F 
ENDROOT
BRANCH   1   4
HETATM    4  C2  UNL     1     -34.127   7.748   3.846  1.00 20.00     0.367 C 
HETATM    5  F5  UNL     1     -33.651   7.938   5.105  1.00 20.00    -0.223 F 
HETATM    6 CL8  UNL     1     -32.750   7.702   2.722  1.00 20.00    -0.080 Cl
ENDBRANCH   1   4
BRANCH   1   7
HETATM    7  O4  UNL     1     -34.109   5.378   3.353  1.00 20.00    -0.328 OA
HETATM    8  C1  UNL     1     -34.158   4.251   4.216  1.00 20.00     0.208 C 
ENDBRANCH   1   7
TORSDOF 2
ENDMDL
MODEL 8
REMARK VINA RESULT:      -1.9      2.497      2.986
REMARK  2 active torsions:
REMARK  status: ('A' for Active; 'I' for Inactive)
REMARK    1  A    between atoms: C2_2  and  C3_3 
REMARK    2  A    between atoms: C3_3  and  O4_4 
ROOT
HETATM    1  C3  UNL     1     -31.980   8.038   2.006  1.00 20.00     0.398 C 
HETATM    2  F6  UNL     1     -31.078   7.646   1.076  1.00 20.00    -0.171 F 
HETATM    3  F7  UNL     1     -31.297   8.626   3.020  1.00 20.00    -0.171 F 
ENDROOT
BRANCH   1   4
HETATM    4  C2  UNL     1     -32.739   6.846   2.547  1.00 20.00     0.367 C 
HETATM    5  F5  UNL     1     -33.937   7.273   3.025  1.00 20.00    -0.223 F 
HETATM    6 CL8  UNL     1     -33.035   5.632   1.283  1.00 20.00    -0.080 Cl
ENDBRANCH   1   4
BRANCH   1   7
HETATM    7  O4  UNL     1     -32.868   8.995   1.441  1.00 20.00    -0.328 OA
HETATM    8  C1  UNL     1     -32.308   9.664   0.319  1.00 20.00     0.208 C 
ENDBRANCH   1   7
TORSDOF 2
ENDMDL
MODEL 9
REMARK VINA RESULT:      -1.8      2.222      2.547
REMARK  2 active torsions:
REMARK  status: ('A' for Active; 'I' for Inactive)
REMARK    1  A    between atoms: C2_2  and  C3_3 
REMARK    2  A    between atoms: C3_3  and  O4_4 
ROOT
HETATM    1  C3  UNL     1     -32.829   6.183   1.868  1.00 20.00     0.398 C 
HETATM    2  F6  UNL     1     -33.735   6.431   0.893  1.00 20.00    -0.171 F 
HETATM    3  F7  UNL     1     -32.264   4.977   1.608  1.00 20.00    -0.171 F 
ENDROOT
BRANCH   1   4
HETATM    4  C2  UNL     1     -33.504   6.133   3.221  1.00 20.00     0.367 C 
HETATM    5  F5  UNL     1     -34.667   6.833   3.153  1.00 20.00    -0.223 F 
HETATM    6 CL8  UNL     1     -33.876   4.463   3.703  1.00 20.00    -0.080 Cl
ENDBRANCH   1   4
BRANCH   1   7
HETATM    7  O4  UNL     1     -31.811   7.177   1.842  1.00 20.00    -0.328 OA
HETATM    8  C1  UNL     1     -32.286   8.435   1.381  1.00 20.00     0.208 C 
ENDBRANCH   1   7
TORSDOF 2
ENDMDL
