MODEL 1
REMARK VINA RESULT:      -0.6      0.000      0.000
REMARK  2 active torsions:
REMARK  status: ('A' for Active; 'I' for Inactive)
REMARK    1  A    between atoms: C1_1  and  C6_6 
REMARK    2  A    between atoms: C6_6  and  O8_8 
ROOT
HETATM    1  C3  UNL     1     -33.497   7.669   4.475  1.00 20.00     0.054 C 
HETATM    2  C4  UNL     1     -35.393   6.956   2.996  1.00 20.00     0.054 C 
HETATM    3  C6  UNL     1     -33.956   6.664   3.418  1.00 20.00     0.112 C 
ENDROOT
BRANCH   3   4
HETATM    4  C1  UNL     1     -33.036   6.690   2.192  1.00 20.00     0.156 C 
HETATM    5  C2  UNL     1     -32.241   7.948   1.932  1.00 20.00     0.094 C 
HETATM    6  O7  UNL     1     -32.912   5.714   1.450  1.00 20.00    -0.295 OA
ENDBRANCH   3   4
BRANCH   3   7
HETATM    7  O8  UNL     1     -33.916   5.364   3.992  1.00 20.00    -0.378 OA
HETATM    8  C5  UNL     1     -35.185   4.981   4.504  1.00 20.00     0.203 C 
ENDBRANCH   3   7
TORSDOF 2
ENDMDL
MODEL 2
REMARK VINA RESULT:      -0.4      1.191      3.258
REMARK  2 active torsions:
REMARK  status: ('A' for Active; 'I' for Inactive)
REMARK    1  A    between atoms: C1_1  and  C6_6 
REMARK    2  A    between atoms: C6_6  and  O8_8 
ROOT
HETATM    1  C3  UNL     1     -35.764   6.960   3.000  1.00 20.00     0.054 C 
HETATM    2  C4  UNL     1     -33.844   7.360   4.563  1.00 20.00     0.054 C 
HETATM    3  C6  UNL     1     -34.456   6.393   3.553  1.00 20.00     0.112 C 
ENDROOT
BRANCH   3   4
HETATM    4  C1  UNL     1     -34.678   5.025   4.208  1.00 20.00     0.156 C 
HETATM    5  C2  UNL     1     -33.593   3.985   4.057  1.00 20.00     0.094 C 
HETATM    6  O7  UNL     1     -35.689   4.775   4.866  1.00 20.00    -0.295 OA
ENDBRANCH   3   4
BRANCH   3   7
HETATM    7  O8  UNL     1     -33.544   6.242   2.473  1.00 20.00    -0.378 OA
HETATM    8  C5  UNL     1     -32.729   7.394   2.312  1.00 20.00     0.203 C 
ENDBRANCH   3   7
TORSDOF 2
ENDMDL
MODEL 3
REMARK VINA RESULT:      -0.4      1.755      3.746
REMARK  2 active torsions:
REMARK  status: ('A' for Active; 'I' for Inactive)
REMARK    1  A    between atoms: C1_1  and  C6_6 
REMARK    2  A    between atoms: C6_6  and  O8_8 
ROOT
HETATM    1  C3  UNL     1     -31.164   8.140   2.579  1.00 20.00     0.054 C 
HETATM    2  C4  UNL     1     -32.547   6.295   1.593  1.00 20.00     0.054 C 
HETATM    3  C6  UNL     1     -32.585   7.650   2.293  1.00 20.00     0.112 C 
ENDROOT
BRANCH   3   4
HETATM    4  C1  UNL     1     -33.406   7.550   3.583  1.00 20.00     0.156 C 
HETATM    5  C2  UNL     1     -34.617   6.647   3.582  1.00 20.00     0.094 C 
HETATM    6  O7  UNL     1     -33.085   8.155   4.608  1.00 20.00    -0.295 OA
ENDBRANCH   3   4
BRANCH   3   7
HETATM    7  O8  UNL     1     -33.211   8.583   1.423  1.00 20.00    -0.378 OA
HETATM    8  C5  UNL     1     -32.256   9.324   0.677  1.00 20.00     0.203 C 
ENDBRANCH   3   7
TORSDOF 2
ENDMDL
MODEL 4
REMARK VINA RESULT:      -0.3      1.355      3.303
REMARK  2 active torsions:
REMARK  status: ('A' for Active; 'I' for Inactive)
REMARK    1  A    between atoms: C1_1  and  C6_6 
REMARK    2  A    between atoms: C6_6  and  O8_8 
ROOT
HETATM    1  C3  UNL     1     -31.812   5.438   1.831  1.00 20.00     0.054 C 
HETATM    2  C4  UNL     1     -33.964   6.201   0.793  1.00 20.00     0.054 C 
HETATM    3  C6  UNL     1     -33.108   6.220   2.056  1.00 20.00     0.112 C 
ENDROOT
BRANCH   3   4
HETATM    4  C1  UNL     1     -33.902   5.647   3.235  1.00 20.00     0.156 C 
HETATM    5  C2  UNL     1     -34.934   6.535   3.889  1.00 20.00     0.094 C 
HETATM    6  O7  UNL     1     -33.739   4.491   3.630  1.00 20.00    -0.295 OA
ENDBRANCH   3   4
BRANCH   3   7
HETATM    7  O8  UNL     1     -32.769   7.569   2.344  1.00 20.00    -0.378 OA
HETATM    8  C5  UNL     1     -31.755   8.051   1.473  1.00 20.00     0.203 C 
ENDBRANCH   3   7
TORSDOF 2
ENDMDL
MODEL 5
REMARK VINA RESULT:      -0.2      1.692      3.702
REMARK  2 active torsions:
REMARK  status: ('A' for Active; 'I' for Inactive)
REMARK    1  A    between atoms: C1_1  and  C6_6 
REMARK    2  A    between atoms: C6_6  and  O8_8 
ROOT
HETATM    1  C3  UNL     1     -31.570   8.726   3.337  1.00 20.00     0.054 C 
HETATM    2  C4  UNL     1     -31.262   7.486   1.179  1.00 20.00     0.054 C 
HETATM    3  C6  UNL     1     -32.281   8.079   2.147  1.00 20.00     0.112 C 
ENDROOT
BRANCH   3   4
HETATM    4  C1  UNL     1     -33.257   6.991   2.611  1.00 20.00     0.156 C 
HETATM    5  C2  UNL     1     -34.162   7.304   3.778  1.00 20.00     0.094 C 
HETATM    6  O7  UNL     1     -33.336   5.902   2.040  1.00 20.00    -0.295 OA
ENDBRANCH   3   4
BRANCH   3   7
HETATM    7  O8  UNL     1     -33.011   9.087   1.462  1.00 20.00    -0.378 OA
HETATM    8  C5  UNL     1     -32.281   9.602   0.358  1.00 20.00     0.203 C 
ENDBRANCH   3   7
TORSDOF 2
ENDMDL
MODEL 6
REMARK VINA RESULT:       0.0      1.336      3.233
REMARK  2 active torsions:
REMARK  status: ('A' for Active; 'I' for Inactive)
REMARK    1  A    between atoms: C1_1  and  C6_6 
REMARK    2  A    between atoms: C6_6  and  O8_8 
ROOT
HETATM    1  C3  UNL     1     -33.732   6.190   0.616  1.00 20.00     0.054 C 
HETATM    2  C4  UNL     1     -32.256   7.817   1.826  1.00 20.00     0.054 C 
HETATM    3  C6  UNL     1     -32.853   6.413   1.848  1.00 20.00     0.112 C 
ENDROOT
BRANCH   3   4
HETATM    4  C1  UNL     1     -33.650   6.205   3.141  1.00 20.00     0.156 C 
HETATM    5  C2  UNL     1     -34.114   7.431   3.891  1.00 20.00     0.094 C 
HETATM    6  O7  UNL     1     -33.939   5.080   3.553  1.00 20.00    -0.295 OA
ENDBRANCH   3   4
BRANCH   3   7
HETATM    7  O8  UNL     1     -31.787   5.475   1.812  1.00 20.00    -0.378 OA
HETATM    8  C5  UNL     1     -31.818   4.694   0.625  1.00 20.00     0.203 C 
ENDBRANCH   3   7
TORSDOF 2
ENDMDL
MODEL 7
REMARK VINA RESULT:       0.0      0.967      1.885
REMARK  2 active torsions:
REMARK  status: ('A' for Active; 'I' for Inactive)
REMARK    1  A    between atoms: C1_1  and  C6_6 
REMARK    2  A    between atoms: C6_6  and  O8_8 
ROOT
HETATM    1  C3  UNL     1     -35.199   6.830   3.153  1.00 20.00     0.054 C 
HETATM    2  C4  UNL     1     -33.771   4.868   3.784  1.00 20.00     0.054 C 
HETATM    3  C6  UNL     1     -33.767   6.315   3.301  1.00 20.00     0.112 C 
ENDROOT
BRANCH   3   4
HETATM    4  C1  UNL     1     -33.000   6.422   1.977  1.00 20.00     0.156 C 
HETATM    5  C2  UNL     1     -32.190   7.673   1.729  1.00 20.00     0.094 C 
HETATM    6  O7  UNL     1     -33.009   5.514   1.145  1.00 20.00    -0.295 OA
ENDBRANCH   3   4
BRANCH   3   7
HETATM    7  O8  UNL     1     -33.106   7.108   4.278  1.00 20.00    -0.378 OA
HETATM    8  C5  UNL     1     -33.981   8.074   4.845  1.00 20.00     0.203 C 
ENDBRANCH   3   7
TORSDOF 2
ENDMDL
MODEL 8
REMARK VINA RESULT:       0.0      1.593      3.121
REMARK  2 active torsions:
REMARK  status: ('A' for Active; 'I' for Inactive)
REMARK    1  A    between atoms: C1_1  and  C6_6 
REMARK    2  A    between atoms: C6_6  and  O8_8 
ROOT
HETATM    1  C3  UNL     1     -33.399   5.730   2.094  1.00 20.00     0.054 C 
HETATM    2  C4  UNL     1     -35.361   6.904   3.125  1.00 20.00     0.054 C 
HETATM    3  C6  UNL     1     -34.117   6.066   3.403  1.00 20.00     0.112 C 
ENDROOT
BRANCH   3   4
HETATM    4  C1  UNL     1     -34.503   4.793   4.165  1.00 20.00     0.156 C 
HETATM    5  C2  UNL     1     -33.519   3.647   4.173  1.00 20.00     0.094 C 
HETATM    6  O7  UNL     1     -35.565   4.702   4.783  1.00 20.00    -0.295 OA
ENDBRANCH   3   4
BRANCH   3   7
HETATM    7  O8  UNL     1     -33.235   6.833   4.211  1.00 20.00    -0.378 OA
HETATM    8  C5  UNL     1     -33.818   8.072   4.590  1.00 20.00     0.203 C 
ENDBRANCH   3   7
TORSDOF 2
ENDMDL
MODEL 9
REMARK VINA RESULT:       0.1      1.383      2.072
REMARK  2 active torsions:
REMARK  status: ('A' for Active; 'I' for Inactive)
REMARK    1  A    between atoms: C1_1  and  C6_6 
REMARK    2  A    between atoms: C6_6  and  O8_8 
ROOT
HETATM    1  C3  UNL     1     -35.371   6.228   3.688  1.00 20.00     0.054 C 
HETATM    2  C4  UNL     1     -33.714   5.784   1.858  1.00 20.00     0.054 C 
HETATM    3  C6  UNL     1     -33.886   6.165   3.325  1.00 20.00     0.112 C 
ENDROOT
BRANCH   3   4
HETATM    4  C1  UNL     1     -33.192   7.503   3.603  1.00 20.00     0.156 C 
HETATM    5  C2  UNL     1     -32.309   8.079   2.522  1.00 20.00     0.094 C 
HETATM    6  O7  UNL     1     -33.362   8.117   4.658  1.00 20.00    -0.295 OA
ENDBRANCH   3   4
BRANCH   3   7
HETATM    7  O8  UNL     1     -33.276   5.158   4.121  1.00 20.00    -0.378 OA
HETATM    8  C5  UNL     1     -34.021   3.949   4.095  1.00 20.00     0.203 C 
ENDBRANCH   3   7
TORSDOF 2
ENDMDL
