MODEL 1
REMARK VINA RESULT:      -3.1      0.000      0.000
REMARK  2 active torsions:
REMARK  status: ('A' for Active; 'I' for Inactive)
REMARK    1  A    between atoms: C1_1  and  C2_2 
REMARK    2  A    between atoms: C1_1  and  C3_3 
ROOT
HETATM    1  C1  UNL     1     -33.664   5.793   3.277  1.00 20.00     0.153 C 
ENDROOT
BRANCH   1   2
HETATM    2  C2  UNL     1     -33.186   6.384   1.951  1.00 20.00     0.186 C 
HETATM    3 CL7  UNL     1     -32.108   5.275   1.067  1.00 20.00    -0.108 Cl
HETATM    4 CL8  UNL     1     -32.317   7.915   2.250  1.00 20.00    -0.108 Cl
ENDBRANCH   1   2
BRANCH   1   5
HETATM    5  C3  UNL     1     -34.885   6.483   3.858  1.00 20.00     0.390 C 
HETATM    6  F4  UNL     1     -34.539   7.580   4.564  1.00 20.00    -0.171 F 
HETATM    7  F5  UNL     1     -35.762   6.857   2.906  1.00 20.00    -0.171 F 
HETATM    8  F6  UNL     1     -35.537   5.647   4.699  1.00 20.00    -0.171 F 
ENDBRANCH   1   5
TORSDOF 2
ENDMDL
MODEL 2
REMARK VINA RESULT:      -3.1      0.020      1.334
REMARK  2 active torsions:
REMARK  status: ('A' for Active; 'I' for Inactive)
REMARK    1  A    between atoms: C1_1  and  C2_2 
REMARK    2  A    between atoms: C1_1  and  C3_3 
ROOT
HETATM    1  C1  UNL     1     -33.652   5.800   3.284  1.00 20.00     0.153 C 
ENDROOT
BRANCH   1   2
HETATM    2  C2  UNL     1     -33.184   6.390   1.954  1.00 20.00     0.186 C 
HETATM    3 CL7  UNL     1     -32.116   5.278   1.060  1.00 20.00    -0.108 Cl
HETATM    4 CL8  UNL     1     -32.310   7.919   2.244  1.00 20.00    -0.108 Cl
ENDBRANCH   1   2
BRANCH   1   5
HETATM    5  C3  UNL     1     -34.883   6.474   3.862  1.00 20.00     0.390 C 
HETATM    6  F4  UNL     1     -35.732   6.863   2.886  1.00 20.00    -0.171 F 
HETATM    7  F5  UNL     1     -35.557   5.671   4.708  1.00 20.00    -0.171 F 
HETATM    8  F6  UNL     1     -34.526   7.580   4.555  1.00 20.00    -0.171 F 
ENDBRANCH   1   5
TORSDOF 2
ENDMDL
MODEL 3
REMARK VINA RESULT:      -3.0      3.078      3.746
REMARK  2 active torsions:
REMARK  status: ('A' for Active; 'I' for Inactive)
REMARK    1  A    between atoms: C1_1  and  C2_2 
REMARK    2  A    between atoms: C1_1  and  C3_3 
ROOT
HETATM    1  C1  UNL     1     -33.270   5.593   2.925  1.00 20.00     0.153 C 
ENDROOT
BRANCH   1   2
HETATM    2  C2  UNL     1     -34.424   6.464   3.419  1.00 20.00     0.186 C 
HETATM    3 CL7  UNL     1     -33.857   7.860   4.371  1.00 20.00    -0.108 Cl
HETATM    4 CL8  UNL     1     -35.529   5.490   4.429  1.00 20.00    -0.108 Cl
ENDBRANCH   1   2
BRANCH   1   5
HETATM    5  C3  UNL     1     -32.707   6.016   1.580  1.00 20.00     0.390 C 
HETATM    6  F4  UNL     1     -32.389   7.329   1.573  1.00 20.00    -0.171 F 
HETATM    7  F5  UNL     1     -31.605   5.317   1.243  1.00 20.00    -0.171 F 
HETATM    8  F6  UNL     1     -33.625   5.815   0.606  1.00 20.00    -0.171 F 
ENDBRANCH   1   5
TORSDOF 2
ENDMDL
MODEL 4
REMARK VINA RESULT:      -3.0      3.080      3.813
REMARK  2 active torsions:
REMARK  status: ('A' for Active; 'I' for Inactive)
REMARK    1  A    between atoms: C1_1  and  C2_2 
REMARK    2  A    between atoms: C1_1  and  C3_3 
ROOT
HETATM    1  C1  UNL     1     -33.273   5.612   2.932  1.00 20.00     0.153 C 
ENDROOT
BRANCH   1   2
HETATM    2  C2  UNL     1     -34.426   6.482   3.433  1.00 20.00     0.186 C 
HETATM    3 CL7  UNL     1     -33.857   7.866   4.400  1.00 20.00    -0.108 Cl
HETATM    4 CL8  UNL     1     -35.535   5.500   4.430  1.00 20.00    -0.108 Cl
ENDBRANCH   1   2
BRANCH   1   5
HETATM    5  C3  UNL     1     -32.718   6.037   1.584  1.00 20.00     0.390 C 
HETATM    6  F4  UNL     1     -33.622   5.847   0.600  1.00 20.00    -0.171 F 
HETATM    7  F5  UNL     1     -32.348   7.333   1.569  1.00 20.00    -0.171 F 
HETATM    8  F6  UNL     1     -31.624   5.302   1.278  1.00 20.00    -0.171 F 
ENDBRANCH   1   5
TORSDOF 2
ENDMDL
MODEL 5
REMARK VINA RESULT:      -3.0      3.079      3.775
REMARK  2 active torsions:
REMARK  status: ('A' for Active; 'I' for Inactive)
REMARK    1  A    between atoms: C1_1  and  C2_2 
REMARK    2  A    between atoms: C1_1  and  C3_3 
ROOT
HETATM    1  C1  UNL     1     -33.260   5.607   2.936  1.00 20.00     0.153 C 
ENDROOT
BRANCH   1   2
HETATM    2  C2  UNL     1     -34.413   6.482   3.428  1.00 20.00     0.186 C 
HETATM    3 CL7  UNL     1     -33.844   7.866   4.397  1.00 20.00    -0.108 Cl
HETATM    4 CL8  UNL     1     -35.532   5.507   4.420  1.00 20.00    -0.108 Cl
ENDBRANCH   1   2
BRANCH   1   5
HETATM    5  C3  UNL     1     -32.714   6.009   1.578  1.00 20.00     0.390 C 
HETATM    6  F4  UNL     1     -31.610   5.298   1.263  1.00 20.00    -0.171 F 
HETATM    7  F5  UNL     1     -33.617   5.839   0.593  1.00 20.00    -0.171 F 
HETATM    8  F6  UNL     1     -32.367   7.318   1.584  1.00 20.00    -0.171 F 
ENDBRANCH   1   5
TORSDOF 2
ENDMDL
MODEL 6
REMARK VINA RESULT:      -2.8      3.335      4.020
REMARK  2 active torsions:
REMARK  status: ('A' for Active; 'I' for Inactive)
REMARK    1  A    between atoms: C1_1  and  C2_2 
REMARK    2  A    between atoms: C1_1  and  C3_3 
ROOT
HETATM    1  C1  UNL     1     -33.106   6.834   2.650  1.00 20.00     0.153 C 
ENDROOT
BRANCH   1   2
HETATM    2  C2  UNL     1     -34.153   7.430   3.591  1.00 20.00     0.186 C 
HETATM    3 CL7  UNL     1     -33.429   8.063   5.092  1.00 20.00    -0.108 Cl
HETATM    4 CL8  UNL     1     -35.362   6.187   4.016  1.00 20.00    -0.108 Cl
ENDBRANCH   1   2
BRANCH   1   5
HETATM    5  C3  UNL     1     -32.124   7.850   2.095  1.00 20.00     0.390 C 
HETATM    6  F4  UNL     1     -32.758   8.809   1.386  1.00 20.00    -0.171 F 
HETATM    7  F5  UNL     1     -31.407   8.451   3.065  1.00 20.00    -0.171 F 
HETATM    8  F6  UNL     1     -31.246   7.243   1.263  1.00 20.00    -0.171 F 
ENDBRANCH   1   5
TORSDOF 2
ENDMDL
MODEL 7
REMARK VINA RESULT:      -2.8      3.327      3.947
REMARK  2 active torsions:
REMARK  status: ('A' for Active; 'I' for Inactive)
REMARK    1  A    between atoms: C1_1  and  C2_2 
REMARK    2  A    between atoms: C1_1  and  C3_3 
ROOT
HETATM    1  C1  UNL     1     -33.101   6.834   2.647  1.00 20.00     0.153 C 
ENDROOT
BRANCH   1   2
HETATM    2  C2  UNL     1     -34.146   7.431   3.589  1.00 20.00     0.186 C 
HETATM    3 CL7  UNL     1     -33.423   8.053   5.094  1.00 20.00    -0.108 Cl
HETATM    4 CL8  UNL     1     -35.364   6.194   4.005  1.00 20.00    -0.108 Cl
ENDBRANCH   1   2
BRANCH   1   5
HETATM    5  C3  UNL     1     -32.130   7.851   2.076  1.00 20.00     0.390 C 
HETATM    6  F4  UNL     1     -31.239   7.267   1.247  1.00 20.00    -0.171 F 
HETATM    7  F5  UNL     1     -32.758   8.830   1.394  1.00 20.00    -0.171 F 
HETATM    8  F6  UNL     1     -31.432   8.441   3.074  1.00 20.00    -0.171 F 
ENDBRANCH   1   5
TORSDOF 2
ENDMDL
MODEL 8
REMARK VINA RESULT:      -2.7      0.904      2.023
REMARK  2 active torsions:
REMARK  status: ('A' for Active; 'I' for Inactive)
REMARK    1  A    between atoms: C1_1  and  C2_2 
REMARK    2  A    between atoms: C1_1  and  C3_3 
ROOT
HETATM    1  C1  UNL     1     -34.059   6.863   2.304  1.00 20.00     0.153 C 
ENDROOT
BRANCH   1   2
HETATM    2  C2  UNL     1     -32.536   6.838   2.173  1.00 20.00     0.186 C 
HETATM    3 CL7  UNL     1     -31.901   8.309   1.395  1.00 20.00    -0.108 Cl
HETATM    4 CL8  UNL     1     -32.034   5.417   1.216  1.00 20.00    -0.108 Cl
ENDBRANCH   1   2
BRANCH   1   5
HETATM    5  C3  UNL     1     -34.568   6.507   3.689  1.00 20.00     0.390 C 
HETATM    6  F4  UNL     1     -34.091   5.311   4.093  1.00 20.00    -0.171 F 
HETATM    7  F5  UNL     1     -34.227   7.428   4.611  1.00 20.00    -0.171 F 
HETATM    8  F6  UNL     1     -35.919   6.425   3.682  1.00 20.00    -0.171 F 
ENDBRANCH   1   5
TORSDOF 2
ENDMDL
MODEL 9
REMARK VINA RESULT:      -2.7      0.913      2.104
REMARK  2 active torsions:
REMARK  status: ('A' for Active; 'I' for Inactive)
REMARK    1  A    between atoms: C1_1  and  C2_2 
REMARK    2  A    between atoms: C1_1  and  C3_3 
ROOT
HETATM    1  C1  UNL     1     -34.058   6.877   2.308  1.00 20.00     0.153 C 
ENDROOT
BRANCH   1   2
HETATM    2  C2  UNL     1     -32.535   6.839   2.174  1.00 20.00     0.186 C 
HETATM    3 CL7  UNL     1     -31.889   8.307   1.399  1.00 20.00    -0.108 Cl
HETATM    4 CL8  UNL     1     -32.048   5.417   1.211  1.00 20.00    -0.108 Cl
ENDBRANCH   1   2
BRANCH   1   5
HETATM    5  C3  UNL     1     -34.568   6.488   3.684  1.00 20.00     0.390 C 
HETATM    6  F4  UNL     1     -35.916   6.413   3.704  1.00 20.00    -0.171 F 
HETATM    7  F5  UNL     1     -34.076   5.303   4.095  1.00 20.00    -0.171 F 
HETATM    8  F6  UNL     1     -34.198   7.416   4.597  1.00 20.00    -0.171 F 
ENDBRANCH   1   5
TORSDOF 2
ENDMDL
