MODEL 1
REMARK VINA RESULT:       0.9      0.000      0.000
REMARK  1 active torsions:
REMARK  status: ('A' for Active; 'I' for Inactive)
REMARK    1  A    between atoms: C5_5  and  O10_10 
ROOT
HETATM    1  C1  UNL     1     -33.889   5.453   2.460  1.00 20.00     0.007 C 
HETATM    2  C2  UNL     1     -34.102   6.462   3.321  1.00 20.00    -0.084 C 
HETATM    3  C3  UNL     1     -33.161   7.638   3.427  1.00 20.00     0.042 C 
HETATM    4  C4  UNL     1     -31.631   6.434   1.818  1.00 20.00     0.045 C 
HETATM    5  C5  UNL     1     -32.698   5.363   1.552  1.00 20.00     0.142 C 
HETATM    6  C6  UNL     1     -32.218   7.812   2.209  1.00 20.00    -0.042 C 
HETATM    7  C7  UNL     1     -35.287   6.480   4.243  1.00 20.00     0.043 C 
HETATM    8  C8  UNL     1     -31.065   8.757   2.594  1.00 20.00     0.015 C 
HETATM    9  C9  UNL     1     -32.980   8.450   1.030  1.00 20.00     0.015 C 
ENDROOT
BRANCH   5  10
HETATM   10  O10 UNL     1     -33.131   5.457   0.196  1.00 20.00    -0.392 OA
HETATM   11  H26 UNL     1     -32.602   6.159  -0.213  1.00 20.00     0.210 HD
ENDBRANCH   5  10
TORSDOF 1
ENDMDL
MODEL 2
REMARK VINA RESULT:       1.2      1.843      2.992
REMARK  1 active torsions:
REMARK  status: ('A' for Active; 'I' for Inactive)
REMARK    1  A    between atoms: C5_5  and  O10_10 
ROOT
HETATM    1  C1  UNL     1     -33.474   6.064   2.888  1.00 20.00     0.007 C 
HETATM    2  C2  UNL     1     -32.721   5.931   1.783  1.00 20.00    -0.084 C 
HETATM    3  C3  UNL     1     -32.262   7.123   0.978  1.00 20.00     0.042 C 
HETATM    4  C4  UNL     1     -33.693   8.565   2.478  1.00 20.00     0.045 C 
HETATM    5  C5  UNL     1     -33.965   7.380   3.415  1.00 20.00     0.142 C 
HETATM    6  C6  UNL     1     -32.338   8.472   1.736  1.00 20.00    -0.042 C 
HETATM    7  C7  UNL     1     -32.296   4.585   1.271  1.00 20.00     0.043 C 
HETATM    8  C8  UNL     1     -32.240   9.628   0.722  1.00 20.00     0.015 C 
HETATM    9  C9  UNL     1     -31.154   8.602   2.716  1.00 20.00     0.015 C 
ENDROOT
BRANCH   5  10
HETATM   10  O10 UNL     1     -33.362   7.635   4.682  1.00 20.00    -0.392 OA
HETATM   11  H26 UNL     1     -33.752   7.001   5.304  1.00 20.00     0.210 HD
ENDBRANCH   5  10
TORSDOF 1
ENDMDL
MODEL 3
REMARK VINA RESULT:       1.3      1.568      3.317
REMARK  1 active torsions:
REMARK  status: ('A' for Active; 'I' for Inactive)
REMARK    1  A    between atoms: C5_5  and  O10_10 
ROOT
HETATM    1  C1  UNL     1     -33.382   8.024   2.906  1.00 20.00     0.007 C 
HETATM    2  C2  UNL     1     -32.542   8.180   1.869  1.00 20.00    -0.084 C 
HETATM    3  C3  UNL     1     -31.908   7.002   1.168  1.00 20.00     0.042 C 
HETATM    4  C4  UNL     1     -32.935   5.520   2.936  1.00 20.00     0.045 C 
HETATM    5  C5  UNL     1     -33.749   6.694   3.496  1.00 20.00     0.142 C 
HETATM    6  C6  UNL     1     -32.616   5.648   1.426  1.00 20.00    -0.042 C 
HETATM    7  C7  UNL     1     -32.171   9.537   1.347  1.00 20.00     0.043 C 
HETATM    8  C8  UNL     1     -31.678   4.499   1.012  1.00 20.00     0.015 C 
HETATM    9  C9  UNL     1     -33.898   5.543   0.574  1.00 20.00     0.015 C 
ENDROOT
BRANCH   5  10
HETATM   10  O10 UNL     1     -35.138   6.449   3.280  1.00 20.00    -0.392 OA
HETATM   11  H26 UNL     1     -35.571   6.550   4.141  1.00 20.00     0.210 HD
ENDBRANCH   5  10
TORSDOF 1
ENDMDL
MODEL 4
REMARK VINA RESULT:       1.4      1.043      3.203
REMARK  1 active torsions:
REMARK  status: ('A' for Active; 'I' for Inactive)
REMARK    1  A    between atoms: C5_5  and  O10_10 
ROOT
HETATM    1  C1  UNL     1     -31.991   7.365   1.903  1.00 20.00     0.007 C 
HETATM    2  C2  UNL     1     -32.360   7.948   3.056  1.00 20.00    -0.084 C 
HETATM    3  C3  UNL     1     -33.620   7.550   3.786  1.00 20.00     0.042 C 
HETATM    4  C4  UNL     1     -34.173   6.061   1.823  1.00 20.00     0.045 C 
HETATM    5  C5  UNL     1     -32.789   6.303   1.206  1.00 20.00     0.142 C 
HETATM    6  C6  UNL     1     -34.194   6.173   3.366  1.00 20.00    -0.042 C 
HETATM    7  C7  UNL     1     -31.548   9.041   3.687  1.00 20.00     0.043 C 
HETATM    8  C8  UNL     1     -35.649   6.060   3.858  1.00 20.00     0.015 C 
HETATM    9  C9  UNL     1     -33.384   5.035   4.020  1.00 20.00     0.015 C 
ENDROOT
BRANCH   5  10
HETATM   10  O10 UNL     1     -32.053   5.082   1.209  1.00 20.00    -0.392 OA
HETATM   11  H26 UNL     1     -32.706   4.368   1.281  1.00 20.00     0.210 HD
ENDBRANCH   5  10
TORSDOF 1
ENDMDL
MODEL 5
REMARK VINA RESULT:       1.5      1.573      2.920
REMARK  1 active torsions:
REMARK  status: ('A' for Active; 'I' for Inactive)
REMARK    1  A    between atoms: C5_5  and  O10_10 
ROOT
HETATM    1  C1  UNL     1     -33.480   7.686   3.295  1.00 20.00     0.007 C 
HETATM    2  C2  UNL     1     -34.136   6.513   3.317  1.00 20.00    -0.084 C 
HETATM    3  C3  UNL     1     -33.916   5.454   2.263  1.00 20.00     0.042 C 
HETATM    4  C4  UNL     1     -32.452   7.109   1.041  1.00 20.00     0.045 C 
HETATM    5  C5  UNL     1     -32.505   8.083   2.227  1.00 20.00     0.142 C 
HETATM    6  C6  UNL     1     -32.609   5.624   1.449  1.00 20.00    -0.042 C 
HETATM    7  C7  UNL     1     -35.138   6.185   4.385  1.00 20.00     0.043 C 
HETATM    8  C8  UNL     1     -32.689   4.760   0.177  1.00 20.00     0.015 C 
HETATM    9  C9  UNL     1     -31.398   5.140   2.274  1.00 20.00     0.015 C 
ENDROOT
BRANCH   5  10
HETATM   10  O10 UNL     1     -31.203   8.201   2.796  1.00 20.00    -0.392 OA
HETATM   11  H26 UNL     1     -31.314   8.110   3.755  1.00 20.00     0.210 HD
ENDBRANCH   5  10
TORSDOF 1
ENDMDL
MODEL 6
REMARK VINA RESULT:       1.6      1.560      3.511
REMARK  1 active torsions:
REMARK  status: ('A' for Active; 'I' for Inactive)
REMARK    1  A    between atoms: C5_5  and  O10_10 
ROOT
HETATM    1  C1  UNL     1     -32.072   7.025   1.645  1.00 20.00     0.007 C 
HETATM    2  C2  UNL     1     -32.567   5.775   1.638  1.00 20.00    -0.084 C 
HETATM    3  C3  UNL     1     -33.584   5.312   2.653  1.00 20.00     0.042 C 
HETATM    4  C4  UNL     1     -33.291   7.532   3.819  1.00 20.00     0.045 C 
HETATM    5  C5  UNL     1     -32.438   8.066   2.661  1.00 20.00     0.142 C 
HETATM    6  C6  UNL     1     -34.320   6.459   3.390  1.00 20.00    -0.042 C 
HETATM    7  C7  UNL     1     -32.131   4.756   0.626  1.00 20.00     0.043 C 
HETATM    8  C8  UNL     1     -35.010   5.893   4.645  1.00 20.00     0.015 C 
HETATM    9  C9  UNL     1     -35.412   7.063   2.482  1.00 20.00     0.015 C 
ENDROOT
BRANCH   5  10
HETATM   10  O10 UNL     1     -33.135   9.131   2.016  1.00 20.00    -0.392 OA
HETATM   11  H26 UNL     1     -33.394   9.751   2.714  1.00 20.00     0.210 HD
ENDBRANCH   5  10
TORSDOF 1
ENDMDL
MODEL 7
REMARK VINA RESULT:       1.6      1.725      3.002
REMARK  1 active torsions:
REMARK  status: ('A' for Active; 'I' for Inactive)
REMARK    1  A    between atoms: C5_5  and  O10_10 
ROOT
HETATM    1  C1  UNL     1     -32.025   7.032   1.101  1.00 20.00     0.007 C 
HETATM    2  C2  UNL     1     -32.730   6.048   1.684  1.00 20.00    -0.084 C 
HETATM    3  C3  UNL     1     -33.296   6.187   3.077  1.00 20.00     0.042 C 
HETATM    4  C4  UNL     1     -32.072   8.388   3.252  1.00 20.00     0.045 C 
HETATM    5  C5  UNL     1     -31.695   8.336   1.765  1.00 20.00     0.142 C 
HETATM    6  C6  UNL     1     -33.389   7.647   3.587  1.00 20.00    -0.042 C 
HETATM    7  C7  UNL     1     -32.990   4.743   0.991  1.00 20.00     0.043 C 
HETATM    8  C8  UNL     1     -33.586   7.638   5.114  1.00 20.00     0.015 C 
HETATM    9  C9  UNL     1     -34.605   8.357   2.957  1.00 20.00     0.015 C 
ENDROOT
BRANCH   5  10
HETATM   10  O10 UNL     1     -32.355   9.397   1.076  1.00 20.00    -0.392 OA
HETATM   11  H26 UNL     1     -31.692  10.092   0.945  1.00 20.00     0.210 HD
ENDBRANCH   5  10
TORSDOF 1
ENDMDL
MODEL 8
REMARK VINA RESULT:       1.9      2.184      3.325
REMARK  1 active torsions:
REMARK  status: ('A' for Active; 'I' for Inactive)
REMARK    1  A    between atoms: C5_5  and  O10_10 
ROOT
HETATM    1  C1  UNL     1     -34.554   5.228   4.515  1.00 20.00     0.007 C 
HETATM    2  C2  UNL     1     -33.756   4.309   3.942  1.00 20.00    -0.084 C 
HETATM    3  C3  UNL     1     -33.239   4.466   2.533  1.00 20.00     0.042 C 
HETATM    4  C4  UNL     1     -34.702   6.513   2.325  1.00 20.00     0.045 C 
HETATM    5  C5  UNL     1     -35.039   6.466   3.821  1.00 20.00     0.142 C 
HETATM    6  C6  UNL     1     -33.319   5.911   1.979  1.00 20.00    -0.042 C 
HETATM    7  C7  UNL     1     -33.339   3.062   4.665  1.00 20.00     0.043 C 
HETATM    8  C8  UNL     1     -33.154   5.876   0.449  1.00 20.00     0.015 C 
HETATM    9  C9  UNL     1     -32.175   6.769   2.559  1.00 20.00     0.015 C 
ENDROOT
BRANCH   5  10
HETATM   10  O10 UNL     1     -34.486   7.614   4.464  1.00 20.00    -0.392 OA
HETATM   11  H26 UNL     1     -33.817   7.970   3.859  1.00 20.00     0.210 HD
ENDBRANCH   5  10
TORSDOF 1
ENDMDL
MODEL 9
REMARK VINA RESULT:       2.0      1.489      2.519
REMARK  1 active torsions:
REMARK  status: ('A' for Active; 'I' for Inactive)
REMARK    1  A    between atoms: C5_5  and  O10_10 
ROOT
HETATM    1  C1  UNL     1     -33.016   4.529   2.397  1.00 20.00     0.007 C 
HETATM    2  C2  UNL     1     -33.452   4.422   3.663  1.00 20.00    -0.084 C 
HETATM    3  C3  UNL     1     -33.845   5.629   4.480  1.00 20.00     0.042 C 
HETATM    4  C4  UNL     1     -33.020   7.067   2.574  1.00 20.00     0.045 C 
HETATM    5  C5  UNL     1     -32.839   5.834   1.678  1.00 20.00     0.142 C 
HETATM    6  C6  UNL     1     -34.129   6.902   3.642  1.00 20.00    -0.042 C 
HETATM    7  C7  UNL     1     -33.565   3.093   4.353  1.00 20.00     0.043 C 
HETATM    8  C8  UNL     1     -34.119   8.131   4.569  1.00 20.00     0.015 C 
HETATM    9  C9  UNL     1     -35.524   6.813   2.989  1.00 20.00     0.015 C 
ENDROOT
BRANCH   5  10
HETATM   10  O10 UNL     1     -33.762   5.903   0.592  1.00 20.00    -0.392 OA
HETATM   11  H26 UNL     1     -34.357   5.144   0.690  1.00 20.00     0.210 HD
ENDBRANCH   5  10
TORSDOF 1
ENDMDL
