MODEL 1
REMARK VINA RESULT:       3.2      0.000      0.000
REMARK  0 active torsions:
REMARK  status: ('A' for Active; 'I' for Inactive)
ROOT
HETATM    1  C1  UNL     1     -34.101   4.934   3.416  1.00 20.00     0.000 C 
HETATM    2  C2  UNL     1     -34.789   6.107   4.108  1.00 20.00     0.000 C 
HETATM    3  C3  UNL     1     -33.623   5.201   1.989  1.00 20.00     0.004 C 
HETATM    4  C4  UNL     1     -33.985   7.406   4.148  1.00 20.00     0.004 C 
HETATM    5  C5  UNL     1     -32.400   6.121   1.942  1.00 20.00     0.049 C 
HETATM    6  C6  UNL     1     -33.897   8.081   2.780  1.00 20.00     0.049 C 
HETATM    7  C7  UNL     1     -32.575   9.224   0.183  1.00 20.00     0.180 C 
HETATM    8  C8  UNL     1     -31.135   9.301   0.653  1.00 20.00     0.103 C 
HETATM    9  C9  UNL     1     -32.733   7.619   1.885  1.00 20.00     0.108 C 
HETATM   10  O10 UNL     1     -33.085   7.928   0.516  1.00 20.00    -0.369 OA
HETATM   11  S11 UNL     1     -31.210   8.564   2.291  1.00 20.00    -0.129 SA
ENDROOT
TORSDOF 0
ENDMDL
MODEL 2
REMARK VINA RESULT:       3.6      1.635      2.522
REMARK  0 active torsions:
REMARK  status: ('A' for Active; 'I' for Inactive)
ROOT
HETATM    1  C1  UNL     1     -35.354   5.103   4.603  1.00 20.00     0.000 C 
HETATM    2  C2  UNL     1     -34.241   4.093   4.346  1.00 20.00     0.000 C 
HETATM    3  C3  UNL     1     -34.949   6.572   4.485  1.00 20.00     0.004 C 
HETATM    4  C4  UNL     1     -33.516   4.243   3.008  1.00 20.00     0.004 C 
HETATM    5  C5  UNL     1     -34.712   7.001   3.034  1.00 20.00     0.049 C 
HETATM    6  C6  UNL     1     -32.605   5.470   2.973  1.00 20.00     0.049 C 
HETATM    7  C7  UNL     1     -31.516   8.256   2.050  1.00 20.00     0.180 C 
HETATM    8  C8  UNL     1     -32.235   8.374   0.720  1.00 20.00     0.103 C 
HETATM    9  C9  UNL     1     -33.276   6.783   2.534  1.00 20.00     0.108 C 
HETATM   10  O10 UNL     1     -32.475   7.875   3.044  1.00 20.00    -0.369 OA
HETATM   11  S11 UNL     1     -33.279   6.910   0.700  1.00 20.00    -0.129 SA
ENDROOT
TORSDOF 0
ENDMDL
MODEL 3
REMARK VINA RESULT:       3.8      2.375      4.293
REMARK  0 active torsions:
REMARK  status: ('A' for Active; 'I' for Inactive)
ROOT
HETATM    1  C1  UNL     1     -31.792   7.633   0.924  1.00 20.00     0.000 C 
HETATM    2  C2  UNL     1     -31.459   8.388   2.207  1.00 20.00     0.000 C 
HETATM    3  C3  UNL     1     -32.282   6.198   1.113  1.00 20.00     0.004 C 
HETATM    4  C4  UNL     1     -32.580   8.439   3.246  1.00 20.00     0.004 C 
HETATM    5  C5  UNL     1     -33.703   6.132   1.680  1.00 20.00     0.049 C 
HETATM    6  C6  UNL     1     -32.804   7.091   3.929  1.00 20.00     0.049 C 
HETATM    7  C7  UNL     1     -34.305   4.482   4.789  1.00 20.00     0.180 C 
HETATM    8  C8  UNL     1     -35.727   4.897   4.464  1.00 20.00     0.103 C 
HETATM    9  C9  UNL     1     -33.777   6.137   3.214  1.00 20.00     0.108 C 
HETATM   10  O10 UNL     1     -33.480   4.793   3.661  1.00 20.00    -0.369 OA
HETATM   11  S11 UNL     1     -35.507   6.513   3.707  1.00 20.00    -0.129 SA
ENDROOT
TORSDOF 0
ENDMDL
MODEL 4
REMARK VINA RESULT:       3.8      2.283      4.411
REMARK  0 active torsions:
REMARK  status: ('A' for Active; 'I' for Inactive)
ROOT
HETATM    1  C1  UNL     1     -31.306   8.402   2.192  1.00 20.00     0.000 C 
HETATM    2  C2  UNL     1     -31.601   7.529   0.976  1.00 20.00     0.000 C 
HETATM    3  C3  UNL     1     -32.476   8.608   3.153  1.00 20.00     0.004 C 
HETATM    4  C4  UNL     1     -32.165   6.142   1.287  1.00 20.00     0.004 C 
HETATM    5  C5  UNL     1     -32.797   7.351   3.966  1.00 20.00     0.049 C 
HETATM    6  C6  UNL     1     -33.611   6.196   1.777  1.00 20.00     0.049 C 
HETATM    7  C7  UNL     1     -36.033   5.857   3.731  1.00 20.00     0.180 C 
HETATM    8  C8  UNL     1     -35.408   4.909   4.736  1.00 20.00     0.103 C 
HETATM    9  C9  UNL     1     -33.793   6.395   3.292  1.00 20.00     0.108 C 
HETATM   10  O10 UNL     1     -35.118   6.936   3.507  1.00 20.00    -0.369 OA
HETATM   11  S11 UNL     1     -33.711   4.774   4.156  1.00 20.00    -0.129 SA
ENDROOT
TORSDOF 0
ENDMDL
MODEL 5
REMARK VINA RESULT:       4.5      2.123      3.401
REMARK  0 active torsions:
REMARK  status: ('A' for Active; 'I' for Inactive)
ROOT
HETATM    1  C1  UNL     1     -33.711   8.485   3.755  1.00 20.00     0.000 C 
HETATM    2  C2  UNL     1     -34.333   7.290   4.471  1.00 20.00     0.000 C 
HETATM    3  C3  UNL     1     -32.458   8.181   2.934  1.00 20.00     0.004 C 
HETATM    4  C4  UNL     1     -34.670   6.094   3.579  1.00 20.00     0.004 C 
HETATM    5  C5  UNL     1     -32.769   7.403   1.652  1.00 20.00     0.049 C 
HETATM    6  C6  UNL     1     -33.422   5.346   3.111  1.00 20.00     0.049 C 
HETATM    7  C7  UNL     1     -31.302   4.191   1.118  1.00 20.00     0.180 C 
HETATM    8  C8  UNL     1     -32.087   4.308  -0.173  1.00 20.00     0.103 C 
HETATM    9  C9  UNL     1     -32.774   5.876   1.820  1.00 20.00     0.108 C 
HETATM   10  O10 UNL     1     -31.394   5.440   1.812  1.00 20.00    -0.369 OA
HETATM   11  S11 UNL     1     -33.595   5.137   0.351  1.00 20.00    -0.129 SA
ENDROOT
TORSDOF 0
ENDMDL
MODEL 6
REMARK VINA RESULT:       5.2      1.160      1.201
REMARK  0 active torsions:
REMARK  status: ('A' for Active; 'I' for Inactive)
ROOT
HETATM    1  C1  UNL     1     -34.457   4.522   4.366  1.00 20.00     0.000 C 
HETATM    2  C2  UNL     1     -35.589   5.536   4.230  1.00 20.00     0.000 C 
HETATM    3  C3  UNL     1     -33.407   4.557   3.257  1.00 20.00     0.004 C 
HETATM    4  C4  UNL     1     -35.150   6.993   4.085  1.00 20.00     0.004 C 
HETATM    5  C5  UNL     1     -32.498   5.786   3.346  1.00 20.00     0.049 C 
HETATM    6  C6  UNL     1     -34.535   7.283   2.717  1.00 20.00     0.049 C 
HETATM    7  C7  UNL     1     -32.353   8.093   0.623  1.00 20.00     0.180 C 
HETATM    8  C8  UNL     1     -31.357   8.761   1.551  1.00 20.00     0.103 C 
HETATM    9  C9  UNL     1     -33.023   7.020   2.598  1.00 20.00     0.108 C 
HETATM   10  O10 UNL     1     -32.720   6.833   1.196  1.00 20.00    -0.369 OA
HETATM   11  S11 UNL     1     -32.080   8.489   3.175  1.00 20.00    -0.129 SA
ENDROOT
TORSDOF 0
ENDMDL
MODEL 7
REMARK VINA RESULT:       5.3      1.943      3.290
REMARK  0 active torsions:
REMARK  status: ('A' for Active; 'I' for Inactive)
ROOT
HETATM    1  C1  UNL     1     -33.183   8.006   4.562  1.00 20.00     0.000 C 
HETATM    2  C2  UNL     1     -32.278   8.820   3.643  1.00 20.00     0.000 C 
HETATM    3  C3  UNL     1     -34.221   7.133   3.858  1.00 20.00     0.004 C 
HETATM    4  C4  UNL     1     -31.528   8.014   2.581  1.00 20.00     0.004 C 
HETATM    5  C5  UNL     1     -33.597   5.915   3.172  1.00 20.00     0.049 C 
HETATM    6  C6  UNL     1     -32.450   7.517   1.468  1.00 20.00     0.049 C 
HETATM    7  C7  UNL     1     -33.968   5.473  -0.353  1.00 20.00     0.180 C 
HETATM    8  C8  UNL     1     -33.166   4.224  -0.042  1.00 20.00     0.103 C 
HETATM    9  C9  UNL     1     -33.136   6.165   1.728  1.00 20.00     0.108 C 
HETATM   10  O10 UNL     1     -34.312   6.102   0.887  1.00 20.00    -0.369 OA
HETATM   11  S11 UNL     1     -32.027   4.787   1.229  1.00 20.00    -0.129 SA
ENDROOT
TORSDOF 0
ENDMDL
MODEL 8
REMARK VINA RESULT:       6.0      1.982      4.222
REMARK  0 active torsions:
REMARK  status: ('A' for Active; 'I' for Inactive)
ROOT
HETATM    1  C1  UNL     1     -31.147   8.741  -0.145  1.00 20.00     0.000 C 
HETATM    2  C2  UNL     1     -32.027   9.982  -0.024  1.00 20.00     0.000 C 
HETATM    3  C3  UNL     1     -30.890   7.988   1.160  1.00 20.00     0.004 C 
HETATM    4  C4  UNL     1     -33.390   9.757   0.631  1.00 20.00     0.004 C 
HETATM    5  C5  UNL     1     -32.125   7.230   1.654  1.00 20.00     0.049 C 
HETATM    6  C6  UNL     1     -33.281   9.514   2.135  1.00 20.00     0.049 C 
HETATM    7  C7  UNL     1     -33.514   7.984   4.857  1.00 20.00     0.180 C 
HETATM    8  C8  UNL     1     -34.469   6.883   4.440  1.00 20.00     0.103 C 
HETATM    9  C9  UNL     1     -33.057   8.052   2.558  1.00 20.00     0.108 C 
HETATM   10  O10 UNL     1     -32.469   8.063   3.880  1.00 20.00    -0.369 OA
HETATM   11  S11 UNL     1     -34.667   7.174   2.677  1.00 20.00    -0.129 SA
ENDROOT
TORSDOF 0
ENDMDL
