MODEL 1
REMARK VINA RESULT:      -2.3      0.000      0.000
REMARK  2 active torsions:
REMARK  status: ('A' for Active; 'I' for Inactive)
REMARK    1  A    between atoms: C1_1  and  C3_3 
REMARK    2  A    between atoms: C2_2  and  C5_5 
ROOT
HETATM    1  C1  UNL     1     -32.668   7.588   2.516  1.00 20.00     0.003 C 
HETATM    2  C2  UNL     1     -33.402   6.491   2.289  1.00 20.00     0.049 C 
ENDROOT
BRANCH   1   3
HETATM    3  C3  UNL     1     -32.033   8.335   1.452  1.00 20.00    -0.004 C 
HETATM    4  C4  UNL     1     -32.647   9.319   0.778  1.00 20.00    -0.031 C 
HETATM    5  C6  UNL     1     -32.002  10.095  -0.323  1.00 20.00     0.036 C 
ENDBRANCH   1   3
BRANCH   2   6
HETATM    6  C5  UNL     1     -34.065   5.705   3.367  1.00 20.00     0.145 C 
HETATM    7  C7  UNL     1     -35.241   6.289   4.105  1.00 20.00     0.096 C 
HETATM    8  O8  UNL     1     -33.636   4.582   3.638  1.00 20.00    -0.294 OA
ENDBRANCH   2   6
TORSDOF 2
ENDMDL
MODEL 2
REMARK VINA RESULT:      -2.3      1.472      2.110
REMARK  2 active torsions:
REMARK  status: ('A' for Active; 'I' for Inactive)
REMARK    1  A    between atoms: C1_1  and  C3_3 
REMARK    2  A    between atoms: C2_2  and  C5_5 
ROOT
HETATM    1  C1  UNL     1     -33.868   6.862   3.614  1.00 20.00     0.003 C 
HETATM    2  C2  UNL     1     -33.730   5.556   3.352  1.00 20.00     0.049 C 
ENDROOT
BRANCH   1   3
HETATM    3  C3  UNL     1     -33.300   7.890   2.770  1.00 20.00    -0.004 C 
HETATM    4  C4  UNL     1     -32.352   7.647   1.852  1.00 20.00    -0.031 C 
HETATM    5  C6  UNL     1     -31.758   8.700   0.977  1.00 20.00     0.036 C 
ENDBRANCH   1   3
BRANCH   2   6
HETATM    6  C5  UNL     1     -34.305   4.478   4.204  1.00 20.00     0.145 C 
HETATM    7  C7  UNL     1     -33.507   3.229   4.475  1.00 20.00     0.096 C 
HETATM    8  O8  UNL     1     -35.434   4.627   4.675  1.00 20.00    -0.294 OA
ENDBRANCH   2   6
TORSDOF 2
ENDMDL
MODEL 3
REMARK VINA RESULT:      -1.9      2.243      4.735
REMARK  2 active torsions:
REMARK  status: ('A' for Active; 'I' for Inactive)
REMARK    1  A    between atoms: C1_1  and  C3_3 
REMARK    2  A    between atoms: C2_2  and  C5_5 
ROOT
HETATM    1  C1  UNL     1     -32.666   6.897   1.697  1.00 20.00     0.003 C 
HETATM    2  C2  UNL     1     -32.697   8.237   1.705  1.00 20.00     0.049 C 
ENDROOT
BRANCH   1   3
HETATM    3  C3  UNL     1     -33.359   6.096   2.683  1.00 20.00    -0.004 C 
HETATM    4  C4  UNL     1     -34.428   6.534   3.364  1.00 20.00    -0.031 C 
HETATM    5  C6  UNL     1     -35.150   5.716   4.384  1.00 20.00     0.036 C 
ENDBRANCH   1   3
BRANCH   2   6
HETATM    6  C5  UNL     1     -31.993   9.084   0.701  1.00 20.00     0.145 C 
HETATM    7  C7  UNL     1     -32.596  10.396   0.274  1.00 20.00     0.096 C 
HETATM    8  O8  UNL     1     -30.923   8.692   0.235  1.00 20.00    -0.294 OA
ENDBRANCH   2   6
TORSDOF 2
ENDMDL
MODEL 4
REMARK VINA RESULT:      -1.3      2.622      4.939
REMARK  2 active torsions:
REMARK  status: ('A' for Active; 'I' for Inactive)
REMARK    1  A    between atoms: C1_1  and  C3_3 
REMARK    2  A    between atoms: C2_2  and  C5_5 
ROOT
HETATM    1  C1  UNL     1     -32.414   7.503   1.890  1.00 20.00     0.003 C 
HETATM    2  C2  UNL     1     -32.940   8.576   1.286  1.00 20.00     0.049 C 
ENDROOT
BRANCH   1   3
HETATM    3  C3  UNL     1     -33.208   6.588   2.682  1.00 20.00    -0.004 C 
HETATM    4  C4  UNL     1     -34.270   6.973   3.404  1.00 20.00    -0.031 C 
HETATM    5  C6  UNL     1     -35.095   6.037   4.224  1.00 20.00     0.036 C 
ENDBRANCH   1   3
BRANCH   2   6
HETATM    6  C5  UNL     1     -32.145   9.533   0.466  1.00 20.00     0.145 C 
HETATM    7  C7  UNL     1     -30.985   9.034  -0.355  1.00 20.00     0.096 C 
HETATM    8  O8  UNL     1     -32.453  10.726   0.476  1.00 20.00    -0.294 OA
ENDBRANCH   2   6
TORSDOF 2
ENDMDL
MODEL 5
REMARK VINA RESULT:      -0.8      1.283      1.405
REMARK  2 active torsions:
REMARK  status: ('A' for Active; 'I' for Inactive)
REMARK    1  A    between atoms: C1_1  and  C3_3 
REMARK    2  A    between atoms: C2_2  and  C5_5 
ROOT
HETATM    1  C1  UNL     1     -31.954   7.723   1.696  1.00 20.00     0.003 C 
HETATM    2  C2  UNL     1     -33.075   7.000   1.812  1.00 20.00     0.049 C 
ENDROOT
BRANCH   1   3
HETATM    3  C3  UNL     1     -31.962   9.117   1.310  1.00 20.00    -0.004 C 
HETATM    4  C4  UNL     1     -32.485   9.556   0.155  1.00 20.00    -0.031 C 
HETATM    5  C6  UNL     1     -32.498  10.993  -0.253  1.00 20.00     0.036 C 
ENDBRANCH   1   3
BRANCH   2   6
HETATM    6  C5  UNL     1     -33.094   5.564   2.208  1.00 20.00     0.145 C 
HETATM    7  C7  UNL     1     -33.867   5.132   3.426  1.00 20.00     0.096 C 
HETATM    8  O8  UNL     1     -32.471   4.749   1.526  1.00 20.00    -0.294 OA
ENDBRANCH   2   6
TORSDOF 2
ENDMDL
MODEL 6
REMARK VINA RESULT:      -0.7      2.319      5.235
REMARK  2 active torsions:
REMARK  status: ('A' for Active; 'I' for Inactive)
REMARK    1  A    between atoms: C1_1  and  C3_3 
REMARK    2  A    between atoms: C2_2  and  C5_5 
ROOT
HETATM    1  C1  UNL     1     -34.194   5.529   3.835  1.00 20.00     0.003 C 
HETATM    2  C2  UNL     1     -33.271   6.086   3.039  1.00 20.00     0.049 C 
ENDROOT
BRANCH   1   3
HETATM    3  C3  UNL     1     -34.274   4.101   4.056  1.00 20.00    -0.004 C 
HETATM    4  C4  UNL     1     -33.238   3.366   4.486  1.00 20.00    -0.031 C 
HETATM    5  C6  UNL     1     -33.310   1.892   4.717  1.00 20.00     0.036 C 
ENDBRANCH   1   3
BRANCH   2   6
HETATM    6  C5  UNL     1     -33.167   7.552   2.796  1.00 20.00     0.145 C 
HETATM    7  C7  UNL     1     -32.169   8.077   1.798  1.00 20.00     0.096 C 
HETATM    8  O8  UNL     1     -33.905   8.314   3.422  1.00 20.00    -0.294 OA
ENDBRANCH   2   6
TORSDOF 2
ENDMDL
MODEL 7
REMARK VINA RESULT:      -0.6      2.266      3.184
REMARK  2 active torsions:
REMARK  status: ('A' for Active; 'I' for Inactive)
REMARK    1  A    between atoms: C1_1  and  C3_3 
REMARK    2  A    between atoms: C2_2  and  C5_5 
ROOT
HETATM    1  C1  UNL     1     -32.810   6.629   2.044  1.00 20.00     0.003 C 
HETATM    2  C2  UNL     1     -33.657   5.970   2.845  1.00 20.00     0.049 C 
ENDROOT
BRANCH   1   3
HETATM    3  C3  UNL     1     -31.974   5.956   1.072  1.00 20.00    -0.004 C 
HETATM    4  C4  UNL     1     -31.957   4.625   0.915  1.00 20.00    -0.031 C 
HETATM    5  C6  UNL     1     -31.098   3.921  -0.084  1.00 20.00     0.036 C 
ENDBRANCH   1   3
BRANCH   2   6
HETATM    6  C5  UNL     1     -34.528   6.637   3.852  1.00 20.00     0.145 C 
HETATM    7  C7  UNL     1     -34.089   7.934   4.481  1.00 20.00     0.096 C 
HETATM    8  O8  UNL     1     -35.601   6.113   4.155  1.00 20.00    -0.294 OA
ENDBRANCH   2   6
TORSDOF 2
ENDMDL
MODEL 8
REMARK VINA RESULT:      -0.3      2.153      4.743
REMARK  2 active torsions:
REMARK  status: ('A' for Active; 'I' for Inactive)
REMARK    1  A    between atoms: C1_1  and  C3_3 
REMARK    2  A    between atoms: C2_2  and  C5_5 
ROOT
HETATM    1  C1  UNL     1     -34.033   7.739   2.668  1.00 20.00     0.003 C 
HETATM    2  C2  UNL     1     -32.800   7.668   2.148  1.00 20.00     0.049 C 
ENDROOT
BRANCH   1   3
HETATM    3  C3  UNL     1     -34.549   6.749   3.588  1.00 20.00    -0.004 C 
HETATM    4  C4  UNL     1     -34.134   5.473   3.602  1.00 20.00    -0.031 C 
HETATM    5  C6  UNL     1     -34.660   4.443   4.547  1.00 20.00     0.036 C 
ENDBRANCH   1   3
BRANCH   2   6
HETATM    6  C5  UNL     1     -32.246   8.674   1.200  1.00 20.00     0.145 C 
HETATM    7  C7  UNL     1     -32.896  10.027   1.077  1.00 20.00     0.096 C 
HETATM    8  O8  UNL     1     -31.257   8.378   0.526  1.00 20.00    -0.294 OA
ENDBRANCH   2   6
TORSDOF 2
ENDMDL
MODEL 9
REMARK VINA RESULT:      -0.2      3.290      4.906
REMARK  2 active torsions:
REMARK  status: ('A' for Active; 'I' for Inactive)
REMARK    1  A    between atoms: C1_1  and  C3_3 
REMARK    2  A    between atoms: C2_2  and  C5_5 
ROOT
HETATM    1  C1  UNL     1     -32.310   8.244   1.601  1.00 20.00     0.003 C 
HETATM    2  C2  UNL     1     -32.160   8.812   0.398  1.00 20.00     0.049 C 
ENDROOT
BRANCH   1   3
HETATM    3  C3  UNL     1     -31.849   6.903   1.892  1.00 20.00    -0.004 C 
HETATM    4  C4  UNL     1     -32.190   5.834   1.157  1.00 20.00    -0.031 C 
HETATM    5  C6  UNL     1     -31.721   4.447   1.449  1.00 20.00     0.036 C 
ENDBRANCH   1   3
BRANCH   2   6
HETATM    6  C5  UNL     1     -32.624  10.190   0.072  1.00 20.00     0.145 C 
HETATM    7  C7  UNL     1     -32.474  11.291   1.088  1.00 20.00     0.096 C 
HETATM    8  O8  UNL     1     -33.129  10.405  -1.030  1.00 20.00    -0.294 OA
ENDBRANCH   2   6
TORSDOF 2
ENDMDL
