MODEL 1
REMARK VINA RESULT:      -2.5      0.000      0.000
REMARK  2 active torsions:
REMARK  status: ('A' for Active; 'I' for Inactive)
REMARK    1  A    between atoms: C1_1  and  C3_3 
REMARK    2  A    between atoms: C3_3  and  C4_4 
ROOT
HETATM    1  C1  UNL     1     -34.486   5.071   4.110  1.00 20.00    -0.088 C 
HETATM    2  C2  UNL     1     -33.967   4.011   4.327  1.00 20.00     0.004 C 
HETATM    3 CL5  UNL     1     -33.204   2.464   4.646  1.00 20.00    -0.023 Cl
ENDROOT
BRANCH   1   4
HETATM    4  C3  UNL     1     -35.124   6.369   3.845  1.00 20.00     0.110 C 
BRANCH   4   5
HETATM    5  C4  UNL     1     -34.153   7.532   4.001  1.00 20.00     0.126 C 
HETATM    6 CL6  UNL     1     -32.940   7.554   2.697  1.00 20.00    -0.130 Cl
ENDBRANCH   4   5
ENDBRANCH   1   4
TORSDOF 2
ENDMDL
MODEL 2
REMARK VINA RESULT:      -2.3      2.834      3.631
REMARK  2 active torsions:
REMARK  status: ('A' for Active; 'I' for Inactive)
REMARK    1  A    between atoms: C1_1  and  C3_3 
REMARK    2  A    between atoms: C3_3  and  C4_4 
ROOT
HETATM    1  C1  UNL     1     -33.116   7.487   2.907  1.00 20.00    -0.088 C 
HETATM    2  C2  UNL     1     -34.047   6.917   3.405  1.00 20.00     0.004 C 
HETATM    3 CL5  UNL     1     -35.407   6.086   4.137  1.00 20.00    -0.023 Cl
ENDROOT
BRANCH   1   4
HETATM    4  C3  UNL     1     -31.976   8.187   2.295  1.00 20.00     0.110 C 
BRANCH   4   5
HETATM    5  C4  UNL     1     -32.186   8.441   0.807  1.00 20.00     0.126 C 
HETATM    6 CL6  UNL     1     -32.528  10.158   0.477  1.00 20.00    -0.130 Cl
ENDBRANCH   4   5
ENDBRANCH   1   4
TORSDOF 2
ENDMDL
MODEL 3
REMARK VINA RESULT:      -2.1      3.040      5.226
REMARK  2 active torsions:
REMARK  status: ('A' for Active; 'I' for Inactive)
REMARK    1  A    between atoms: C1_1  and  C3_3 
REMARK    2  A    between atoms: C3_3  and  C4_4 
ROOT
HETATM    1  C1  UNL     1     -32.326   7.925   1.419  1.00 20.00    -0.088 C 
HETATM    2  C2  UNL     1     -32.366   9.031   0.956  1.00 20.00     0.004 C 
HETATM    3 CL5  UNL     1     -32.428  10.647   0.278  1.00 20.00    -0.023 Cl
ENDROOT
BRANCH   1   4
HETATM    4  C3  UNL     1     -32.277   6.570   1.987  1.00 20.00     0.110 C 
BRANCH   4   5
HETATM    5  C4  UNL     1     -33.568   6.199   2.707  1.00 20.00     0.126 C 
HETATM    6 CL6  UNL     1     -34.051   7.453   3.877  1.00 20.00    -0.130 Cl
ENDBRANCH   4   5
ENDBRANCH   1   4
TORSDOF 2
ENDMDL
MODEL 4
REMARK VINA RESULT:      -2.0      1.638      3.851
REMARK  2 active torsions:
REMARK  status: ('A' for Active; 'I' for Inactive)
REMARK    1  A    between atoms: C1_1  and  C3_3 
REMARK    2  A    between atoms: C3_3  and  C4_4 
ROOT
HETATM    1  C1  UNL     1     -33.601   7.381   3.313  1.00 20.00    -0.088 C 
HETATM    2  C2  UNL     1     -32.782   7.636   2.473  1.00 20.00     0.004 C 
HETATM    3 CL5  UNL     1     -31.588   8.008   1.244  1.00 20.00    -0.023 Cl
ENDROOT
BRANCH   1   4
HETATM    4  C3  UNL     1     -34.604   7.071   4.343  1.00 20.00     0.110 C 
BRANCH   4   5
HETATM    5  C4  UNL     1     -35.318   5.752   4.075  1.00 20.00     0.126 C 
HETATM    6 CL6  UNL     1     -34.192   4.372   4.137  1.00 20.00    -0.130 Cl
ENDBRANCH   4   5
ENDBRANCH   1   4
TORSDOF 2
ENDMDL
MODEL 5
REMARK VINA RESULT:      -2.0      2.509      3.123
REMARK  2 active torsions:
REMARK  status: ('A' for Active; 'I' for Inactive)
REMARK    1  A    between atoms: C1_1  and  C3_3 
REMARK    2  A    between atoms: C3_3  and  C4_4 
ROOT
HETATM    1  C1  UNL     1     -33.499   7.333   3.281  1.00 20.00    -0.088 C 
HETATM    2  C2  UNL     1     -34.347   6.619   3.740  1.00 20.00     0.004 C 
HETATM    3 CL5  UNL     1     -35.587   5.574   4.407  1.00 20.00    -0.023 Cl
ENDROOT
BRANCH   1   4
HETATM    4  C3  UNL     1     -32.458   8.207   2.720  1.00 20.00     0.110 C 
BRANCH   4   5
HETATM    5  C4  UNL     1     -31.852   7.638   1.443  1.00 20.00     0.126 C 
HETATM    6 CL6  UNL     1     -32.056   5.870   1.351  1.00 20.00    -0.130 Cl
ENDBRANCH   4   5
ENDBRANCH   1   4
TORSDOF 2
ENDMDL
MODEL 6
REMARK VINA RESULT:      -1.7      2.353      3.205
REMARK  2 active torsions:
REMARK  status: ('A' for Active; 'I' for Inactive)
REMARK    1  A    between atoms: C1_1  and  C3_3 
REMARK    2  A    between atoms: C3_3  and  C4_4 
ROOT
HETATM    1  C1  UNL     1     -33.384   6.438   2.606  1.00 20.00    -0.088 C 
HETATM    2  C2  UNL     1     -32.736   5.855   1.781  1.00 20.00     0.004 C 
HETATM    3 CL5  UNL     1     -31.789   5.006   0.574  1.00 20.00    -0.023 Cl
ENDROOT
BRANCH   1   4
HETATM    4  C3  UNL     1     -34.176   7.153   3.618  1.00 20.00     0.110 C 
BRANCH   4   5
HETATM    5  C4  UNL     1     -35.360   6.330   4.111  1.00 20.00     0.126 C 
HETATM    6 CL6  UNL     1     -34.891   4.647   4.459  1.00 20.00    -0.130 Cl
ENDBRANCH   4   5
ENDBRANCH   1   4
TORSDOF 2
ENDMDL
MODEL 7
REMARK VINA RESULT:      -1.5      1.235      4.080
REMARK  2 active torsions:
REMARK  status: ('A' for Active; 'I' for Inactive)
REMARK    1  A    between atoms: C1_1  and  C3_3 
REMARK    2  A    between atoms: C3_3  and  C4_4 
ROOT
HETATM    1  C1  UNL     1     -33.669   6.349   3.242  1.00 20.00    -0.088 C 
HETATM    2  C2  UNL     1     -33.047   7.132   2.578  1.00 20.00     0.004 C 
HETATM    3 CL5  UNL     1     -32.142   8.276   1.605  1.00 20.00    -0.023 Cl
ENDROOT
BRANCH   1   4
HETATM    4  C3  UNL     1     -34.429   5.392   4.058  1.00 20.00     0.110 C 
BRANCH   4   5
HETATM    5  C4  UNL     1     -34.071   3.946   3.737  1.00 20.00     0.126 C 
HETATM    6 CL6  UNL     1     -33.133   3.194   5.052  1.00 20.00    -0.130 Cl
ENDBRANCH   4   5
ENDBRANCH   1   4
TORSDOF 2
ENDMDL
MODEL 8
REMARK VINA RESULT:      -1.4      2.845      3.179
REMARK  2 active torsions:
REMARK  status: ('A' for Active; 'I' for Inactive)
REMARK    1  A    between atoms: C1_1  and  C3_3 
REMARK    2  A    between atoms: C3_3  and  C4_4 
ROOT
HETATM    1  C1  UNL     1     -32.916   6.811   2.240  1.00 20.00    -0.088 C 
HETATM    2  C2  UNL     1     -32.572   5.907   1.529  1.00 20.00     0.004 C 
HETATM    3 CL5  UNL     1     -32.071   4.583   0.493  1.00 20.00    -0.023 Cl
ENDROOT
BRANCH   1   4
HETATM    4  C3  UNL     1     -33.339   7.919   3.108  1.00 20.00     0.110 C 
BRANCH   4   5
HETATM    5  C4  UNL     1     -34.111   7.433   4.329  1.00 20.00     0.126 C 
HETATM    6 CL6  UNL     1     -35.365   6.248   3.884  1.00 20.00    -0.130 Cl
ENDBRANCH   4   5
ENDBRANCH   1   4
TORSDOF 2
ENDMDL
MODEL 9
REMARK VINA RESULT:      -1.3      3.501      5.658
REMARK  2 active torsions:
REMARK  status: ('A' for Active; 'I' for Inactive)
REMARK    1  A    between atoms: C1_1  and  C3_3 
REMARK    2  A    between atoms: C3_3  and  C4_4 
ROOT
HETATM    1  C1  UNL     1     -32.326   8.428   1.453  1.00 20.00    -0.088 C 
HETATM    2  C2  UNL     1     -32.334   9.362   0.699  1.00 20.00     0.004 C 
HETATM    3 CL5  UNL     1     -32.351  10.727  -0.402  1.00 20.00    -0.023 Cl
ENDROOT
BRANCH   1   4
HETATM    4  C3  UNL     1     -32.314   7.286   2.378  1.00 20.00     0.110 C 
BRANCH   4   5
HETATM    5  C4  UNL     1     -32.988   6.055   1.784  1.00 20.00     0.126 C 
HETATM    6 CL6  UNL     1     -31.814   4.992   0.970  1.00 20.00    -0.130 Cl
ENDBRANCH   4   5
ENDBRANCH   1   4
TORSDOF 2
ENDMDL
