MODEL 1
REMARK VINA RESULT:      -2.3      0.000      0.000
REMARK  3 active torsions:
REMARK  status: ('A' for Active; 'I' for Inactive)
REMARK    1  A    between atoms: C1_1  and  C5_5 
REMARK    2  A    between atoms: C2_2  and  C6_6 
REMARK    3  A    between atoms: C6_6  and  C7_7 
ROOT
HETATM    1  C1  UNL     1     -31.682   8.661   1.437  1.00 20.00     0.150 A 
HETATM    2  C2  UNL     1     -32.228   7.762   2.520  1.00 20.00     0.151 A 
HETATM    3  O8  UNL     1     -31.404   7.254   1.462  1.00 20.00    -0.376 OA
ENDROOT
BRANCH   2   4
HETATM    4  C6  UNL     1     -33.655   7.237   2.524  1.00 20.00     0.034 C 
BRANCH   4   5
HETATM    5  C7  UNL     1     -34.252   7.251   3.930  1.00 20.00    -0.002 C 
HETATM    6  C4  UNL     1     -35.307   6.170   4.100  1.00 20.00     0.005 C 
ENDBRANCH   4   5
ENDBRANCH   2   4
BRANCH   1   7
HETATM    7  C5  UNL     1     -32.487   9.118   0.275  1.00 20.00     0.030 C 
HETATM    8  C3  UNL     1     -32.653  10.618   0.221  1.00 20.00     0.007 C 
ENDBRANCH   1   7
TORSDOF 3
ENDMDL
MODEL 2
REMARK VINA RESULT:      -2.1      0.981      1.277
REMARK  3 active torsions:
REMARK  status: ('A' for Active; 'I' for Inactive)
REMARK    1  A    between atoms: C1_1  and  C5_5 
REMARK    2  A    between atoms: C2_2  and  C6_6 
REMARK    3  A    between atoms: C6_6  and  C7_7 
ROOT
HETATM    1  C1  UNL     1     -32.118   7.776   1.847  1.00 20.00     0.150 A 
HETATM    2  C2  UNL     1     -32.830   6.944   2.886  1.00 20.00     0.151 A 
HETATM    3  O8  UNL     1     -33.103   6.797   1.486  1.00 20.00    -0.376 OA
ENDROOT
BRANCH   2   4
HETATM    4  C6  UNL     1     -33.996   7.463   3.712  1.00 20.00     0.034 C 
BRANCH   4   5
HETATM    5  C7  UNL     1     -35.127   6.439   3.788  1.00 20.00    -0.002 C 
HETATM    6  C4  UNL     1     -34.612   5.068   4.197  1.00 20.00     0.005 C 
ENDBRANCH   4   5
ENDBRANCH   2   4
BRANCH   1   7
HETATM    7  C5  UNL     1     -32.491   9.180   1.533  1.00 20.00     0.030 C 
HETATM    8  C3  UNL     1     -32.312   9.529   0.075  1.00 20.00     0.007 C 
ENDBRANCH   1   7
TORSDOF 3
ENDMDL
MODEL 3
REMARK VINA RESULT:      -2.1      1.054      4.192
REMARK  3 active torsions:
REMARK  status: ('A' for Active; 'I' for Inactive)
REMARK    1  A    between atoms: C1_1  and  C5_5 
REMARK    2  A    between atoms: C2_2  and  C6_6 
REMARK    3  A    between atoms: C6_6  and  C7_7 
ROOT
HETATM    1  C1  UNL     1     -33.586   6.142   2.216  1.00 20.00     0.150 A 
HETATM    2  C2  UNL     1     -32.613   6.821   1.282  1.00 20.00     0.151 A 
HETATM    3  O8  UNL     1     -32.216   5.729   2.122  1.00 20.00    -0.376 OA
ENDROOT
BRANCH   2   4
HETATM    4  C6  UNL     1     -31.941   8.147   1.600  1.00 20.00     0.034 C 
BRANCH   4   5
HETATM    5  C7  UNL     1     -31.763   8.999   0.345  1.00 20.00    -0.002 C 
HETATM    6  C4  UNL     1     -32.618  10.255   0.397  1.00 20.00     0.005 C 
ENDBRANCH   4   5
ENDBRANCH   2   4
BRANCH   1   7
HETATM    7  C5  UNL     1     -33.979   6.706   3.533  1.00 20.00     0.030 C 
HETATM    8  C3  UNL     1     -35.316   6.202   4.020  1.00 20.00     0.007 C 
ENDBRANCH   1   7
TORSDOF 3
ENDMDL
MODEL 4
REMARK VINA RESULT:      -1.9      2.217      4.927
REMARK  3 active torsions:
REMARK  status: ('A' for Active; 'I' for Inactive)
REMARK    1  A    between atoms: C1_1  and  C5_5 
REMARK    2  A    between atoms: C2_2  and  C6_6 
REMARK    3  A    between atoms: C6_6  and  C7_7 
ROOT
HETATM    1  C1  UNL     1     -34.268   5.670   4.233  1.00 20.00     0.150 A 
HETATM    2  C2  UNL     1     -33.762   6.845   3.432  1.00 20.00     0.151 A 
HETATM    3  O8  UNL     1     -35.157   6.520   3.494  1.00 20.00    -0.376 OA
ENDROOT
BRANCH   2   4
HETATM    4  C6  UNL     1     -33.136   6.705   2.054  1.00 20.00     0.034 C 
BRANCH   4   5
HETATM    5  C7  UNL     1     -31.945   7.646   1.881  1.00 20.00    -0.002 C 
HETATM    6  C4  UNL     1     -32.310   8.860   1.042  1.00 20.00     0.005 C 
ENDBRANCH   4   5
ENDBRANCH   2   4
BRANCH   1   7
HETATM    7  C5  UNL     1     -34.203   4.266   3.750  1.00 20.00     0.030 C 
HETATM    8  C3  UNL     1     -33.450   3.351   4.686  1.00 20.00     0.007 C 
ENDBRANCH   1   7
TORSDOF 3
ENDMDL
MODEL 5
REMARK VINA RESULT:      -1.9      2.192      2.836
REMARK  3 active torsions:
REMARK  status: ('A' for Active; 'I' for Inactive)
REMARK    1  A    between atoms: C1_1  and  C5_5 
REMARK    2  A    between atoms: C2_2  and  C6_6 
REMARK    3  A    between atoms: C6_6  and  C7_7 
ROOT
HETATM    1  C1  UNL     1     -33.551   7.706   2.808  1.00 20.00     0.150 A 
HETATM    2  C2  UNL     1     -34.214   6.475   3.377  1.00 20.00     0.151 A 
HETATM    3  O8  UNL     1     -33.511   7.406   4.211  1.00 20.00    -0.376 OA
ENDROOT
BRANCH   2   4
HETATM    4  C6  UNL     1     -33.595   5.088   3.307  1.00 20.00     0.034 C 
BRANCH   4   5
HETATM    5  C7  UNL     1     -34.180   4.160   4.370  1.00 20.00    -0.002 C 
HETATM    6  C4  UNL     1     -33.252   2.991   4.661  1.00 20.00     0.005 C 
ENDBRANCH   4   5
ENDBRANCH   2   4
BRANCH   1   7
HETATM    7  C5  UNL     1     -32.231   7.679   2.126  1.00 20.00     0.030 C 
HETATM    8  C3  UNL     1     -32.081   8.758   1.081  1.00 20.00     0.007 C 
ENDBRANCH   1   7
TORSDOF 3
ENDMDL
MODEL 6
REMARK VINA RESULT:      -1.6      1.764      2.579
REMARK  3 active torsions:
REMARK  status: ('A' for Active; 'I' for Inactive)
REMARK    1  A    between atoms: C1_1  and  C5_5 
REMARK    2  A    between atoms: C2_2  and  C6_6 
REMARK    3  A    between atoms: C6_6  and  C7_7 
ROOT
HETATM    1  C1  UNL     1     -32.346   7.336   1.592  1.00 20.00     0.150 A 
HETATM    2  C2  UNL     1     -33.139   8.040   2.666  1.00 20.00     0.151 A 
HETATM    3  O8  UNL     1     -31.717   8.189   2.559  1.00 20.00    -0.376 OA
ENDROOT
BRANCH   2   4
HETATM    4  C6  UNL     1     -33.614   7.352   3.936  1.00 20.00     0.034 C 
BRANCH   4   5
HETATM    5  C7  UNL     1     -35.009   6.755   3.761  1.00 20.00    -0.002 C 
HETATM    6  C4  UNL     1     -35.063   5.312   4.238  1.00 20.00     0.005 C 
ENDBRANCH   4   5
ENDBRANCH   2   4
BRANCH   1   7
HETATM    7  C5  UNL     1     -31.955   5.905   1.674  1.00 20.00     0.030 C 
HETATM    8  C3  UNL     1     -32.747   5.019   0.744  1.00 20.00     0.007 C 
ENDBRANCH   1   7
TORSDOF 3
ENDMDL
MODEL 7
REMARK VINA RESULT:      -1.6      1.570      4.515
REMARK  3 active torsions:
REMARK  status: ('A' for Active; 'I' for Inactive)
REMARK    1  A    between atoms: C1_1  and  C5_5 
REMARK    2  A    between atoms: C2_2  and  C6_6 
REMARK    3  A    between atoms: C6_6  and  C7_7 
ROOT
HETATM    1  C1  UNL     1     -34.226   7.205   4.326  1.00 20.00     0.150 A 
HETATM    2  C2  UNL     1     -33.080   7.722   3.490  1.00 20.00     0.151 A 
HETATM    3  O8  UNL     1     -34.291   8.471   3.654  1.00 20.00    -0.376 OA
ENDROOT
BRANCH   2   4
HETATM    4  C6  UNL     1     -32.808   7.253   2.069  1.00 20.00     0.034 C 
BRANCH   4   5
HETATM    5  C7  UNL     1     -31.743   8.112   1.391  1.00 20.00    -0.002 C 
HETATM    6  C4  UNL     1     -32.359   9.305   0.678  1.00 20.00     0.005 C 
ENDBRANCH   4   5
ENDBRANCH   2   4
BRANCH   1   7
HETATM    7  C5  UNL     1     -35.196   6.190   3.839  1.00 20.00     0.030 C 
HETATM    8  C3  UNL     1     -34.962   4.818   4.423  1.00 20.00     0.007 C 
ENDBRANCH   1   7
TORSDOF 3
ENDMDL
MODEL 8
REMARK VINA RESULT:      -1.0      2.188      4.278
REMARK  3 active torsions:
REMARK  status: ('A' for Active; 'I' for Inactive)
REMARK    1  A    between atoms: C1_1  and  C5_5 
REMARK    2  A    between atoms: C2_2  and  C6_6 
REMARK    3  A    between atoms: C6_6  and  C7_7 
ROOT
HETATM    1  C1  UNL     1     -34.098   7.192   4.377  1.00 20.00     0.150 A 
HETATM    2  C2  UNL     1     -33.069   7.885   3.518  1.00 20.00     0.151 A 
HETATM    3  O8  UNL     1     -34.257   8.555   3.960  1.00 20.00    -0.376 OA
ENDROOT
BRANCH   2   4
HETATM    4  C6  UNL     1     -32.971   7.688   2.014  1.00 20.00     0.034 C 
BRANCH   4   5
HETATM    5  C7  UNL     1     -31.878   6.684   1.651  1.00 20.00    -0.002 C 
HETATM    6  C4  UNL     1     -32.465   5.334   1.271  1.00 20.00     0.005 C 
ENDBRANCH   4   5
ENDBRANCH   2   4
BRANCH   1   7
HETATM    7  C5  UNL     1     -35.113   6.251   3.834  1.00 20.00     0.030 C 
HETATM    8  C3  UNL     1     -34.920   4.831   4.308  1.00 20.00     0.007 C 
ENDBRANCH   1   7
TORSDOF 3
ENDMDL
MODEL 9
REMARK VINA RESULT:      -1.0      1.745      4.065
REMARK  3 active torsions:
REMARK  status: ('A' for Active; 'I' for Inactive)
REMARK    1  A    between atoms: C1_1  and  C5_5 
REMARK    2  A    between atoms: C2_2  and  C6_6 
REMARK    3  A    between atoms: C6_6  and  C7_7 
ROOT
HETATM    1  C1  UNL     1     -32.674   6.622   2.535  1.00 20.00     0.150 A 
HETATM    2  C2  UNL     1     -32.047   7.981   2.342  1.00 20.00     0.151 A 
HETATM    3  O8  UNL     1     -33.439   7.830   2.652  1.00 20.00    -0.376 OA
ENDROOT
BRANCH   2   4
HETATM    4  C6  UNL     1     -31.761   8.580   0.974  1.00 20.00     0.034 C 
BRANCH   4   5
HETATM    5  C7  UNL     1     -32.478   9.916   0.787  1.00 20.00    -0.002 C 
HETATM    6  C4  UNL     1     -32.835  10.158  -0.671  1.00 20.00     0.005 C 
ENDBRANCH   4   5
ENDBRANCH   2   4
BRANCH   1   7
HETATM    7  C5  UNL     1     -33.070   5.740   1.406  1.00 20.00     0.030 C 
HETATM    8  C3  UNL     1     -31.944   4.862   0.916  1.00 20.00     0.007 C 
ENDBRANCH   1   7
TORSDOF 3
ENDMDL
