MODEL 1
REMARK VINA RESULT:      -2.6      0.000      0.000
REMARK  2 active torsions:
REMARK  status: ('A' for Active; 'I' for Inactive)
REMARK    1  A    between atoms: C2_2  and  C3_3 
REMARK    2  A    between atoms: C2_2  and  C4_4 
ROOT
HETATM    1  C1  UNL     1     -34.023   7.725   4.088  1.00 20.00     0.016 C 
HETATM    2  C2  UNL     1     -34.058   6.515   3.504  1.00 20.00    -0.062 C 
ENDROOT
BRANCH   2   3
HETATM    3  C3  UNL     1     -34.900   5.407   4.076  1.00 20.00     0.149 C 
HETATM    4 CL5  UNL     1     -33.956   3.909   4.222  1.00 20.00    -0.126 Cl
ENDBRANCH   2   3
BRANCH   2   5
HETATM    5  C4  UNL     1     -33.256   6.231   2.266  1.00 20.00     0.149 C 
HETATM    6 CL6  UNL     1     -32.213   7.611   1.859  1.00 20.00    -0.126 Cl
ENDBRANCH   2   5
TORSDOF 2
ENDMDL
MODEL 2
REMARK VINA RESULT:      -2.6      0.008      3.109
REMARK  2 active torsions:
REMARK  status: ('A' for Active; 'I' for Inactive)
REMARK    1  A    between atoms: C2_2  and  C3_3 
REMARK    2  A    between atoms: C2_2  and  C4_4 
ROOT
HETATM    1  C1  UNL     1     -34.033   7.720   4.085  1.00 20.00     0.016 C 
HETATM    2  C2  UNL     1     -34.061   6.509   3.506  1.00 20.00    -0.062 C 
ENDROOT
BRANCH   2   3
HETATM    3  C3  UNL     1     -33.252   6.227   2.269  1.00 20.00     0.149 C 
HETATM    4 CL5  UNL     1     -32.213   7.611   1.865  1.00 20.00    -0.126 Cl
ENDBRANCH   2   3
BRANCH   2   5
HETATM    5  C4  UNL     1     -34.900   5.399   4.073  1.00 20.00     0.149 C 
HETATM    6 CL6  UNL     1     -33.951   3.903   4.223  1.00 20.00    -0.126 Cl
ENDBRANCH   2   5
TORSDOF 2
ENDMDL
MODEL 3
REMARK VINA RESULT:      -2.5      1.859      3.975
REMARK  2 active torsions:
REMARK  status: ('A' for Active; 'I' for Inactive)
REMARK    1  A    between atoms: C2_2  and  C3_3 
REMARK    2  A    between atoms: C2_2  and  C4_4 
ROOT
HETATM    1  C1  UNL     1     -32.993   5.918   1.724  1.00 20.00     0.016 C 
HETATM    2  C2  UNL     1     -32.776   7.107   2.309  1.00 20.00    -0.062 C 
ENDROOT
BRANCH   2   3
HETATM    3  C3  UNL     1     -31.730   8.048   1.778  1.00 20.00     0.149 C 
HETATM    4 CL5  UNL     1     -32.462   9.270   0.714  1.00 20.00    -0.126 Cl
ENDBRANCH   2   3
BRANCH   2   5
HETATM    5  C4  UNL     1     -33.569   7.533   3.513  1.00 20.00     0.149 C 
HETATM    6 CL6  UNL     1     -34.959   6.454   3.766  1.00 20.00    -0.126 Cl
ENDBRANCH   2   5
TORSDOF 2
ENDMDL
MODEL 4
REMARK VINA RESULT:      -2.5      1.838      2.482
REMARK  2 active torsions:
REMARK  status: ('A' for Active; 'I' for Inactive)
REMARK    1  A    between atoms: C2_2  and  C3_3 
REMARK    2  A    between atoms: C2_2  and  C4_4 
ROOT
HETATM    1  C1  UNL     1     -33.033   5.917   1.724  1.00 20.00     0.016 C 
HETATM    2  C2  UNL     1     -32.807   7.100   2.317  1.00 20.00    -0.062 C 
ENDROOT
BRANCH   2   3
HETATM    3  C3  UNL     1     -33.612   7.531   3.512  1.00 20.00     0.149 C 
HETATM    4 CL5  UNL     1     -34.973   6.421   3.790  1.00 20.00    -0.126 Cl
ENDBRANCH   2   3
BRANCH   2   5
HETATM    5  C4  UNL     1     -31.746   8.032   1.803  1.00 20.00     0.149 C 
HETATM    6 CL6  UNL     1     -32.448   9.251   0.717  1.00 20.00    -0.126 Cl
ENDBRANCH   2   5
TORSDOF 2
ENDMDL
MODEL 5
REMARK VINA RESULT:      -2.3      1.932      2.995
REMARK  2 active torsions:
REMARK  status: ('A' for Active; 'I' for Inactive)
REMARK    1  A    between atoms: C2_2  and  C3_3 
REMARK    2  A    between atoms: C2_2  and  C4_4 
ROOT
HETATM    1  C1  UNL     1     -32.082   8.015   1.901  1.00 20.00     0.016 C 
HETATM    2  C2  UNL     1     -32.961   7.157   2.443  1.00 20.00    -0.062 C 
ENDROOT
BRANCH   2   3
HETATM    3  C3  UNL     1     -33.213   5.812   1.818  1.00 20.00     0.149 C 
HETATM    4 CL5  UNL     1     -31.728   5.172   1.081  1.00 20.00    -0.126 Cl
ENDBRANCH   2   3
BRANCH   2   5
HETATM    5  C4  UNL     1     -33.723   7.514   3.689  1.00 20.00     0.149 C 
HETATM    6 CL6  UNL     1     -35.117   6.433   3.908  1.00 20.00    -0.126 Cl
ENDBRANCH   2   5
TORSDOF 2
ENDMDL
MODEL 6
REMARK VINA RESULT:      -2.3      1.925      2.314
REMARK  2 active torsions:
REMARK  status: ('A' for Active; 'I' for Inactive)
REMARK    1  A    between atoms: C2_2  and  C3_3 
REMARK    2  A    between atoms: C2_2  and  C4_4 
ROOT
HETATM    1  C1  UNL     1     -32.086   8.028   1.911  1.00 20.00     0.016 C 
HETATM    2  C2  UNL     1     -32.961   7.161   2.447  1.00 20.00    -0.062 C 
ENDROOT
BRANCH   2   3
HETATM    3  C3  UNL     1     -33.727   7.510   3.694  1.00 20.00     0.149 C 
HETATM    4 CL5  UNL     1     -35.116   6.422   3.906  1.00 20.00    -0.126 Cl
ENDBRANCH   2   3
BRANCH   2   5
HETATM    5  C4  UNL     1     -33.200   5.816   1.821  1.00 20.00     0.149 C 
HETATM    6 CL6  UNL     1     -31.705   5.183   1.096  1.00 20.00    -0.126 Cl
ENDBRANCH   2   5
TORSDOF 2
ENDMDL
MODEL 7
REMARK VINA RESULT:      -2.2      0.853      3.109
REMARK  2 active torsions:
REMARK  status: ('A' for Active; 'I' for Inactive)
REMARK    1  A    between atoms: C2_2  and  C3_3 
REMARK    2  A    between atoms: C2_2  and  C4_4 
ROOT
HETATM    1  C1  UNL     1     -35.359   6.395   3.991  1.00 20.00     0.016 C 
HETATM    2  C2  UNL     1     -34.115   6.369   3.485  1.00 20.00    -0.062 C 
ENDROOT
BRANCH   2   3
HETATM    3  C3  UNL     1     -33.320   7.636   3.325  1.00 20.00     0.149 C 
HETATM    4 CL5  UNL     1     -32.251   7.535   1.909  1.00 20.00    -0.126 Cl
ENDBRANCH   2   3
BRANCH   2   5
HETATM    5  C4  UNL     1     -33.479   5.074   3.063  1.00 20.00     0.149 C 
HETATM    6 CL6  UNL     1     -33.850   3.781   4.225  1.00 20.00    -0.126 Cl
ENDBRANCH   2   5
TORSDOF 2
ENDMDL
MODEL 8
REMARK VINA RESULT:      -2.0      1.219      1.248
REMARK  2 active torsions:
REMARK  status: ('A' for Active; 'I' for Inactive)
REMARK    1  A    between atoms: C2_2  and  C3_3 
REMARK    2  A    between atoms: C2_2  and  C4_4 
ROOT
HETATM    1  C1  UNL     1     -33.573   7.952   4.899  1.00 20.00     0.016 C 
HETATM    2  C2  UNL     1     -33.914   7.305   3.772  1.00 20.00    -0.062 C 
ENDROOT
BRANCH   2   3
HETATM    3  C3  UNL     1     -35.125   6.414   3.731  1.00 20.00     0.149 C 
HETATM    4 CL5  UNL     1     -34.745   4.802   4.377  1.00 20.00    -0.126 Cl
ENDBRANCH   2   3
BRANCH   2   5
HETATM    5  C4  UNL     1     -33.096   7.450   2.520  1.00 20.00     0.149 C 
HETATM    6 CL6  UNL     1     -32.917   5.883   1.699  1.00 20.00    -0.126 Cl
ENDBRANCH   2   5
TORSDOF 2
ENDMDL
MODEL 9
REMARK VINA RESULT:      -1.8      2.108      3.356
REMARK  2 active torsions:
REMARK  status: ('A' for Active; 'I' for Inactive)
REMARK    1  A    between atoms: C2_2  and  C3_3 
REMARK    2  A    between atoms: C2_2  and  C4_4 
ROOT
HETATM    1  C1  UNL     1     -33.860   7.544   3.708  1.00 20.00     0.016 C 
HETATM    2  C2  UNL     1     -33.074   7.164   2.688  1.00 20.00    -0.062 C 
ENDROOT
BRANCH   2   3
HETATM    3  C3  UNL     1     -31.927   8.026   2.235  1.00 20.00     0.149 C 
HETATM    4 CL5  UNL     1     -32.416   9.065   0.878  1.00 20.00    -0.126 Cl
ENDBRANCH   2   3
BRANCH   2   5
HETATM    5  C4  UNL     1     -33.315   5.868   1.967  1.00 20.00     0.149 C 
HETATM    6 CL6  UNL     1     -31.850   5.343   1.106  1.00 20.00    -0.126 Cl
ENDBRANCH   2   5
TORSDOF 2
ENDMDL
