MODEL 1
REMARK VINA RESULT:       0.2      0.000      0.000
REMARK  2 active torsions:
REMARK  status: ('A' for Active; 'I' for Inactive)
REMARK    1  A    between atoms: C7_7  and  O9_9 
REMARK    2  A    between atoms: C8_8  and  O9_9 
ROOT
HETATM    1  O9  UNL     1     -33.809   7.877   2.387  1.00 20.00    -0.371 OA
ENDROOT
BRANCH   1   2
HETATM    2  C7  UNL     1     -33.974   7.011   3.510  1.00 20.00     0.051 C 
HETATM    3  C1  UNL     1     -33.439   7.719   4.754  1.00 20.00     0.045 C 
HETATM    4  C2  UNL     1     -35.468   6.725   3.655  1.00 20.00     0.045 C 
HETATM    5  C3  UNL     1     -33.204   5.719   3.245  1.00 20.00     0.045 C 
ENDBRANCH   1   2
BRANCH   1   6
HETATM    6  C8  UNL     1     -32.454   7.929   1.973  1.00 20.00     0.051 C 
HETATM    7  C4  UNL     1     -32.040   6.541   1.484  1.00 20.00     0.045 C 
HETATM    8  C5  UNL     1     -32.359   8.948   0.838  1.00 20.00     0.045 C 
HETATM    9  C6  UNL     1     -31.598   8.367   3.160  1.00 20.00     0.045 C 
ENDBRANCH   1   6
TORSDOF 2
ENDMDL
MODEL 2
REMARK VINA RESULT:       0.2      0.017      3.390
REMARK  2 active torsions:
REMARK  status: ('A' for Active; 'I' for Inactive)
REMARK    1  A    between atoms: C7_7  and  O9_9 
REMARK    2  A    between atoms: C8_8  and  O9_9 
ROOT
HETATM    1  O9  UNL     1     -33.804   7.882   2.390  1.00 20.00    -0.371 OA
ENDROOT
BRANCH   1   2
HETATM    2  C7  UNL     1     -32.442   7.940   1.969  1.00 20.00     0.051 C 
HETATM    3  C1  UNL     1     -32.023   6.553   1.483  1.00 20.00     0.045 C 
HETATM    4  C2  UNL     1     -32.354   8.956   0.833  1.00 20.00     0.045 C 
HETATM    5  C3  UNL     1     -31.585   8.383   3.153  1.00 20.00     0.045 C 
ENDBRANCH   1   2
BRANCH   1   6
HETATM    6  C8  UNL     1     -33.963   7.017   3.503  1.00 20.00     0.051 C 
HETATM    7  C4  UNL     1     -33.420   7.720   4.747  1.00 20.00     0.045 C 
HETATM    8  C5  UNL     1     -35.456   6.734   3.656  1.00 20.00     0.045 C 
HETATM    9  C6  UNL     1     -33.197   5.724   3.228  1.00 20.00     0.045 C 
ENDBRANCH   1   6
TORSDOF 2
ENDMDL
MODEL 3
REMARK VINA RESULT:       0.3      0.014      1.450
REMARK  2 active torsions:
REMARK  status: ('A' for Active; 'I' for Inactive)
REMARK    1  A    between atoms: C7_7  and  O9_9 
REMARK    2  A    between atoms: C8_8  and  O9_9 
ROOT
HETATM    1  O9  UNL     1     -33.810   7.885   2.393  1.00 20.00    -0.371 OA
ENDROOT
BRANCH   1   2
HETATM    2  C7  UNL     1     -33.977   7.007   3.506  1.00 20.00     0.051 C 
HETATM    3  C1  UNL     1     -33.191   5.725   3.237  1.00 20.00     0.045 C 
HETATM    4  C2  UNL     1     -33.435   7.721   4.742  1.00 20.00     0.045 C 
HETATM    5  C3  UNL     1     -35.466   6.708   3.669  1.00 20.00     0.045 C 
ENDBRANCH   1   2
BRANCH   1   6
HETATM    6  C8  UNL     1     -32.456   7.929   1.970  1.00 20.00     0.051 C 
HETATM    7  C4  UNL     1     -32.057   6.538   1.477  1.00 20.00     0.045 C 
HETATM    8  C5  UNL     1     -32.361   8.948   0.837  1.00 20.00     0.045 C 
HETATM    9  C6  UNL     1     -31.590   8.358   3.153  1.00 20.00     0.045 C 
ENDBRANCH   1   6
TORSDOF 2
ENDMDL
MODEL 4
REMARK VINA RESULT:       0.3      0.021      3.301
REMARK  2 active torsions:
REMARK  status: ('A' for Active; 'I' for Inactive)
REMARK    1  A    between atoms: C7_7  and  O9_9 
REMARK    2  A    between atoms: C8_8  and  O9_9 
ROOT
HETATM    1  O9  UNL     1     -33.807   7.889   2.395  1.00 20.00    -0.371 OA
ENDROOT
BRANCH   1   2
HETATM    2  C7  UNL     1     -32.447   7.938   1.966  1.00 20.00     0.051 C 
HETATM    3  C1  UNL     1     -32.041   6.549   1.475  1.00 20.00     0.045 C 
HETATM    4  C2  UNL     1     -32.358   8.957   0.832  1.00 20.00     0.045 C 
HETATM    5  C3  UNL     1     -31.580   8.372   3.147  1.00 20.00     0.045 C 
ENDBRANCH   1   2
BRANCH   1   6
HETATM    6  C8  UNL     1     -33.968   7.012   3.499  1.00 20.00     0.051 C 
HETATM    7  C4  UNL     1     -33.186   5.729   3.218  1.00 20.00     0.045 C 
HETATM    8  C5  UNL     1     -33.414   7.720   4.733  1.00 20.00     0.045 C 
HETATM    9  C6  UNL     1     -35.457   6.716   3.673  1.00 20.00     0.045 C 
ENDBRANCH   1   6
TORSDOF 2
ENDMDL
MODEL 5
REMARK VINA RESULT:       0.3      0.024      1.448
REMARK  2 active torsions:
REMARK  status: ('A' for Active; 'I' for Inactive)
REMARK    1  A    between atoms: C7_7  and  O9_9 
REMARK    2  A    between atoms: C8_8  and  O9_9 
ROOT
HETATM    1  O9  UNL     1     -33.799   7.889   2.383  1.00 20.00    -0.371 OA
ENDROOT
BRANCH   1   2
HETATM    2  C7  UNL     1     -33.965   7.022   3.505  1.00 20.00     0.051 C 
HETATM    3  C1  UNL     1     -35.454   6.722   3.673  1.00 20.00     0.045 C 
HETATM    4  C2  UNL     1     -33.188   5.740   3.215  1.00 20.00     0.045 C 
HETATM    5  C3  UNL     1     -33.407   7.719   4.745  1.00 20.00     0.045 C 
ENDBRANCH   1   2
BRANCH   1   6
HETATM    6  C8  UNL     1     -32.443   7.943   1.971  1.00 20.00     0.051 C 
HETATM    7  C4  UNL     1     -32.026   6.555   1.486  1.00 20.00     0.045 C 
HETATM    8  C5  UNL     1     -32.348   8.959   0.834  1.00 20.00     0.045 C 
HETATM    9  C6  UNL     1     -31.590   8.386   3.159  1.00 20.00     0.045 C 
ENDBRANCH   1   6
TORSDOF 2
ENDMDL
MODEL 6
REMARK VINA RESULT:       0.3      0.025      3.278
REMARK  2 active torsions:
REMARK  status: ('A' for Active; 'I' for Inactive)
REMARK    1  A    between atoms: C7_7  and  O9_9 
REMARK    2  A    between atoms: C8_8  and  O9_9 
ROOT
HETATM    1  O9  UNL     1     -33.812   7.891   2.395  1.00 20.00    -0.371 OA
ENDROOT
BRANCH   1   2
HETATM    2  C7  UNL     1     -32.451   7.943   1.967  1.00 20.00     0.051 C 
HETATM    3  C1  UNL     1     -32.041   6.556   1.474  1.00 20.00     0.045 C 
HETATM    4  C2  UNL     1     -32.363   8.963   0.834  1.00 20.00     0.045 C 
HETATM    5  C3  UNL     1     -31.586   8.378   3.149  1.00 20.00     0.045 C 
ENDBRANCH   1   2
BRANCH   1   6
HETATM    6  C8  UNL     1     -33.968   7.027   3.509  1.00 20.00     0.051 C 
HETATM    7  C4  UNL     1     -35.456   6.719   3.680  1.00 20.00     0.045 C 
HETATM    8  C5  UNL     1     -33.186   5.749   3.214  1.00 20.00     0.045 C 
HETATM    9  C6  UNL     1     -33.410   7.724   4.749  1.00 20.00     0.045 C 
ENDBRANCH   1   6
TORSDOF 2
ENDMDL
MODEL 7
REMARK VINA RESULT:       0.3      0.016      1.450
REMARK  2 active torsions:
REMARK  status: ('A' for Active; 'I' for Inactive)
REMARK    1  A    between atoms: C7_7  and  O9_9 
REMARK    2  A    between atoms: C8_8  and  O9_9 
ROOT
HETATM    1  O9  UNL     1     -33.816   7.861   2.374  1.00 20.00    -0.371 OA
ENDROOT
BRANCH   1   2
HETATM    2  C7  UNL     1     -33.970   7.005   3.506  1.00 20.00     0.051 C 
HETATM    3  C1  UNL     1     -33.426   7.723   4.739  1.00 20.00     0.045 C 
HETATM    4  C2  UNL     1     -35.462   6.718   3.665  1.00 20.00     0.045 C 
HETATM    5  C3  UNL     1     -33.200   5.711   3.245  1.00 20.00     0.045 C 
ENDBRANCH   1   2
BRANCH   1   6
HETATM    6  C8  UNL     1     -32.459   7.939   1.969  1.00 20.00     0.051 C 
HETATM    7  C4  UNL     1     -31.616   8.363   3.171  1.00 20.00     0.045 C 
HETATM    8  C5  UNL     1     -32.043   6.551   1.485  1.00 20.00     0.045 C 
HETATM    9  C6  UNL     1     -32.346   8.958   0.837  1.00 20.00     0.045 C 
ENDBRANCH   1   6
TORSDOF 2
ENDMDL
MODEL 8
REMARK VINA RESULT:       1.1      1.228      2.374
REMARK  2 active torsions:
REMARK  status: ('A' for Active; 'I' for Inactive)
REMARK    1  A    between atoms: C7_7  and  O9_9 
REMARK    2  A    between atoms: C8_8  and  O9_9 
ROOT
HETATM    1  O9  UNL     1     -33.155   5.990   3.114  1.00 20.00    -0.371 OA
ENDROOT
BRANCH   1   2
HETATM    2  C7  UNL     1     -33.981   7.047   3.602  1.00 20.00     0.051 C 
HETATM    3  C1  UNL     1     -34.102   8.113   2.514  1.00 20.00     0.045 C 
HETATM    4  C2  UNL     1     -35.350   6.450   3.924  1.00 20.00     0.045 C 
HETATM    5  C3  UNL     1     -33.338   7.625   4.861  1.00 20.00     0.045 C 
ENDBRANCH   1   2
BRANCH   1   6
HETATM    6  C8  UNL     1     -32.675   6.272   1.809  1.00 20.00     0.051 C 
HETATM    7  C4  UNL     1     -32.027   7.656   1.818  1.00 20.00     0.045 C 
HETATM    8  C5  UNL     1     -31.647   5.200   1.455  1.00 20.00     0.045 C 
HETATM    9  C6  UNL     1     -33.853   6.228   0.837  1.00 20.00     0.045 C 
ENDBRANCH   1   6
TORSDOF 2
ENDMDL
MODEL 9
REMARK VINA RESULT:       1.1      1.230      2.548
REMARK  2 active torsions:
REMARK  status: ('A' for Active; 'I' for Inactive)
REMARK    1  A    between atoms: C7_7  and  O9_9 
REMARK    2  A    between atoms: C8_8  and  O9_9 
ROOT
HETATM    1  O9  UNL     1     -33.121   6.012   3.132  1.00 20.00    -0.371 OA
ENDROOT
BRANCH   1   2
HETATM    2  C7  UNL     1     -33.984   7.048   3.601  1.00 20.00     0.051 C 
HETATM    3  C1  UNL     1     -35.354   6.442   3.901  1.00 20.00     0.045 C 
HETATM    4  C2  UNL     1     -33.362   7.626   4.870  1.00 20.00     0.045 C 
HETATM    5  C3  UNL     1     -34.089   8.121   2.519  1.00 20.00     0.045 C 
ENDBRANCH   1   2
BRANCH   1   6
HETATM    6  C8  UNL     1     -32.671   6.275   1.813  1.00 20.00     0.051 C 
HETATM    7  C4  UNL     1     -32.006   7.651   1.791  1.00 20.00     0.045 C 
HETATM    8  C5  UNL     1     -31.665   5.186   1.444  1.00 20.00     0.045 C 
HETATM    9  C6  UNL     1     -33.874   6.236   0.871  1.00 20.00     0.045 C 
ENDBRANCH   1   6
TORSDOF 2
ENDMDL
