MODEL 1
REMARK VINA RESULT:      -2.1      0.000      0.000
REMARK  2 active torsions:
REMARK  status: ('A' for Active; 'I' for Inactive)
REMARK    1  A    between atoms: C1_1  and  C2_2 
REMARK    2  A    between atoms: C1_1  and  C3_3 
ROOT
HETATM    1  C1  UNL     1     -33.321   6.171   3.303  1.00 20.00     0.148 C 
HETATM    2 CL4  UNL     1     -33.979   7.686   4.042  1.00 20.00    -0.119 Cl
ENDROOT
BRANCH   1   3
HETATM    3  C2  UNL     1     -32.963   6.440   1.827  1.00 20.00     0.199 C 
HETATM    4 CL5  UNL     1     -31.989   7.936   1.647  1.00 20.00    -0.106 Cl
HETATM    5 CL6  UNL     1     -32.016   5.100   1.112  1.00 20.00    -0.106 Cl
ENDBRANCH   1   3
BRANCH   1   6
HETATM    6  C3  UNL     1     -34.305   5.000   3.521  1.00 20.00     0.199 C 
HETATM    7 CL7  UNL     1     -35.712   5.444   4.525  1.00 20.00    -0.106 Cl
HETATM    8 CL8  UNL     1     -33.491   3.575   4.235  1.00 20.00    -0.106 Cl
ENDBRANCH   1   6
TORSDOF 2
ENDMDL
MODEL 2
REMARK VINA RESULT:      -1.7      0.823      4.069
REMARK  2 active torsions:
REMARK  status: ('A' for Active; 'I' for Inactive)
REMARK    1  A    between atoms: C1_1  and  C2_2 
REMARK    2  A    between atoms: C1_1  and  C3_3 
ROOT
HETATM    1  C1  UNL     1     -33.205   6.077   3.154  1.00 20.00     0.148 C 
HETATM    2 CL4  UNL     1     -33.666   4.344   3.398  1.00 20.00    -0.119 Cl
ENDROOT
BRANCH   1   3
HETATM    3  C2  UNL     1     -34.344   6.983   3.664  1.00 20.00     0.199 C 
HETATM    4 CL5  UNL     1     -35.697   6.021   4.345  1.00 20.00    -0.106 Cl
HETATM    5 CL6  UNL     1     -33.788   8.100   4.947  1.00 20.00    -0.106 Cl
ENDBRANCH   1   3
BRANCH   1   6
HETATM    6  C3  UNL     1     -32.803   6.320   1.682  1.00 20.00     0.199 C 
HETATM    7 CL7  UNL     1     -31.825   4.995   0.994  1.00 20.00    -0.106 Cl
HETATM    8 CL8  UNL     1     -31.929   7.869   1.481  1.00 20.00    -0.106 Cl
ENDBRANCH   1   6
TORSDOF 2
ENDMDL
MODEL 3
REMARK VINA RESULT:      -1.7      0.783      4.016
REMARK  2 active torsions:
REMARK  status: ('A' for Active; 'I' for Inactive)
REMARK    1  A    between atoms: C1_1  and  C2_2 
REMARK    2  A    between atoms: C1_1  and  C3_3 
ROOT
HETATM    1  C1  UNL     1     -33.043   5.934   2.884  1.00 20.00     0.148 C 
HETATM    2 CL4  UNL     1     -32.521   5.414   1.231  1.00 20.00    -0.119 Cl
ENDROOT
BRANCH   1   3
HETATM    3  C2  UNL     1     -34.282   5.117   3.307  1.00 20.00     0.199 C 
HETATM    4 CL5  UNL     1     -33.832   3.733   4.357  1.00 20.00    -0.106 Cl
HETATM    5 CL6  UNL     1     -35.463   6.110   4.212  1.00 20.00    -0.106 Cl
ENDBRANCH   1   3
BRANCH   1   6
HETATM    6  C3  UNL     1     -33.241   7.465   2.925  1.00 20.00     0.199 C 
HETATM    7 CL7  UNL     1     -32.165   8.341   1.803  1.00 20.00    -0.106 Cl
HETATM    8 CL8  UNL     1     -33.032   8.117   4.579  1.00 20.00    -0.106 Cl
ENDBRANCH   1   6
TORSDOF 2
ENDMDL
MODEL 4
REMARK VINA RESULT:      -1.7      1.269      2.838
REMARK  2 active torsions:
REMARK  status: ('A' for Active; 'I' for Inactive)
REMARK    1  A    between atoms: C1_1  and  C2_2 
REMARK    2  A    between atoms: C1_1  and  C3_3 
ROOT
HETATM    1  C1  UNL     1     -33.105   6.636   1.985  1.00 20.00     0.148 C 
HETATM    2 CL4  UNL     1     -32.420   5.202   1.118  1.00 20.00    -0.119 Cl
ENDROOT
BRANCH   1   3
HETATM    3  C2  UNL     1     -32.052   7.763   2.016  1.00 20.00     0.199 C 
HETATM    4 CL5  UNL     1     -32.420   9.041   0.811  1.00 20.00    -0.106 Cl
HETATM    5 CL6  UNL     1     -31.961   8.552   3.618  1.00 20.00    -0.106 Cl
ENDBRANCH   1   3
BRANCH   1   6
HETATM    6  C3  UNL     1     -33.635   6.216   3.375  1.00 20.00     0.199 C 
HETATM    7 CL7  UNL     1     -33.700   4.446   3.595  1.00 20.00    -0.106 Cl
HETATM    8 CL8  UNL     1     -35.248   6.916   3.708  1.00 20.00    -0.106 Cl
ENDBRANCH   1   6
TORSDOF 2
ENDMDL
MODEL 5
REMARK VINA RESULT:      -1.5      0.893      2.540
REMARK  2 active torsions:
REMARK  status: ('A' for Active; 'I' for Inactive)
REMARK    1  A    between atoms: C1_1  and  C2_2 
REMARK    2  A    between atoms: C1_1  and  C3_3 
ROOT
HETATM    1  C1  UNL     1     -33.602   6.240   2.448  1.00 20.00     0.148 C 
HETATM    2 CL4  UNL     1     -32.374   5.234   1.578  1.00 20.00    -0.119 Cl
ENDROOT
BRANCH   1   3
HETATM    3  C2  UNL     1     -33.086   7.690   2.559  1.00 20.00     0.199 C 
HETATM    4 CL5  UNL     1     -32.783   8.152   4.266  1.00 20.00    -0.106 Cl
HETATM    5 CL6  UNL     1     -31.556   7.927   1.664  1.00 20.00    -0.106 Cl
ENDBRANCH   1   3
BRANCH   1   6
HETATM    6  C3  UNL     1     -33.968   5.585   3.799  1.00 20.00     0.199 C 
HETATM    7 CL7  UNL     1     -33.760   3.813   3.798  1.00 20.00    -0.106 Cl
HETATM    8 CL8  UNL     1     -35.639   5.986   4.299  1.00 20.00    -0.106 Cl
ENDBRANCH   1   6
TORSDOF 2
ENDMDL
MODEL 6
REMARK VINA RESULT:      -1.3      1.060      3.342
REMARK  2 active torsions:
REMARK  status: ('A' for Active; 'I' for Inactive)
REMARK    1  A    between atoms: C1_1  and  C2_2 
REMARK    2  A    between atoms: C1_1  and  C3_3 
ROOT
HETATM    1  C1  UNL     1     -34.191   6.453   3.086  1.00 20.00     0.148 C 
HETATM    2 CL4  UNL     1     -35.472   6.078   4.308  1.00 20.00    -0.119 Cl
ENDROOT
BRANCH   1   3
HETATM    3  C2  UNL     1     -33.136   5.327   3.094  1.00 20.00     0.199 C 
HETATM    4 CL5  UNL     1     -33.775   3.830   3.850  1.00 20.00    -0.106 Cl
HETATM    5 CL6  UNL     1     -32.598   4.901   1.442  1.00 20.00    -0.106 Cl
ENDBRANCH   1   3
BRANCH   1   6
HETATM    6  C3  UNL     1     -33.620   7.868   3.328  1.00 20.00     0.199 C 
HETATM    7 CL7  UNL     1     -32.170   8.215   2.346  1.00 20.00    -0.106 Cl
HETATM    8 CL8  UNL     1     -33.248   8.147   5.056  1.00 20.00    -0.106 Cl
ENDBRANCH   1   6
TORSDOF 2
ENDMDL
MODEL 7
REMARK VINA RESULT:      -1.3      1.111      2.729
REMARK  2 active torsions:
REMARK  status: ('A' for Active; 'I' for Inactive)
REMARK    1  A    between atoms: C1_1  and  C2_2 
REMARK    2  A    between atoms: C1_1  and  C3_3 
ROOT
HETATM    1  C1  UNL     1     -32.879   6.931   2.932  1.00 20.00     0.148 C 
HETATM    2 CL4  UNL     1     -32.212   8.077   1.700  1.00 20.00    -0.119 Cl
ENDROOT
BRANCH   1   3
HETATM    3  C2  UNL     1     -33.277   5.612   2.237  1.00 20.00     0.199 C 
HETATM    4 CL5  UNL     1     -32.054   5.112   1.024  1.00 20.00    -0.106 Cl
HETATM    5 CL6  UNL     1     -33.452   4.267   3.403  1.00 20.00    -0.106 Cl
ENDBRANCH   1   3
BRANCH   1   6
HETATM    6  C3  UNL     1     -34.020   7.606   3.727  1.00 20.00     0.199 C 
HETATM    7 CL7  UNL     1     -33.492   8.235   5.311  1.00 20.00    -0.106 Cl
HETATM    8 CL8  UNL     1     -35.410   6.503   3.958  1.00 20.00    -0.106 Cl
ENDBRANCH   1   6
TORSDOF 2
ENDMDL
MODEL 8
REMARK VINA RESULT:      -1.2      1.459      3.719
REMARK  2 active torsions:
REMARK  status: ('A' for Active; 'I' for Inactive)
REMARK    1  A    between atoms: C1_1  and  C2_2 
REMARK    2  A    between atoms: C1_1  and  C3_3 
ROOT
HETATM    1  C1  UNL     1     -33.424   7.218   2.257  1.00 20.00     0.148 C 
HETATM    2 CL4  UNL     1     -33.982   7.501   3.955  1.00 20.00    -0.119 Cl
ENDROOT
BRANCH   1   3
HETATM    3  C2  UNL     1     -33.363   5.700   1.989  1.00 20.00     0.199 C 
HETATM    4 CL5  UNL     1     -31.776   5.216   1.304  1.00 20.00    -0.106 Cl
HETATM    5 CL6  UNL     1     -33.612   4.744   3.480  1.00 20.00    -0.106 Cl
ENDBRANCH   1   3
BRANCH   1   6
HETATM    6  C3  UNL     1     -32.098   7.968   1.999  1.00 20.00     0.199 C 
HETATM    7 CL7  UNL     1     -31.444   8.760   3.459  1.00 20.00    -0.106 Cl
HETATM    8 CL8  UNL     1     -32.266   9.179   0.692  1.00 20.00    -0.106 Cl
ENDBRANCH   1   6
TORSDOF 2
ENDMDL
MODEL 9
REMARK VINA RESULT:      -1.2      1.660      2.867
REMARK  2 active torsions:
REMARK  status: ('A' for Active; 'I' for Inactive)
REMARK    1  A    between atoms: C1_1  and  C2_2 
REMARK    2  A    between atoms: C1_1  and  C3_3 
ROOT
HETATM    1  C1  UNL     1     -33.420   7.135   2.236  1.00 20.00     0.148 C 
HETATM    2 CL4  UNL     1     -32.890   5.625   1.390  1.00 20.00    -0.119 Cl
ENDROOT
BRANCH   1   3
HETATM    3  C2  UNL     1     -32.327   8.213   2.085  1.00 20.00     0.199 C 
HETATM    4 CL5  UNL     1     -30.751   7.492   1.619  1.00 20.00    -0.106 Cl
HETATM    5 CL6  UNL     1     -32.747   9.424   0.837  1.00 20.00    -0.106 Cl
ENDBRANCH   1   3
BRANCH   1   6
HETATM    6  C3  UNL     1     -33.812   6.819   3.697  1.00 20.00     0.199 C 
HETATM    7 CL7  UNL     1     -35.512   6.305   3.871  1.00 20.00    -0.106 Cl
HETATM    8 CL8  UNL     1     -33.497   8.207   4.782  1.00 20.00    -0.106 Cl
ENDBRANCH   1   6
TORSDOF 2
ENDMDL
