MODEL 1
REMARK VINA RESULT:      -3.6      0.000      0.000
REMARK  5 active torsions:
REMARK  status: ('A' for Active; 'I' for Inactive)
REMARK    1  A    between atoms: C3_3  and  C7_7 
REMARK    2  A    between atoms: C4_4  and  C8_8 
REMARK    3  A    between atoms: C7_7  and  C9_9 
REMARK    4  A    between atoms: C8_8  and  C10_10 
REMARK    5  A    between atoms: C9_9  and  C10_10 
ROOT
HETATM    1  C1  UNL     1     -33.899   3.782   4.422  1.00 20.00    -0.111 C 
HETATM    2  C3  UNL     1     -34.451   4.833   4.243  1.00 20.00    -0.107 C 
HETATM    3  C5  UNL     1     -33.224   2.502   4.640  1.00 20.00     0.112 C 
ENDROOT
BRANCH   2   4
HETATM    4  C7  UNL     1     -35.128   6.119   4.022  1.00 20.00     0.094 C 
BRANCH   4   5
HETATM    5  C9  UNL     1     -34.188   7.174   3.434  1.00 20.00     0.013 C 
BRANCH   5   6
HETATM    6  C10 UNL     1     -33.293   6.618   2.319  1.00 20.00     0.013 C 
BRANCH   6   7
HETATM    7  C8  UNL     1     -32.015   7.435   2.122  1.00 20.00     0.094 C 
BRANCH   7   8
HETATM    8  C4  UNL     1     -32.221   8.583   1.228  1.00 20.00    -0.107 C 
HETATM    9  C2  UNL     1     -32.391   9.520   0.496  1.00 20.00    -0.111 C 
HETATM   10  C6  UNL     1     -32.597  10.663  -0.392  1.00 20.00     0.112 C 
ENDBRANCH   7   8
ENDBRANCH   6   7
ENDBRANCH   5   6
ENDBRANCH   4   5
ENDBRANCH   2   4
TORSDOF 5
ENDMDL
MODEL 2
REMARK VINA RESULT:      -3.6      0.044      6.138
REMARK  5 active torsions:
REMARK  status: ('A' for Active; 'I' for Inactive)
REMARK    1  A    between atoms: C3_3  and  C7_7 
REMARK    2  A    between atoms: C4_4  and  C8_8 
REMARK    3  A    between atoms: C7_7  and  C9_9 
REMARK    4  A    between atoms: C8_8  and  C10_10 
REMARK    5  A    between atoms: C9_9  and  C10_10 
ROOT
HETATM    1  C1  UNL     1     -32.373   9.524   0.510  1.00 20.00    -0.111 C 
HETATM    2  C3  UNL     1     -32.216   8.604   1.265  1.00 20.00    -0.107 C 
HETATM    3  C5  UNL     1     -32.566  10.644  -0.411  1.00 20.00     0.112 C 
ENDROOT
BRANCH   2   4
HETATM    4  C7  UNL     1     -32.022   7.477   2.189  1.00 20.00     0.094 C 
BRANCH   4   5
HETATM    5  C9  UNL     1     -33.296   6.649   2.367  1.00 20.00     0.013 C 
BRANCH   5   6
HETATM    6  C10 UNL     1     -34.207   7.192   3.477  1.00 20.00     0.013 C 
BRANCH   6   7
HETATM    7  C8  UNL     1     -35.147   6.128   4.046  1.00 20.00     0.094 C 
BRANCH   7   8
HETATM    8  C4  UNL     1     -34.466   4.844   4.263  1.00 20.00    -0.107 C 
HETATM    9  C2  UNL     1     -33.908   3.795   4.440  1.00 20.00    -0.111 C 
HETATM   10  C6  UNL     1     -33.230   2.518   4.658  1.00 20.00     0.112 C 
ENDBRANCH   7   8
ENDBRANCH   6   7
ENDBRANCH   5   6
ENDBRANCH   4   5
ENDBRANCH   2   4
TORSDOF 5
ENDMDL
MODEL 3
REMARK VINA RESULT:      -2.8      1.794      5.050
REMARK  5 active torsions:
REMARK  status: ('A' for Active; 'I' for Inactive)
REMARK    1  A    between atoms: C3_3  and  C7_7 
REMARK    2  A    between atoms: C4_4  and  C8_8 
REMARK    3  A    between atoms: C7_7  and  C9_9 
REMARK    4  A    between atoms: C8_8  and  C10_10 
REMARK    5  A    between atoms: C9_9  and  C10_10 
ROOT
HETATM    1  C1  UNL     1     -32.325   5.770   1.319  1.00 20.00    -0.111 C 
HETATM    2  C3  UNL     1     -32.476   6.738   2.014  1.00 20.00    -0.107 C 
HETATM    3  C5  UNL     1     -32.140   4.590   0.475  1.00 20.00     0.112 C 
ENDROOT
BRANCH   2   4
HETATM    4  C7  UNL     1     -32.660   7.924   2.863  1.00 20.00     0.094 C 
BRANCH   4   5
HETATM    5  C9  UNL     1     -33.760   7.723   3.908  1.00 20.00     0.013 C 
BRANCH   5   6
HETATM    6  C10 UNL     1     -34.982   6.982   3.349  1.00 20.00     0.013 C 
BRANCH   6   7
HETATM    7  C8  UNL     1     -35.504   5.900   4.297  1.00 20.00     0.094 C 
BRANCH   7   8
HETATM    8  C4  UNL     1     -34.602   4.741   4.365  1.00 20.00    -0.107 C 
HETATM    9  C2  UNL     1     -33.865   3.795   4.421  1.00 20.00    -0.111 C 
HETATM   10  C6  UNL     1     -32.969   2.641   4.490  1.00 20.00     0.112 C 
ENDBRANCH   7   8
ENDBRANCH   6   7
ENDBRANCH   5   6
ENDBRANCH   4   5
ENDBRANCH   2   4
TORSDOF 5
ENDMDL
MODEL 4
REMARK VINA RESULT:      -2.8      1.773      2.522
REMARK  5 active torsions:
REMARK  status: ('A' for Active; 'I' for Inactive)
REMARK    1  A    between atoms: C3_3  and  C7_7 
REMARK    2  A    between atoms: C4_4  and  C8_8 
REMARK    3  A    between atoms: C7_7  and  C9_9 
REMARK    4  A    between atoms: C8_8  and  C10_10 
REMARK    5  A    between atoms: C9_9  and  C10_10 
ROOT
HETATM    1  C1  UNL     1     -33.839   3.773   4.439  1.00 20.00    -0.111 C 
HETATM    2  C3  UNL     1     -34.574   4.721   4.387  1.00 20.00    -0.107 C 
HETATM    3  C5  UNL     1     -32.944   2.617   4.504  1.00 20.00     0.112 C 
ENDROOT
BRANCH   2   4
HETATM    4  C7  UNL     1     -35.473   5.882   4.324  1.00 20.00     0.094 C 
BRANCH   4   5
HETATM    5  C9  UNL     1     -34.965   6.956   3.360  1.00 20.00     0.013 C 
BRANCH   5   6
HETATM    6  C10 UNL     1     -33.714   7.677   3.881  1.00 20.00     0.013 C 
BRANCH   6   7
HETATM    7  C8  UNL     1     -32.665   7.905   2.791  1.00 20.00     0.094 C 
BRANCH   7   8
HETATM    8  C4  UNL     1     -32.452   6.707   1.967  1.00 20.00    -0.107 C 
HETATM    9  C2  UNL     1     -32.280   5.728   1.293  1.00 20.00    -0.111 C 
HETATM   10  C6  UNL     1     -32.066   4.536   0.473  1.00 20.00     0.112 C 
ENDBRANCH   7   8
ENDBRANCH   6   7
ENDBRANCH   5   6
ENDBRANCH   4   5
ENDBRANCH   2   4
TORSDOF 5
ENDMDL
MODEL 5
REMARK VINA RESULT:      -1.7      1.761      5.039
REMARK  5 active torsions:
REMARK  status: ('A' for Active; 'I' for Inactive)
REMARK    1  A    between atoms: C3_3  and  C7_7 
REMARK    2  A    between atoms: C4_4  and  C8_8 
REMARK    3  A    between atoms: C7_7  and  C9_9 
REMARK    4  A    between atoms: C8_8  and  C10_10 
REMARK    5  A    between atoms: C9_9  and  C10_10 
ROOT
HETATM    1  C1  UNL     1     -32.884   5.098   0.493  1.00 20.00    -0.111 C 
HETATM    2  C3  UNL     1     -32.608   5.986   1.253  1.00 20.00    -0.107 C 
HETATM    3  C5  UNL     1     -33.221   4.015  -0.431  1.00 20.00     0.112 C 
ENDROOT
BRANCH   2   4
HETATM    4  C7  UNL     1     -32.269   7.072   2.183  1.00 20.00     0.094 C 
BRANCH   4   5
HETATM    5  C9  UNL     1     -33.498   7.888   2.593  1.00 20.00     0.013 C 
BRANCH   5   6
HETATM    6  C10 UNL     1     -34.038   7.493   3.975  1.00 20.00     0.013 C 
BRANCH   6   7
HETATM    7  C8  UNL     1     -35.048   6.345   3.910  1.00 20.00     0.094 C 
BRANCH   7   8
HETATM    8  C4  UNL     1     -34.416   5.037   4.134  1.00 20.00    -0.107 C 
HETATM    9  C2  UNL     1     -33.898   3.969   4.318  1.00 20.00    -0.111 C 
HETATM   10  C6  UNL     1     -33.271   2.668   4.541  1.00 20.00     0.112 C 
ENDBRANCH   7   8
ENDBRANCH   6   7
ENDBRANCH   5   6
ENDBRANCH   4   5
ENDBRANCH   2   4
TORSDOF 5
ENDMDL
MODEL 6
REMARK VINA RESULT:      -0.9      1.586      2.714
REMARK  5 active torsions:
REMARK  status: ('A' for Active; 'I' for Inactive)
REMARK    1  A    between atoms: C3_3  and  C7_7 
REMARK    2  A    between atoms: C4_4  and  C8_8 
REMARK    3  A    between atoms: C7_7  and  C9_9 
REMARK    4  A    between atoms: C8_8  and  C10_10 
REMARK    5  A    between atoms: C9_9  and  C10_10 
ROOT
HETATM    1  C1  UNL     1     -33.633   7.914   4.872  1.00 20.00    -0.111 C 
HETATM    2  C3  UNL     1     -34.088   7.132   4.083  1.00 20.00    -0.107 C 
HETATM    3  C5  UNL     1     -33.081   8.868   5.834  1.00 20.00     0.112 C 
ENDROOT
BRANCH   2   4
HETATM    4  C7  UNL     1     -34.644   6.175   3.116  1.00 20.00     0.094 C 
BRANCH   4   5
HETATM    5  C9  UNL     1     -33.578   5.232   2.555  1.00 20.00     0.013 C 
BRANCH   5   6
HETATM    6  C10 UNL     1     -32.833   5.827   1.352  1.00 20.00     0.013 C 
BRANCH   6   7
HETATM    7  C8  UNL     1     -31.785   6.865   1.757  1.00 20.00     0.094 C 
BRANCH   7   8
HETATM    8  C4  UNL     1     -32.076   8.194   1.201  1.00 20.00    -0.107 C 
HETATM    9  C2  UNL     1     -32.314   9.279   0.745  1.00 20.00    -0.111 C 
HETATM   10  C6  UNL     1     -32.604  10.601   0.194  1.00 20.00     0.112 C 
ENDBRANCH   7   8
ENDBRANCH   6   7
ENDBRANCH   5   6
ENDBRANCH   4   5
ENDBRANCH   2   4
TORSDOF 5
ENDMDL
MODEL 7
REMARK VINA RESULT:      -0.9      1.615      5.247
REMARK  5 active torsions:
REMARK  status: ('A' for Active; 'I' for Inactive)
REMARK    1  A    between atoms: C3_3  and  C7_7 
REMARK    2  A    between atoms: C4_4  and  C8_8 
REMARK    3  A    between atoms: C7_7  and  C9_9 
REMARK    4  A    between atoms: C8_8  and  C10_10 
REMARK    5  A    between atoms: C9_9  and  C10_10 
ROOT
HETATM    1  C1  UNL     1     -32.310   9.303   0.724  1.00 20.00    -0.111 C 
HETATM    2  C3  UNL     1     -32.063   8.218   1.174  1.00 20.00    -0.107 C 
HETATM    3  C5  UNL     1     -32.613  10.625   0.175  1.00 20.00     0.112 C 
ENDROOT
BRANCH   2   4
HETATM    4  C7  UNL     1     -31.760   6.889   1.724  1.00 20.00     0.094 C 
BRANCH   4   5
HETATM    5  C9  UNL     1     -32.801   5.843   1.319  1.00 20.00     0.013 C 
BRANCH   5   6
HETATM    6  C10 UNL     1     -33.564   5.267   2.520  1.00 20.00     0.013 C 
BRANCH   6   7
HETATM    7  C8  UNL     1     -34.629   6.224   3.059  1.00 20.00     0.094 C 
BRANCH   7   8
HETATM    8  C4  UNL     1     -34.084   7.158   4.054  1.00 20.00    -0.107 C 
HETATM    9  C2  UNL     1     -33.639   7.922   4.868  1.00 20.00    -0.111 C 
HETATM   10  C6  UNL     1     -33.095   8.851   5.856  1.00 20.00     0.112 C 
ENDBRANCH   7   8
ENDBRANCH   6   7
ENDBRANCH   5   6
ENDBRANCH   4   5
ENDBRANCH   2   4
TORSDOF 5
ENDMDL
MODEL 8
REMARK VINA RESULT:      -0.8      1.655      2.268
REMARK  5 active torsions:
REMARK  status: ('A' for Active; 'I' for Inactive)
REMARK    1  A    between atoms: C3_3  and  C7_7 
REMARK    2  A    between atoms: C4_4  and  C8_8 
REMARK    3  A    between atoms: C7_7  and  C9_9 
REMARK    4  A    between atoms: C8_8  and  C10_10 
REMARK    5  A    between atoms: C9_9  and  C10_10 
ROOT
HETATM    1  C1  UNL     1     -32.652   5.171   1.523  1.00 20.00    -0.111 C 
HETATM    2  C3  UNL     1     -33.350   5.555   2.421  1.00 20.00    -0.107 C 
HETATM    3  C5  UNL     1     -31.800   4.702   0.431  1.00 20.00     0.112 C 
ENDROOT
BRANCH   2   4
HETATM    4  C7  UNL     1     -34.205   6.028   3.519  1.00 20.00     0.094 C 
BRANCH   4   5
HETATM    5  C9  UNL     1     -34.299   7.555   3.564  1.00 20.00     0.013 C 
BRANCH   5   6
HETATM    6  C10 UNL     1     -33.031   8.211   4.129  1.00 20.00     0.013 C 
BRANCH   6   7
HETATM    7  C8  UNL     1     -31.850   8.151   3.159  1.00 20.00     0.094 C 
BRANCH   7   8
HETATM    8  C4  UNL     1     -32.152   8.796   1.875  1.00 20.00    -0.107 C 
HETATM    9  C2  UNL     1     -32.400   9.323   0.824  1.00 20.00    -0.111 C 
HETATM   10  C6  UNL     1     -32.701   9.967  -0.454  1.00 20.00     0.112 C 
ENDBRANCH   7   8
ENDBRANCH   6   7
ENDBRANCH   5   6
ENDBRANCH   4   5
ENDBRANCH   2   4
TORSDOF 5
ENDMDL
MODEL 9
REMARK VINA RESULT:      -0.7      1.644      5.107
REMARK  5 active torsions:
REMARK  status: ('A' for Active; 'I' for Inactive)
REMARK    1  A    between atoms: C3_3  and  C7_7 
REMARK    2  A    between atoms: C4_4  and  C8_8 
REMARK    3  A    between atoms: C7_7  and  C9_9 
REMARK    4  A    between atoms: C8_8  and  C10_10 
REMARK    5  A    between atoms: C9_9  and  C10_10 
ROOT
HETATM    1  C1  UNL     1     -32.431   9.413   0.697  1.00 20.00    -0.111 C 
HETATM    2  C3  UNL     1     -32.149   8.808   1.695  1.00 20.00    -0.107 C 
HETATM    3  C5  UNL     1     -32.774  10.151  -0.518  1.00 20.00     0.112 C 
ENDROOT
BRANCH   2   4
HETATM    4  C7  UNL     1     -31.806   8.067   2.918  1.00 20.00     0.094 C 
BRANCH   4   5
HETATM    5  C9  UNL     1     -32.886   8.195   3.995  1.00 20.00     0.013 C 
BRANCH   5   6
HETATM    6  C10 UNL     1     -34.235   7.610   3.556  1.00 20.00     0.013 C 
BRANCH   6   7
HETATM    7  C8  UNL     1     -34.225   6.081   3.491  1.00 20.00     0.094 C 
BRANCH   7   8
HETATM    8  C4  UNL     1     -33.370   5.578   2.407  1.00 20.00    -0.107 C 
HETATM    9  C2  UNL     1     -32.671   5.167   1.520  1.00 20.00    -0.111 C 
HETATM   10  C6  UNL     1     -31.822   4.665   0.442  1.00 20.00     0.112 C 
ENDBRANCH   7   8
ENDBRANCH   6   7
ENDBRANCH   5   6
ENDBRANCH   4   5
ENDBRANCH   2   4
TORSDOF 5
ENDMDL
