MODEL 1
REMARK VINA RESULT:      -1.0      0.000      0.000
REMARK  1 active torsions:
REMARK  status: ('A' for Active; 'I' for Inactive)
REMARK    1  A    between atoms: C4_4  and  C5_5 
ROOT
HETATM    1  C1  UNL     1     -35.899   6.862   3.057  1.00 20.00     0.015 C 
HETATM    2  C2  UNL     1     -34.011   7.489   4.568  1.00 20.00     0.015 C 
HETATM    3  C3  UNL     1     -33.588   6.064   2.544  1.00 20.00     0.015 C 
HETATM    4  C5  UNL     1     -34.579   6.369   3.681  1.00 20.00    -0.039 C 
ENDROOT
BRANCH   4   5
HETATM    5  C4  UNL     1     -34.888   5.101   4.508  1.00 20.00     0.122 C 
HETATM    6 CL6  UNL     1     -33.788   3.736   4.186  1.00 20.00    -0.130 Cl
ENDBRANCH   4   5
TORSDOF 1
ENDMDL
MODEL 2
REMARK VINA RESULT:      -1.0      2.008      2.746
REMARK  1 active torsions:
REMARK  status: ('A' for Active; 'I' for Inactive)
REMARK    1  A    between atoms: C4_4  and  C5_5 
ROOT
HETATM    1  C1  UNL     1     -34.236   5.098   4.199  1.00 20.00     0.015 C 
HETATM    2  C2  UNL     1     -33.811   7.536   4.541  1.00 20.00     0.015 C 
HETATM    3  C3  UNL     1     -35.779   6.777   3.179  1.00 20.00     0.015 C 
HETATM    4  C5  UNL     1     -34.311   6.487   3.535  1.00 20.00    -0.039 C 
ENDROOT
BRANCH   4   5
HETATM    5  C4  UNL     1     -33.425   6.457   2.269  1.00 20.00     0.122 C 
HETATM    6 CL6  UNL     1     -32.301   7.834   2.135  1.00 20.00    -0.130 Cl
ENDBRANCH   4   5
TORSDOF 1
ENDMDL
MODEL 3
REMARK VINA RESULT:      -1.0      1.984      2.707
REMARK  1 active torsions:
REMARK  status: ('A' for Active; 'I' for Inactive)
REMARK    1  A    between atoms: C4_4  and  C5_5 
ROOT
HETATM    1  C1  UNL     1     -35.760   6.850   3.113  1.00 20.00     0.015 C 
HETATM    2  C2  UNL     1     -34.394   5.110   4.272  1.00 20.00     0.015 C 
HETATM    3  C3  UNL     1     -33.846   7.543   4.560  1.00 20.00     0.015 C 
HETATM    4  C5  UNL     1     -34.336   6.475   3.568  1.00 20.00    -0.039 C 
ENDROOT
BRANCH   4   5
HETATM    5  C4  UNL     1     -33.435   6.422   2.314  1.00 20.00     0.122 C 
HETATM    6 CL6  UNL     1     -32.348   7.823   2.138  1.00 20.00    -0.130 Cl
ENDBRANCH   4   5
TORSDOF 1
ENDMDL
MODEL 4
REMARK VINA RESULT:      -1.0      2.001      2.857
REMARK  1 active torsions:
REMARK  status: ('A' for Active; 'I' for Inactive)
REMARK    1  A    between atoms: C4_4  and  C5_5 
ROOT
HETATM    1  C1  UNL     1     -33.760   7.507   4.467  1.00 20.00     0.015 C 
HETATM    2  C2  UNL     1     -35.769   6.770   3.179  1.00 20.00     0.015 C 
HETATM    3  C3  UNL     1     -34.249   5.069   4.230  1.00 20.00     0.015 C 
HETATM    4  C5  UNL     1     -34.307   6.429   3.512  1.00 20.00    -0.039 C 
ENDROOT
BRANCH   4   5
HETATM    5  C4  UNL     1     -33.428   6.428   2.241  1.00 20.00     0.122 C 
HETATM    6 CL6  UNL     1     -32.314   7.815   2.125  1.00 20.00    -0.130 Cl
ENDBRANCH   4   5
TORSDOF 1
ENDMDL
MODEL 5
REMARK VINA RESULT:      -0.9      0.047      1.773
REMARK  1 active torsions:
REMARK  status: ('A' for Active; 'I' for Inactive)
REMARK    1  A    between atoms: C4_4  and  C5_5 
ROOT
HETATM    1  C1  UNL     1     -33.615   6.018   2.600  1.00 20.00     0.015 C 
HETATM    2  C2  UNL     1     -35.916   6.891   3.026  1.00 20.00     0.015 C 
HETATM    3  C3  UNL     1     -34.032   7.493   4.572  1.00 20.00     0.015 C 
HETATM    4  C5  UNL     1     -34.633   6.377   3.700  1.00 20.00    -0.039 C 
ENDROOT
BRANCH   4   5
HETATM    5  C4  UNL     1     -34.906   5.103   4.530  1.00 20.00     0.122 C 
HETATM    6 CL6  UNL     1     -33.800   3.751   4.175  1.00 20.00    -0.130 Cl
ENDBRANCH   4   5
TORSDOF 1
ENDMDL
MODEL 6
REMARK VINA RESULT:      -0.9      0.035      1.766
REMARK  1 active torsions:
REMARK  status: ('A' for Active; 'I' for Inactive)
REMARK    1  A    between atoms: C4_4  and  C5_5 
ROOT
HETATM    1  C1  UNL     1     -34.042   7.451   4.566  1.00 20.00     0.015 C 
HETATM    2  C2  UNL     1     -33.593   6.051   2.546  1.00 20.00     0.015 C 
HETATM    3  C3  UNL     1     -35.919   6.867   3.024  1.00 20.00     0.015 C 
HETATM    4  C5  UNL     1     -34.616   6.348   3.655  1.00 20.00    -0.039 C 
ENDROOT
BRANCH   4   5
HETATM    5  C4  UNL     1     -34.876   5.099   4.527  1.00 20.00     0.122 C 
HETATM    6 CL6  UNL     1     -33.795   3.726   4.174  1.00 20.00    -0.130 Cl
ENDBRANCH   4   5
TORSDOF 1
ENDMDL
MODEL 7
REMARK VINA RESULT:      -0.7      2.269      2.971
REMARK  1 active torsions:
REMARK  status: ('A' for Active; 'I' for Inactive)
REMARK    1  A    between atoms: C4_4  and  C5_5 
ROOT
HETATM    1  C1  UNL     1     -33.774   6.227   0.538  1.00 20.00     0.015 C 
HETATM    2  C2  UNL     1     -32.179   7.678   1.799  1.00 20.00     0.015 C 
HETATM    3  C3  UNL     1     -31.719   5.223   1.542  1.00 20.00     0.015 C 
HETATM    4  C5  UNL     1     -32.818   6.280   1.745  1.00 20.00    -0.039 C 
ENDROOT
BRANCH   4   5
HETATM    5  C4  UNL     1     -33.643   5.991   3.019  1.00 20.00     0.122 C 
HETATM    6 CL6  UNL     1     -34.127   7.452   3.920  1.00 20.00    -0.130 Cl
ENDBRANCH   4   5
TORSDOF 1
ENDMDL
MODEL 8
REMARK VINA RESULT:      -0.7      2.279      3.305
REMARK  1 active torsions:
REMARK  status: ('A' for Active; 'I' for Inactive)
REMARK    1  A    between atoms: C4_4  and  C5_5 
ROOT
HETATM    1  C1  UNL     1     -32.195   7.664   1.819  1.00 20.00     0.015 C 
HETATM    2  C2  UNL     1     -31.701   5.227   1.578  1.00 20.00     0.015 C 
HETATM    3  C3  UNL     1     -33.728   6.219   0.477  1.00 20.00     0.015 C 
HETATM    4  C5  UNL     1     -32.829   6.262   1.724  1.00 20.00    -0.039 C 
ENDROOT
BRANCH   4   5
HETATM    5  C4  UNL     1     -33.647   6.021   3.012  1.00 20.00     0.122 C 
HETATM    6 CL6  UNL     1     -34.058   7.510   3.903  1.00 20.00    -0.130 Cl
ENDBRANCH   4   5
TORSDOF 1
ENDMDL
MODEL 9
REMARK VINA RESULT:      -0.7      2.274      3.441
REMARK  1 active torsions:
REMARK  status: ('A' for Active; 'I' for Inactive)
REMARK    1  A    between atoms: C4_4  and  C5_5 
ROOT
HETATM    1  C1  UNL     1     -31.767   5.216   1.537  1.00 20.00     0.015 C 
HETATM    2  C2  UNL     1     -33.763   6.281   0.479  1.00 20.00     0.015 C 
HETATM    3  C3  UNL     1     -32.143   7.672   1.800  1.00 20.00     0.015 C 
HETATM    4  C5  UNL     1     -32.843   6.305   1.711  1.00 20.00    -0.039 C 
ENDROOT
BRANCH   4   5
HETATM    5  C4  UNL     1     -33.630   5.995   3.005  1.00 20.00     0.122 C 
HETATM    6 CL6  UNL     1     -34.139   7.442   3.912  1.00 20.00    -0.130 Cl
ENDBRANCH   4   5
TORSDOF 1
ENDMDL
