MODEL 1
REMARK VINA RESULT:       4.1      0.000      0.000
REMARK  0 active torsions:
REMARK  status: ('A' for Active; 'I' for Inactive)
ROOT
HETATM    1  C1  UNL     1     -32.696   8.981   1.081  1.00 20.00    -0.007 C 
HETATM    2  C2  UNL     1     -33.825   8.829   2.072  1.00 20.00     0.056 C 
HETATM    3  C3  UNL     1     -30.972   8.205   2.573  1.00 20.00     0.011 C 
HETATM    4  C4  UNL     1     -32.067   7.985   3.642  1.00 20.00     0.011 C 
HETATM    5  C5  UNL     1     -31.696   7.852   1.258  1.00 20.00     0.034 C 
HETATM    6  C6  UNL     1     -33.306   7.553   2.802  1.00 20.00    -0.032 C 
HETATM    7  C7  UNL     1     -32.659   6.704   1.660  1.00 20.00    -0.032 C 
HETATM    8  C8  UNL     1     -34.381   6.877   3.631  1.00 20.00     0.016 C 
HETATM    9  C9  UNL     1     -31.935   5.424   2.125  1.00 20.00     0.016 C 
HETATM   10  C10 UNL     1     -33.614   6.276   0.527  1.00 20.00     0.016 C 
HETATM   11  S11 UNL     1     -32.564  10.215  -0.024  1.00 20.00    -0.089 SA
ENDROOT
TORSDOF 0
ENDMDL
MODEL 2
REMARK VINA RESULT:       6.5      2.871      4.139
REMARK  0 active torsions:
REMARK  status: ('A' for Active; 'I' for Inactive)
ROOT
HETATM    1  C1  UNL     1     -33.612   4.757   3.911  1.00 20.00    -0.007 C 
HETATM    2  C2  UNL     1     -35.000   5.351   3.918  1.00 20.00     0.056 C 
HETATM    3  C3  UNL     1     -33.090   5.417   1.654  1.00 20.00     0.011 C 
HETATM    4  C4  UNL     1     -34.482   6.084   1.581  1.00 20.00     0.011 C 
HETATM    5  C5  UNL     1     -32.671   5.648   3.121  1.00 20.00     0.034 C 
HETATM    6  C6  UNL     1     -34.708   6.602   3.034  1.00 20.00    -0.032 C 
HETATM    7  C7  UNL     1     -33.270   7.038   3.463  1.00 20.00    -0.032 C 
HETATM    8  C8  UNL     1     -35.799   7.651   3.129  1.00 20.00     0.016 C 
HETATM    9  C9  UNL     1     -32.663   8.193   2.642  1.00 20.00     0.016 C 
HETATM   10  C10 UNL     1     -33.110   7.429   4.947  1.00 20.00     0.016 C 
HETATM   11  S11 UNL     1     -33.189   3.327   4.645  1.00 20.00    -0.089 SA
ENDROOT
TORSDOF 0
ENDMDL
MODEL 3
REMARK VINA RESULT:       6.6      1.278      3.043
REMARK  0 active torsions:
REMARK  status: ('A' for Active; 'I' for Inactive)
ROOT
HETATM    1  C1  UNL     1     -32.285   7.593   1.639  1.00 20.00    -0.007 C 
HETATM    2  C2  UNL     1     -31.641   6.348   2.201  1.00 20.00     0.056 C 
HETATM    3  C3  UNL     1     -34.227   6.471   0.759  1.00 20.00     0.011 C 
HETATM    4  C4  UNL     1     -33.660   5.151   1.330  1.00 20.00     0.011 C 
HETATM    5  C5  UNL     1     -33.792   7.517   1.806  1.00 20.00     0.034 C 
HETATM    6  C6  UNL     1     -32.941   5.605   2.636  1.00 20.00    -0.032 C 
HETATM    7  C7  UNL     1     -33.872   6.749   3.152  1.00 20.00    -0.032 C 
HETATM    8  C8  UNL     1     -32.667   4.461   3.594  1.00 20.00     0.016 C 
HETATM    9  C9  UNL     1     -35.301   6.311   3.530  1.00 20.00     0.016 C 
HETATM   10  C10 UNL     1     -33.333   7.554   4.353  1.00 20.00     0.016 C 
HETATM   11  S11 UNL     1     -31.461   8.847   0.925  1.00 20.00    -0.089 SA
ENDROOT
TORSDOF 0
ENDMDL
