MODEL 1
REMARK VINA RESULT:       0.0      0.000      0.000
REMARK  0 active torsions:
REMARK  status: ('A' for Active; 'I' for Inactive)
ROOT
HETATM    1  C1  UNL     1     -33.259   6.936   3.191  1.00 20.00    -0.011 C 
HETATM    2  C2  UNL     1     -33.209   5.623   2.484  1.00 20.00     0.155 C 
HETATM    3  C3  UNL     1     -34.269   7.160   4.041  1.00 20.00    -0.078 C 
HETATM    4  C4  UNL     1     -32.186   7.936   2.880  1.00 20.00     0.042 C 
HETATM    5  C5  UNL     1     -32.706   5.633   1.056  1.00 20.00     0.083 C 
HETATM    6  C6  UNL     1     -31.879   7.993   1.386  1.00 20.00     0.005 C 
HETATM    7  C7  UNL     1     -31.550   6.604   0.848  1.00 20.00     0.008 C 
HETATM    8  C8  UNL     1     -34.403   8.449   4.796  1.00 20.00     0.043 C 
HETATM    9  C9  UNL     1     -35.334   6.133   4.297  1.00 20.00     0.043 C 
HETATM   10  O10 UNL     1     -33.627   4.592   3.008  1.00 20.00    -0.293 OA
ENDROOT
TORSDOF 0
ENDMDL
MODEL 2
REMARK VINA RESULT:       0.1      1.685      2.816
REMARK  0 active torsions:
REMARK  status: ('A' for Active; 'I' for Inactive)
ROOT
HETATM    1  C1  UNL     1     -33.645   5.493   3.057  1.00 20.00    -0.011 C 
HETATM    2  C2  UNL     1     -34.226   6.843   3.321  1.00 20.00     0.155 C 
HETATM    3  C3  UNL     1     -33.980   4.488   3.876  1.00 20.00    -0.078 C 
HETATM    4  C4  UNL     1     -32.698   5.357   1.903  1.00 20.00     0.042 C 
HETATM    5  C5  UNL     1     -33.335   8.036   3.050  1.00 20.00     0.083 C 
HETATM    6  C6  UNL     1     -31.724   6.530   1.827  1.00 20.00     0.005 C 
HETATM    7  C7  UNL     1     -32.477   7.857   1.803  1.00 20.00     0.008 C 
HETATM    8  C8  UNL     1     -33.446   3.099   3.690  1.00 20.00     0.043 C 
HETATM    9  C9  UNL     1     -34.915   4.686   5.035  1.00 20.00     0.043 C 
HETATM   10  O10 UNL     1     -35.347   6.978   3.807  1.00 20.00    -0.293 OA
ENDROOT
TORSDOF 0
ENDMDL
MODEL 3
REMARK VINA RESULT:       0.3      1.590      4.075
REMARK  0 active torsions:
REMARK  status: ('A' for Active; 'I' for Inactive)
ROOT
HETATM    1  C1  UNL     1     -33.155   5.978   2.882  1.00 20.00    -0.011 C 
HETATM    2  C2  UNL     1     -34.031   6.977   3.563  1.00 20.00     0.155 C 
HETATM    3  C3  UNL     1     -32.461   6.373   1.808  1.00 20.00    -0.078 C 
HETATM    4  C4  UNL     1     -33.132   4.583   3.432  1.00 20.00     0.042 C 
HETATM    5  C5  UNL     1     -35.338   6.465   4.131  1.00 20.00     0.083 C 
HETATM    6  C6  UNL     1     -34.529   4.098   3.809  1.00 20.00     0.005 C 
HETATM    7  C7  UNL     1     -35.205   5.083   4.759  1.00 20.00     0.008 C 
HETATM    8  C8  UNL     1     -31.556   5.440   1.058  1.00 20.00     0.043 C 
HETATM    9  C9  UNL     1     -32.541   7.777   1.282  1.00 20.00     0.043 C 
HETATM   10  O10 UNL     1     -33.743   8.171   3.595  1.00 20.00    -0.293 OA
ENDROOT
TORSDOF 0
ENDMDL
MODEL 4
REMARK VINA RESULT:       0.3      1.491      4.135
REMARK  0 active torsions:
REMARK  status: ('A' for Active; 'I' for Inactive)
ROOT
HETATM    1  C1  UNL     1     -33.072   6.207   2.703  1.00 20.00    -0.011 C 
HETATM    2  C2  UNL     1     -33.269   7.484   3.450  1.00 20.00     0.155 C 
HETATM    3  C3  UNL     1     -32.360   6.241   1.569  1.00 20.00    -0.078 C 
HETATM    4  C4  UNL     1     -33.711   4.970   3.257  1.00 20.00     0.042 C 
HETATM    5  C5  UNL     1     -34.607   7.677   4.133  1.00 20.00     0.083 C 
HETATM    6  C6  UNL     1     -35.127   5.237   3.758  1.00 20.00     0.005 C 
HETATM    7  C7  UNL     1     -35.139   6.391   4.756  1.00 20.00     0.008 C 
HETATM    8  C8  UNL     1     -32.109   5.009   0.750  1.00 20.00     0.043 C 
HETATM    9  C9  UNL     1     -31.763   7.515   1.043  1.00 20.00     0.043 C 
HETATM   10  O10 UNL     1     -32.418   8.370   3.449  1.00 20.00    -0.293 OA
ENDROOT
TORSDOF 0
ENDMDL
MODEL 5
REMARK VINA RESULT:       0.3      1.115      3.329
REMARK  0 active torsions:
REMARK  status: ('A' for Active; 'I' for Inactive)
ROOT
HETATM    1  C1  UNL     1     -33.294   7.143   2.397  1.00 20.00    -0.011 C 
HETATM    2  C2  UNL     1     -33.205   5.659   2.270  1.00 20.00     0.155 C 
HETATM    3  C3  UNL     1     -32.333   7.885   1.833  1.00 20.00    -0.078 C 
HETATM    4  C4  UNL     1     -34.445   7.708   3.174  1.00 20.00     0.042 C 
HETATM    5  C5  UNL     1     -33.668   4.842   3.459  1.00 20.00     0.083 C 
HETATM    6  C6  UNL     1     -34.714   6.913   4.449  1.00 20.00     0.005 C 
HETATM    7  C7  UNL     1     -34.901   5.432   4.132  1.00 20.00     0.008 C 
HETATM    8  C8  UNL     1     -32.337   9.384   1.908  1.00 20.00     0.043 C 
HETATM    9  C9  UNL     1     -31.186   7.266   1.087  1.00 20.00     0.043 C 
HETATM   10  O10 UNL     1     -32.710   5.124   1.281  1.00 20.00    -0.293 OA
ENDROOT
TORSDOF 0
ENDMDL
MODEL 6
REMARK VINA RESULT:       0.6      1.554      2.505
REMARK  0 active torsions:
REMARK  status: ('A' for Active; 'I' for Inactive)
ROOT
HETATM    1  C1  UNL     1     -33.539   6.705   2.648  1.00 20.00    -0.011 C 
HETATM    2  C2  UNL     1     -32.542   7.736   2.234  1.00 20.00     0.155 C 
HETATM    3  C3  UNL     1     -34.242   6.918   3.767  1.00 20.00    -0.078 C 
HETATM    4  C4  UNL     1     -33.669   5.480   1.794  1.00 20.00     0.042 C 
HETATM    5  C5  UNL     1     -31.264   7.234   1.595  1.00 20.00     0.083 C 
HETATM    6  C6  UNL     1     -32.308   4.952   1.349  1.00 20.00     0.005 C 
HETATM    7  C7  UNL     1     -31.499   6.050   0.666  1.00 20.00     0.008 C 
HETATM    8  C8  UNL     1     -35.265   5.939   4.263  1.00 20.00     0.043 C 
HETATM    9  C9  UNL     1     -34.054   8.152   4.602  1.00 20.00     0.043 C 
HETATM   10  O10 UNL     1     -32.714   8.930   2.469  1.00 20.00    -0.293 OA
ENDROOT
TORSDOF 0
ENDMDL
MODEL 7
REMARK VINA RESULT:       0.8      1.697      3.648
REMARK  0 active torsions:
REMARK  status: ('A' for Active; 'I' for Inactive)
ROOT
HETATM    1  C1  UNL     1     -32.422   7.486   1.879  1.00 20.00    -0.011 C 
HETATM    2  C2  UNL     1     -33.207   7.541   3.148  1.00 20.00     0.155 C 
HETATM    3  C3  UNL     1     -32.175   8.635   1.238  1.00 20.00    -0.078 C 
HETATM    4  C4  UNL     1     -31.985   6.139   1.389  1.00 20.00     0.042 C 
HETATM    5  C5  UNL     1     -34.162   6.396   3.411  1.00 20.00     0.083 C 
HETATM    6  C6  UNL     1     -33.088   5.095   1.537  1.00 20.00     0.005 C 
HETATM    7  C7  UNL     1     -33.600   5.049   2.973  1.00 20.00     0.008 C 
HETATM    8  C8  UNL     1     -31.397   8.680  -0.043  1.00 20.00     0.043 C 
HETATM    9  C9  UNL     1     -32.661   9.957   1.760  1.00 20.00     0.043 C 
HETATM   10  O10 UNL     1     -33.138   8.505   3.908  1.00 20.00    -0.293 OA
ENDROOT
TORSDOF 0
ENDMDL
MODEL 8
REMARK VINA RESULT:       1.4      1.026      1.201
REMARK  0 active torsions:
REMARK  status: ('A' for Active; 'I' for Inactive)
ROOT
HETATM    1  C1  UNL     1     -32.974   7.226   2.843  1.00 20.00    -0.011 C 
HETATM    2  C2  UNL     1     -32.649   6.328   1.696  1.00 20.00     0.155 C 
HETATM    3  C3  UNL     1     -33.868   6.802   3.745  1.00 20.00    -0.078 C 
HETATM    4  C4  UNL     1     -32.296   8.562   2.895  1.00 20.00     0.042 C 
HETATM    5  C5  UNL     1     -32.386   6.992   0.361  1.00 20.00     0.083 C 
HETATM    6  C6  UNL     1     -32.242   9.226   1.522  1.00 20.00     0.005 C 
HETATM    7  C7  UNL     1     -31.606   8.294   0.495  1.00 20.00     0.008 C 
HETATM    8  C8  UNL     1     -34.259   7.635   4.930  1.00 20.00     0.043 C 
HETATM    9  C9  UNL     1     -34.540   5.464   3.631  1.00 20.00     0.043 C 
HETATM   10  O10 UNL     1     -32.667   5.104   1.810  1.00 20.00    -0.293 OA
ENDROOT
TORSDOF 0
ENDMDL
MODEL 9
REMARK VINA RESULT:       1.6      1.732      2.821
REMARK  0 active torsions:
REMARK  status: ('A' for Active; 'I' for Inactive)
ROOT
HETATM    1  C1  UNL     1     -33.104   7.281   3.149  1.00 20.00    -0.011 C 
HETATM    2  C2  UNL     1     -32.328   7.258   1.875  1.00 20.00     0.155 C 
HETATM    3  C3  UNL     1     -32.761   8.178   4.083  1.00 20.00    -0.078 C 
HETATM    4  C4  UNL     1     -34.204   6.276   3.313  1.00 20.00     0.042 C 
HETATM    5  C5  UNL     1     -32.087   5.901   1.246  1.00 20.00     0.083 C 
HETATM    6  C6  UNL     1     -33.793   4.896   2.808  1.00 20.00     0.005 C 
HETATM    7  C7  UNL     1     -33.290   4.975   1.370  1.00 20.00     0.008 C 
HETATM    8  C8  UNL     1     -33.483   8.277   5.395  1.00 20.00     0.043 C 
HETATM    9  C9  UNL     1     -31.632   9.146   3.878  1.00 20.00     0.043 C 
HETATM   10  O10 UNL     1     -31.841   8.280   1.397  1.00 20.00    -0.293 OA
ENDROOT
TORSDOF 0
ENDMDL
