MODEL 1
REMARK VINA RESULT:      -1.3      0.000      0.000
REMARK  0 active torsions:
REMARK  status: ('A' for Active; 'I' for Inactive)
ROOT
HETATM    1  C1  UNL     1     -32.741   5.917   2.097  1.00 20.00    -0.013 A 
HETATM    2  C2  UNL     1     -32.786   7.238   2.316  1.00 20.00    -0.070 A 
HETATM    3  C3  UNL     1     -33.595   5.303   3.132  1.00 20.00     0.160 A 
HETATM    4  C4  UNL     1     -33.636   7.654   3.497  1.00 20.00     0.022 A 
HETATM    5  C5  UNL     1     -34.219   6.334   4.036  1.00 20.00     0.064 A 
HETATM    6  C6  UNL     1     -32.042   5.102   1.075  1.00 20.00     0.052 C 
HETATM    7  C7  UNL     1     -32.117   8.294   1.499  1.00 20.00     0.044 C 
HETATM    8  C8  UNL     1     -32.824   8.376   4.572  1.00 20.00     0.015 C 
HETATM    9  C9  UNL     1     -35.737   6.281   3.943  1.00 20.00     0.019 C 
HETATM   10  O10 UNL     1     -33.778   4.097   3.224  1.00 20.00    -0.292 OA
ENDROOT
TORSDOF 0
ENDMDL
MODEL 2
REMARK VINA RESULT:      -1.0      1.519      2.972
REMARK  0 active torsions:
REMARK  status: ('A' for Active; 'I' for Inactive)
ROOT
HETATM    1  C1  UNL     1     -32.791   5.838   2.218  1.00 20.00    -0.013 A 
HETATM    2  C2  UNL     1     -33.573   5.324   3.177  1.00 20.00    -0.070 A 
HETATM    3  C3  UNL     1     -32.837   7.302   2.397  1.00 20.00     0.160 A 
HETATM    4  C4  UNL     1     -34.229   6.349   4.075  1.00 20.00     0.022 A 
HETATM    5  C5  UNL     1     -33.700   7.702   3.565  1.00 20.00     0.064 A 
HETATM    6  C6  UNL     1     -31.985   5.206   1.146  1.00 20.00     0.052 C 
HETATM    7  C7  UNL     1     -33.812   3.873   3.440  1.00 20.00     0.044 C 
HETATM    8  C8  UNL     1     -35.755   6.293   4.005  1.00 20.00     0.015 C 
HETATM    9  C9  UNL     1     -32.878   8.443   4.609  1.00 20.00     0.019 C 
HETATM   10  O10 UNL     1     -32.230   8.086   1.681  1.00 20.00    -0.292 OA
ENDROOT
TORSDOF 0
ENDMDL
MODEL 3
REMARK VINA RESULT:      -0.8      1.264      2.967
REMARK  0 active torsions:
REMARK  status: ('A' for Active; 'I' for Inactive)
ROOT
HETATM    1  C1  UNL     1     -33.862   7.236   3.504  1.00 20.00    -0.013 A 
HETATM    2  C2  UNL     1     -32.900   6.930   2.623  1.00 20.00    -0.070 A 
HETATM    3  C3  UNL     1     -34.579   5.976   3.779  1.00 20.00     0.160 A 
HETATM    4  C4  UNL     1     -32.869   5.477   2.201  1.00 20.00     0.022 A 
HETATM    5  C5  UNL     1     -33.994   4.815   3.017  1.00 20.00     0.064 A 
HETATM    6  C6  UNL     1     -34.241   8.511   4.160  1.00 20.00     0.052 C 
HETATM    7  C7  UNL     1     -31.875   7.866   2.070  1.00 20.00     0.044 C 
HETATM    8  C8  UNL     1     -33.101   5.301   0.700  1.00 20.00     0.015 C 
HETATM    9  C9  UNL     1     -33.478   3.751   3.975  1.00 20.00     0.019 C 
HETATM   10  O10 UNL     1     -35.526   5.896   4.548  1.00 20.00    -0.292 OA
ENDROOT
TORSDOF 0
ENDMDL
MODEL 4
REMARK VINA RESULT:      -0.7      2.002      4.040
REMARK  0 active torsions:
REMARK  status: ('A' for Active; 'I' for Inactive)
ROOT
HETATM    1  C1  UNL     1     -33.157   7.806   4.021  1.00 20.00    -0.013 A 
HETATM    2  C2  UNL     1     -33.844   6.955   3.246  1.00 20.00    -0.070 A 
HETATM    3  C3  UNL     1     -32.049   8.311   3.188  1.00 20.00     0.160 A 
HETATM    4  C4  UNL     1     -33.286   6.780   1.850  1.00 20.00     0.022 A 
HETATM    5  C5  UNL     1     -32.078   7.734   1.797  1.00 20.00     0.064 A 
HETATM    6  C6  UNL     1     -33.351   8.252   5.421  1.00 20.00     0.052 C 
HETATM    7  C7  UNL     1     -35.087   6.218   3.625  1.00 20.00     0.044 C 
HETATM    8  C8  UNL     1     -32.862   5.339   1.569  1.00 20.00     0.015 C 
HETATM    9  C9  UNL     1     -32.246   8.837   0.762  1.00 20.00     0.019 C 
HETATM   10  O10 UNL     1     -31.220   9.115   3.589  1.00 20.00    -0.292 OA
ENDROOT
TORSDOF 0
ENDMDL
MODEL 5
REMARK VINA RESULT:      -0.1      1.619      3.774
REMARK  0 active torsions:
REMARK  status: ('A' for Active; 'I' for Inactive)
ROOT
HETATM    1  C1  UNL     1     -33.805   7.230   3.482  1.00 20.00    -0.013 A 
HETATM    2  C2  UNL     1     -34.419   6.055   3.673  1.00 20.00    -0.070 A 
HETATM    3  C3  UNL     1     -32.721   6.972   2.516  1.00 20.00     0.160 A 
HETATM    4  C4  UNL     1     -33.828   4.900   2.894  1.00 20.00     0.022 A 
HETATM    5  C5  UNL     1     -32.688   5.532   2.075  1.00 20.00     0.064 A 
HETATM    6  C6  UNL     1     -34.052   8.582   4.039  1.00 20.00     0.052 C 
HETATM    7  C7  UNL     1     -35.615   5.810   4.534  1.00 20.00     0.044 C 
HETATM    8  C8  UNL     1     -33.302   3.792   3.806  1.00 20.00     0.015 C 
HETATM    9  C9  UNL     1     -32.914   5.426   0.574  1.00 20.00     0.019 C 
HETATM   10  O10 UNL     1     -31.956   7.838   2.118  1.00 20.00    -0.292 OA
ENDROOT
TORSDOF 0
ENDMDL
MODEL 6
REMARK VINA RESULT:       0.7      1.295      3.092
REMARK  0 active torsions:
REMARK  status: ('A' for Active; 'I' for Inactive)
ROOT
HETATM    1  C1  UNL     1     -33.251   7.643   3.752  1.00 20.00    -0.013 A 
HETATM    2  C2  UNL     1     -32.234   8.210   3.089  1.00 20.00    -0.070 A 
HETATM    3  C3  UNL     1     -33.785   6.596   2.861  1.00 20.00     0.160 A 
HETATM    4  C4  UNL     1     -31.983   7.640   1.709  1.00 20.00     0.022 A 
HETATM    5  C5  UNL     1     -33.021   6.512   1.565  1.00 20.00     0.064 A 
HETATM    6  C6  UNL     1     -33.825   7.895   5.095  1.00 20.00     0.052 C 
HETATM    7  C7  UNL     1     -31.341   9.295   3.596  1.00 20.00     0.044 C 
HETATM    8  C8  UNL     1     -32.150   8.687   0.608  1.00 20.00     0.015 C 
HETATM    9  C9  UNL     1     -32.381   5.141   1.408  1.00 20.00     0.019 C 
HETATM   10  O10 UNL     1     -34.729   5.879   3.158  1.00 20.00    -0.292 OA
ENDROOT
TORSDOF 0
ENDMDL
MODEL 7
REMARK VINA RESULT:       0.7      1.412      2.194
REMARK  0 active torsions:
REMARK  status: ('A' for Active; 'I' for Inactive)
ROOT
HETATM    1  C1  UNL     1     -33.737   4.562   3.583  1.00 20.00    -0.013 A 
HETATM    2  C2  UNL     1     -33.203   5.437   2.720  1.00 20.00    -0.070 A 
HETATM    3  C3  UNL     1     -34.852   5.268   4.241  1.00 20.00     0.160 A 
HETATM    4  C4  UNL     1     -33.865   6.798   2.709  1.00 20.00     0.022 A 
HETATM    5  C5  UNL     1     -35.016   6.674   3.724  1.00 20.00     0.064 A 
HETATM    6  C6  UNL     1     -33.399   3.155   3.910  1.00 20.00     0.052 C 
HETATM    7  C7  UNL     1     -32.071   5.175   1.781  1.00 20.00     0.044 C 
HETATM    8  C8  UNL     1     -32.901   7.917   3.104  1.00 20.00     0.015 C 
HETATM    9  C9  UNL     1     -36.385   6.853   3.085  1.00 20.00     0.019 C 
HETATM   10  O10 UNL     1     -35.561   4.755   5.095  1.00 20.00    -0.292 OA
ENDROOT
TORSDOF 0
ENDMDL
MODEL 8
REMARK VINA RESULT:       1.3      0.929      3.003
REMARK  0 active torsions:
REMARK  status: ('A' for Active; 'I' for Inactive)
ROOT
HETATM    1  C1  UNL     1     -34.027   6.422   3.312  1.00 20.00    -0.013 A 
HETATM    2  C2  UNL     1     -33.235   7.491   3.468  1.00 20.00    -0.070 A 
HETATM    3  C3  UNL     1     -33.566   5.749   2.083  1.00 20.00     0.160 A 
HETATM    4  C4  UNL     1     -32.192   7.668   2.385  1.00 20.00     0.022 A 
HETATM    5  C5  UNL     1     -32.394   6.458   1.455  1.00 20.00     0.064 A 
HETATM    6  C6  UNL     1     -35.153   5.893   4.119  1.00 20.00     0.052 C 
HETATM    7  C7  UNL     1     -33.276   8.467   4.598  1.00 20.00     0.044 C 
HETATM    8  C8  UNL     1     -32.361   8.982   1.623  1.00 20.00     0.015 C 
HETATM    9  C9  UNL     1     -31.178   5.544   1.407  1.00 20.00     0.019 C 
HETATM   10  O10 UNL     1     -34.077   4.729   1.644  1.00 20.00    -0.292 OA
ENDROOT
TORSDOF 0
ENDMDL
