MODEL 1
REMARK VINA RESULT:      -1.2      0.000      0.000
REMARK  3 active torsions:
REMARK  status: ('A' for Active; 'I' for Inactive)
REMARK    1  A    between atoms: C1_1  and  C5_5 
REMARK    2  A    between atoms: C1_1  and  O8_8 
REMARK    3  A    between atoms: C6_6  and  O8_8 
ROOT
HETATM    1  O8  UNL     1     -33.882   6.813   2.153  1.00 20.00    -0.310 OA
ENDROOT
BRANCH   1   2
HETATM    2  C1  UNL     1     -32.595   6.576   1.750  1.00 20.00     0.273 C 
HETATM    3  O7  UNL     1     -32.168   5.509   1.331  1.00 20.00    -0.264 OA
BRANCH   2   4
HETATM    4  C5  UNL     1     -31.802   7.844   1.910  1.00 20.00     0.225 C 
HETATM    5 CL9  UNL     1     -32.350   9.058   0.742  1.00 20.00    -0.120 Cl
ENDBRANCH   2   4
ENDBRANCH   1   2
BRANCH   1   6
HETATM    6  C6  UNL     1     -34.179   6.473   3.508  1.00 20.00     0.060 C 
HETATM    7  C2  UNL     1     -33.575   7.538   4.421  1.00 20.00     0.045 C 
HETATM    8  C3  UNL     1     -35.699   6.440   3.651  1.00 20.00     0.045 C 
HETATM    9  C4  UNL     1     -33.581   5.099   3.805  1.00 20.00     0.045 C 
ENDBRANCH   1   6
TORSDOF 3
ENDMDL
MODEL 2
REMARK VINA RESULT:      -1.1      0.032      1.452
REMARK  3 active torsions:
REMARK  status: ('A' for Active; 'I' for Inactive)
REMARK    1  A    between atoms: C1_1  and  C5_5 
REMARK    2  A    between atoms: C1_1  and  O8_8 
REMARK    3  A    between atoms: C6_6  and  O8_8 
ROOT
HETATM    1  O8  UNL     1     -33.878   6.829   2.157  1.00 20.00    -0.310 OA
ENDROOT
BRANCH   1   2
HETATM    2  C1  UNL     1     -32.587   6.605   1.759  1.00 20.00     0.273 C 
HETATM    3  O7  UNL     1     -32.145   5.541   1.348  1.00 20.00    -0.264 OA
BRANCH   2   4
HETATM    4  C5  UNL     1     -31.811   7.885   1.912  1.00 20.00     0.225 C 
HETATM    5 CL9  UNL     1     -32.325   9.061   0.692  1.00 20.00    -0.120 Cl
ENDBRANCH   2   4
ENDBRANCH   1   2
BRANCH   1   6
HETATM    6  C6  UNL     1     -34.183   6.462   3.503  1.00 20.00     0.060 C 
HETATM    7  C2  UNL     1     -33.572   5.091   3.784  1.00 20.00     0.045 C 
HETATM    8  C3  UNL     1     -33.571   7.521   4.418  1.00 20.00     0.045 C 
HETATM    9  C4  UNL     1     -35.702   6.426   3.663  1.00 20.00     0.045 C 
ENDBRANCH   1   6
TORSDOF 3
ENDMDL
MODEL 3
REMARK VINA RESULT:      -1.1      0.035      1.452
REMARK  3 active torsions:
REMARK  status: ('A' for Active; 'I' for Inactive)
REMARK    1  A    between atoms: C1_1  and  C5_5 
REMARK    2  A    between atoms: C1_1  and  O8_8 
REMARK    3  A    between atoms: C6_6  and  O8_8 
ROOT
HETATM    1  O8  UNL     1     -33.878   6.827   2.153  1.00 20.00    -0.310 OA
ENDROOT
BRANCH   1   2
HETATM    2  C1  UNL     1     -32.586   6.607   1.759  1.00 20.00     0.273 C 
HETATM    3  O7  UNL     1     -32.140   5.544   1.349  1.00 20.00    -0.264 OA
BRANCH   2   4
HETATM    4  C5  UNL     1     -31.814   7.889   1.914  1.00 20.00     0.225 C 
HETATM    5 CL9  UNL     1     -32.325   9.062   0.689  1.00 20.00    -0.120 Cl
ENDBRANCH   2   4
ENDBRANCH   1   2
BRANCH   1   6
HETATM    6  C6  UNL     1     -34.181   6.476   3.504  1.00 20.00     0.060 C 
HETATM    7  C2  UNL     1     -35.699   6.427   3.664  1.00 20.00     0.045 C 
HETATM    8  C3  UNL     1     -33.567   5.105   3.772  1.00 20.00     0.045 C 
HETATM    9  C4  UNL     1     -33.570   7.529   4.428  1.00 20.00     0.045 C 
ENDBRANCH   1   6
TORSDOF 3
ENDMDL
MODEL 4
REMARK VINA RESULT:      -0.7      2.398      3.868
REMARK  3 active torsions:
REMARK  status: ('A' for Active; 'I' for Inactive)
REMARK    1  A    between atoms: C1_1  and  C5_5 
REMARK    2  A    between atoms: C1_1  and  O8_8 
REMARK    3  A    between atoms: C6_6  and  O8_8 
ROOT
HETATM    1  O8  UNL     1     -33.775   8.074   2.645  1.00 20.00    -0.310 OA
ENDROOT
BRANCH   1   2
HETATM    2  C1  UNL     1     -33.942   7.516   3.884  1.00 20.00     0.273 C 
HETATM    3  O7  UNL     1     -33.317   7.820   4.890  1.00 20.00    -0.264 OA
BRANCH   2   4
HETATM    4  C5  UNL     1     -35.022   6.472   3.795  1.00 20.00     0.225 C 
HETATM    5 CL9  UNL     1     -34.341   4.863   4.087  1.00 20.00    -0.120 Cl
ENDBRANCH   2   4
ENDBRANCH   1   2
BRANCH   1   6
HETATM    6  C6  UNL     1     -32.473   7.935   2.075  1.00 20.00     0.060 C 
HETATM    7  C2  UNL     1     -32.277   6.478   1.660  1.00 20.00     0.045 C 
HETATM    8  C3  UNL     1     -32.403   8.855   0.858  1.00 20.00     0.045 C 
HETATM    9  C4  UNL     1     -31.438   8.348   3.121  1.00 20.00     0.045 C 
ENDBRANCH   1   6
TORSDOF 3
ENDMDL
MODEL 5
REMARK VINA RESULT:      -0.7      2.394      3.813
REMARK  3 active torsions:
REMARK  status: ('A' for Active; 'I' for Inactive)
REMARK    1  A    between atoms: C1_1  and  C5_5 
REMARK    2  A    between atoms: C1_1  and  O8_8 
REMARK    3  A    between atoms: C6_6  and  O8_8 
ROOT
HETATM    1  O8  UNL     1     -33.779   8.056   2.632  1.00 20.00    -0.310 OA
ENDROOT
BRANCH   1   2
HETATM    2  C1  UNL     1     -33.942   7.509   3.876  1.00 20.00     0.273 C 
HETATM    3  O7  UNL     1     -33.312   7.822   4.877  1.00 20.00    -0.264 OA
BRANCH   2   4
HETATM    4  C5  UNL     1     -35.022   6.464   3.802  1.00 20.00     0.225 C 
HETATM    5 CL9  UNL     1     -34.336   4.855   4.081  1.00 20.00    -0.120 Cl
ENDBRANCH   2   4
ENDBRANCH   1   2
BRANCH   1   6
HETATM    6  C6  UNL     1     -32.469   7.945   2.074  1.00 20.00     0.060 C 
HETATM    7  C2  UNL     1     -31.452   8.358   3.136  1.00 20.00     0.045 C 
HETATM    8  C3  UNL     1     -32.263   6.488   1.669  1.00 20.00     0.045 C 
HETATM    9  C4  UNL     1     -32.382   8.860   0.853  1.00 20.00     0.045 C 
ENDBRANCH   1   6
TORSDOF 3
ENDMDL
MODEL 6
REMARK VINA RESULT:      -0.7      2.403      3.802
REMARK  3 active torsions:
REMARK  status: ('A' for Active; 'I' for Inactive)
REMARK    1  A    between atoms: C1_1  and  C5_5 
REMARK    2  A    between atoms: C1_1  and  O8_8 
REMARK    3  A    between atoms: C6_6  and  O8_8 
ROOT
HETATM    1  O8  UNL     1     -33.782   8.081   2.652  1.00 20.00    -0.310 OA
ENDROOT
BRANCH   1   2
HETATM    2  C1  UNL     1     -33.950   7.514   3.886  1.00 20.00     0.273 C 
HETATM    3  O7  UNL     1     -33.328   7.814   4.896  1.00 20.00    -0.264 OA
BRANCH   2   4
HETATM    4  C5  UNL     1     -35.024   6.466   3.789  1.00 20.00     0.225 C 
HETATM    5 CL9  UNL     1     -34.342   4.861   4.102  1.00 20.00    -0.120 Cl
ENDBRANCH   2   4
ENDBRANCH   1   2
BRANCH   1   6
HETATM    6  C6  UNL     1     -32.482   7.941   2.078  1.00 20.00     0.060 C 
HETATM    7  C2  UNL     1     -32.387   8.857   0.860  1.00 20.00     0.045 C 
HETATM    8  C3  UNL     1     -31.464   8.349   3.139  1.00 20.00     0.045 C 
HETATM    9  C4  UNL     1     -32.284   6.480   1.677  1.00 20.00     0.045 C 
ENDBRANCH   1   6
TORSDOF 3
ENDMDL
MODEL 7
REMARK VINA RESULT:      -0.6      2.444      3.841
REMARK  3 active torsions:
REMARK  status: ('A' for Active; 'I' for Inactive)
REMARK    1  A    between atoms: C1_1  and  C5_5 
REMARK    2  A    between atoms: C1_1  and  O8_8 
REMARK    3  A    between atoms: C6_6  and  O8_8 
ROOT
HETATM    1  O8  UNL     1     -33.104   6.046   3.113  1.00 20.00    -0.310 OA
ENDROOT
BRANCH   1   2
HETATM    2  C1  UNL     1     -34.127   6.793   3.631  1.00 20.00     0.273 C 
HETATM    3  O7  UNL     1     -34.146   8.014   3.707  1.00 20.00    -0.264 OA
BRANCH   2   4
HETATM    4  C5  UNL     1     -35.217   5.862   4.086  1.00 20.00     0.225 C 
HETATM    5 CL9  UNL     1     -34.549   4.253   4.410  1.00 20.00    -0.120 Cl
ENDBRANCH   2   4
ENDBRANCH   1   2
BRANCH   1   6
HETATM    6  C6  UNL     1     -32.727   6.358   1.771  1.00 20.00     0.060 C 
HETATM    7  C2  UNL     1     -32.063   7.734   1.761  1.00 20.00     0.045 C 
HETATM    8  C3  UNL     1     -31.746   5.284   1.307  1.00 20.00     0.045 C 
HETATM    9  C4  UNL     1     -33.982   6.353   0.900  1.00 20.00     0.045 C 
ENDBRANCH   1   6
TORSDOF 3
ENDMDL
MODEL 8
REMARK VINA RESULT:      -0.6      2.438      3.835
REMARK  3 active torsions:
REMARK  status: ('A' for Active; 'I' for Inactive)
REMARK    1  A    between atoms: C1_1  and  C5_5 
REMARK    2  A    between atoms: C1_1  and  O8_8 
REMARK    3  A    between atoms: C6_6  and  O8_8 
ROOT
HETATM    1  O8  UNL     1     -33.085   6.059   3.113  1.00 20.00    -0.310 OA
ENDROOT
BRANCH   1   2
HETATM    2  C1  UNL     1     -34.110   6.812   3.621  1.00 20.00     0.273 C 
HETATM    3  O7  UNL     1     -34.127   8.032   3.691  1.00 20.00    -0.264 OA
BRANCH   2   4
HETATM    4  C5  UNL     1     -35.205   5.885   4.073  1.00 20.00     0.225 C 
HETATM    5 CL9  UNL     1     -34.546   4.273   4.398  1.00 20.00    -0.120 Cl
ENDBRANCH   2   4
ENDBRANCH   1   2
BRANCH   1   6
HETATM    6  C6  UNL     1     -32.715   6.347   1.764  1.00 20.00     0.060 C 
HETATM    7  C2  UNL     1     -33.978   6.357   0.905  1.00 20.00     0.045 C 
HETATM    8  C3  UNL     1     -32.046   7.719   1.754  1.00 20.00     0.045 C 
HETATM    9  C4  UNL     1     -31.741   5.270   1.288  1.00 20.00     0.045 C 
ENDBRANCH   1   6
TORSDOF 3
ENDMDL
MODEL 9
REMARK VINA RESULT:      -0.4      1.670      1.843
REMARK  3 active torsions:
REMARK  status: ('A' for Active; 'I' for Inactive)
REMARK    1  A    between atoms: C1_1  and  C5_5 
REMARK    2  A    between atoms: C1_1  and  O8_8 
REMARK    3  A    between atoms: C6_6  and  O8_8 
ROOT
HETATM    1  O8  UNL     1     -33.874   6.716   2.167  1.00 20.00    -0.310 OA
ENDROOT
BRANCH   1   2
HETATM    2  C1  UNL     1     -32.553   6.992   1.934  1.00 20.00     0.273 C 
HETATM    3  O7  UNL     1     -32.012   8.074   2.109  1.00 20.00    -0.264 OA
BRANCH   2   4
HETATM    4  C5  UNL     1     -31.886   5.741   1.430  1.00 20.00     0.225 C 
HETATM    5 CL9  UNL     1     -33.001   4.826   0.401  1.00 20.00    -0.120 Cl
ENDBRANCH   2   4
ENDBRANCH   1   2
BRANCH   1   6
HETATM    6  C6  UNL     1     -34.222   6.462   3.528  1.00 20.00     0.060 C 
HETATM    7  C2  UNL     1     -33.586   7.540   4.403  1.00 20.00     0.045 C 
HETATM    8  C3  UNL     1     -35.745   6.514   3.631  1.00 20.00     0.045 C 
HETATM    9  C4  UNL     1     -33.705   5.076   3.910  1.00 20.00     0.045 C 
ENDBRANCH   1   6
TORSDOF 3
ENDMDL
