MODEL 1
REMARK VINA RESULT:      -1.2      0.000      0.000
REMARK  0 active torsions:
REMARK  status: ('A' for Active; 'I' for Inactive)
ROOT
HETATM    1  C1  UNL     1     -34.934   6.491   3.966  1.00 20.00     0.196 C 
HETATM    2  C2  UNL     1     -33.988   7.655   4.081  1.00 20.00     0.196 C 
HETATM    3  C3  UNL     1     -33.182   6.177   2.578  1.00 20.00     0.337 C 
HETATM    4  O4  UNL     1     -34.125   5.468   3.387  1.00 20.00    -0.365 OA
HETATM    5  O5  UNL     1     -33.222   7.576   2.881  1.00 20.00    -0.365 OA
ENDROOT
TORSDOF 0
ENDMDL
MODEL 2
REMARK VINA RESULT:      -1.2      0.028      1.764
REMARK  0 active torsions:
REMARK  status: ('A' for Active; 'I' for Inactive)
ROOT
HETATM    1  C1  UNL     1     -33.964   7.667   4.078  1.00 20.00     0.196 C 
HETATM    2  C2  UNL     1     -34.925   6.514   3.975  1.00 20.00     0.196 C 
HETATM    3  C3  UNL     1     -33.205   6.189   2.551  1.00 20.00     0.337 C 
HETATM    4  O4  UNL     1     -33.223   7.586   2.861  1.00 20.00    -0.365 OA
HETATM    5  O5  UNL     1     -34.140   5.485   3.375  1.00 20.00    -0.365 OA
ENDROOT
TORSDOF 0
ENDMDL
MODEL 3
REMARK VINA RESULT:      -1.2      1.424      1.764
REMARK  0 active torsions:
REMARK  status: ('A' for Active; 'I' for Inactive)
ROOT
HETATM    1  C1  UNL     1     -35.488   6.097   4.027  1.00 20.00     0.196 C 
HETATM    2  C2  UNL     1     -34.134   6.579   3.581  1.00 20.00     0.196 C 
HETATM    3  C3  UNL     1     -34.090   4.336   3.828  1.00 20.00     0.337 C 
HETATM    4  O4  UNL     1     -35.212   4.810   4.580  1.00 20.00    -0.365 OA
HETATM    5  O5  UNL     1     -33.523   5.401   3.059  1.00 20.00    -0.365 OA
ENDROOT
TORSDOF 0
ENDMDL
MODEL 4
REMARK VINA RESULT:      -1.1      1.198      2.157
REMARK  0 active torsions:
REMARK  status: ('A' for Active; 'I' for Inactive)
ROOT
HETATM    1  C1  UNL     1     -32.679   6.113   1.818  1.00 20.00     0.196 C 
HETATM    2  C2  UNL     1     -32.231   7.540   1.658  1.00 20.00     0.196 C 
HETATM    3  C3  UNL     1     -33.506   7.355   3.511  1.00 20.00     0.337 C 
HETATM    4  O4  UNL     1     -33.801   6.218   2.694  1.00 20.00    -0.365 OA
HETATM    5  O5  UNL     1     -32.404   8.086   2.965  1.00 20.00    -0.365 OA
ENDROOT
TORSDOF 0
ENDMDL
MODEL 5
REMARK VINA RESULT:      -1.1      1.580      2.349
REMARK  0 active torsions:
REMARK  status: ('A' for Active; 'I' for Inactive)
ROOT
HETATM    1  C1  UNL     1     -32.976   5.888   1.651  1.00 20.00     0.196 C 
HETATM    2  C2  UNL     1     -33.500   6.306   2.998  1.00 20.00     0.196 C 
HETATM    3  C3  UNL     1     -32.152   7.921   2.182  1.00 20.00     0.337 C 
HETATM    4  O4  UNL     1     -31.831   6.720   1.472  1.00 20.00    -0.365 OA
HETATM    5  O5  UNL     1     -33.308   7.719   3.001  1.00 20.00    -0.365 OA
ENDROOT
TORSDOF 0
ENDMDL
MODEL 6
REMARK VINA RESULT:      -1.1      1.131      2.677
REMARK  0 active torsions:
REMARK  status: ('A' for Active; 'I' for Inactive)
ROOT
HETATM    1  C1  UNL     1     -32.347   7.590   1.754  1.00 20.00     0.196 C 
HETATM    2  C2  UNL     1     -32.730   6.137   1.832  1.00 20.00     0.196 C 
HETATM    3  C3  UNL     1     -33.614   7.244   3.589  1.00 20.00     0.337 C 
HETATM    4  O4  UNL     1     -32.546   8.054   3.089  1.00 20.00    -0.365 OA
HETATM    5  O5  UNL     1     -33.855   6.141   2.709  1.00 20.00    -0.365 OA
ENDROOT
TORSDOF 0
ENDMDL
MODEL 7
REMARK VINA RESULT:      -1.0      0.902      2.322
REMARK  0 active torsions:
REMARK  status: ('A' for Active; 'I' for Inactive)
ROOT
HETATM    1  C1  UNL     1     -33.315   6.360   2.412  1.00 20.00     0.196 C 
HETATM    2  C2  UNL     1     -34.086   5.458   3.337  1.00 20.00     0.196 C 
HETATM    3  C3  UNL     1     -34.273   7.595   4.039  1.00 20.00     0.337 C 
HETATM    4  O4  UNL     1     -33.124   7.541   3.189  1.00 20.00    -0.365 OA
HETATM    5  O5  UNL     1     -34.983   6.352   3.994  1.00 20.00    -0.365 OA
ENDROOT
TORSDOF 0
ENDMDL
MODEL 8
REMARK VINA RESULT:      -1.0      0.912      1.699
REMARK  0 active torsions:
REMARK  status: ('A' for Active; 'I' for Inactive)
ROOT
HETATM    1  C1  UNL     1     -34.099   5.455   3.350  1.00 20.00     0.196 C 
HETATM    2  C2  UNL     1     -33.321   6.350   2.423  1.00 20.00     0.196 C 
HETATM    3  C3  UNL     1     -34.284   7.596   4.041  1.00 20.00     0.337 C 
HETATM    4  O4  UNL     1     -34.996   6.355   3.999  1.00 20.00    -0.365 OA
HETATM    5  O5  UNL     1     -33.130   7.535   3.195  1.00 20.00    -0.365 OA
ENDROOT
TORSDOF 0
ENDMDL
MODEL 9
REMARK VINA RESULT:      -0.3      1.494      2.002
REMARK  0 active torsions:
REMARK  status: ('A' for Active; 'I' for Inactive)
ROOT
HETATM    1  C1  UNL     1     -33.992   6.348   2.975  1.00 20.00     0.196 C 
HETATM    2  C2  UNL     1     -33.278   6.642   1.683  1.00 20.00     0.196 C 
HETATM    3  C3  UNL     1     -32.606   8.106   3.264  1.00 20.00     0.337 C 
HETATM    4  O4  UNL     1     -33.853   7.563   3.710  1.00 20.00    -0.365 OA
HETATM    5  O5  UNL     1     -32.151   7.410   2.099  1.00 20.00    -0.365 OA
ENDROOT
TORSDOF 0
ENDMDL
