MODEL 1
REMARK VINA RESULT:      -2.7      0.000      0.000
REMARK  1 active torsions:
REMARK  status: ('A' for Active; 'I' for Inactive)
REMARK    1  A    between atoms: C2_2  and  C3_3 
ROOT
HETATM    1  C1  UNL     1     -33.696   8.092   4.543  1.00 20.00     0.023 C 
HETATM    2  C2  UNL     1     -33.987   7.119   3.668  1.00 20.00    -0.009 C 
HETATM    3  C4  UNL     1     -35.191   6.239   3.844  1.00 20.00     0.052 C 
ENDROOT
BRANCH   2   4
HETATM    4  C3  UNL     1     -33.126   6.849   2.460  1.00 20.00     0.247 C 
HETATM    5  O5  UNL     1     -33.216   5.743   1.925  1.00 20.00    -0.274 OA
HETATM    6 CL6  UNL     1     -32.040   8.091   1.863  1.00 20.00    -0.039 Cl
ENDBRANCH   2   4
TORSDOF 1
ENDMDL
MODEL 2
REMARK VINA RESULT:      -2.7      0.079      1.435
REMARK  1 active torsions:
REMARK  status: ('A' for Active; 'I' for Inactive)
REMARK    1  A    between atoms: C2_2  and  C3_3 
ROOT
HETATM    1  C1  UNL     1     -35.141   6.251   3.833  1.00 20.00     0.023 C 
HETATM    2  C2  UNL     1     -34.049   7.003   3.633  1.00 20.00    -0.009 C 
HETATM    3  C4  UNL     1     -33.664   8.097   4.587  1.00 20.00     0.052 C 
ENDROOT
BRANCH   2   4
HETATM    4  C3  UNL     1     -33.146   6.798   2.443  1.00 20.00     0.247 C 
HETATM    5  O5  UNL     1     -33.199   5.713   1.861  1.00 20.00    -0.274 OA
HETATM    6 CL6  UNL     1     -32.066   8.082   1.930  1.00 20.00    -0.039 Cl
ENDBRANCH   2   4
TORSDOF 1
ENDMDL
MODEL 3
REMARK VINA RESULT:      -2.7      2.369      3.277
REMARK  1 active torsions:
REMARK  status: ('A' for Active; 'I' for Inactive)
REMARK    1  A    between atoms: C2_2  and  C3_3 
ROOT
HETATM    1  C1  UNL     1     -33.039   5.744   1.669  1.00 20.00     0.023 C 
HETATM    2  C2  UNL     1     -32.976   6.904   2.339  1.00 20.00    -0.009 C 
HETATM    3  C4  UNL     1     -32.078   8.021   1.893  1.00 20.00     0.052 C 
ENDROOT
BRANCH   2   4
HETATM    4  C3  UNL     1     -33.801   7.155   3.576  1.00 20.00     0.247 C 
HETATM    5  O5  UNL     1     -33.393   7.994   4.380  1.00 20.00    -0.274 OA
HETATM    6 CL6  UNL     1     -35.291   6.263   3.832  1.00 20.00    -0.039 Cl
ENDBRANCH   2   4
TORSDOF 1
ENDMDL
MODEL 4
REMARK VINA RESULT:      -2.6      1.513      1.513
REMARK  1 active torsions:
REMARK  status: ('A' for Active; 'I' for Inactive)
REMARK    1  A    between atoms: C2_2  and  C3_3 
ROOT
HETATM    1  C1  UNL     1     -33.549   8.139   4.741  1.00 20.00     0.023 C 
HETATM    2  C2  UNL     1     -33.838   7.290   3.745  1.00 20.00    -0.009 C 
HETATM    3  C4  UNL     1     -35.046   6.399   3.797  1.00 20.00     0.052 C 
ENDROOT
BRANCH   2   4
HETATM    4  C3  UNL     1     -32.971   7.178   2.516  1.00 20.00     0.247 C 
HETATM    5  O5  UNL     1     -32.280   8.151   2.209  1.00 20.00    -0.274 OA
HETATM    6 CL6  UNL     1     -32.970   5.697   1.575  1.00 20.00    -0.039 Cl
ENDBRANCH   2   4
TORSDOF 1
ENDMDL
MODEL 5
REMARK VINA RESULT:      -2.6      1.508      2.075
REMARK  1 active torsions:
REMARK  status: ('A' for Active; 'I' for Inactive)
REMARK    1  A    between atoms: C2_2  and  C3_3 
ROOT
HETATM    1  C1  UNL     1     -35.025   6.469   3.775  1.00 20.00     0.023 C 
HETATM    2  C2  UNL     1     -33.906   7.204   3.701  1.00 20.00    -0.009 C 
HETATM    3  C4  UNL     1     -33.507   8.141   4.804  1.00 20.00     0.052 C 
ENDROOT
BRANCH   2   4
HETATM    4  C3  UNL     1     -32.986   7.136   2.508  1.00 20.00     0.247 C 
HETATM    5  O5  UNL     1     -32.300   8.127   2.253  1.00 20.00    -0.274 OA
HETATM    6 CL6  UNL     1     -32.920   5.677   1.534  1.00 20.00    -0.039 Cl
ENDBRANCH   2   4
TORSDOF 1
ENDMDL
MODEL 6
REMARK VINA RESULT:      -2.6      2.364      2.967
REMARK  1 active torsions:
REMARK  status: ('A' for Active; 'I' for Inactive)
REMARK    1  A    between atoms: C2_2  and  C3_3 
ROOT
HETATM    1  C1  UNL     1     -32.084   8.037   1.874  1.00 20.00     0.023 C 
HETATM    2  C2  UNL     1     -32.876   7.063   2.346  1.00 20.00    -0.009 C 
HETATM    3  C4  UNL     1     -32.976   5.731   1.661  1.00 20.00     0.052 C 
ENDROOT
BRANCH   2   4
HETATM    4  C3  UNL     1     -33.712   7.247   3.587  1.00 20.00     0.247 C 
HETATM    5  O5  UNL     1     -33.319   8.054   4.431  1.00 20.00    -0.274 OA
HETATM    6 CL6  UNL     1     -35.191   6.325   3.793  1.00 20.00    -0.039 Cl
ENDBRANCH   2   4
TORSDOF 1
ENDMDL
MODEL 7
REMARK VINA RESULT:      -2.6      2.808      3.173
REMARK  1 active torsions:
REMARK  status: ('A' for Active; 'I' for Inactive)
REMARK    1  A    between atoms: C2_2  and  C3_3 
ROOT
HETATM    1  C1  UNL     1     -34.178   7.394   3.883  1.00 20.00     0.023 C 
HETATM    2  C2  UNL     1     -33.984   6.153   3.414  1.00 20.00    -0.009 C 
HETATM    3  C4  UNL     1     -33.205   5.902   2.155  1.00 20.00     0.052 C 
ENDROOT
BRANCH   2   4
HETATM    4  C3  UNL     1     -34.534   4.940   4.119  1.00 20.00     0.247 C 
HETATM    5  O5  UNL     1     -35.659   5.023   4.615  1.00 20.00    -0.274 OA
HETATM    6 CL6  UNL     1     -33.577   3.471   4.214  1.00 20.00    -0.039 Cl
ENDBRANCH   2   4
TORSDOF 1
ENDMDL
MODEL 8
REMARK VINA RESULT:      -2.5      2.810      3.288
REMARK  1 active torsions:
REMARK  status: ('A' for Active; 'I' for Inactive)
REMARK    1  A    between atoms: C2_2  and  C3_3 
ROOT
HETATM    1  C1  UNL     1     -33.268   5.981   2.213  1.00 20.00     0.023 C 
HETATM    2  C2  UNL     1     -33.958   6.118   3.354  1.00 20.00    -0.009 C 
HETATM    3  C4  UNL     1     -34.212   7.468   3.961  1.00 20.00     0.052 C 
ENDROOT
BRANCH   2   4
HETATM    4  C3  UNL     1     -34.516   4.930   4.096  1.00 20.00     0.247 C 
HETATM    5  O5  UNL     1     -35.631   5.042   4.607  1.00 20.00    -0.274 OA
HETATM    6 CL6  UNL     1     -33.580   3.449   4.210  1.00 20.00    -0.039 Cl
ENDBRANCH   2   4
TORSDOF 1
ENDMDL
MODEL 9
REMARK VINA RESULT:      -2.4      1.868      2.945
REMARK  1 active torsions:
REMARK  status: ('A' for Active; 'I' for Inactive)
REMARK    1  A    between atoms: C2_2  and  C3_3 
ROOT
HETATM    1  C1  UNL     1     -32.881   5.747   1.580  1.00 20.00     0.023 C 
HETATM    2  C2  UNL     1     -32.926   6.867   2.317  1.00 20.00    -0.009 C 
HETATM    3  C4  UNL     1     -32.081   8.061   1.983  1.00 20.00     0.052 C 
ENDROOT
BRANCH   2   4
HETATM    4  C3  UNL     1     -33.826   6.992   3.521  1.00 20.00     0.247 C 
HETATM    5  O5  UNL     1     -34.797   6.238   3.595  1.00 20.00    -0.274 OA
HETATM    6 CL6  UNL     1     -33.473   8.186   4.758  1.00 20.00    -0.039 Cl
ENDBRANCH   2   4
TORSDOF 1
ENDMDL
