MODEL 1
REMARK VINA RESULT:      -2.3      0.000      0.000
REMARK  3 active torsions:
REMARK  status: ('A' for Active; 'I' for Inactive)
REMARK    1  A    between atoms: C1_1  and  C2_2 
REMARK    2  A    between atoms: C4_4  and  C6_6 
REMARK    3  A    between atoms: C6_6  and  O7_7 
ROOT
HETATM    1  C2  UNL     1     -32.612   6.785   1.673  1.00 20.00    -0.002 C 
HETATM    2  C4  UNL     1     -32.384   8.103   1.766  1.00 20.00    -0.001 C 
ENDROOT
BRANCH   1   3
HETATM    3  C1  UNL     1     -33.424   6.054   2.618  1.00 20.00    -0.005 C 
HETATM    4  C3  UNL     1     -34.377   6.629   3.366  1.00 20.00    -0.031 C 
HETATM    5  C5  UNL     1     -35.224   5.885   4.345  1.00 20.00     0.036 C 
ENDBRANCH   1   3
BRANCH   2   6
HETATM    6  C6  UNL     1     -31.547   8.868   0.790  1.00 20.00     0.191 C 
BRANCH   6   7
HETATM    7  O7  UNL     1     -32.348   9.840   0.131  1.00 20.00    -0.397 OA
HETATM    8  H17 UNL     1     -33.237   9.458   0.045  1.00 20.00     0.209 HD
ENDBRANCH   6   7
ENDBRANCH   2   6
TORSDOF 3
ENDMDL
MODEL 2
REMARK VINA RESULT:      -2.2      2.789      4.566
REMARK  3 active torsions:
REMARK  status: ('A' for Active; 'I' for Inactive)
REMARK    1  A    between atoms: C1_1  and  C2_2 
REMARK    2  A    between atoms: C4_4  and  C6_6 
REMARK    3  A    between atoms: C6_6  and  O7_7 
ROOT
HETATM    1  C2  UNL     1     -33.540   6.009   2.804  1.00 20.00    -0.002 C 
HETATM    2  C4  UNL     1     -34.498   6.670   3.470  1.00 20.00    -0.001 C 
ENDROOT
BRANCH   1   3
HETATM    3  C1  UNL     1     -32.667   6.641   1.841  1.00 20.00    -0.005 C 
HETATM    4  C3  UNL     1     -32.362   7.946   1.872  1.00 20.00    -0.031 C 
HETATM    5  C5  UNL     1     -31.460   8.611   0.884  1.00 20.00     0.036 C 
ENDBRANCH   1   3
BRANCH   2   6
HETATM    6  C6  UNL     1     -35.404   6.025   4.470  1.00 20.00     0.191 C 
BRANCH   6   7
HETATM    7  O7  UNL     1     -35.210   4.618   4.454  1.00 20.00    -0.397 OA
HETATM    8  H17 UNL     1     -35.170   4.331   5.381  1.00 20.00     0.209 HD
ENDBRANCH   6   7
ENDBRANCH   2   6
TORSDOF 3
ENDMDL
MODEL 3
REMARK VINA RESULT:      -2.2      2.524      4.434
REMARK  3 active torsions:
REMARK  status: ('A' for Active; 'I' for Inactive)
REMARK    1  A    between atoms: C1_1  and  C2_2 
REMARK    2  A    between atoms: C4_4  and  C6_6 
REMARK    3  A    between atoms: C6_6  and  O7_7 
ROOT
HETATM    1  C2  UNL     1     -32.488   7.236   2.137  1.00 20.00    -0.002 C 
HETATM    2  C4  UNL     1     -33.577   7.277   2.917  1.00 20.00    -0.001 C 
ENDROOT
BRANCH   1   3
HETATM    3  C1  UNL     1     -31.966   8.393   1.446  1.00 20.00    -0.005 C 
HETATM    4  C3  UNL     1     -32.725   9.201   0.690  1.00 20.00    -0.031 C 
HETATM    5  C5  UNL     1     -32.199  10.400  -0.028  1.00 20.00     0.036 C 
ENDBRANCH   1   3
BRANCH   2   6
HETATM    6  C6  UNL     1     -34.122   6.086   3.639  1.00 20.00     0.191 C 
BRANCH   6   7
HETATM    7  O7  UNL     1     -35.472   6.327   4.011  1.00 20.00    -0.397 OA
HETATM    8  H17 UNL     1     -35.776   5.537   4.488  1.00 20.00     0.209 HD
ENDBRANCH   6   7
ENDBRANCH   2   6
TORSDOF 3
ENDMDL
MODEL 4
REMARK VINA RESULT:      -1.4      2.141      2.762
REMARK  3 active torsions:
REMARK  status: ('A' for Active; 'I' for Inactive)
REMARK    1  A    between atoms: C1_1  and  C2_2 
REMARK    2  A    between atoms: C4_4  and  C6_6 
REMARK    3  A    between atoms: C6_6  and  O7_7 
ROOT
HETATM    1  C2  UNL     1     -34.322   6.030   3.586  1.00 20.00    -0.002 C 
HETATM    2  C4  UNL     1     -33.220   6.522   3.000  1.00 20.00    -0.001 C 
ENDROOT
BRANCH   1   3
HETATM    3  C1  UNL     1     -34.393   4.699   4.145  1.00 20.00    -0.005 C 
HETATM    4  C3  UNL     1     -33.366   3.838   4.123  1.00 20.00    -0.031 C 
HETATM    5  C5  UNL     1     -33.426   2.461   4.698  1.00 20.00     0.036 C 
ENDBRANCH   1   3
BRANCH   2   6
HETATM    6  C6  UNL     1     -33.137   7.898   2.422  1.00 20.00     0.191 C 
BRANCH   6   7
HETATM    7  O7  UNL     1     -31.932   8.034   1.681  1.00 20.00    -0.397 OA
HETATM    8  H17 UNL     1     -31.221   8.180   2.326  1.00 20.00     0.209 HD
ENDBRANCH   6   7
ENDBRANCH   2   6
TORSDOF 3
ENDMDL
MODEL 5
REMARK VINA RESULT:      -1.3      2.129      2.581
REMARK  3 active torsions:
REMARK  status: ('A' for Active; 'I' for Inactive)
REMARK    1  A    between atoms: C1_1  and  C2_2 
REMARK    2  A    between atoms: C4_4  and  C6_6 
REMARK    3  A    between atoms: C6_6  and  O7_7 
ROOT
HETATM    1  C2  UNL     1     -32.246   8.674   1.428  1.00 20.00    -0.002 C 
HETATM    2  C4  UNL     1     -32.228   9.234   0.210  1.00 20.00    -0.001 C 
ENDROOT
BRANCH   1   3
HETATM    3  C1  UNL     1     -31.858   7.305   1.676  1.00 20.00    -0.005 C 
HETATM    4  C3  UNL     1     -32.598   6.252   1.297  1.00 20.00    -0.031 C 
HETATM    5  C5  UNL     1     -32.207   4.832   1.545  1.00 20.00     0.036 C 
ENDBRANCH   1   3
BRANCH   2   6
HETATM    6  C6  UNL     1     -32.625  10.651  -0.054  1.00 20.00     0.191 C 
BRANCH   6   7
HETATM    7  O7  UNL     1     -32.732  11.356   1.175  1.00 20.00    -0.397 OA
HETATM    8  H17 UNL     1     -32.497  12.279   0.989  1.00 20.00     0.209 HD
ENDBRANCH   6   7
ENDBRANCH   2   6
TORSDOF 3
ENDMDL
MODEL 6
REMARK VINA RESULT:      -1.2      2.693      4.341
REMARK  3 active torsions:
REMARK  status: ('A' for Active; 'I' for Inactive)
REMARK    1  A    between atoms: C1_1  and  C2_2 
REMARK    2  A    between atoms: C4_4  and  C6_6 
REMARK    3  A    between atoms: C6_6  and  O7_7 
ROOT
HETATM    1  C2  UNL     1     -31.890   7.560   1.701  1.00 20.00    -0.002 C 
HETATM    2  C4  UNL     1     -32.830   6.618   1.536  1.00 20.00    -0.001 C 
ENDROOT
BRANCH   1   3
HETATM    3  C1  UNL     1     -32.127   8.965   1.460  1.00 20.00    -0.005 C 
HETATM    4  C3  UNL     1     -32.355   9.472   0.240  1.00 20.00    -0.031 C 
HETATM    5  C5  UNL     1     -32.603  10.921  -0.022  1.00 20.00     0.036 C 
ENDBRANCH   1   3
BRANCH   2   6
HETATM    6  C6  UNL     1     -32.594   5.162   1.786  1.00 20.00     0.191 C 
BRANCH   6   7
HETATM    7  O7  UNL     1     -31.475   4.722   1.029  1.00 20.00    -0.397 OA
HETATM    8  H17 UNL     1     -31.101   3.960   1.500  1.00 20.00     0.209 HD
ENDBRANCH   6   7
ENDBRANCH   2   6
TORSDOF 3
ENDMDL
MODEL 7
REMARK VINA RESULT:      -1.1      4.081      5.175
REMARK  3 active torsions:
REMARK  status: ('A' for Active; 'I' for Inactive)
REMARK    1  A    between atoms: C1_1  and  C2_2 
REMARK    2  A    between atoms: C4_4  and  C6_6 
REMARK    3  A    between atoms: C6_6  and  O7_7 
ROOT
HETATM    1  C2  UNL     1     -34.824   4.827   4.417  1.00 20.00    -0.002 C 
HETATM    2  C4  UNL     1     -33.742   4.139   4.027  1.00 20.00    -0.001 C 
ENDROOT
BRANCH   1   3
HETATM    3  C1  UNL     1     -35.117   6.166   3.960  1.00 20.00    -0.005 C 
HETATM    4  C3  UNL     1     -34.213   7.158   3.966  1.00 20.00    -0.031 C 
HETATM    5  C5  UNL     1     -34.502   8.545   3.496  1.00 20.00     0.036 C 
ENDBRANCH   1   3
BRANCH   2   6
HETATM    6  C6  UNL     1     -33.433   2.751   4.492  1.00 20.00     0.191 C 
BRANCH   6   7
HETATM    7  O7  UNL     1     -32.638   2.806   5.669  1.00 20.00    -0.397 OA
HETATM    8  H17 UNL     1     -31.712   2.819   5.380  1.00 20.00     0.209 HD
ENDBRANCH   6   7
ENDBRANCH   2   6
TORSDOF 3
ENDMDL
MODEL 8
REMARK VINA RESULT:      -0.9      3.112      4.479
REMARK  3 active torsions:
REMARK  status: ('A' for Active; 'I' for Inactive)
REMARK    1  A    between atoms: C1_1  and  C2_2 
REMARK    2  A    between atoms: C4_4  and  C6_6 
REMARK    3  A    between atoms: C6_6  and  O7_7 
ROOT
HETATM    1  C2  UNL     1     -33.157   6.719   2.332  1.00 20.00    -0.002 C 
HETATM    2  C4  UNL     1     -33.978   5.975   3.087  1.00 20.00    -0.001 C 
ENDROOT
BRANCH   1   3
HETATM    3  C1  UNL     1     -32.182   6.151   1.429  1.00 20.00    -0.005 C 
HETATM    4  C3  UNL     1     -32.161   4.853   1.094  1.00 20.00    -0.031 C 
HETATM    5  C5  UNL     1     -31.160   4.253   0.161  1.00 20.00     0.036 C 
ENDBRANCH   1   3
BRANCH   2   6
HETATM    6  C6  UNL     1     -34.992   6.554   4.022  1.00 20.00     0.191 C 
BRANCH   6   7
HETATM    7  O7  UNL     1     -35.773   5.511   4.589  1.00 20.00    -0.397 OA
HETATM    8  H17 UNL     1     -36.597   5.917   4.902  1.00 20.00     0.209 HD
ENDBRANCH   6   7
ENDBRANCH   2   6
TORSDOF 3
ENDMDL
MODEL 9
REMARK VINA RESULT:      -0.6      2.520      3.919
REMARK  3 active torsions:
REMARK  status: ('A' for Active; 'I' for Inactive)
REMARK    1  A    between atoms: C1_1  and  C2_2 
REMARK    2  A    between atoms: C4_4  and  C6_6 
REMARK    3  A    between atoms: C6_6  and  O7_7 
ROOT
HETATM    1  C2  UNL     1     -32.924   7.138   2.322  1.00 20.00    -0.002 C 
HETATM    2  C4  UNL     1     -33.740   6.572   3.223  1.00 20.00    -0.001 C 
ENDROOT
BRANCH   1   3
HETATM    3  C1  UNL     1     -32.090   6.375   1.421  1.00 20.00    -0.005 C 
HETATM    4  C3  UNL     1     -32.320   5.089   1.120  1.00 20.00    -0.031 C 
HETATM    5  C5  UNL     1     -31.466   4.290   0.190  1.00 20.00     0.036 C 
ENDBRANCH   1   3
BRANCH   2   6
HETATM    6  C6  UNL     1     -34.609   7.354   4.156  1.00 20.00     0.191 C 
BRANCH   6   7
HETATM    7  O7  UNL     1     -33.800   8.157   5.004  1.00 20.00    -0.397 OA
HETATM    8  H17 UNL     1     -34.351   8.903   5.291  1.00 20.00     0.209 HD
ENDBRANCH   6   7
ENDBRANCH   2   6
TORSDOF 3
ENDMDL
