MODEL 1
REMARK VINA RESULT:      -2.4      0.000      0.000
REMARK  5 active torsions:
REMARK  status: ('A' for Active; 'I' for Inactive)
REMARK    1  A    between atoms: C1_1  and  C5_5 
REMARK    2  A    between atoms: C1_1  and  C9_9 
REMARK    3  A    between atoms: C5_5  and  C6_6 
REMARK    4  A    between atoms: C7_7  and  C9_9 
REMARK    5  A    between atoms: C8_8  and  C9_9 
ROOT
HETATM    1  C1  UNL     1     -32.244   8.080   2.374  1.00 20.00     0.131 C 
HETATM    2  O10 UNL     1     -31.614   8.418   3.376  1.00 20.00    -0.298 OA
ENDROOT
BRANCH   1   3
HETATM    3  C5  UNL     1     -31.896   8.587   0.982  1.00 20.00     0.078 C 
BRANCH   3   4
HETATM    4  C6  UNL     1     -32.416   9.992   0.689  1.00 20.00     0.003 C 
HETATM    5  C2  UNL     1     -32.847  10.166  -0.761  1.00 20.00     0.005 C 
ENDBRANCH   3   4
ENDBRANCH   1   3
BRANCH   1   6
HETATM    6  C9  UNL     1     -33.414   7.099   2.461  1.00 20.00     0.054 C 
BRANCH   6   7
HETATM    7  C7  UNL     1     -34.172   7.309   3.782  1.00 20.00     0.007 C 
HETATM    8  C3  UNL     1     -35.257   6.266   4.013  1.00 20.00     0.006 C 
ENDBRANCH   6   7
BRANCH   6   9
HETATM    9  C8  UNL     1     -32.898   5.654   2.361  1.00 20.00     0.007 C 
HETATM   10  C4  UNL     1     -32.347   5.317   0.981  1.00 20.00     0.006 C 
ENDBRANCH   6   9
ENDBRANCH   1   6
TORSDOF 5
ENDMDL
MODEL 2
REMARK VINA RESULT:      -2.4      1.279      4.167
REMARK  5 active torsions:
REMARK  status: ('A' for Active; 'I' for Inactive)
REMARK    1  A    between atoms: C1_1  and  C5_5 
REMARK    2  A    between atoms: C1_1  and  C9_9 
REMARK    3  A    between atoms: C5_5  and  C6_6 
REMARK    4  A    between atoms: C7_7  and  C9_9 
REMARK    5  A    between atoms: C8_8  and  C9_9 
ROOT
HETATM    1  C1  UNL     1     -33.781   7.297   3.757  1.00 20.00     0.131 C 
HETATM    2  O10 UNL     1     -33.718   8.093   4.693  1.00 20.00    -0.298 OA
ENDROOT
BRANCH   1   3
HETATM    3  C5  UNL     1     -35.005   6.428   3.505  1.00 20.00     0.078 C 
BRANCH   3   4
HETATM    4  C6  UNL     1     -35.148   5.267   4.487  1.00 20.00     0.003 C 
HETATM    5  C2  UNL     1     -34.123   4.168   4.244  1.00 20.00     0.005 C 
ENDBRANCH   3   4
ENDBRANCH   1   3
BRANCH   1   6
HETATM    6  C9  UNL     1     -32.631   7.148   2.759  1.00 20.00     0.054 C 
BRANCH   6   7
HETATM    7  C7  UNL     1     -32.086   8.535   2.382  1.00 20.00     0.007 C 
HETATM    8  C3  UNL     1     -32.323   8.885   0.919  1.00 20.00     0.006 C 
ENDBRANCH   6   7
BRANCH   6   9
HETATM    9  C8  UNL     1     -33.115   6.401   1.505  1.00 20.00     0.007 C 
HETATM   10  C4  UNL     1     -32.241   5.203   1.157  1.00 20.00     0.006 C 
ENDBRANCH   6   9
ENDBRANCH   1   6
TORSDOF 5
ENDMDL
MODEL 3
REMARK VINA RESULT:      -2.4      0.432      2.220
REMARK  5 active torsions:
REMARK  status: ('A' for Active; 'I' for Inactive)
REMARK    1  A    between atoms: C1_1  and  C5_5 
REMARK    2  A    between atoms: C1_1  and  C9_9 
REMARK    3  A    between atoms: C5_5  and  C6_6 
REMARK    4  A    between atoms: C7_7  and  C9_9 
REMARK    5  A    between atoms: C8_8  and  C9_9 
ROOT
HETATM    1  C1  UNL     1     -32.103   8.133   2.601  1.00 20.00     0.131 C 
HETATM    2  O10 UNL     1     -31.538   8.776   3.485  1.00 20.00    -0.298 OA
ENDROOT
BRANCH   1   3
HETATM    3  C5  UNL     1     -31.974   8.484   1.126  1.00 20.00     0.078 C 
BRANCH   3   4
HETATM    4  C6  UNL     1     -32.395   9.914   0.794  1.00 20.00     0.003 C 
HETATM    5  C2  UNL     1     -32.793  10.081  -0.666  1.00 20.00     0.005 C 
ENDBRANCH   3   4
ENDBRANCH   1   3
BRANCH   1   6
HETATM    6  C9  UNL     1     -32.961   6.910   2.930  1.00 20.00     0.054 C 
BRANCH   6   7
HETATM    7  C7  UNL     1     -33.306   6.153   1.637  1.00 20.00     0.007 C 
HETATM    8  C3  UNL     1     -32.264   5.104   1.271  1.00 20.00     0.006 C 
ENDBRANCH   6   7
BRANCH   6   9
HETATM    9  C8  UNL     1     -34.244   7.346   3.657  1.00 20.00     0.007 C 
HETATM   10  C4  UNL     1     -35.171   6.179   3.971  1.00 20.00     0.006 C 
ENDBRANCH   6   9
ENDBRANCH   1   6
TORSDOF 5
ENDMDL
MODEL 4
REMARK VINA RESULT:      -2.3      1.169      4.295
REMARK  5 active torsions:
REMARK  status: ('A' for Active; 'I' for Inactive)
REMARK    1  A    between atoms: C1_1  and  C5_5 
REMARK    2  A    between atoms: C1_1  and  C9_9 
REMARK    3  A    between atoms: C5_5  and  C6_6 
REMARK    4  A    between atoms: C7_7  and  C9_9 
REMARK    5  A    between atoms: C8_8  and  C9_9 
ROOT
HETATM    1  C1  UNL     1     -33.650   7.180   3.321  1.00 20.00     0.131 C 
HETATM    2  O10 UNL     1     -33.137   7.742   4.288  1.00 20.00    -0.298 OA
ENDROOT
BRANCH   1   3
HETATM    3  C5  UNL     1     -35.007   6.495   3.400  1.00 20.00     0.078 C 
BRANCH   3   4
HETATM    4  C6  UNL     1     -35.079   5.391   4.453  1.00 20.00     0.003 C 
HETATM    5  C2  UNL     1     -34.146   4.228   4.143  1.00 20.00     0.005 C 
ENDBRANCH   3   4
ENDBRANCH   1   3
BRANCH   1   6
HETATM    6  C9  UNL     1     -32.962   7.157   1.955  1.00 20.00     0.054 C 
BRANCH   6   7
HETATM    7  C7  UNL     1     -32.231   5.818   1.763  1.00 20.00     0.007 C 
HETATM    8  C3  UNL     1     -32.795   4.998   0.610  1.00 20.00     0.006 C 
ENDBRANCH   6   7
BRANCH   6   9
HETATM    9  C8  UNL     1     -31.975   8.330   1.842  1.00 20.00     0.007 C 
HETATM   10  C4  UNL     1     -32.310   9.277   0.696  1.00 20.00     0.006 C 
ENDBRANCH   6   9
ENDBRANCH   1   6
TORSDOF 5
ENDMDL
MODEL 5
REMARK VINA RESULT:      -2.2      1.685      2.649
REMARK  5 active torsions:
REMARK  status: ('A' for Active; 'I' for Inactive)
REMARK    1  A    between atoms: C1_1  and  C5_5 
REMARK    2  A    between atoms: C1_1  and  C9_9 
REMARK    3  A    between atoms: C5_5  and  C6_6 
REMARK    4  A    between atoms: C7_7  and  C9_9 
REMARK    5  A    between atoms: C8_8  and  C9_9 
ROOT
HETATM    1  C1  UNL     1     -32.734   6.462   2.115  1.00 20.00     0.131 C 
HETATM    2  O10 UNL     1     -32.692   5.726   1.130  1.00 20.00    -0.298 OA
ENDROOT
BRANCH   1   3
HETATM    3  C5  UNL     1     -32.240   7.902   2.080  1.00 20.00     0.078 C 
BRANCH   3   4
HETATM    4  C6  UNL     1     -31.816   8.374   0.691  1.00 20.00     0.003 C 
HETATM    5  C2  UNL     1     -32.396   9.736   0.335  1.00 20.00     0.005 C 
ENDBRANCH   3   4
ENDBRANCH   1   3
BRANCH   1   6
HETATM    6  C9  UNL     1     -33.315   5.981   3.446  1.00 20.00     0.054 C 
BRANCH   6   7
HETATM    7  C7  UNL     1     -33.942   4.589   3.267  1.00 20.00     0.007 C 
HETATM    8  C3  UNL     1     -33.592   3.633   4.400  1.00 20.00     0.006 C 
ENDBRANCH   6   7
BRANCH   6   9
HETATM    9  C8  UNL     1     -34.363   6.982   3.956  1.00 20.00     0.007 C 
HETATM   10  C4  UNL     1     -35.791   6.472   3.804  1.00 20.00     0.006 C 
ENDBRANCH   6   9
ENDBRANCH   1   6
TORSDOF 5
ENDMDL
MODEL 6
REMARK VINA RESULT:      -2.1      1.426      2.263
REMARK  5 active torsions:
REMARK  status: ('A' for Active; 'I' for Inactive)
REMARK    1  A    between atoms: C1_1  and  C5_5 
REMARK    2  A    between atoms: C1_1  and  C9_9 
REMARK    3  A    between atoms: C5_5  and  C6_6 
REMARK    4  A    between atoms: C7_7  and  C9_9 
REMARK    5  A    between atoms: C8_8  and  C9_9 
ROOT
HETATM    1  C1  UNL     1     -32.724   6.791   2.023  1.00 20.00     0.131 C 
HETATM    2  O10 UNL     1     -32.324   5.762   1.481  1.00 20.00    -0.298 OA
ENDROOT
BRANCH   1   3
HETATM    3  C5  UNL     1     -32.007   8.125   1.872  1.00 20.00     0.078 C 
BRANCH   3   4
HETATM    4  C6  UNL     1     -32.017   8.672   0.446  1.00 20.00     0.003 C 
HETATM    5  C2  UNL     1     -32.509  10.111   0.376  1.00 20.00     0.005 C 
ENDBRANCH   3   4
ENDBRANCH   1   3
BRANCH   1   6
HETATM    6  C9  UNL     1     -33.996   6.802   2.872  1.00 20.00     0.054 C 
BRANCH   6   7
HETATM    7  C7  UNL     1     -34.015   8.053   3.765  1.00 20.00     0.007 C 
HETATM    8  C3  UNL     1     -33.172   7.894   5.023  1.00 20.00     0.006 C 
ENDBRANCH   6   7
BRANCH   6   9
HETATM    9  C8  UNL     1     -34.068   5.528   3.729  1.00 20.00     0.007 C 
HETATM   10  C4  UNL     1     -35.421   5.346   4.407  1.00 20.00     0.006 C 
ENDBRANCH   6   9
ENDBRANCH   1   6
TORSDOF 5
ENDMDL
MODEL 7
REMARK VINA RESULT:      -2.1      2.165      4.766
REMARK  5 active torsions:
REMARK  status: ('A' for Active; 'I' for Inactive)
REMARK    1  A    between atoms: C1_1  and  C5_5 
REMARK    2  A    between atoms: C1_1  and  C9_9 
REMARK    3  A    between atoms: C5_5  and  C6_6 
REMARK    4  A    between atoms: C7_7  and  C9_9 
REMARK    5  A    between atoms: C8_8  and  C9_9 
ROOT
HETATM    1  C1  UNL     1     -34.557   5.995   3.682  1.00 20.00     0.131 C 
HETATM    2  O10 UNL     1     -35.479   6.807   3.628  1.00 20.00    -0.298 OA
ENDROOT
BRANCH   1   3
HETATM    3  C5  UNL     1     -34.674   4.674   4.431  1.00 20.00     0.078 C 
BRANCH   3   4
HETATM    4  C6  UNL     1     -33.670   3.617   3.975  1.00 20.00     0.003 C 
HETATM    5  C2  UNL     1     -32.946   2.959   5.142  1.00 20.00     0.005 C 
ENDBRANCH   3   4
ENDBRANCH   1   3
BRANCH   1   6
HETATM    6  C9  UNL     1     -33.227   6.250   2.971  1.00 20.00     0.054 C 
BRANCH   6   7
HETATM    7  C7  UNL     1     -32.872   7.744   3.052  1.00 20.00     0.007 C 
HETATM    8  C3  UNL     1     -32.006   8.209   1.888  1.00 20.00     0.006 C 
ENDBRANCH   6   7
BRANCH   6   9
HETATM    9  C8  UNL     1     -33.317   5.796   1.505  1.00 20.00     0.007 C 
HETATM   10  C4  UNL     1     -32.098   5.000   1.056  1.00 20.00     0.006 C 
ENDBRANCH   6   9
ENDBRANCH   1   6
TORSDOF 5
ENDMDL
MODEL 8
REMARK VINA RESULT:      -2.1      2.098      4.996
REMARK  5 active torsions:
REMARK  status: ('A' for Active; 'I' for Inactive)
REMARK    1  A    between atoms: C1_1  and  C5_5 
REMARK    2  A    between atoms: C1_1  and  C9_9 
REMARK    3  A    between atoms: C5_5  and  C6_6 
REMARK    4  A    between atoms: C7_7  and  C9_9 
REMARK    5  A    between atoms: C8_8  and  C9_9 
ROOT
HETATM    1  C1  UNL     1     -33.433   5.723   2.599  1.00 20.00     0.131 C 
HETATM    2  O10 UNL     1     -32.822   5.209   1.663  1.00 20.00    -0.298 OA
ENDROOT
BRANCH   1   3
HETATM    3  C5  UNL     1     -34.059   4.898   3.716  1.00 20.00     0.078 C 
BRANCH   3   4
HETATM    4  C6  UNL     1     -33.572   3.452   3.761  1.00 20.00     0.003 C 
HETATM    5  C2  UNL     1     -33.027   3.062   5.128  1.00 20.00     0.005 C 
ENDBRANCH   3   4
ENDBRANCH   1   3
BRANCH   1   6
HETATM    6  C9  UNL     1     -33.582   7.240   2.717  1.00 20.00     0.054 C 
BRANCH   6   7
HETATM    7  C7  UNL     1     -32.216   7.915   2.511  1.00 20.00     0.007 C 
HETATM    8  C3  UNL     1     -32.104   8.623   1.168  1.00 20.00     0.006 C 
ENDBRANCH   6   7
BRANCH   6   9
HETATM    9  C8  UNL     1     -34.162   7.608   4.093  1.00 20.00     0.007 C 
HETATM   10  C4  UNL     1     -33.135   8.256   5.014  1.00 20.00     0.006 C 
ENDBRANCH   6   9
ENDBRANCH   1   6
TORSDOF 5
ENDMDL
MODEL 9
REMARK VINA RESULT:      -2.0      0.823      3.855
REMARK  5 active torsions:
REMARK  status: ('A' for Active; 'I' for Inactive)
REMARK    1  A    between atoms: C1_1  and  C5_5 
REMARK    2  A    between atoms: C1_1  and  C9_9 
REMARK    3  A    between atoms: C5_5  and  C6_6 
REMARK    4  A    between atoms: C7_7  and  C9_9 
REMARK    5  A    between atoms: C8_8  and  C9_9 
ROOT
HETATM    1  C1  UNL     1     -32.526   8.118   3.247  1.00 20.00     0.131 C 
HETATM    2  O10 UNL     1     -31.553   8.720   3.700  1.00 20.00    -0.298 OA
ENDROOT
BRANCH   1   3
HETATM    3  C5  UNL     1     -33.766   7.826   4.081  1.00 20.00     0.078 C 
BRANCH   3   4
HETATM    4  C6  UNL     1     -34.779   6.922   3.381  1.00 20.00     0.003 C 
HETATM    5  C2  UNL     1     -35.200   5.740   4.244  1.00 20.00     0.005 C 
ENDBRANCH   3   4
ENDBRANCH   1   3
BRANCH   1   6
HETATM    6  C9  UNL     1     -32.563   7.642   1.794  1.00 20.00     0.054 C 
BRANCH   6   7
HETATM    7  C7  UNL     1     -31.978   6.224   1.696  1.00 20.00     0.007 C 
HETATM    8  C3  UNL     1     -32.812   5.300   0.818  1.00 20.00     0.006 C 
ENDBRANCH   6   7
BRANCH   6   9
HETATM    9  C8  UNL     1     -31.774   8.613   0.901  1.00 20.00     0.007 C 
HETATM   10  C4  UNL     1     -32.613   9.790   0.421  1.00 20.00     0.006 C 
ENDBRANCH   6   9
ENDBRANCH   1   6
TORSDOF 5
ENDMDL
