MODEL 1
REMARK VINA RESULT:      -2.8      0.000      0.000
REMARK  4 active torsions:
REMARK  status: ('A' for Active; 'I' for Inactive)
REMARK    1  A    between atoms: C5_5  and  C6_6 
REMARK    2  A    between atoms: C6_6  and  C9_9 
REMARK    3  A    between atoms: C7_7  and  C8_8 
REMARK    4  A    between atoms: C7_7  and  C9_9 
ROOT
HETATM    1  C4  UNL     1     -32.152   5.287   0.841  1.00 20.00     0.010 C 
HETATM    2  C9  UNL     1     -32.800   6.470   1.569  1.00 20.00    -0.018 C 
ENDROOT
BRANCH   2   3
HETATM    3  C6  UNL     1     -31.811   7.659   1.568  1.00 20.00     0.004 C 
BRANCH   3   4
HETATM    4  C5  UNL     1     -32.481   9.021   1.376  1.00 20.00    -0.004 C 
HETATM    5  C1  UNL     1     -32.276   9.544  -0.039  1.00 20.00     0.005 C 
ENDBRANCH   3   4
ENDBRANCH   2   3
BRANCH   2   6
HETATM    6  C7  UNL     1     -33.232   6.093   3.004  1.00 20.00     0.008 C 
BRANCH   6   7
HETATM    7  C8  UNL     1     -34.421   6.886   3.587  1.00 20.00    -0.022 C 
HETATM    8  C2  UNL     1     -33.914   7.878   4.638  1.00 20.00     0.009 C 
HETATM    9  C3  UNL     1     -35.480   5.975   4.207  1.00 20.00     0.009 C 
ENDBRANCH   6   7
ENDBRANCH   2   6
TORSDOF 4
ENDMDL
MODEL 2
REMARK VINA RESULT:      -2.6      1.007      1.333
REMARK  4 active torsions:
REMARK  status: ('A' for Active; 'I' for Inactive)
REMARK    1  A    between atoms: C5_5  and  C6_6 
REMARK    2  A    between atoms: C6_6  and  C9_9 
REMARK    3  A    between atoms: C7_7  and  C8_8 
REMARK    4  A    between atoms: C7_7  and  C9_9 
ROOT
HETATM    1  C4  UNL     1     -32.002   5.710   1.243  1.00 20.00     0.010 C 
HETATM    2  C9  UNL     1     -32.789   6.908   1.787  1.00 20.00    -0.018 C 
ENDROOT
BRANCH   2   3
HETATM    3  C6  UNL     1     -31.896   8.168   1.707  1.00 20.00     0.004 C 
BRANCH   3   4
HETATM    4  C5  UNL     1     -31.881   8.829   0.327  1.00 20.00    -0.004 C 
HETATM    5  C1  UNL     1     -32.569  10.186   0.356  1.00 20.00     0.005 C 
ENDBRANCH   3   4
ENDBRANCH   2   3
BRANCH   2   6
HETATM    6  C7  UNL     1     -33.291   6.658   3.227  1.00 20.00     0.008 C 
BRANCH   6   7
HETATM    7  C8  UNL     1     -34.412   5.609   3.384  1.00 20.00    -0.022 C 
HETATM    8  C2  UNL     1     -35.557   6.199   4.214  1.00 20.00     0.009 C 
HETATM    9  C3  UNL     1     -33.916   4.319   4.035  1.00 20.00     0.009 C 
ENDBRANCH   6   7
ENDBRANCH   2   6
TORSDOF 4
ENDMDL
MODEL 3
REMARK VINA RESULT:      -2.2      1.646      4.589
REMARK  4 active torsions:
REMARK  status: ('A' for Active; 'I' for Inactive)
REMARK    1  A    between atoms: C5_5  and  C6_6 
REMARK    2  A    between atoms: C6_6  and  C9_9 
REMARK    3  A    between atoms: C7_7  and  C8_8 
REMARK    4  A    between atoms: C7_7  and  C9_9 
ROOT
HETATM    1  C4  UNL     1     -35.310   6.420   4.073  1.00 20.00     0.010 C 
HETATM    2  C9  UNL     1     -34.152   6.292   3.076  1.00 20.00    -0.018 C 
ENDROOT
BRANCH   2   3
HETATM    3  C6  UNL     1     -33.397   4.972   3.356  1.00 20.00     0.004 C 
BRANCH   3   4
HETATM    4  C5  UNL     1     -34.110   4.051   4.348  1.00 20.00    -0.004 C 
HETATM    5  C1  UNL     1     -33.206   2.908   4.791  1.00 20.00     0.005 C 
ENDBRANCH   3   4
ENDBRANCH   2   3
BRANCH   2   6
HETATM    6  C7  UNL     1     -33.206   7.512   3.138  1.00 20.00     0.008 C 
BRANCH   6   7
HETATM    7  C8  UNL     1     -32.111   7.578   2.052  1.00 20.00    -0.022 C 
HETATM    8  C2  UNL     1     -32.295   8.845   1.211  1.00 20.00     0.009 C 
HETATM    9  C3  UNL     1     -32.119   6.351   1.142  1.00 20.00     0.009 C 
ENDBRANCH   6   7
ENDBRANCH   2   6
TORSDOF 4
ENDMDL
MODEL 4
REMARK VINA RESULT:      -2.2      1.818      4.891
REMARK  4 active torsions:
REMARK  status: ('A' for Active; 'I' for Inactive)
REMARK    1  A    between atoms: C5_5  and  C6_6 
REMARK    2  A    between atoms: C6_6  and  C9_9 
REMARK    3  A    between atoms: C7_7  and  C8_8 
REMARK    4  A    between atoms: C7_7  and  C9_9 
ROOT
HETATM    1  C4  UNL     1     -35.834   6.608   3.738  1.00 20.00     0.010 C 
HETATM    2  C9  UNL     1     -34.577   5.794   3.407  1.00 20.00    -0.018 C 
ENDROOT
BRANCH   2   3
HETATM    3  C6  UNL     1     -34.387   4.707   4.491  1.00 20.00     0.004 C 
BRANCH   3   4
HETATM    4  C5  UNL     1     -33.626   3.474   4.002  1.00 20.00    -0.004 C 
HETATM    5  C1  UNL     1     -32.873   2.800   5.141  1.00 20.00     0.005 C 
ENDBRANCH   3   4
ENDBRANCH   2   3
BRANCH   2   6
HETATM    6  C7  UNL     1     -33.328   6.695   3.281  1.00 20.00     0.008 C 
BRANCH   6   7
HETATM    7  C8  UNL     1     -32.809   6.941   1.849  1.00 20.00    -0.022 C 
HETATM    8  C2  UNL     1     -32.192   5.652   1.295  1.00 20.00     0.009 C 
HETATM    9  C3  UNL     1     -31.782   8.071   1.787  1.00 20.00     0.009 C 
ENDBRANCH   6   7
ENDBRANCH   2   6
TORSDOF 4
ENDMDL
MODEL 5
REMARK VINA RESULT:      -2.1      1.473      4.577
REMARK  4 active torsions:
REMARK  status: ('A' for Active; 'I' for Inactive)
REMARK    1  A    between atoms: C5_5  and  C6_6 
REMARK    2  A    between atoms: C6_6  and  C9_9 
REMARK    3  A    between atoms: C7_7  and  C8_8 
REMARK    4  A    between atoms: C7_7  and  C9_9 
ROOT
HETATM    1  C4  UNL     1     -33.761   7.561   4.568  1.00 20.00     0.010 C 
HETATM    2  C9  UNL     1     -34.637   6.690   3.659  1.00 20.00    -0.018 C 
ENDROOT
BRANCH   2   3
HETATM    3  C6  UNL     1     -34.863   5.323   4.347  1.00 20.00     0.004 C 
BRANCH   3   4
HETATM    4  C5  UNL     1     -34.063   4.178   3.723  1.00 20.00    -0.004 C 
HETATM    5  C1  UNL     1     -33.436   3.294   4.792  1.00 20.00     0.005 C 
ENDBRANCH   3   4
ENDBRANCH   2   3
BRANCH   2   6
HETATM    6  C7  UNL     1     -34.017   6.523   2.254  1.00 20.00     0.008 C 
BRANCH   6   7
HETATM    7  C8  UNL     1     -32.485   6.680   2.164  1.00 20.00    -0.022 C 
HETATM    8  C2  UNL     1     -32.140   8.068   1.612  1.00 20.00     0.009 C 
HETATM    9  C3  UNL     1     -31.839   5.605   1.290  1.00 20.00     0.009 C 
ENDBRANCH   6   7
ENDBRANCH   2   6
TORSDOF 4
ENDMDL
MODEL 6
REMARK VINA RESULT:      -2.1      0.992      1.417
REMARK  4 active torsions:
REMARK  status: ('A' for Active; 'I' for Inactive)
REMARK    1  A    between atoms: C5_5  and  C6_6 
REMARK    2  A    between atoms: C6_6  and  C9_9 
REMARK    3  A    between atoms: C7_7  and  C8_8 
REMARK    4  A    between atoms: C7_7  and  C9_9 
ROOT
HETATM    1  C4  UNL     1     -32.728   5.853   1.618  1.00 20.00     0.010 C 
HETATM    2  C9  UNL     1     -33.158   7.206   2.199  1.00 20.00    -0.018 C 
ENDROOT
BRANCH   2   3
HETATM    3  C6  UNL     1     -32.049   8.246   1.912  1.00 20.00     0.004 C 
BRANCH   3   4
HETATM    4  C5  UNL     1     -32.018   8.731   0.461  1.00 20.00    -0.004 C 
HETATM    5  C1  UNL     1     -32.556  10.150   0.340  1.00 20.00     0.005 C 
ENDBRANCH   3   4
ENDBRANCH   2   3
BRANCH   2   6
HETATM    6  C7  UNL     1     -33.468   7.110   3.709  1.00 20.00     0.008 C 
BRANCH   6   7
HETATM    7  C8  UNL     1     -34.851   6.536   4.084  1.00 20.00    -0.022 C 
HETATM    8  C2  UNL     1     -34.750   5.017   4.255  1.00 20.00     0.009 C 
HETATM    9  C3  UNL     1     -35.920   6.866   3.043  1.00 20.00     0.009 C 
ENDBRANCH   6   7
ENDBRANCH   2   6
TORSDOF 4
ENDMDL
MODEL 7
REMARK VINA RESULT:      -1.9      0.982      4.263
REMARK  4 active torsions:
REMARK  status: ('A' for Active; 'I' for Inactive)
REMARK    1  A    between atoms: C5_5  and  C6_6 
REMARK    2  A    between atoms: C6_6  and  C9_9 
REMARK    3  A    between atoms: C7_7  and  C8_8 
REMARK    4  A    between atoms: C7_7  and  C9_9 
ROOT
HETATM    1  C4  UNL     1     -32.612   6.054   1.434  1.00 20.00     0.010 C 
HETATM    2  C9  UNL     1     -32.427   7.341   2.248  1.00 20.00    -0.018 C 
ENDROOT
BRANCH   2   3
HETATM    3  C6  UNL     1     -33.806   7.798   2.777  1.00 20.00     0.004 C 
BRANCH   3   4
HETATM    4  C5  UNL     1     -34.168   7.217   4.145  1.00 20.00    -0.004 C 
HETATM    5  C1  UNL     1     -35.279   6.183   4.031  1.00 20.00     0.005 C 
ENDBRANCH   3   4
ENDBRANCH   2   3
BRANCH   2   6
HETATM    6  C7  UNL     1     -31.740   8.450   1.420  1.00 20.00     0.008 C 
BRANCH   6   7
HETATM    7  C8  UNL     1     -32.676   9.376   0.616  1.00 20.00    -0.022 C 
HETATM    8  C2  UNL     1     -32.334   9.287  -0.875  1.00 20.00     0.009 C 
HETATM    9  C3  UNL     1     -32.593  10.831   1.076  1.00 20.00     0.009 C 
ENDBRANCH   6   7
ENDBRANCH   2   6
TORSDOF 4
ENDMDL
MODEL 8
REMARK VINA RESULT:      -1.9      1.227      1.938
REMARK  4 active torsions:
REMARK  status: ('A' for Active; 'I' for Inactive)
REMARK    1  A    between atoms: C5_5  and  C6_6 
REMARK    2  A    between atoms: C6_6  and  C9_9 
REMARK    3  A    between atoms: C7_7  and  C8_8 
REMARK    4  A    between atoms: C7_7  and  C9_9 
ROOT
HETATM    1  C4  UNL     1     -32.258   8.361   3.294  1.00 20.00     0.010 C 
HETATM    2  C9  UNL     1     -32.137   7.307   2.188  1.00 20.00    -0.018 C 
ENDROOT
BRANCH   2   3
HETATM    3  C6  UNL     1     -31.991   8.029   0.827  1.00 20.00     0.004 C 
BRANCH   3   4
HETATM    4  C5  UNL     1     -32.342   9.517   0.876  1.00 20.00    -0.004 C 
HETATM    5  C1  UNL     1     -32.709  10.045  -0.504  1.00 20.00     0.005 C 
ENDBRANCH   3   4
ENDBRANCH   2   3
BRANCH   2   6
HETATM    6  C7  UNL     1     -33.337   6.334   2.188  1.00 20.00     0.008 C 
BRANCH   6   7
HETATM    7  C8  UNL     1     -33.919   5.974   3.570  1.00 20.00    -0.022 C 
HETATM    8  C2  UNL     1     -33.944   4.451   3.739  1.00 20.00     0.009 C 
HETATM    9  C3  UNL     1     -35.325   6.537   3.775  1.00 20.00     0.009 C 
ENDBRANCH   6   7
ENDBRANCH   2   6
TORSDOF 4
ENDMDL
MODEL 9
REMARK VINA RESULT:      -1.3      1.294      3.904
REMARK  4 active torsions:
REMARK  status: ('A' for Active; 'I' for Inactive)
REMARK    1  A    between atoms: C5_5  and  C6_6 
REMARK    2  A    between atoms: C6_6  and  C9_9 
REMARK    3  A    between atoms: C7_7  and  C8_8 
REMARK    4  A    between atoms: C7_7  and  C9_9 
ROOT
HETATM    1  C4  UNL     1     -34.017   3.905   4.128  1.00 20.00     0.010 C 
HETATM    2  C9  UNL     1     -33.758   5.345   3.669  1.00 20.00    -0.018 C 
ENDROOT
BRANCH   2   3
HETATM    3  C6  UNL     1     -34.959   6.225   4.089  1.00 20.00     0.004 C 
BRANCH   3   4
HETATM    4  C5  UNL     1     -34.669   7.727   4.048  1.00 20.00    -0.004 C 
HETATM    5  C1  UNL     1     -33.385   8.064   4.794  1.00 20.00     0.005 C 
ENDBRANCH   3   4
ENDBRANCH   2   3
BRANCH   2   6
HETATM    6  C7  UNL     1     -33.501   5.425   2.148  1.00 20.00     0.008 C 
BRANCH   6   7
HETATM    7  C8  UNL     1     -32.066   5.798   1.719  1.00 20.00    -0.022 C 
HETATM    8  C2  UNL     1     -31.995   7.296   1.404  1.00 20.00     0.009 C 
HETATM    9  C3  UNL     1     -31.592   4.995   0.509  1.00 20.00     0.009 C 
ENDBRANCH   6   7
ENDBRANCH   2   6
TORSDOF 4
ENDMDL
