MODEL 1
REMARK VINA RESULT:      -2.5      0.000      0.000
REMARK  3 active torsions:
REMARK  status: ('A' for Active; 'I' for Inactive)
REMARK    1  A    between atoms: C1_1  and  C5_5 
REMARK    2  A    between atoms: C2_2  and  C6_6 
REMARK    3  A    between atoms: C6_6  and  C7_7 
ROOT
HETATM    1  C1  UNL     1     -33.230   6.178   2.680  1.00 20.00     0.150 A 
HETATM    2  C2  UNL     1     -32.151   6.822   1.844  1.00 20.00     0.151 A 
HETATM    3  O8  UNL     1     -33.393   6.389   1.271  1.00 20.00    -0.376 OA
ENDROOT
BRANCH   2   4
HETATM    4  C6  UNL     1     -31.918   8.323   1.798  1.00 20.00     0.034 C 
BRANCH   4   5
HETATM    5  C7  UNL     1     -31.888   8.842   0.362  1.00 20.00    -0.002 C 
HETATM    6  C4  UNL     1     -32.607  10.175   0.236  1.00 20.00     0.005 C 
ENDBRANCH   4   5
ENDBRANCH   2   4
BRANCH   1   7
HETATM    7  C5  UNL     1     -34.167   6.951   3.538  1.00 20.00     0.030 C 
HETATM    8  C3  UNL     1     -35.316   6.123   4.058  1.00 20.00     0.007 C 
ENDBRANCH   1   7
TORSDOF 3
ENDMDL
MODEL 2
REMARK VINA RESULT:      -2.3      1.202      4.109
REMARK  3 active torsions:
REMARK  status: ('A' for Active; 'I' for Inactive)
REMARK    1  A    between atoms: C1_1  and  C5_5 
REMARK    2  A    between atoms: C2_2  and  C6_6 
REMARK    3  A    between atoms: C6_6  and  C7_7 
ROOT
HETATM    1  C1  UNL     1     -31.703   8.503   1.273  1.00 20.00     0.150 A 
HETATM    2  C2  UNL     1     -32.063   7.160   1.861  1.00 20.00     0.151 A 
HETATM    3  O8  UNL     1     -31.589   8.239   2.678  1.00 20.00    -0.376 OA
ENDROOT
BRANCH   2   4
HETATM    4  C6  UNL     1     -33.494   6.730   2.141  1.00 20.00     0.034 C 
BRANCH   4   5
HETATM    5  C7  UNL     1     -33.920   7.095   3.562  1.00 20.00    -0.002 C 
HETATM    6  C4  UNL     1     -35.175   6.345   3.978  1.00 20.00     0.005 C 
ENDBRANCH   4   5
ENDBRANCH   2   4
BRANCH   1   7
HETATM    7  C5  UNL     1     -32.714   9.532   0.912  1.00 20.00     0.030 C 
HETATM    8  C3  UNL     1     -32.623   9.974  -0.527  1.00 20.00     0.007 C 
ENDBRANCH   1   7
TORSDOF 3
ENDMDL
MODEL 3
REMARK VINA RESULT:      -2.0      1.031      4.149
REMARK  3 active torsions:
REMARK  status: ('A' for Active; 'I' for Inactive)
REMARK    1  A    between atoms: C1_1  and  C5_5 
REMARK    2  A    between atoms: C2_2  and  C6_6 
REMARK    3  A    between atoms: C6_6  and  C7_7 
ROOT
HETATM    1  C1  UNL     1     -32.403   7.640   1.028  1.00 20.00     0.150 A 
HETATM    2  C2  UNL     1     -33.064   6.782   2.081  1.00 20.00     0.151 A 
HETATM    3  O8  UNL     1     -31.646   6.758   1.868  1.00 20.00    -0.376 OA
ENDROOT
BRANCH   2   4
HETATM    4  C6  UNL     1     -33.495   7.314   3.438  1.00 20.00     0.034 C 
BRANCH   4   5
HETATM    5  C7  UNL     1     -34.899   6.838   3.805  1.00 20.00    -0.002 C 
HETATM    6  C4  UNL     1     -34.907   5.367   4.189  1.00 20.00     0.005 C 
ENDBRANCH   4   5
ENDBRANCH   2   4
BRANCH   1   7
HETATM    7  C5  UNL     1     -32.112   9.085   1.221  1.00 20.00     0.030 C 
HETATM    8  C3  UNL     1     -32.528   9.935   0.046  1.00 20.00     0.007 C 
ENDBRANCH   1   7
TORSDOF 3
ENDMDL
MODEL 4
REMARK VINA RESULT:      -1.7      1.380      1.582
REMARK  3 active torsions:
REMARK  status: ('A' for Active; 'I' for Inactive)
REMARK    1  A    between atoms: C1_1  and  C5_5 
REMARK    2  A    between atoms: C2_2  and  C6_6 
REMARK    3  A    between atoms: C6_6  and  C7_7 
ROOT
HETATM    1  C1  UNL     1     -33.893   7.647   3.592  1.00 20.00     0.150 A 
HETATM    2  C2  UNL     1     -32.834   8.366   2.791  1.00 20.00     0.151 A 
HETATM    3  O8  UNL     1     -32.599   7.936   4.139  1.00 20.00    -0.376 OA
ENDROOT
BRANCH   2   4
HETATM    4  C6  UNL     1     -31.972   7.679   1.744  1.00 20.00     0.034 C 
BRANCH   4   5
HETATM    5  C7  UNL     1     -31.611   8.630   0.605  1.00 20.00    -0.002 C 
HETATM    6  C4  UNL     1     -32.576   9.802   0.530  1.00 20.00     0.005 C 
ENDBRANCH   4   5
ENDBRANCH   2   4
BRANCH   1   7
HETATM    7  C5  UNL     1     -34.192   6.199   3.432  1.00 20.00     0.030 C 
HETATM    8  C3  UNL     1     -35.374   5.743   4.252  1.00 20.00     0.007 C 
ENDBRANCH   1   7
TORSDOF 3
ENDMDL
MODEL 5
REMARK VINA RESULT:      -1.6      1.656      4.601
REMARK  3 active torsions:
REMARK  status: ('A' for Active; 'I' for Inactive)
REMARK    1  A    between atoms: C1_1  and  C5_5 
REMARK    2  A    between atoms: C2_2  and  C6_6 
REMARK    3  A    between atoms: C6_6  and  C7_7 
ROOT
HETATM    1  C1  UNL     1     -33.033   7.663   3.523  1.00 20.00     0.150 A 
HETATM    2  C2  UNL     1     -34.230   7.202   4.319  1.00 20.00     0.151 A 
HETATM    3  O8  UNL     1     -34.235   8.441   3.596  1.00 20.00    -0.376 OA
ENDROOT
BRANCH   2   4
HETATM    4  C6  UNL     1     -35.218   6.165   3.811  1.00 20.00     0.034 C 
BRANCH   4   5
HETATM    5  C7  UNL     1     -35.104   4.856   4.590  1.00 20.00    -0.002 C 
HETATM    6  C4  UNL     1     -33.944   4.009   4.092  1.00 20.00     0.005 C 
ENDBRANCH   4   5
ENDBRANCH   2   4
BRANCH   1   7
HETATM    7  C5  UNL     1     -32.708   7.146   2.167  1.00 20.00     0.030 C 
HETATM    8  C3  UNL     1     -31.887   8.109   1.346  1.00 20.00     0.007 C 
ENDBRANCH   1   7
TORSDOF 3
ENDMDL
MODEL 6
REMARK VINA RESULT:      -1.6      1.498      4.453
REMARK  3 active torsions:
REMARK  status: ('A' for Active; 'I' for Inactive)
REMARK    1  A    between atoms: C1_1  and  C5_5 
REMARK    2  A    between atoms: C2_2  and  C6_6 
REMARK    3  A    between atoms: C6_6  and  C7_7 
ROOT
HETATM    1  C1  UNL     1     -32.545   6.741   1.234  1.00 20.00     0.150 A 
HETATM    2  C2  UNL     1     -33.319   5.710   2.019  1.00 20.00     0.151 A 
HETATM    3  O8  UNL     1     -31.905   5.593   1.807  1.00 20.00    -0.376 OA
ENDROOT
BRANCH   2   4
HETATM    4  C6  UNL     1     -33.732   5.904   3.469  1.00 20.00     0.034 C 
BRANCH   4   5
HETATM    5  C7  UNL     1     -34.522   4.706   3.991  1.00 20.00    -0.002 C 
HETATM    6  C4  UNL     1     -33.604   3.558   4.377  1.00 20.00     0.005 C 
ENDBRANCH   4   5
ENDBRANCH   2   4
BRANCH   1   7
HETATM    7  C5  UNL     1     -32.113   8.044   1.805  1.00 20.00     0.030 C 
HETATM    8  C3  UNL     1     -32.061   9.152   0.782  1.00 20.00     0.007 C 
ENDBRANCH   1   7
TORSDOF 3
ENDMDL
MODEL 7
REMARK VINA RESULT:      -1.5      2.227      4.953
REMARK  3 active torsions:
REMARK  status: ('A' for Active; 'I' for Inactive)
REMARK    1  A    between atoms: C1_1  and  C5_5 
REMARK    2  A    between atoms: C2_2  and  C6_6 
REMARK    3  A    between atoms: C6_6  and  C7_7 
ROOT
HETATM    1  C1  UNL     1     -33.809   7.101   3.390  1.00 20.00     0.150 A 
HETATM    2  C2  UNL     1     -34.413   5.984   4.206  1.00 20.00     0.151 A 
HETATM    3  O8  UNL     1     -35.203   6.774   3.306  1.00 20.00    -0.376 OA
ENDROOT
BRANCH   2   4
HETATM    4  C6  UNL     1     -34.293   4.517   3.826  1.00 20.00     0.034 C 
BRANCH   4   5
HETATM    5  C7  UNL     1     -33.738   3.684   4.980  1.00 20.00    -0.002 C 
HETATM    6  C4  UNL     1     -33.004   2.452   4.475  1.00 20.00     0.005 C 
ENDBRANCH   4   5
ENDBRANCH   2   4
BRANCH   1   7
HETATM    7  C5  UNL     1     -33.039   6.872   2.139  1.00 20.00     0.030 C 
HETATM    8  C3  UNL     1     -32.006   7.939   1.874  1.00 20.00     0.007 C 
ENDBRANCH   1   7
TORSDOF 3
ENDMDL
MODEL 8
REMARK VINA RESULT:      -1.4      1.612      1.859
REMARK  3 active torsions:
REMARK  status: ('A' for Active; 'I' for Inactive)
REMARK    1  A    between atoms: C1_1  and  C5_5 
REMARK    2  A    between atoms: C2_2  and  C6_6 
REMARK    3  A    between atoms: C6_6  and  C7_7 
ROOT
HETATM    1  C1  UNL     1     -34.280   6.548   3.346  1.00 20.00     0.150 A 
HETATM    2  C2  UNL     1     -33.610   7.852   2.985  1.00 20.00     0.151 A 
HETATM    3  O8  UNL     1     -33.822   7.464   4.350  1.00 20.00    -0.376 OA
ENDROOT
BRANCH   2   4
HETATM    4  C6  UNL     1     -32.151   7.952   2.572  1.00 20.00     0.034 C 
BRANCH   4   5
HETATM    5  C7  UNL     1     -32.007   8.127   1.061  1.00 20.00    -0.002 C 
HETATM    6  C4  UNL     1     -32.370   9.538   0.627  1.00 20.00     0.005 C 
ENDBRANCH   4   5
ENDBRANCH   2   4
BRANCH   1   7
HETATM    7  C5  UNL     1     -33.575   5.239   3.332  1.00 20.00     0.030 C 
HETATM    8  C3  UNL     1     -34.188   4.224   4.266  1.00 20.00     0.007 C 
ENDBRANCH   1   7
TORSDOF 3
ENDMDL
MODEL 9
REMARK VINA RESULT:      -1.4      2.328      3.247
REMARK  3 active torsions:
REMARK  status: ('A' for Active; 'I' for Inactive)
REMARK    1  A    between atoms: C1_1  and  C5_5 
REMARK    2  A    between atoms: C2_2  and  C6_6 
REMARK    3  A    between atoms: C6_6  and  C7_7 
ROOT
HETATM    1  C1  UNL     1     -34.602   4.762   3.833  1.00 20.00     0.150 A 
HETATM    2  C2  UNL     1     -34.659   6.209   3.404  1.00 20.00     0.151 A 
HETATM    3  O8  UNL     1     -35.474   5.704   4.472  1.00 20.00    -0.376 OA
ENDROOT
BRANCH   2   4
HETATM    4  C6  UNL     1     -33.629   7.243   3.826  1.00 20.00     0.034 C 
BRANCH   4   5
HETATM    5  C7  UNL     1     -32.835   7.763   2.628  1.00 20.00    -0.002 C 
HETATM    6  C4  UNL     1     -32.451   6.636   1.683  1.00 20.00     0.005 C 
ENDBRANCH   4   5
ENDBRANCH   2   4
BRANCH   1   7
HETATM    7  C5  UNL     1     -33.531   4.213   4.706  1.00 20.00     0.030 C 
HETATM    8  C3  UNL     1     -33.336   2.726   4.543  1.00 20.00     0.007 C 
ENDBRANCH   1   7
TORSDOF 3
ENDMDL
