MODEL 1
REMARK VINA RESULT:      -2.6      0.000      0.000
REMARK  3 active torsions:
REMARK  status: ('A' for Active; 'I' for Inactive)
REMARK    1  A    between atoms: C2_2  and  C7_7 
REMARK    2  A    between atoms: C5_5  and  C6_6 
REMARK    3  A    between atoms: C6_6  and  C7_7 
ROOT
HETATM    1  C4  UNL     1     -32.445   5.642   1.451  1.00 20.00     0.012 C 
HETATM    2  C7  UNL     1     -33.046   6.948   1.973  1.00 20.00     0.012 C 
ENDROOT
BRANCH   2   3
HETATM    3  C2  UNL     1     -33.522   6.758   3.415  1.00 20.00     0.149 A 
HETATM    4  C1  UNL     1     -34.985   6.688   3.750  1.00 20.00     0.200 A 
HETATM    5  O8  UNL     1     -34.171   5.507   3.668  1.00 20.00    -0.381 OA
ENDBRANCH   2   3
BRANCH   2   6
HETATM    6  C6  UNL     1     -32.054   8.124   1.902  1.00 20.00     0.006 C 
BRANCH   6   7
HETATM    7  C5  UNL     1     -31.890   8.698   0.493  1.00 20.00    -0.004 C 
HETATM    8  C3  UNL     1     -32.545  10.067   0.373  1.00 20.00     0.005 C 
ENDBRANCH   6   7
ENDBRANCH   2   6
TORSDOF 3
ENDMDL
MODEL 2
REMARK VINA RESULT:      -2.2      1.496      2.252
REMARK  3 active torsions:
REMARK  status: ('A' for Active; 'I' for Inactive)
REMARK    1  A    between atoms: C2_2  and  C7_7 
REMARK    2  A    between atoms: C5_5  and  C6_6 
REMARK    3  A    between atoms: C6_6  and  C7_7 
ROOT
HETATM    1  C4  UNL     1     -34.468   7.239   3.909  1.00 20.00     0.012 C 
HETATM    2  C7  UNL     1     -33.494   6.210   3.334  1.00 20.00     0.012 C 
ENDROOT
BRANCH   2   3
HETATM    3  C2  UNL     1     -34.144   4.824   3.341  1.00 20.00     0.149 A 
HETATM    4  C1  UNL     1     -33.747   3.783   4.349  1.00 20.00     0.200 A 
HETATM    5  O8  UNL     1     -34.952   4.551   4.490  1.00 20.00    -0.381 OA
ENDBRANCH   2   3
BRANCH   2   6
HETATM    6  C6  UNL     1     -33.035   6.564   1.908  1.00 20.00     0.006 C 
BRANCH   6   7
HETATM    7  C5  UNL     1     -31.900   7.590   1.870  1.00 20.00    -0.004 C 
HETATM    8  C3  UNL     1     -32.274   8.799   1.023  1.00 20.00     0.005 C 
ENDBRANCH   6   7
ENDBRANCH   2   6
TORSDOF 3
ENDMDL
MODEL 3
REMARK VINA RESULT:      -2.2      2.421      4.666
REMARK  3 active torsions:
REMARK  status: ('A' for Active; 'I' for Inactive)
REMARK    1  A    between atoms: C2_2  and  C7_7 
REMARK    2  A    between atoms: C5_5  and  C6_6 
REMARK    3  A    between atoms: C6_6  and  C7_7 
ROOT
HETATM    1  C4  UNL     1     -34.229   7.452   4.125  1.00 20.00     0.012 C 
HETATM    2  C7  UNL     1     -34.264   6.125   3.365  1.00 20.00     0.012 C 
ENDROOT
BRANCH   2   3
HETATM    3  C2  UNL     1     -32.937   5.917   2.629  1.00 20.00     0.149 A 
HETATM    4  C1  UNL     1     -32.885   5.812   1.131  1.00 20.00     0.200 A 
HETATM    5  O8  UNL     1     -32.526   7.022   1.818  1.00 20.00    -0.381 OA
ENDBRANCH   2   3
BRANCH   2   6
HETATM    6  C6  UNL     1     -34.543   4.924   4.286  1.00 20.00     0.006 C 
BRANCH   6   7
HETATM    7  C5  UNL     1     -33.778   3.659   3.889  1.00 20.00    -0.004 C 
HETATM    8  C3  UNL     1     -33.060   3.048   5.084  1.00 20.00     0.005 C 
ENDBRANCH   6   7
ENDBRANCH   2   6
TORSDOF 3
ENDMDL
MODEL 4
REMARK VINA RESULT:      -1.8      2.046      4.324
REMARK  3 active torsions:
REMARK  status: ('A' for Active; 'I' for Inactive)
REMARK    1  A    between atoms: C2_2  and  C7_7 
REMARK    2  A    between atoms: C5_5  and  C6_6 
REMARK    3  A    between atoms: C6_6  and  C7_7 
ROOT
HETATM    1  C4  UNL     1     -33.454   8.098   4.896  1.00 20.00     0.012 C 
HETATM    2  C7  UNL     1     -33.939   7.486   3.582  1.00 20.00     0.012 C 
ENDROOT
BRANCH   2   3
HETATM    3  C2  UNL     1     -32.747   7.259   2.647  1.00 20.00     0.149 A 
HETATM    4  C1  UNL     1     -32.453   8.203   1.517  1.00 20.00     0.200 A 
HETATM    5  O8  UNL     1     -31.715   8.245   2.749  1.00 20.00    -0.381 OA
ENDBRANCH   2   3
BRANCH   2   6
HETATM    6  C6  UNL     1     -34.696   6.162   3.792  1.00 20.00     0.006 C 
BRANCH   6   7
HETATM    7  C5  UNL     1     -33.912   4.931   3.331  1.00 20.00    -0.004 C 
HETATM    8  C3  UNL     1     -33.907   3.846   4.398  1.00 20.00     0.005 C 
ENDBRANCH   6   7
ENDBRANCH   2   6
TORSDOF 3
ENDMDL
MODEL 5
REMARK VINA RESULT:      -1.7      2.189      4.016
REMARK  3 active torsions:
REMARK  status: ('A' for Active; 'I' for Inactive)
REMARK    1  A    between atoms: C2_2  and  C7_7 
REMARK    2  A    between atoms: C5_5  and  C6_6 
REMARK    3  A    between atoms: C6_6  and  C7_7 
ROOT
HETATM    1  C4  UNL     1     -31.831   6.579   1.445  1.00 20.00     0.012 C 
HETATM    2  C7  UNL     1     -32.242   7.946   1.994  1.00 20.00     0.012 C 
ENDROOT
BRANCH   2   3
HETATM    3  C2  UNL     1     -32.801   8.810   0.861  1.00 20.00     0.149 A 
HETATM    4  C1  UNL     1     -32.486  10.276   0.772  1.00 20.00     0.200 A 
HETATM    5  O8  UNL     1     -31.816   9.307  -0.051  1.00 20.00    -0.381 OA
ENDBRANCH   2   3
BRANCH   2   6
HETATM    6  C6  UNL     1     -33.277   7.839   3.129  1.00 20.00     0.006 C 
BRANCH   6   7
HETATM    7  C5  UNL     1     -33.851   6.431   3.300  1.00 20.00    -0.004 C 
HETATM    8  C3  UNL     1     -35.212   6.466   3.981  1.00 20.00     0.005 C 
ENDBRANCH   6   7
ENDBRANCH   2   6
TORSDOF 3
ENDMDL
MODEL 6
REMARK VINA RESULT:      -1.6      1.755      3.879
REMARK  3 active torsions:
REMARK  status: ('A' for Active; 'I' for Inactive)
REMARK    1  A    between atoms: C2_2  and  C7_7 
REMARK    2  A    between atoms: C5_5  and  C6_6 
REMARK    3  A    between atoms: C6_6  and  C7_7 
ROOT
HETATM    1  C4  UNL     1     -32.025   8.084   2.222  1.00 20.00     0.012 C 
HETATM    2  C7  UNL     1     -33.254   7.182   2.347  1.00 20.00     0.012 C 
ENDROOT
BRANCH   2   3
HETATM    3  C2  UNL     1     -32.865   5.734   2.036  1.00 20.00     0.149 A 
HETATM    4  C1  UNL     1     -32.977   5.179   0.645  1.00 20.00     0.200 A 
HETATM    5  O8  UNL     1     -31.716   5.594   1.194  1.00 20.00    -0.381 OA
ENDBRANCH   2   3
BRANCH   2   6
HETATM    6  C6  UNL     1     -33.904   7.260   3.740  1.00 20.00     0.006 C 
BRANCH   6   7
HETATM    7  C5  UNL     1     -35.267   6.569   3.816  1.00 20.00    -0.004 C 
HETATM    8  C3  UNL     1     -35.159   5.201   4.476  1.00 20.00     0.005 C 
ENDBRANCH   6   7
ENDBRANCH   2   6
TORSDOF 3
ENDMDL
MODEL 7
REMARK VINA RESULT:      -1.4      1.004      2.126
REMARK  3 active torsions:
REMARK  status: ('A' for Active; 'I' for Inactive)
REMARK    1  A    between atoms: C2_2  and  C7_7 
REMARK    2  A    between atoms: C5_5  and  C6_6 
REMARK    3  A    between atoms: C6_6  and  C7_7 
ROOT
HETATM    1  C4  UNL     1     -33.779   7.549   3.691  1.00 20.00     0.012 C 
HETATM    2  C7  UNL     1     -32.601   7.483   2.719  1.00 20.00     0.012 C 
ENDROOT
BRANCH   2   3
HETATM    3  C2  UNL     1     -32.920   6.501   1.588  1.00 20.00     0.149 A 
HETATM    4  C1  UNL     1     -32.043   5.311   1.319  1.00 20.00     0.200 A 
HETATM    5  O8  UNL     1     -33.288   5.189   2.025  1.00 20.00    -0.381 OA
ENDBRANCH   2   3
BRANCH   2   6
HETATM    6  C6  UNL     1     -32.244   8.860   2.129  1.00 20.00     0.006 C 
BRANCH   6   7
HETATM    7  C5  UNL     1     -32.072   8.846   0.608  1.00 20.00    -0.004 C 
HETATM    8  C3  UNL     1     -32.558  10.147  -0.016  1.00 20.00     0.005 C 
ENDBRANCH   6   7
ENDBRANCH   2   6
TORSDOF 3
ENDMDL
MODEL 8
REMARK VINA RESULT:      -1.3      1.901      3.046
REMARK  3 active torsions:
REMARK  status: ('A' for Active; 'I' for Inactive)
REMARK    1  A    between atoms: C2_2  and  C7_7 
REMARK    2  A    between atoms: C5_5  and  C6_6 
REMARK    3  A    between atoms: C6_6  and  C7_7 
ROOT
HETATM    1  C4  UNL     1     -34.639   7.368   4.086  1.00 20.00     0.012 C 
HETATM    2  C7  UNL     1     -33.619   6.359   3.557  1.00 20.00     0.012 C 
ENDROOT
BRANCH   2   3
HETATM    3  C2  UNL     1     -34.271   4.979   3.438  1.00 20.00     0.149 A 
HETATM    4  C1  UNL     1     -33.859   3.844   4.331  1.00 20.00     0.200 A 
HETATM    5  O8  UNL     1     -35.061   4.595   4.567  1.00 20.00    -0.381 OA
ENDBRANCH   2   3
BRANCH   2   6
HETATM    6  C6  UNL     1     -33.028   6.776   2.197  1.00 20.00     0.006 C 
BRANCH   6   7
HETATM    7  C5  UNL     1     -32.983   5.636   1.177  1.00 20.00    -0.004 C 
HETATM    8  C3  UNL     1     -31.582   5.053   1.060  1.00 20.00     0.005 C 
ENDBRANCH   6   7
ENDBRANCH   2   6
TORSDOF 3
ENDMDL
MODEL 9
REMARK VINA RESULT:      -1.3      2.004      3.505
REMARK  3 active torsions:
REMARK  status: ('A' for Active; 'I' for Inactive)
REMARK    1  A    between atoms: C2_2  and  C7_7 
REMARK    2  A    between atoms: C5_5  and  C6_6 
REMARK    3  A    between atoms: C6_6  and  C7_7 
ROOT
HETATM    1  C4  UNL     1     -33.833   4.113   3.736  1.00 20.00     0.012 C 
HETATM    2  C7  UNL     1     -33.623   5.600   3.450  1.00 20.00     0.012 C 
ENDROOT
BRANCH   2   3
HETATM    3  C2  UNL     1     -33.311   5.802   1.965  1.00 20.00     0.149 A 
HETATM    4  C1  UNL     1     -32.221   6.734   1.518  1.00 20.00     0.200 A 
HETATM    5  O8  UNL     1     -32.030   5.311   1.555  1.00 20.00    -0.381 OA
ENDBRANCH   2   3
BRANCH   2   6
HETATM    6  C6  UNL     1     -34.841   6.454   3.848  1.00 20.00     0.006 C 
BRANCH   6   7
HETATM    7  C5  UNL     1     -34.500   7.927   4.090  1.00 20.00    -0.004 C 
HETATM    8  C3  UNL     1     -33.225   8.072   4.908  1.00 20.00     0.005 C 
ENDBRANCH   6   7
ENDBRANCH   2   6
TORSDOF 3
ENDMDL
