MODEL 1
REMARK VINA RESULT:       0.6      0.000      0.000
REMARK  0 active torsions:
REMARK  status: ('A' for Active; 'I' for Inactive)
ROOT
HETATM    1  C1  UNL     1     -33.471   7.276   3.234  1.00 20.00     0.132 C 
HETATM    2  C2  UNL     1     -31.536   6.982   1.340  1.00 20.00     0.064 C 
HETATM    3  C3  UNL     1     -31.904   8.394   1.774  1.00 20.00     0.128 C 
HETATM    4  C4  UNL     1     -32.711   5.998   1.374  1.00 20.00     0.051 C 
HETATM    5  C5  UNL     1     -34.279   7.483   4.475  1.00 20.00     0.099 C 
HETATM    6  C6  UNL     1     -32.577   9.251   0.713  1.00 20.00     0.040 C 
HETATM    7  C7  UNL     1     -32.156   4.562   1.405  1.00 20.00     0.040 C 
HETATM    8  C8  UNL     1     -33.641   6.121   0.161  1.00 20.00     0.040 C 
HETATM    9  N9  UNL     1     -33.514   6.169   2.586  1.00 20.00    -0.261 NA
HETATM   10  O10 UNL     1     -32.727   8.375   2.953  1.00 20.00    -0.333 OA
ENDROOT
TORSDOF 0
ENDMDL
MODEL 2
REMARK VINA RESULT:       1.2      1.357      3.003
REMARK  0 active torsions:
REMARK  status: ('A' for Active; 'I' for Inactive)
ROOT
HETATM    1  C1  UNL     1     -33.812   6.814   3.042  1.00 20.00     0.132 C 
HETATM    2  C2  UNL     1     -32.448   7.011   0.692  1.00 20.00     0.064 C 
HETATM    3  C3  UNL     1     -32.666   5.622   1.279  1.00 20.00     0.128 C 
HETATM    4  C4  UNL     1     -32.292   8.112   1.747  1.00 20.00     0.051 C 
HETATM    5  C5  UNL     1     -34.810   6.621   4.138  1.00 20.00     0.099 C 
HETATM    6  C6  UNL     1     -31.410   4.908   1.754  1.00 20.00     0.040 C 
HETATM    7  C7  UNL     1     -32.570   9.474   1.088  1.00 20.00     0.040 C 
HETATM    8  C8  UNL     1     -30.891   8.162   2.367  1.00 20.00     0.040 C 
HETATM    9  N9  UNL     1     -33.266   7.956   2.829  1.00 20.00    -0.261 NA
HETATM   10  O10 UNL     1     -33.620   5.659   2.356  1.00 20.00    -0.333 OA
ENDROOT
TORSDOF 0
ENDMDL
MODEL 3
REMARK VINA RESULT:       1.4      2.135      3.175
REMARK  0 active torsions:
REMARK  status: ('A' for Active; 'I' for Inactive)
ROOT
HETATM    1  C1  UNL     1     -33.657   4.584   3.703  1.00 20.00     0.132 C 
HETATM    2  C2  UNL     1     -33.743   7.246   3.136  1.00 20.00     0.064 C 
HETATM    3  C3  UNL     1     -34.904   6.642   3.913  1.00 20.00     0.128 C 
HETATM    4  C4  UNL     1     -33.104   6.283   2.129  1.00 20.00     0.051 C 
HETATM    5  C5  UNL     1     -33.516   3.224   4.310  1.00 20.00     0.099 C 
HETATM    6  C6  UNL     1     -36.238   6.615   3.182  1.00 20.00     0.040 C 
HETATM    7  C7  UNL     1     -31.695   6.793   1.778  1.00 20.00     0.040 C 
HETATM    8  C8  UNL     1     -33.900   6.153   0.825  1.00 20.00     0.040 C 
HETATM    9  N9  UNL     1     -32.941   4.945   2.701  1.00 20.00    -0.261 NA
HETATM   10  O10 UNL     1     -34.590   5.313   4.364  1.00 20.00    -0.333 OA
ENDROOT
TORSDOF 0
ENDMDL
MODEL 4
REMARK VINA RESULT:       1.8      2.220      3.548
REMARK  0 active torsions:
REMARK  status: ('A' for Active; 'I' for Inactive)
ROOT
HETATM    1  C1  UNL     1     -33.504   4.402   3.688  1.00 20.00     0.132 C 
HETATM    2  C2  UNL     1     -34.252   6.369   1.960  1.00 20.00     0.064 C 
HETATM    3  C3  UNL     1     -32.922   5.669   1.715  1.00 20.00     0.128 C 
HETATM    4  C4  UNL     1     -34.627   6.487   3.441  1.00 20.00     0.051 C 
HETATM    5  C5  UNL     1     -33.198   3.123   4.400  1.00 20.00     0.099 C 
HETATM    6  C6  UNL     1     -31.684   6.533   1.900  1.00 20.00     0.040 C 
HETATM    7  C7  UNL     1     -36.141   6.740   3.552  1.00 20.00     0.040 C 
HETATM    8  C8  UNL     1     -33.901   7.630   4.161  1.00 20.00     0.040 C 
HETATM    9  N9  UNL     1     -34.350   5.244   4.162  1.00 20.00    -0.261 NA
HETATM   10  O10 UNL     1     -32.798   4.493   2.534  1.00 20.00    -0.333 OA
ENDROOT
TORSDOF 0
ENDMDL
MODEL 5
REMARK VINA RESULT:       2.0      1.380      3.328
REMARK  0 active torsions:
REMARK  status: ('A' for Active; 'I' for Inactive)
ROOT
HETATM    1  C1  UNL     1     -32.490   8.161   1.647  1.00 20.00     0.132 C 
HETATM    2  C2  UNL     1     -32.921   5.965   3.200  1.00 20.00     0.064 C 
HETATM    3  C3  UNL     1     -32.493   5.747   1.755  1.00 20.00     0.128 C 
HETATM    4  C4  UNL     1     -33.784   7.215   3.408  1.00 20.00     0.051 C 
HETATM    5  C5  UNL     1     -31.939   9.304   0.857  1.00 20.00     0.099 C 
HETATM    6  C6  UNL     1     -33.536   5.106   0.852  1.00 20.00     0.040 C 
HETATM    7  C7  UNL     1     -33.743   7.604   4.896  1.00 20.00     0.040 C 
HETATM    8  C8  UNL     1     -35.251   7.011   3.012  1.00 20.00     0.040 C 
HETATM    9  N9  UNL     1     -33.260   8.356   2.656  1.00 20.00    -0.261 NA
HETATM   10  O10 UNL     1     -32.047   6.977   1.156  1.00 20.00    -0.333 OA
ENDROOT
TORSDOF 0
ENDMDL
MODEL 6
REMARK VINA RESULT:       2.1      1.565      3.455
REMARK  0 active torsions:
REMARK  status: ('A' for Active; 'I' for Inactive)
ROOT
HETATM    1  C1  UNL     1     -32.734   5.823   1.651  1.00 20.00     0.132 C 
HETATM    2  C2  UNL     1     -32.956   7.535   3.757  1.00 20.00     0.064 C 
HETATM    3  C3  UNL     1     -34.031   6.470   3.584  1.00 20.00     0.128 C 
HETATM    4  C4  UNL     1     -32.367   8.041   2.435  1.00 20.00     0.051 C 
HETATM    5  C5  UNL     1     -32.498   4.676   0.721  1.00 20.00     0.099 C 
HETATM    6  C6  UNL     1     -35.417   6.990   3.233  1.00 20.00     0.040 C 
HETATM    7  C7  UNL     1     -31.009   8.707   2.719  1.00 20.00     0.040 C 
HETATM    8  C8  UNL     1     -33.260   9.067   1.727  1.00 20.00     0.040 C 
HETATM    9  N9  UNL     1     -32.113   6.937   1.508  1.00 20.00    -0.261 NA
HETATM   10  O10 UNL     1     -33.636   5.490   2.608  1.00 20.00    -0.333 OA
ENDROOT
TORSDOF 0
ENDMDL
MODEL 7
REMARK VINA RESULT:       2.3      1.275      3.134
REMARK  0 active torsions:
REMARK  status: ('A' for Active; 'I' for Inactive)
ROOT
HETATM    1  C1  UNL     1     -32.580   5.866   1.808  1.00 20.00     0.132 C 
HETATM    2  C2  UNL     1     -33.762   8.211   2.528  1.00 20.00     0.064 C 
HETATM    3  C3  UNL     1     -32.408   8.276   1.835  1.00 20.00     0.128 C 
HETATM    4  C4  UNL     1     -33.947   6.973   3.412  1.00 20.00     0.051 C 
HETATM    5  C5  UNL     1     -32.043   4.654   1.115  1.00 20.00     0.099 C 
HETATM    6  C6  UNL     1     -31.258   8.787   2.690  1.00 20.00     0.040 C 
HETATM    7  C7  UNL     1     -35.451   6.753   3.652  1.00 20.00     0.040 C 
HETATM    8  C8  UNL     1     -33.262   7.096   4.778  1.00 20.00     0.040 C 
HETATM    9  N9  UNL     1     -33.441   5.767   2.754  1.00 20.00    -0.261 NA
HETATM   10  O10 UNL     1     -32.048   6.998   1.282  1.00 20.00    -0.333 OA
ENDROOT
TORSDOF 0
ENDMDL
MODEL 8
REMARK VINA RESULT:       2.9      1.764      3.019
REMARK  0 active torsions:
REMARK  status: ('A' for Active; 'I' for Inactive)
ROOT
HETATM    1  C1  UNL     1     -33.075   7.890   4.227  1.00 20.00     0.132 C 
HETATM    2  C2  UNL     1     -34.008   6.827   1.900  1.00 20.00     0.064 C 
HETATM    3  C3  UNL     1     -34.485   6.213   3.209  1.00 20.00     0.128 C 
HETATM    4  C4  UNL     1     -32.577   7.374   1.957  1.00 20.00     0.051 C 
HETATM    5  C5  UNL     1     -32.855   8.622   5.513  1.00 20.00     0.099 C 
HETATM    6  C6  UNL     1     -34.015   4.791   3.474  1.00 20.00     0.040 C 
HETATM    7  C7  UNL     1     -32.380   8.374   0.804  1.00 20.00     0.040 C 
HETATM    8  C8  UNL     1     -31.506   6.283   1.828  1.00 20.00     0.040 C 
HETATM    9  N9  UNL     1     -32.335   8.106   3.201  1.00 20.00    -0.261 NA
HETATM   10  O10 UNL     1     -34.128   7.041   4.329  1.00 20.00    -0.333 OA
ENDROOT
TORSDOF 0
ENDMDL
MODEL 9
REMARK VINA RESULT:       3.5      1.223      2.816
REMARK  0 active torsions:
REMARK  status: ('A' for Active; 'I' for Inactive)
ROOT
HETATM    1  C1  UNL     1     -32.526   8.398   1.330  1.00 20.00     0.132 C 
HETATM    2  C2  UNL     1     -33.946   6.411   2.534  1.00 20.00     0.064 C 
HETATM    3  C3  UNL     1     -33.729   7.704   3.307  1.00 20.00     0.128 C 
HETATM    4  C4  UNL     1     -32.789   6.047   1.597  1.00 20.00     0.051 C 
HETATM    5  C5  UNL     1     -32.042   9.619   0.614  1.00 20.00     0.099 C 
HETATM    6  C6  UNL     1     -32.845   7.589   4.540  1.00 20.00     0.040 C 
HETATM    7  C7  UNL     1     -33.298   5.049   0.542  1.00 20.00     0.040 C 
HETATM    8  C8  UNL     1     -31.601   5.405   2.323  1.00 20.00     0.040 C 
HETATM    9  N9  UNL     1     -32.301   7.221   0.871  1.00 20.00    -0.261 NA
HETATM   10  O10 UNL     1     -33.209   8.737   2.453  1.00 20.00    -0.333 OA
ENDROOT
TORSDOF 0
ENDMDL
