MODEL 1
REMARK VINA RESULT:      -1.8      0.000      0.000
REMARK  3 active torsions:
REMARK  status: ('A' for Active; 'I' for Inactive)
REMARK    1  A    between atoms: C3_3  and  C4_4 
REMARK    2  A    between atoms: C3_3  and  N5_5 
REMARK    3  A    between atoms: C4_4  and  O6_6 
ROOT
HETATM    1  C1  UNL     1     -33.185   7.631   3.075  1.00 20.00     0.157 C 
HETATM    2  N5  UNL     1     -33.940   7.496   3.966  1.00 20.00    -0.273 NA
HETATM    3  S7  UNL     1     -32.151   7.839   1.883  1.00 20.00    -0.055 SA
ENDROOT
BRANCH   2   4
HETATM    4  C3  UNL     1     -34.862   6.365   3.825  1.00 20.00     0.176 C 
BRANCH   4   5
HETATM    5  C4  UNL     1     -34.068   5.111   3.511  1.00 20.00     0.189 C 
BRANCH   5   6
HETATM    6  O6  UNL     1     -34.456   4.072   4.400  1.00 20.00    -0.394 OA
HETATM    7  C2  UNL     1     -33.397   3.148   4.614  1.00 20.00     0.201 C 
ENDBRANCH   5   6
ENDBRANCH   4   5
ENDBRANCH   2   4
TORSDOF 3
ENDMDL
MODEL 2
REMARK VINA RESULT:      -1.7      2.489      2.906
REMARK  3 active torsions:
REMARK  status: ('A' for Active; 'I' for Inactive)
REMARK    1  A    between atoms: C3_3  and  C4_4 
REMARK    2  A    between atoms: C3_3  and  N5_5 
REMARK    3  A    between atoms: C4_4  and  O6_6 
ROOT
HETATM    1  C1  UNL     1     -32.257   8.830   1.163  1.00 20.00     0.157 C 
HETATM    2  N5  UNL     1     -32.101   8.007   1.986  1.00 20.00    -0.273 NA
HETATM    3  S7  UNL     1     -32.463   9.969   0.069  1.00 20.00    -0.055 SA
ENDROOT
BRANCH   2   4
HETATM    4  C3  UNL     1     -32.307   6.630   1.526  1.00 20.00     0.176 C 
BRANCH   4   5
HETATM    5  C4  UNL     1     -33.326   5.953   2.424  1.00 20.00     0.189 C 
BRANCH   5   6
HETATM    6  O6  UNL     1     -33.835   6.898   3.356  1.00 20.00    -0.394 OA
HETATM    7  C2  UNL     1     -35.030   6.433   3.970  1.00 20.00     0.201 C 
ENDBRANCH   5   6
ENDBRANCH   4   5
ENDBRANCH   2   4
TORSDOF 3
ENDMDL
MODEL 3
REMARK VINA RESULT:      -1.7      2.530      2.935
REMARK  3 active torsions:
REMARK  status: ('A' for Active; 'I' for Inactive)
REMARK    1  A    between atoms: C3_3  and  C4_4 
REMARK    2  A    between atoms: C3_3  and  N5_5 
REMARK    3  A    between atoms: C4_4  and  O6_6 
ROOT
HETATM    1  C1  UNL     1     -32.175   8.677   1.118  1.00 20.00     0.157 C 
HETATM    2  N5  UNL     1     -31.939   7.725   1.764  1.00 20.00    -0.273 NA
HETATM    3  S7  UNL     1     -32.465   9.971   0.236  1.00 20.00    -0.055 SA
ENDROOT
BRANCH   2   4
HETATM    4  C3  UNL     1     -33.111   7.088   2.373  1.00 20.00     0.176 C 
BRANCH   4   5
HETATM    5  C4  UNL     1     -33.317   7.653   3.765  1.00 20.00     0.189 C 
BRANCH   5   6
HETATM    6  O6  UNL     1     -34.690   7.546   4.119  1.00 20.00    -0.394 OA
HETATM    7  C2  UNL     1     -35.175   6.223   3.930  1.00 20.00     0.201 C 
ENDBRANCH   5   6
ENDBRANCH   4   5
ENDBRANCH   2   4
TORSDOF 3
ENDMDL
MODEL 4
REMARK VINA RESULT:      -1.5      3.539      4.844
REMARK  3 active torsions:
REMARK  status: ('A' for Active; 'I' for Inactive)
REMARK    1  A    between atoms: C3_3  and  C4_4 
REMARK    2  A    between atoms: C3_3  and  N5_5 
REMARK    3  A    between atoms: C4_4  and  O6_6 
ROOT
HETATM    1  C1  UNL     1     -34.011   6.988   3.542  1.00 20.00     0.157 C 
HETATM    2  N5  UNL     1     -33.104   7.635   3.169  1.00 20.00    -0.273 NA
HETATM    3  S7  UNL     1     -35.242   6.129   4.071  1.00 20.00    -0.055 SA
ENDROOT
BRANCH   2   4
HETATM    4  C3  UNL     1     -32.510   7.193   1.903  1.00 20.00     0.176 C 
BRANCH   4   5
HETATM    5  C4  UNL     1     -31.705   8.332   1.307  1.00 20.00     0.189 C 
BRANCH   5   6
HETATM    6  O6  UNL     1     -32.549   9.462   1.125  1.00 20.00    -0.394 OA
HETATM    7  C2  UNL     1     -32.506   9.935  -0.214  1.00 20.00     0.201 C 
ENDBRANCH   5   6
ENDBRANCH   4   5
ENDBRANCH   2   4
TORSDOF 3
ENDMDL
MODEL 5
REMARK VINA RESULT:      -1.5      3.620      4.950
REMARK  3 active torsions:
REMARK  status: ('A' for Active; 'I' for Inactive)
REMARK    1  A    between atoms: C3_3  and  C4_4 
REMARK    2  A    between atoms: C3_3  and  N5_5 
REMARK    3  A    between atoms: C4_4  and  O6_6 
ROOT
HETATM    1  C1  UNL     1     -33.668   6.334   2.704  1.00 20.00     0.157 C 
HETATM    2  N5  UNL     1     -32.960   6.116   1.792  1.00 20.00    -0.273 NA
HETATM    3  S7  UNL     1     -34.645   6.607   3.931  1.00 20.00    -0.055 SA
ENDROOT
BRANCH   2   4
HETATM    4  C3  UNL     1     -31.804   7.011   1.681  1.00 20.00     0.176 C 
BRANCH   4   5
HETATM    5  C4  UNL     1     -32.289   8.448   1.644  1.00 20.00     0.189 C 
BRANCH   5   6
HETATM    6  O6  UNL     1     -31.968   9.022   0.384  1.00 20.00    -0.394 OA
HETATM    7  C2  UNL     1     -32.594  10.286   0.211  1.00 20.00     0.201 C 
ENDBRANCH   5   6
ENDBRANCH   4   5
ENDBRANCH   2   4
TORSDOF 3
ENDMDL
MODEL 6
REMARK VINA RESULT:      -1.4      2.981      3.849
REMARK  3 active torsions:
REMARK  status: ('A' for Active; 'I' for Inactive)
REMARK    1  A    between atoms: C3_3  and  C4_4 
REMARK    2  A    between atoms: C3_3  and  N5_5 
REMARK    3  A    between atoms: C4_4  and  O6_6 
ROOT
HETATM    1  C1  UNL     1     -34.301   4.208   4.389  1.00 20.00     0.157 C 
HETATM    2  N5  UNL     1     -35.148   5.003   4.215  1.00 20.00    -0.273 NA
HETATM    3  S7  UNL     1     -33.175   3.108   4.628  1.00 20.00    -0.055 SA
ENDROOT
BRANCH   2   4
HETATM    4  C3  UNL     1     -34.674   6.380   4.042  1.00 20.00     0.176 C 
BRANCH   4   5
HETATM    5  C4  UNL     1     -33.713   6.432   2.870  1.00 20.00     0.189 C 
BRANCH   5   6
HETATM    6  O6  UNL     1     -32.990   7.656   2.907  1.00 20.00    -0.394 OA
HETATM    7  C2  UNL     1     -32.071   7.751   1.827  1.00 20.00     0.201 C 
ENDBRANCH   5   6
ENDBRANCH   4   5
ENDBRANCH   2   4
TORSDOF 3
ENDMDL
MODEL 7
REMARK VINA RESULT:      -0.9      1.237      1.326
REMARK  3 active torsions:
REMARK  status: ('A' for Active; 'I' for Inactive)
REMARK    1  A    between atoms: C3_3  and  C4_4 
REMARK    2  A    between atoms: C3_3  and  N5_5 
REMARK    3  A    between atoms: C4_4  and  O6_6 
ROOT
HETATM    1  C1  UNL     1     -32.767   7.281   1.974  1.00 20.00     0.157 C 
HETATM    2  N5  UNL     1     -33.538   6.470   2.331  1.00 20.00    -0.273 NA
HETATM    3  S7  UNL     1     -31.723   8.369   1.461  1.00 20.00    -0.055 SA
ENDROOT
BRANCH   2   4
HETATM    4  C3  UNL     1     -33.893   6.540   3.752  1.00 20.00     0.176 C 
BRANCH   4   5
HETATM    5  C4  UNL     1     -35.317   6.050   3.934  1.00 20.00     0.189 C 
BRANCH   5   6
HETATM    6  O6  UNL     1     -35.300   4.772   4.555  1.00 20.00    -0.394 OA
HETATM    7  C2  UNL     1     -34.083   4.084   4.299  1.00 20.00     0.201 C 
ENDBRANCH   5   6
ENDBRANCH   4   5
ENDBRANCH   2   4
TORSDOF 3
ENDMDL
MODEL 8
REMARK VINA RESULT:      -0.8      1.287      1.362
REMARK  3 active torsions:
REMARK  status: ('A' for Active; 'I' for Inactive)
REMARK    1  A    between atoms: C3_3  and  C4_4 
REMARK    2  A    between atoms: C3_3  and  N5_5 
REMARK    3  A    between atoms: C4_4  and  O6_6 
ROOT
HETATM    1  C1  UNL     1     -34.315   6.992   3.684  1.00 20.00     0.157 C 
HETATM    2  N5  UNL     1     -35.310   6.411   3.915  1.00 20.00    -0.273 NA
HETATM    3  S7  UNL     1     -32.984   7.803   3.360  1.00 20.00    -0.055 SA
ENDROOT
BRANCH   2   4
HETATM    4  C3  UNL     1     -35.124   5.088   4.518  1.00 20.00     0.176 C 
BRANCH   4   5
HETATM    5  C4  UNL     1     -34.005   4.363   3.794  1.00 20.00     0.189 C 
BRANCH   5   6
HETATM    6  O6  UNL     1     -33.872   3.051   4.323  1.00 20.00    -0.394 OA
HETATM    7  C2  UNL     1     -32.745   2.947   5.183  1.00 20.00     0.201 C 
ENDBRANCH   5   6
ENDBRANCH   4   5
ENDBRANCH   2   4
TORSDOF 3
ENDMDL
MODEL 9
REMARK VINA RESULT:      -0.6      3.052      3.511
REMARK  3 active torsions:
REMARK  status: ('A' for Active; 'I' for Inactive)
REMARK    1  A    between atoms: C3_3  and  C4_4 
REMARK    2  A    between atoms: C3_3  and  N5_5 
REMARK    3  A    between atoms: C4_4  and  O6_6 
ROOT
HETATM    1  C1  UNL     1     -34.414   7.001   3.968  1.00 20.00     0.157 C 
HETATM    2  N5  UNL     1     -33.874   8.033   3.821  1.00 20.00    -0.273 NA
HETATM    3  S7  UNL     1     -35.173   5.616   4.175  1.00 20.00    -0.055 SA
ENDROOT
BRANCH   2   4
HETATM    4  C3  UNL     1     -32.471   7.940   3.406  1.00 20.00     0.176 C 
BRANCH   4   5
HETATM    5  C4  UNL     1     -32.398   7.957   1.891  1.00 20.00     0.189 C 
BRANCH   5   6
HETATM    6  O6  UNL     1     -31.677   6.817   1.441  1.00 20.00    -0.394 OA
HETATM    7  C2  UNL     1     -32.523   5.682   1.317  1.00 20.00     0.201 C 
ENDBRANCH   5   6
ENDBRANCH   4   5
ENDBRANCH   2   4
TORSDOF 3
ENDMDL
