MODEL 1
REMARK VINA RESULT:       0.9      0.000      0.000
REMARK  0 active torsions:
REMARK  status: ('A' for Active; 'I' for Inactive)
ROOT
HETATM    1  C1  UNL     1     -32.485   7.579   2.330  1.00 20.00    -0.077 C 
HETATM    2  C2  UNL     1     -32.136   8.593   1.526  1.00 20.00    -0.077 C 
HETATM    3  C3  UNL     1     -32.275   6.137   1.950  1.00 20.00     0.034 C 
HETATM    4  C4  UNL     1     -33.139   7.798   3.670  1.00 20.00     0.034 C 
HETATM    5  C5  UNL     1     -32.347  10.035   1.905  1.00 20.00     0.034 C 
HETATM    6  C6  UNL     1     -31.526   8.374   0.167  1.00 20.00     0.034 C 
HETATM    7  C7  UNL     1     -33.581   5.349   2.064  1.00 20.00     0.004 C 
HETATM    8  C8  UNL     1     -34.441   7.003   3.774  1.00 20.00     0.004 C 
HETATM    9  C9  UNL     1     -33.134  10.773   0.821  1.00 20.00     0.004 C 
HETATM   10  C10 UNL     1     -32.317   9.118  -0.910  1.00 20.00     0.004 C 
HETATM   11  C11 UNL     1     -34.235   5.526   3.435  1.00 20.00     0.001 C 
HETATM   12  C12 UNL     1     -32.500  10.596  -0.560  1.00 20.00     0.001 C 
ENDROOT
TORSDOF 0
ENDMDL
MODEL 2
REMARK VINA RESULT:       0.9      0.014      4.813
REMARK  0 active torsions:
REMARK  status: ('A' for Active; 'I' for Inactive)
ROOT
HETATM    1  C1  UNL     1     -32.131   8.601   1.520  1.00 20.00    -0.077 C 
HETATM    2  C2  UNL     1     -32.477   7.585   2.322  1.00 20.00    -0.077 C 
HETATM    3  C3  UNL     1     -32.344  10.042   1.903  1.00 20.00     0.034 C 
HETATM    4  C4  UNL     1     -31.523   8.385   0.158  1.00 20.00     0.034 C 
HETATM    5  C5  UNL     1     -32.264   6.144   1.939  1.00 20.00     0.034 C 
HETATM    6  C6  UNL     1     -33.127   7.798   3.664  1.00 20.00     0.034 C 
HETATM    7  C7  UNL     1     -33.133  10.781   0.821  1.00 20.00     0.004 C 
HETATM    8  C8  UNL     1     -32.317   9.131  -0.915  1.00 20.00     0.004 C 
HETATM    9  C9  UNL     1     -33.569   5.353   2.052  1.00 20.00     0.004 C 
HETATM   10  C10 UNL     1     -34.428   7.002   3.769  1.00 20.00     0.004 C 
HETATM   11  C11 UNL     1     -32.502  10.608  -0.561  1.00 20.00     0.001 C 
HETATM   12  C12 UNL     1     -34.219   5.525   3.427  1.00 20.00     0.001 C 
ENDROOT
TORSDOF 0
ENDMDL
MODEL 3
REMARK VINA RESULT:       3.8      1.893      3.986
REMARK  0 active torsions:
REMARK  status: ('A' for Active; 'I' for Inactive)
ROOT
HETATM    1  C1  UNL     1     -33.864   4.839   3.429  1.00 20.00    -0.077 C 
HETATM    2  C2  UNL     1     -33.707   6.068   2.918  1.00 20.00    -0.077 C 
HETATM    3  C3  UNL     1     -34.629   4.586   4.702  1.00 20.00     0.034 C 
HETATM    4  C4  UNL     1     -33.268   3.613   2.788  1.00 20.00     0.034 C 
HETATM    5  C5  UNL     1     -32.941   6.321   1.645  1.00 20.00     0.034 C 
HETATM    6  C6  UNL     1     -34.263   7.299   3.583  1.00 20.00     0.034 C 
HETATM    7  C7  UNL     1     -33.779   3.797   5.699  1.00 20.00     0.004 C 
HETATM    8  C8  UNL     1     -32.423   2.830   3.794  1.00 20.00     0.004 C 
HETATM    9  C9  UNL     1     -31.850   7.369   1.868  1.00 20.00     0.004 C 
HETATM   10  C10 UNL     1     -33.166   8.342   3.798  1.00 20.00     0.004 C 
HETATM   11  C11 UNL     1     -33.203   2.525   5.075  1.00 20.00     0.001 C 
HETATM   12  C12 UNL     1     -32.409   8.644   2.503  1.00 20.00     0.001 C 
ENDROOT
TORSDOF 0
ENDMDL
MODEL 4
REMARK VINA RESULT:       3.8      1.891      5.468
REMARK  0 active torsions:
REMARK  status: ('A' for Active; 'I' for Inactive)
ROOT
HETATM    1  C1  UNL     1     -33.705   6.062   2.912  1.00 20.00    -0.077 C 
HETATM    2  C2  UNL     1     -33.863   4.835   3.427  1.00 20.00    -0.077 C 
HETATM    3  C3  UNL     1     -32.939   6.311   1.639  1.00 20.00     0.034 C 
HETATM    4  C4  UNL     1     -34.259   7.296   3.576  1.00 20.00     0.034 C 
HETATM    5  C5  UNL     1     -34.628   4.586   4.700  1.00 20.00     0.034 C 
HETATM    6  C6  UNL     1     -33.270   3.607   2.788  1.00 20.00     0.034 C 
HETATM    7  C7  UNL     1     -31.848   7.360   1.858  1.00 20.00     0.004 C 
HETATM    8  C8  UNL     1     -33.160   8.338   3.786  1.00 20.00     0.004 C 
HETATM    9  C9  UNL     1     -33.778   3.799   5.700  1.00 20.00     0.004 C 
HETATM   10  C10 UNL     1     -32.425   2.825   3.796  1.00 20.00     0.004 C 
HETATM   11  C11 UNL     1     -32.403   8.636   2.491  1.00 20.00     0.001 C 
HETATM   12  C12 UNL     1     -33.204   2.524   5.078  1.00 20.00     0.001 C 
ENDROOT
TORSDOF 0
ENDMDL
