MODEL 1
REMARK VINA RESULT:      -0.6      0.000      0.000
REMARK  1 active torsions:
REMARK  status: ('A' for Active; 'I' for Inactive)
REMARK    1  A    between atoms: C6_6  and  C8_8 
ROOT
HETATM    1  C1  UNL     1     -32.179   7.763   2.281  1.00 20.00     0.000 C 
HETATM    2  C2  UNL     1     -33.041   8.330   3.405  1.00 20.00     0.002 C 
HETATM    3  C3  UNL     1     -32.923   6.705   1.473  1.00 20.00     0.002 C 
HETATM    4  C4  UNL     1     -33.593   7.224   4.305  1.00 20.00     0.026 C 
HETATM    5  C5  UNL     1     -33.475   5.595   2.370  1.00 20.00     0.026 C 
HETATM    6  C6  UNL     1     -34.340   6.121   3.531  1.00 20.00     0.037 C 
HETATM    7 CL9  UNL     1     -35.880   6.793   2.872  1.00 20.00    -0.119 Cl
ENDROOT
BRANCH   6   8
HETATM    8  C8  UNL     1     -34.710   4.972   4.475  1.00 20.00     0.021 C 
HETATM    9  C7  UNL     1     -33.824   3.790   4.271  1.00 20.00     0.007 C 
ENDBRANCH   6   8
TORSDOF 1
ENDMDL
MODEL 2
REMARK VINA RESULT:      -0.3      2.168      4.057
REMARK  1 active torsions:
REMARK  status: ('A' for Active; 'I' for Inactive)
REMARK    1  A    between atoms: C6_6  and  C8_8 
ROOT
HETATM    1  C1  UNL     1     -34.173   6.213   3.369  1.00 20.00     0.000 C 
HETATM    2  C2  UNL     1     -33.948   7.661   3.790  1.00 20.00     0.002 C 
HETATM    3  C3  UNL     1     -32.967   5.641   2.631  1.00 20.00     0.002 C 
HETATM    4  C4  UNL     1     -33.552   8.539   2.602  1.00 20.00     0.026 C 
HETATM    5  C5  UNL     1     -32.569   6.516   1.440  1.00 20.00     0.026 C 
HETATM    6  C6  UNL     1     -32.346   7.993   1.813  1.00 20.00     0.037 C 
HETATM    7 CL9  UNL     1     -30.857   8.136   2.824  1.00 20.00    -0.119 Cl
ENDROOT
BRANCH   6   8
HETATM    8  C8  UNL     1     -32.122   8.829   0.549  1.00 20.00     0.021 C 
HETATM    9  C7  UNL     1     -32.716  10.190   0.680  1.00 20.00     0.007 C 
ENDBRANCH   6   8
TORSDOF 1
ENDMDL
MODEL 3
REMARK VINA RESULT:      -0.2      1.369      3.650
REMARK  1 active torsions:
REMARK  status: ('A' for Active; 'I' for Inactive)
REMARK    1  A    between atoms: C6_6  and  C8_8 
ROOT
HETATM    1  C1  UNL     1     -34.899   5.173   4.498  1.00 20.00     0.000 C 
HETATM    2  C2  UNL     1     -34.064   4.223   3.646  1.00 20.00     0.002 C 
HETATM    3  C3  UNL     1     -35.270   6.442   3.737  1.00 20.00     0.002 C 
HETATM    4  C4  UNL     1     -32.825   4.917   3.077  1.00 20.00     0.026 C 
HETATM    5  C5  UNL     1     -34.032   7.141   3.169  1.00 20.00     0.026 C 
HETATM    6  C6  UNL     1     -33.148   6.215   2.313  1.00 20.00     0.037 C 
HETATM    7 CL9  UNL     1     -34.014   5.807   0.783  1.00 20.00    -0.119 Cl
ENDROOT
BRANCH   6   8
HETATM    8  C8  UNL     1     -31.851   6.935   1.927  1.00 20.00     0.021 C 
HETATM    9  C7  UNL     1     -32.105   8.356   1.552  1.00 20.00     0.007 C 
ENDBRANCH   6   8
TORSDOF 1
ENDMDL
MODEL 4
REMARK VINA RESULT:       0.5      1.645      3.042
REMARK  1 active torsions:
REMARK  status: ('A' for Active; 'I' for Inactive)
REMARK    1  A    between atoms: C6_6  and  C8_8 
ROOT
HETATM    1  C1  UNL     1     -34.083   7.580   4.062  1.00 20.00     0.000 C 
HETATM    2  C2  UNL     1     -34.617   6.213   3.646  1.00 20.00     0.002 C 
HETATM    3  C3  UNL     1     -33.399   8.299   2.903  1.00 20.00     0.002 C 
HETATM    4  C4  UNL     1     -33.523   5.347   3.019  1.00 20.00     0.026 C 
HETATM    5  C5  UNL     1     -32.302   7.437   2.275  1.00 20.00     0.026 C 
HETATM    6  C6  UNL     1     -32.790   6.039   1.853  1.00 20.00     0.037 C 
HETATM    7 CL9  UNL     1     -33.915   6.195   0.450  1.00 20.00    -0.119 Cl
ENDROOT
BRANCH   6   8
HETATM    8  C8  UNL     1     -31.605   5.182   1.394  1.00 20.00     0.021 C 
HETATM    9  C7  UNL     1     -31.963   4.335   0.221  1.00 20.00     0.007 C 
ENDBRANCH   6   8
TORSDOF 1
ENDMDL
MODEL 5
REMARK VINA RESULT:       0.7      1.582      3.498
REMARK  1 active torsions:
REMARK  status: ('A' for Active; 'I' for Inactive)
REMARK    1  A    between atoms: C6_6  and  C8_8 
ROOT
HETATM    1  C1  UNL     1     -34.959   4.646   4.178  1.00 20.00     0.000 C 
HETATM    2  C2  UNL     1     -35.479   6.062   4.405  1.00 20.00     0.002 C 
HETATM    3  C3  UNL     1     -33.446   4.620   3.986  1.00 20.00     0.002 C 
HETATM    4  C4  UNL     1     -35.040   7.009   3.287  1.00 20.00     0.026 C 
HETATM    5  C5  UNL     1     -33.004   5.565   2.867  1.00 20.00     0.026 C 
HETATM    6  C6  UNL     1     -33.519   7.005   3.044  1.00 20.00     0.037 C 
HETATM    7 CL9  UNL     1     -32.687   7.769   4.452  1.00 20.00    -0.119 Cl
ENDROOT
BRANCH   6   8
HETATM    8  C8  UNL     1     -33.181   7.842   1.805  1.00 20.00     0.021 C 
HETATM    9  C7  UNL     1     -31.711   8.053   1.672  1.00 20.00     0.007 C 
ENDBRANCH   6   8
TORSDOF 1
ENDMDL
MODEL 6
REMARK VINA RESULT:       0.7      1.552      2.335
REMARK  1 active torsions:
REMARK  status: ('A' for Active; 'I' for Inactive)
REMARK    1  A    between atoms: C6_6  and  C8_8 
ROOT
HETATM    1  C1  UNL     1     -31.912   7.909   1.701  1.00 20.00     0.000 C 
HETATM    2  C2  UNL     1     -32.404   6.549   1.219  1.00 20.00     0.002 C 
HETATM    3  C3  UNL     1     -31.977   8.032   3.220  1.00 20.00     0.002 C 
HETATM    4  C4  UNL     1     -33.806   6.238   1.746  1.00 20.00     0.026 C 
HETATM    5  C5  UNL     1     -33.379   7.724   3.750  1.00 20.00     0.026 C 
HETATM    6  C6  UNL     1     -33.926   6.365   3.276  1.00 20.00     0.037 C 
HETATM    7 CL9  UNL     1     -32.990   5.036   4.061  1.00 20.00    -0.119 Cl
ENDROOT
BRANCH   6   8
HETATM    8  C8  UNL     1     -35.390   6.208   3.705  1.00 20.00     0.021 C 
HETATM    9  C7  UNL     1     -35.559   5.085   4.672  1.00 20.00     0.007 C 
ENDBRANCH   6   8
TORSDOF 1
ENDMDL
MODEL 7
REMARK VINA RESULT:       1.0      1.771      2.449
REMARK  1 active torsions:
REMARK  status: ('A' for Active; 'I' for Inactive)
REMARK    1  A    between atoms: C6_6  and  C8_8 
ROOT
HETATM    1  C1  UNL     1     -31.853   7.467   0.985  1.00 20.00     0.000 C 
HETATM    2  C2  UNL     1     -31.829   6.265   1.923  1.00 20.00     0.002 C 
HETATM    3  C3  UNL     1     -32.345   8.727   1.689  1.00 20.00     0.002 C 
HETATM    4  C4  UNL     1     -33.189   6.040   2.587  1.00 20.00     0.026 C 
HETATM    5  C5  UNL     1     -33.706   8.508   2.352  1.00 20.00     0.026 C 
HETATM    6  C6  UNL     1     -33.736   7.293   3.298  1.00 20.00     0.037 C 
HETATM    7 CL9  UNL     1     -32.726   7.643   4.753  1.00 20.00    -0.119 Cl
ENDROOT
BRANCH   6   8
HETATM    8  C8  UNL     1     -35.167   7.039   3.786  1.00 20.00     0.021 C 
HETATM    9  C7  UNL     1     -35.343   5.635   4.256  1.00 20.00     0.007 C 
ENDBRANCH   6   8
TORSDOF 1
ENDMDL
MODEL 8
REMARK VINA RESULT:       1.2      2.550      3.686
REMARK  1 active torsions:
REMARK  status: ('A' for Active; 'I' for Inactive)
REMARK    1  A    between atoms: C6_6  and  C8_8 
ROOT
HETATM    1  C1  UNL     1     -32.237   9.782  -0.200  1.00 20.00     0.000 C 
HETATM    2  C2  UNL     1     -31.231   8.679   0.115  1.00 20.00     0.002 C 
HETATM    3  C3  UNL     1     -32.870  10.352   1.065  1.00 20.00     0.002 C 
HETATM    4  C4  UNL     1     -31.853   7.578   0.974  1.00 20.00     0.026 C 
HETATM    5  C5  UNL     1     -33.496   9.253   1.926  1.00 20.00     0.026 C 
HETATM    6  C6  UNL     1     -32.522   8.107   2.257  1.00 20.00     0.037 C 
HETATM    7 CL9  UNL     1     -31.250   8.711   3.387  1.00 20.00    -0.119 Cl
ENDROOT
BRANCH   6   8
HETATM    8  C8  UNL     1     -33.265   6.972   2.970  1.00 20.00     0.021 C 
HETATM    9  C7  UNL     1     -34.186   7.496   4.020  1.00 20.00     0.007 C 
ENDBRANCH   6   8
TORSDOF 1
ENDMDL
MODEL 9
REMARK VINA RESULT:       1.4      2.178      3.326
REMARK  1 active torsions:
REMARK  status: ('A' for Active; 'I' for Inactive)
REMARK    1  A    between atoms: C6_6  and  C8_8 
ROOT
HETATM    1  C1  UNL     1     -33.487   7.978   4.870  1.00 20.00     0.000 C 
HETATM    2  C2  UNL     1     -34.423   7.566   3.739  1.00 20.00     0.002 C 
HETATM    3  C3  UNL     1     -32.294   8.778   4.358  1.00 20.00     0.002 C 
HETATM    4  C4  UNL     1     -33.677   6.813   2.636  1.00 20.00     0.026 C 
HETATM    5  C5  UNL     1     -31.543   8.027   3.256  1.00 20.00     0.026 C 
HETATM    6  C6  UNL     1     -32.451   7.575   2.097  1.00 20.00     0.037 C 
HETATM    7 CL9  UNL     1     -33.007   9.023   1.174  1.00 20.00    -0.119 Cl
ENDROOT
BRANCH   6   8
HETATM    8  C8  UNL     1     -31.665   6.688   1.126  1.00 20.00     0.021 C 
HETATM    9  C7  UNL     1     -32.166   5.283   1.140  1.00 20.00     0.007 C 
ENDBRANCH   6   8
TORSDOF 1
ENDMDL
