MODEL 1
REMARK VINA RESULT:      -2.3      0.000      0.000
REMARK  2 active torsions:
REMARK  status: ('A' for Active; 'I' for Inactive)
REMARK    1  A    between atoms: C5_5  and  C7_7 
REMARK    2  A    between atoms: C6_6  and  O8_8 
ROOT
HETATM    1  C1  UNL     1     -32.200   5.402   1.527  1.00 20.00     0.003 C 
HETATM    2  C2  UNL     1     -33.527   5.291   2.275  1.00 20.00     0.014 C 
HETATM    3  C3  UNL     1     -32.017   6.784   0.910  1.00 20.00     0.032 C 
HETATM    4  C4  UNL     1     -33.498   7.781   2.700  1.00 20.00     0.045 C 
HETATM    5  C5  UNL     1     -33.680   6.395   3.331  1.00 20.00     0.096 C 
HETATM    6  C6  UNL     1     -32.168   7.888   1.954  1.00 20.00     0.118 C 
ENDROOT
BRANCH   5   7
HETATM    7  C7  UNL     1     -35.037   6.293   4.025  1.00 20.00     0.391 C 
HETATM    8  F9  UNL     1     -36.015   6.644   3.177  1.00 20.00    -0.171 F 
HETATM    9  F10 UNL     1     -35.250   5.033   4.436  1.00 20.00    -0.171 F 
HETATM   10  F11 UNL     1     -35.071   7.109   5.090  1.00 20.00    -0.171 F 
ENDBRANCH   5   7
BRANCH   6  11
HETATM   11  O8  UNL     1     -32.078   9.160   1.320  1.00 20.00    -0.396 OA
HETATM   12  H22 UNL     1     -31.188   9.217   0.938  1.00 20.00     0.210 HD
ENDBRANCH   6  11
TORSDOF 2
ENDMDL
MODEL 2
REMARK VINA RESULT:      -2.2      1.438      2.351
REMARK  2 active torsions:
REMARK  status: ('A' for Active; 'I' for Inactive)
REMARK    1  A    between atoms: C5_5  and  C7_7 
REMARK    2  A    between atoms: C6_6  and  O8_8 
ROOT
HETATM    1  C1  UNL     1     -32.231   8.283   2.045  1.00 20.00     0.003 C 
HETATM    2  C2  UNL     1     -33.196   7.904   3.168  1.00 20.00     0.014 C 
HETATM    3  C3  UNL     1     -31.421   7.082   1.570  1.00 20.00     0.032 C 
HETATM    4  C4  UNL     1     -33.290   5.538   2.287  1.00 20.00     0.045 C 
HETATM    5  C5  UNL     1     -34.113   6.742   2.761  1.00 20.00     0.096 C 
HETATM    6  C6  UNL     1     -32.326   5.922   1.164  1.00 20.00     0.118 C 
ENDROOT
BRANCH   5   7
HETATM    7  C7  UNL     1     -35.029   6.348   3.918  1.00 20.00     0.391 C 
HETATM    8  F9  UNL     1     -34.829   7.165   4.962  1.00 20.00    -0.171 F 
HETATM    9  F10 UNL     1     -36.313   6.433   3.538  1.00 20.00    -0.171 F 
HETATM   10  F11 UNL     1     -34.771   5.086   4.298  1.00 20.00    -0.171 F 
ENDBRANCH   5   7
BRANCH   6  11
HETATM   11  O8  UNL     1     -31.530   4.795   0.813  1.00 20.00    -0.396 OA
HETATM   12  H22 UNL     1     -31.311   4.893  -0.127  1.00 20.00     0.210 HD
ENDBRANCH   6  11
TORSDOF 2
ENDMDL
MODEL 3
REMARK VINA RESULT:      -2.2      0.029      1.142
REMARK  2 active torsions:
REMARK  status: ('A' for Active; 'I' for Inactive)
REMARK    1  A    between atoms: C5_5  and  C7_7 
REMARK    2  A    between atoms: C6_6  and  O8_8 
ROOT
HETATM    1  C1  UNL     1     -32.194   5.388   1.522  1.00 20.00     0.003 C 
HETATM    2  C2  UNL     1     -33.519   5.286   2.275  1.00 20.00     0.014 C 
HETATM    3  C3  UNL     1     -32.012   6.763   0.888  1.00 20.00     0.032 C 
HETATM    4  C4  UNL     1     -33.488   7.781   2.670  1.00 20.00     0.045 C 
HETATM    5  C5  UNL     1     -33.669   6.403   3.318  1.00 20.00     0.096 C 
HETATM    6  C6  UNL     1     -32.159   7.879   1.919  1.00 20.00     0.118 C 
ENDROOT
BRANCH   5   7
HETATM    7  C7  UNL     1     -35.024   6.309   4.017  1.00 20.00     0.391 C 
HETATM    8  F9  UNL     1     -35.241   5.053   4.434  1.00 20.00    -0.171 F 
HETATM    9  F10 UNL     1     -35.053   7.132   5.077  1.00 20.00    -0.171 F 
HETATM   10  F11 UNL     1     -36.004   6.661   3.168  1.00 20.00    -0.171 F 
ENDBRANCH   5   7
BRANCH   6  11
HETATM   11  O8  UNL     1     -32.071   9.143   1.271  1.00 20.00    -0.396 OA
HETATM   12  H22 UNL     1     -31.197   9.179   0.852  1.00 20.00     0.210 HD
ENDBRANCH   6  11
TORSDOF 2
ENDMDL
MODEL 4
REMARK VINA RESULT:      -2.2      0.002      1.140
REMARK  2 active torsions:
REMARK  status: ('A' for Active; 'I' for Inactive)
REMARK    1  A    between atoms: C5_5  and  C7_7 
REMARK    2  A    between atoms: C6_6  and  O8_8 
ROOT
HETATM    1  C1  UNL     1     -32.202   5.401   1.528  1.00 20.00     0.003 C 
HETATM    2  C2  UNL     1     -33.530   5.290   2.275  1.00 20.00     0.014 C 
HETATM    3  C3  UNL     1     -32.018   6.783   0.910  1.00 20.00     0.032 C 
HETATM    4  C4  UNL     1     -33.498   7.780   2.701  1.00 20.00     0.045 C 
HETATM    5  C5  UNL     1     -33.682   6.394   3.331  1.00 20.00     0.096 C 
HETATM    6  C6  UNL     1     -32.168   7.887   1.955  1.00 20.00     0.118 C 
ENDROOT
BRANCH   5   7
HETATM    7  C7  UNL     1     -35.039   6.294   4.025  1.00 20.00     0.391 C 
HETATM    8  F9  UNL     1     -35.073   7.110   5.089  1.00 20.00    -0.171 F 
HETATM    9  F10 UNL     1     -36.017   6.644   3.176  1.00 20.00    -0.171 F 
HETATM   10  F11 UNL     1     -35.252   5.033   4.437  1.00 20.00    -0.171 F 
ENDBRANCH   5   7
BRANCH   6  11
HETATM   11  O8  UNL     1     -32.077   9.159   1.321  1.00 20.00    -0.396 OA
HETATM   12  H22 UNL     1     -32.870   9.250   0.768  1.00 20.00     0.210 HD
ENDBRANCH   6  11
TORSDOF 2
ENDMDL
MODEL 5
REMARK VINA RESULT:      -2.2      1.441      2.087
REMARK  2 active torsions:
REMARK  status: ('A' for Active; 'I' for Inactive)
REMARK    1  A    between atoms: C5_5  and  C7_7 
REMARK    2  A    between atoms: C6_6  and  O8_8 
ROOT
HETATM    1  C1  UNL     1     -32.231   8.277   2.035  1.00 20.00     0.003 C 
HETATM    2  C2  UNL     1     -33.196   7.903   3.159  1.00 20.00     0.014 C 
HETATM    3  C3  UNL     1     -31.417   7.074   1.570  1.00 20.00     0.032 C 
HETATM    4  C4  UNL     1     -33.283   5.530   2.295  1.00 20.00     0.045 C 
HETATM    5  C5  UNL     1     -34.110   6.735   2.759  1.00 20.00     0.096 C 
HETATM    6  C6  UNL     1     -32.319   5.909   1.170  1.00 20.00     0.118 C 
ENDROOT
BRANCH   5   7
HETATM    7  C7  UNL     1     -35.026   6.347   3.918  1.00 20.00     0.391 C 
HETATM    8  F9  UNL     1     -36.310   6.431   3.537  1.00 20.00    -0.171 F 
HETATM    9  F10 UNL     1     -34.769   5.088   4.306  1.00 20.00    -0.171 F 
HETATM   10  F11 UNL     1     -34.826   7.172   4.958  1.00 20.00    -0.171 F 
ENDBRANCH   5   7
BRANCH   6  11
HETATM   11  O8  UNL     1     -31.519   4.782   0.828  1.00 20.00    -0.396 OA
HETATM   12  H22 UNL     1     -30.645   5.126   0.585  1.00 20.00     0.210 HD
ENDBRANCH   6  11
TORSDOF 2
ENDMDL
MODEL 6
REMARK VINA RESULT:      -1.6      2.696      3.621
REMARK  2 active torsions:
REMARK  status: ('A' for Active; 'I' for Inactive)
REMARK    1  A    between atoms: C5_5  and  C7_7 
REMARK    2  A    between atoms: C6_6  and  O8_8 
ROOT
HETATM    1  C1  UNL     1     -35.471   5.990   4.062  1.00 20.00     0.003 C 
HETATM    2  C2  UNL     1     -34.779   4.833   4.779  1.00 20.00     0.014 C 
HETATM    3  C3  UNL     1     -34.464   6.910   3.379  1.00 20.00     0.032 C 
HETATM    4  C4  UNL     1     -32.849   4.979   3.156  1.00 20.00     0.045 C 
HETATM    5  C5  UNL     1     -33.859   4.046   3.835  1.00 20.00     0.096 C 
HETATM    6  C6  UNL     1     -33.546   6.135   2.438  1.00 20.00     0.118 C 
ENDROOT
BRANCH   5   7
HETATM    7  C7  UNL     1     -33.139   2.930   4.590  1.00 20.00     0.391 C 
HETATM    8  F9  UNL     1     -33.680   1.742   4.280  1.00 20.00    -0.171 F 
HETATM    9  F10 UNL     1     -31.838   2.916   4.259  1.00 20.00    -0.171 F 
HETATM   10  F11 UNL     1     -33.249   3.125   5.914  1.00 20.00    -0.171 F 
ENDBRANCH   5   7
BRANCH   6  11
HETATM   11  O8  UNL     1     -32.568   7.015   1.893  1.00 20.00    -0.396 OA
HETATM   12  H22 UNL     1     -32.037   7.337   2.639  1.00 20.00     0.210 HD
ENDBRANCH   6  11
TORSDOF 2
ENDMDL
MODEL 7
REMARK VINA RESULT:      -1.6      2.687      3.652
REMARK  2 active torsions:
REMARK  status: ('A' for Active; 'I' for Inactive)
REMARK    1  A    between atoms: C5_5  and  C7_7 
REMARK    2  A    between atoms: C6_6  and  O8_8 
ROOT
HETATM    1  C1  UNL     1     -35.448   5.998   4.040  1.00 20.00     0.003 C 
HETATM    2  C2  UNL     1     -34.767   4.840   4.766  1.00 20.00     0.014 C 
HETATM    3  C3  UNL     1     -34.435   6.906   3.354  1.00 20.00     0.032 C 
HETATM    4  C4  UNL     1     -32.833   4.962   3.144  1.00 20.00     0.045 C 
HETATM    5  C5  UNL     1     -33.852   4.040   3.828  1.00 20.00     0.096 C 
HETATM    6  C6  UNL     1     -33.520   6.119   2.418  1.00 20.00     0.118 C 
ENDROOT
BRANCH   5   7
HETATM    7  C7  UNL     1     -33.141   2.923   4.590  1.00 20.00     0.391 C 
HETATM    8  F9  UNL     1     -33.267   3.116   5.911  1.00 20.00    -0.171 F 
HETATM    9  F10 UNL     1     -33.677   1.735   4.270  1.00 20.00    -0.171 F 
HETATM   10  F11 UNL     1     -31.836   2.910   4.275  1.00 20.00    -0.171 F 
ENDBRANCH   5   7
BRANCH   6  11
HETATM   11  O8  UNL     1     -32.536   6.988   1.869  1.00 20.00    -0.396 OA
HETATM   12  H22 UNL     1     -31.675   6.659   2.173  1.00 20.00     0.210 HD
ENDBRANCH   6  11
TORSDOF 2
ENDMDL
MODEL 8
REMARK VINA RESULT:      -1.5      3.347      4.434
REMARK  2 active torsions:
REMARK  status: ('A' for Active; 'I' for Inactive)
REMARK    1  A    between atoms: C5_5  and  C7_7 
REMARK    2  A    between atoms: C6_6  and  O8_8 
ROOT
HETATM    1  C1  UNL     1     -35.178   6.333   4.333  1.00 20.00     0.003 C 
HETATM    2  C2  UNL     1     -34.541   6.717   2.998  1.00 20.00     0.014 C 
HETATM    3  C3  UNL     1     -35.215   4.821   4.523  1.00 20.00     0.032 C 
HETATM    4  C4  UNL     1     -33.191   4.582   3.028  1.00 20.00     0.045 C 
HETATM    5  C5  UNL     1     -33.143   6.103   2.837  1.00 20.00     0.096 C 
HETATM    6  C6  UNL     1     -33.828   4.202   4.365  1.00 20.00     0.118 C 
ENDROOT
BRANCH   5   7
HETATM    7  C7  UNL     1     -32.552   6.457   1.474  1.00 20.00     0.391 C 
HETATM    8  F9  UNL     1     -32.182   7.746   1.454  1.00 20.00    -0.171 F 
HETATM    9  F10 UNL     1     -31.478   5.691   1.225  1.00 20.00    -0.171 F 
HETATM   10  F11 UNL     1     -33.465   6.252   0.510  1.00 20.00    -0.171 F 
ENDBRANCH   5   7
BRANCH   6  11
HETATM   11  O8  UNL     1     -33.924   2.785   4.462  1.00 20.00    -0.396 OA
HETATM   12  H22 UNL     1     -33.652   2.429   3.601  1.00 20.00     0.210 HD
ENDBRANCH   6  11
TORSDOF 2
ENDMDL
MODEL 9
REMARK VINA RESULT:      -1.5      3.337      4.439
REMARK  2 active torsions:
REMARK  status: ('A' for Active; 'I' for Inactive)
REMARK    1  A    between atoms: C5_5  and  C7_7 
REMARK    2  A    between atoms: C6_6  and  O8_8 
ROOT
HETATM    1  C1  UNL     1     -35.192   6.327   4.358  1.00 20.00     0.003 C 
HETATM    2  C2  UNL     1     -34.563   6.728   3.025  1.00 20.00     0.014 C 
HETATM    3  C3  UNL     1     -35.222   4.813   4.534  1.00 20.00     0.032 C 
HETATM    4  C4  UNL     1     -33.204   4.598   3.026  1.00 20.00     0.045 C 
HETATM    5  C5  UNL     1     -33.164   6.121   2.851  1.00 20.00     0.096 C 
HETATM    6  C6  UNL     1     -33.833   4.202   4.363  1.00 20.00     0.118 C 
ENDROOT
BRANCH   5   7
HETATM    7  C7  UNL     1     -32.581   6.491   1.488  1.00 20.00     0.391 C 
HETATM    8  F9  UNL     1     -33.480   6.248   0.522  1.00 20.00    -0.171 F 
HETATM    9  F10 UNL     1     -32.258   7.794   1.464  1.00 20.00    -0.171 F 
HETATM   10  F11 UNL     1     -31.477   5.766   1.248  1.00 20.00    -0.171 F 
ENDBRANCH   5   7
BRANCH   6  11
HETATM   11  O8  UNL     1     -33.922   2.784   4.446  1.00 20.00    -0.396 OA
HETATM   12  H22 UNL     1     -33.589   2.536   5.323  1.00 20.00     0.210 HD
ENDBRANCH   6  11
TORSDOF 2
ENDMDL
