MODEL 1
REMARK VINA RESULT:      -0.5      0.000      0.000
REMARK  1 active torsions:
REMARK  status: ('A' for Active; 'I' for Inactive)
REMARK    1  A    between atoms: C1_1  and  C3_3 
ROOT
HETATM    1  C2  UNL     1     -34.610   7.412   2.667  1.00 20.00     0.067 A 
HETATM    2  C3  UNL     1     -33.832   6.135   2.914  1.00 20.00     0.083 A 
HETATM    3  C4  UNL     1     -33.311   7.479   3.423  1.00 20.00     0.132 A 
HETATM    4  C5  UNL     1     -33.182   5.483   1.715  1.00 20.00     0.030 C 
HETATM    5 CL8  UNL     1     -33.403   7.873   5.145  1.00 20.00    -0.100 Cl
HETATM    6 CL9  UNL     1     -31.939   8.260   2.635  1.00 20.00    -0.100 Cl
ENDROOT
BRANCH   2   7
HETATM    7  C1  UNL     1     -34.392   5.220   3.903  1.00 20.00     0.184 C 
HETATM    8  O6  UNL     1     -35.488   5.583   4.415  1.00 20.00    -0.647 OA
HETATM    9  O7  UNL     1     -33.703   4.182   4.115  1.00 20.00    -0.647 OA
ENDBRANCH   2   7
TORSDOF 1
ENDMDL
MODEL 2
REMARK VINA RESULT:      -0.1      3.093      3.804
REMARK  1 active torsions:
REMARK  status: ('A' for Active; 'I' for Inactive)
REMARK    1  A    between atoms: C1_1  and  C3_3 
ROOT
HETATM    1  C2  UNL     1     -34.100   6.601   1.674  1.00 20.00     0.067 A 
HETATM    2  C3  UNL     1     -33.240   7.243   2.745  1.00 20.00     0.083 A 
HETATM    3  C4  UNL     1     -33.087   5.761   2.403  1.00 20.00     0.132 A 
HETATM    4  C5  UNL     1     -33.929   7.651   4.026  1.00 20.00     0.030 C 
HETATM    5 CL8  UNL     1     -31.689   5.202   1.474  1.00 20.00    -0.100 Cl
HETATM    6 CL9  UNL     1     -33.687   4.524   3.509  1.00 20.00    -0.100 Cl
ENDROOT
BRANCH   2   7
HETATM    7  C1  UNL     1     -32.193   8.145   2.276  1.00 20.00     0.184 C 
HETATM    8  O6  UNL     1     -32.299   8.516   1.073  1.00 20.00    -0.647 OA
HETATM    9  O7  UNL     1     -31.319   8.438   3.139  1.00 20.00    -0.647 OA
ENDBRANCH   2   7
TORSDOF 1
ENDMDL
MODEL 3
REMARK VINA RESULT:      -0.1      1.870      2.563
REMARK  1 active torsions:
REMARK  status: ('A' for Active; 'I' for Inactive)
REMARK    1  A    between atoms: C1_1  and  C3_3 
ROOT
HETATM    1  C2  UNL     1     -33.977   5.786   1.390  1.00 20.00     0.067 A 
HETATM    2  C3  UNL     1     -33.695   5.747   2.879  1.00 20.00     0.083 A 
HETATM    3  C4  UNL     1     -32.617   6.190   1.889  1.00 20.00     0.132 A 
HETATM    4  C5  UNL     1     -33.605   4.384   3.526  1.00 20.00     0.030 C 
HETATM    5 CL8  UNL     1     -32.187   7.900   1.751  1.00 20.00    -0.100 Cl
HETATM    6 CL9  UNL     1     -31.256   5.130   1.520  1.00 20.00    -0.100 Cl
ENDROOT
BRANCH   2   7
HETATM    7  C1  UNL     1     -34.329   6.787   3.683  1.00 20.00     0.184 C 
HETATM    8  O6  UNL     1     -33.537   7.611   4.222  1.00 20.00    -0.647 OA
HETATM    9  O7  UNL     1     -35.590   6.725   3.731  1.00 20.00    -0.647 OA
ENDBRANCH   2   7
TORSDOF 1
ENDMDL
MODEL 4
REMARK VINA RESULT:       0.1      2.192      2.765
REMARK  1 active torsions:
REMARK  status: ('A' for Active; 'I' for Inactive)
REMARK    1  A    between atoms: C1_1  and  C3_3 
ROOT
HETATM    1  C2  UNL     1     -34.514   7.213   2.319  1.00 20.00     0.067 A 
HETATM    2  C3  UNL     1     -33.031   6.916   2.213  1.00 20.00     0.083 A 
HETATM    3  C4  UNL     1     -33.787   6.669   3.518  1.00 20.00     0.132 A 
HETATM    4  C5  UNL     1     -32.099   8.100   2.097  1.00 20.00     0.030 C 
HETATM    5 CL8  UNL     1     -34.183   5.019   4.017  1.00 20.00    -0.100 Cl
HETATM    6 CL9  UNL     1     -33.557   7.743   4.899  1.00 20.00    -0.100 Cl
ENDROOT
BRANCH   2   7
HETATM    7  C1  UNL     1     -32.663   5.744   1.424  1.00 20.00     0.184 C 
HETATM    8  O6  UNL     1     -33.558   5.318   0.641  1.00 20.00    -0.647 OA
HETATM    9  O7  UNL     1     -31.494   5.313   1.629  1.00 20.00    -0.647 OA
ENDBRANCH   2   7
TORSDOF 1
ENDMDL
MODEL 5
REMARK VINA RESULT:       0.4      1.670      2.493
REMARK  1 active torsions:
REMARK  status: ('A' for Active; 'I' for Inactive)
REMARK    1  A    between atoms: C1_1  and  C3_3 
ROOT
HETATM    1  C2  UNL     1     -32.818   5.721   3.499  1.00 20.00     0.067 A 
HETATM    2  C3  UNL     1     -33.982   6.683   3.622  1.00 20.00     0.083 A 
HETATM    3  C4  UNL     1     -33.235   6.525   2.298  1.00 20.00     0.132 A 
HETATM    4  C5  UNL     1     -33.765   7.919   4.464  1.00 20.00     0.030 C 
HETATM    5 CL8  UNL     1     -33.979   5.643   0.958  1.00 20.00    -0.100 Cl
HETATM    6 CL9  UNL     1     -32.142   7.790   1.735  1.00 20.00    -0.100 Cl
ENDROOT
BRANCH   2   7
HETATM    7  C1  UNL     1     -35.309   6.083   3.714  1.00 20.00     0.184 C 
HETATM    8  O6  UNL     1     -36.241   6.747   3.179  1.00 20.00    -0.647 OA
HETATM    9  O7  UNL     1     -35.348   4.973   4.317  1.00 20.00    -0.647 OA
ENDBRANCH   2   7
TORSDOF 1
ENDMDL
MODEL 6
REMARK VINA RESULT:       0.4      1.671      2.655
REMARK  1 active torsions:
REMARK  status: ('A' for Active; 'I' for Inactive)
REMARK    1  A    between atoms: C1_1  and  C3_3 
ROOT
HETATM    1  C2  UNL     1     -32.814   5.724   3.498  1.00 20.00     0.067 A 
HETATM    2  C3  UNL     1     -33.980   6.685   3.620  1.00 20.00     0.083 A 
HETATM    3  C4  UNL     1     -33.234   6.525   2.295  1.00 20.00     0.132 A 
HETATM    4  C5  UNL     1     -33.765   7.923   4.458  1.00 20.00     0.030 C 
HETATM    5 CL8  UNL     1     -33.977   5.637   0.958  1.00 20.00    -0.100 Cl
HETATM    6 CL9  UNL     1     -32.144   7.791   1.728  1.00 20.00    -0.100 Cl
ENDROOT
BRANCH   2   7
HETATM    7  C1  UNL     1     -35.306   6.081   3.714  1.00 20.00     0.184 C 
HETATM    8  O6  UNL     1     -35.352   4.972   4.316  1.00 20.00    -0.647 OA
HETATM    9  O7  UNL     1     -36.233   6.753   3.181  1.00 20.00    -0.647 OA
ENDBRANCH   2   7
TORSDOF 1
ENDMDL
MODEL 7
REMARK VINA RESULT:       0.5      2.791      3.250
REMARK  1 active torsions:
REMARK  status: ('A' for Active; 'I' for Inactive)
REMARK    1  A    between atoms: C1_1  and  C3_3 
ROOT
HETATM    1  C2  UNL     1     -32.897   5.706   3.076  1.00 20.00     0.067 A 
HETATM    2  C3  UNL     1     -33.231   6.712   1.994  1.00 20.00     0.083 A 
HETATM    3  C4  UNL     1     -33.898   6.790   3.367  1.00 20.00     0.132 A 
HETATM    4  C5  UNL     1     -34.016   6.209   0.805  1.00 20.00     0.030 C 
HETATM    5 CL8  UNL     1     -33.415   8.042   4.520  1.00 20.00    -0.100 Cl
HETATM    6 CL9  UNL     1     -35.587   6.321   3.566  1.00 20.00    -0.100 Cl
ENDROOT
BRANCH   2   7
HETATM    7  C1  UNL     1     -32.202   7.704   1.696  1.00 20.00     0.184 C 
HETATM    8  O6  UNL     1     -32.629   8.816   1.276  1.00 20.00    -0.647 OA
HETATM    9  O7  UNL     1     -31.017   7.317   1.900  1.00 20.00    -0.647 OA
ENDBRANCH   2   7
TORSDOF 1
ENDMDL
MODEL 8
REMARK VINA RESULT:       0.8      2.745      3.625
REMARK  1 active torsions:
REMARK  status: ('A' for Active; 'I' for Inactive)
REMARK    1  A    between atoms: C1_1  and  C3_3 
ROOT
HETATM    1  C2  UNL     1     -31.353   8.156   2.448  1.00 20.00     0.067 A 
HETATM    2  C3  UNL     1     -32.636   7.448   2.059  1.00 20.00     0.083 A 
HETATM    3  C4  UNL     1     -32.132   8.650   1.260  1.00 20.00     0.132 A 
HETATM    4  C5  UNL     1     -33.817   7.605   2.988  1.00 20.00     0.030 C 
HETATM    5 CL8  UNL     1     -31.402   8.415  -0.334  1.00 20.00    -0.100 Cl
HETATM    6 CL9  UNL     1     -32.940  10.213   1.397  1.00 20.00    -0.100 Cl
ENDROOT
BRANCH   2   7
HETATM    7  C1  UNL     1     -32.486   6.131   1.447  1.00 20.00     0.184 C 
HETATM    8  O6  UNL     1     -31.373   5.568   1.644  1.00 20.00    -0.647 OA
HETATM    9  O7  UNL     1     -33.494   5.729   0.801  1.00 20.00    -0.647 OA
ENDBRANCH   2   7
TORSDOF 1
ENDMDL
MODEL 9
REMARK VINA RESULT:       0.8      2.737      3.501
REMARK  1 active torsions:
REMARK  status: ('A' for Active; 'I' for Inactive)
REMARK    1  A    between atoms: C1_1  and  C3_3 
ROOT
HETATM    1  C2  UNL     1     -31.358   8.136   2.454  1.00 20.00     0.067 A 
HETATM    2  C3  UNL     1     -32.643   7.435   2.062  1.00 20.00     0.083 A 
HETATM    3  C4  UNL     1     -32.136   8.640   1.270  1.00 20.00     0.132 A 
HETATM    4  C5  UNL     1     -33.822   7.590   2.993  1.00 20.00     0.030 C 
HETATM    5 CL8  UNL     1     -31.408   8.413  -0.326  1.00 20.00    -0.100 Cl
HETATM    6 CL9  UNL     1     -32.939  10.204   1.417  1.00 20.00    -0.100 Cl
ENDROOT
BRANCH   2   7
HETATM    7  C1  UNL     1     -32.497   6.121   1.442  1.00 20.00     0.184 C 
HETATM    8  O6  UNL     1     -33.494   5.726   0.775  1.00 20.00    -0.647 OA
HETATM    9  O7  UNL     1     -31.388   5.554   1.655  1.00 20.00    -0.647 OA
ENDBRANCH   2   7
TORSDOF 1
ENDMDL
