MODEL 1
REMARK VINA RESULT:      -2.1      0.000      0.000
REMARK  5 active torsions:
REMARK  status: ('A' for Active; 'I' for Inactive)
REMARK    1  A    between atoms: C1_1  and  C9_9 
REMARK    2  A    between atoms: C6_6  and  C7_7 
REMARK    3  A    between atoms: C6_6  and  C8_8 
REMARK    4  A    between atoms: C7_7  and  C9_9 
REMARK    5  A    between atoms: C8_8  and  C10_10 
ROOT
HETATM    1  C7  UNL     1     -33.497   6.150   2.092  1.00 20.00     0.011 C 
ENDROOT
BRANCH   1   2
HETATM    2  C6  UNL     1     -32.104   6.620   1.650  1.00 20.00     0.001 C 
BRANCH   2   3
HETATM    3  C8  UNL     1     -31.962   8.138   1.803  1.00 20.00     0.004 C 
BRANCH   3   4
HETATM    4  C10 UNL     1     -32.272   8.916   0.512  1.00 20.00    -0.023 C 
HETATM    5  C4  UNL     1     -32.708  10.356   0.787  1.00 20.00     0.009 C 
HETATM    6  C5  UNL     1     -31.043   8.916  -0.401  1.00 20.00     0.009 C 
ENDBRANCH   3   4
ENDBRANCH   2   3
ENDBRANCH   1   2
BRANCH   1   7
HETATM    7  C9  UNL     1     -33.732   6.189   3.611  1.00 20.00     0.051 C 
HETATM    8  C3  UNL     1     -34.495   7.441   4.047  1.00 20.00     0.018 C 
BRANCH   7   9
HETATM    9  C1  UNL     1     -34.419   4.917   4.112  1.00 20.00     0.126 C 
HETATM   10  C2  UNL     1     -33.604   3.649   4.105  1.00 20.00     0.091 C 
HETATM   11  O11 UNL     1     -35.579   4.913   4.525  1.00 20.00    -0.298 OA
ENDBRANCH   7   9
ENDBRANCH   1   7
TORSDOF 5
ENDMDL
MODEL 2
REMARK VINA RESULT:      -1.9      0.699      1.181
REMARK  5 active torsions:
REMARK  status: ('A' for Active; 'I' for Inactive)
REMARK    1  A    between atoms: C1_1  and  C9_9 
REMARK    2  A    between atoms: C6_6  and  C7_7 
REMARK    3  A    between atoms: C6_6  and  C8_8 
REMARK    4  A    between atoms: C7_7  and  C9_9 
REMARK    5  A    between atoms: C8_8  and  C10_10 
ROOT
HETATM    1  C7  UNL     1     -33.624   5.790   2.105  1.00 20.00     0.011 C 
ENDROOT
BRANCH   1   2
HETATM    2  C6  UNL     1     -32.161   5.822   1.640  1.00 20.00     0.001 C 
BRANCH   2   3
HETATM    3  C8  UNL     1     -31.878   7.075   0.804  1.00 20.00     0.004 C 
BRANCH   3   4
HETATM    4  C10 UNL     1     -32.284   8.384   1.504  1.00 20.00    -0.023 C 
HETATM    5  C4  UNL     1     -31.415   8.689   2.724  1.00 20.00     0.009 C 
HETATM    6  C5  UNL     1     -32.207   9.548   0.511  1.00 20.00     0.009 C 
ENDBRANCH   3   4
ENDBRANCH   2   3
ENDBRANCH   1   2
BRANCH   1   7
HETATM    7  C9  UNL     1     -33.816   5.947   3.622  1.00 20.00     0.051 C 
HETATM    8  C3  UNL     1     -34.603   7.208   3.979  1.00 20.00     0.018 C 
BRANCH   7   9
HETATM    9  C1  UNL     1     -34.447   4.701   4.246  1.00 20.00     0.126 C 
HETATM   10  C2  UNL     1     -33.597   3.458   4.309  1.00 20.00     0.091 C 
HETATM   11  O11 UNL     1     -35.592   4.699   4.700  1.00 20.00    -0.298 OA
ENDBRANCH   7   9
ENDBRANCH   1   7
TORSDOF 5
ENDMDL
MODEL 3
REMARK VINA RESULT:      -1.7      2.535      5.224
REMARK  5 active torsions:
REMARK  status: ('A' for Active; 'I' for Inactive)
REMARK    1  A    between atoms: C1_1  and  C9_9 
REMARK    2  A    between atoms: C6_6  and  C7_7 
REMARK    3  A    between atoms: C6_6  and  C8_8 
REMARK    4  A    between atoms: C7_7  and  C9_9 
REMARK    5  A    between atoms: C8_8  and  C10_10 
ROOT
HETATM    1  C7  UNL     1     -31.923   6.726   1.309  1.00 20.00     0.011 C 
ENDROOT
BRANCH   1   2
HETATM    2  C6  UNL     1     -33.129   5.812   1.562  1.00 20.00     0.001 C 
BRANCH   2   3
HETATM    3  C8  UNL     1     -33.366   5.618   3.064  1.00 20.00     0.004 C 
BRANCH   3   4
HETATM    4  C10 UNL     1     -34.670   6.263   3.567  1.00 20.00    -0.023 C 
HETATM    5  C4  UNL     1     -35.476   5.326   4.467  1.00 20.00     0.009 C 
HETATM    6  C5  UNL     1     -34.351   7.556   4.322  1.00 20.00     0.009 C 
ENDBRANCH   3   4
ENDBRANCH   2   3
ENDBRANCH   1   2
BRANCH   1   7
HETATM    7  C9  UNL     1     -32.162   8.207   1.644  1.00 20.00     0.051 C 
HETATM    8  C3  UNL     1     -31.387   8.653   2.885  1.00 20.00     0.018 C 
BRANCH   7   9
HETATM    9  C1  UNL     1     -31.866   9.114   0.448  1.00 20.00     0.126 C 
HETATM   10  C2  UNL     1     -32.712  10.354   0.301  1.00 20.00     0.091 C 
HETATM   11  O11 UNL     1     -30.969   8.871  -0.358  1.00 20.00    -0.298 OA
ENDBRANCH   7   9
ENDBRANCH   1   7
TORSDOF 5
ENDMDL
MODEL 4
REMARK VINA RESULT:      -1.6      0.527      1.102
REMARK  5 active torsions:
REMARK  status: ('A' for Active; 'I' for Inactive)
REMARK    1  A    between atoms: C1_1  and  C9_9 
REMARK    2  A    between atoms: C6_6  and  C7_7 
REMARK    3  A    between atoms: C6_6  and  C8_8 
REMARK    4  A    between atoms: C7_7  and  C9_9 
REMARK    5  A    between atoms: C8_8  and  C10_10 
ROOT
HETATM    1  C7  UNL     1     -33.543   6.347   1.985  1.00 20.00     0.011 C 
ENDROOT
BRANCH   1   2
HETATM    2  C6  UNL     1     -32.212   6.908   1.467  1.00 20.00     0.001 C 
BRANCH   2   3
HETATM    3  C8  UNL     1     -32.040   8.376   1.871  1.00 20.00     0.004 C 
BRANCH   3   4
HETATM    4  C10 UNL     1     -31.980   9.340   0.672  1.00 20.00    -0.023 C 
HETATM    5  C4  UNL     1     -32.487   8.697  -0.620  1.00 20.00     0.009 C 
HETATM    6  C5  UNL     1     -32.796  10.599   0.977  1.00 20.00     0.009 C 
ENDBRANCH   3   4
ENDBRANCH   2   3
ENDBRANCH   1   2
BRANCH   1   7
HETATM    7  C9  UNL     1     -33.674   6.324   3.517  1.00 20.00     0.051 C 
HETATM    8  C3  UNL     1     -34.300   7.607   4.064  1.00 20.00     0.018 C 
BRANCH   7   9
HETATM    9  C1  UNL     1     -34.429   5.086   4.003  1.00 20.00     0.126 C 
HETATM   10  C2  UNL     1     -33.664   3.787   4.044  1.00 20.00     0.091 C 
HETATM   11  O11 UNL     1     -35.603   5.131   4.369  1.00 20.00    -0.298 OA
ENDBRANCH   7   9
ENDBRANCH   1   7
TORSDOF 5
ENDMDL
MODEL 5
REMARK VINA RESULT:      -1.4      1.218      2.033
REMARK  5 active torsions:
REMARK  status: ('A' for Active; 'I' for Inactive)
REMARK    1  A    between atoms: C1_1  and  C9_9 
REMARK    2  A    between atoms: C6_6  and  C7_7 
REMARK    3  A    between atoms: C6_6  and  C8_8 
REMARK    4  A    between atoms: C7_7  and  C9_9 
REMARK    5  A    between atoms: C8_8  and  C10_10 
ROOT
HETATM    1  C7  UNL     1     -33.061   7.657   2.351  1.00 20.00     0.011 C 
ENDROOT
BRANCH   1   2
HETATM    2  C6  UNL     1     -31.595   7.985   2.041  1.00 20.00     0.001 C 
BRANCH   2   3
HETATM    3  C8  UNL     1     -31.474   8.789   0.742  1.00 20.00     0.004 C 
BRANCH   3   4
HETATM    4  C10 UNL     1     -32.654   9.748   0.502  1.00 20.00    -0.023 C 
HETATM    5  C4  UNL     1     -32.460  11.098   1.193  1.00 20.00     0.009 C 
HETATM    6  C5  UNL     1     -32.852   9.962  -1.001  1.00 20.00     0.009 C 
ENDBRANCH   3   4
ENDBRANCH   2   3
ENDBRANCH   1   2
BRANCH   1   7
HETATM    7  C9  UNL     1     -33.455   6.191   2.104  1.00 20.00     0.051 C 
HETATM    8  C3  UNL     1     -32.278   5.352   1.604  1.00 20.00     0.018 C 
BRANCH   7   9
HETATM    9  C1  UNL     1     -34.102   5.562   3.339  1.00 20.00     0.126 C 
HETATM   10  C2  UNL     1     -35.155   6.373   4.051  1.00 20.00     0.091 C 
HETATM   11  O11 UNL     1     -33.804   4.436   3.738  1.00 20.00    -0.298 OA
ENDBRANCH   7   9
ENDBRANCH   1   7
TORSDOF 5
ENDMDL
MODEL 6
REMARK VINA RESULT:      -1.3      0.903      2.186
REMARK  5 active torsions:
REMARK  status: ('A' for Active; 'I' for Inactive)
REMARK    1  A    between atoms: C1_1  and  C9_9 
REMARK    2  A    between atoms: C6_6  and  C7_7 
REMARK    3  A    between atoms: C6_6  and  C8_8 
REMARK    4  A    between atoms: C7_7  and  C9_9 
REMARK    5  A    between atoms: C8_8  and  C10_10 
ROOT
HETATM    1  C7  UNL     1     -32.770   5.324   2.921  1.00 20.00     0.011 C 
ENDROOT
BRANCH   1   2
HETATM    2  C6  UNL     1     -32.869   5.696   1.435  1.00 20.00     0.001 C 
BRANCH   2   3
HETATM    3  C8  UNL     1     -31.917   6.847   1.092  1.00 20.00     0.004 C 
BRANCH   3   4
HETATM    4  C10 UNL     1     -32.355   8.201   1.679  1.00 20.00    -0.023 C 
HETATM    5  C4  UNL     1     -31.529   8.603   2.901  1.00 20.00     0.009 C 
HETATM    6  C5  UNL     1     -32.253   9.289   0.607  1.00 20.00     0.009 C 
ENDBRANCH   3   4
ENDBRANCH   2   3
ENDBRANCH   1   2
BRANCH   1   7
HETATM    7  C9  UNL     1     -33.950   4.495   3.452  1.00 20.00     0.051 C 
HETATM    8  C3  UNL     1     -33.491   3.326   4.324  1.00 20.00     0.018 C 
BRANCH   7   9
HETATM    9  C1  UNL     1     -34.972   5.367   4.184  1.00 20.00     0.126 C 
HETATM   10  C2  UNL     1     -34.850   6.860   4.011  1.00 20.00     0.091 C 
HETATM   11  O11 UNL     1     -35.874   4.890   4.873  1.00 20.00    -0.298 OA
ENDBRANCH   7   9
ENDBRANCH   1   7
TORSDOF 5
ENDMDL
MODEL 7
REMARK VINA RESULT:      -1.3      2.453      5.160
REMARK  5 active torsions:
REMARK  status: ('A' for Active; 'I' for Inactive)
REMARK    1  A    between atoms: C1_1  and  C9_9 
REMARK    2  A    between atoms: C6_6  and  C7_7 
REMARK    3  A    between atoms: C6_6  and  C8_8 
REMARK    4  A    between atoms: C7_7  and  C9_9 
REMARK    5  A    between atoms: C8_8  and  C10_10 
ROOT
HETATM    1  C7  UNL     1     -31.535   6.739   1.504  1.00 20.00     0.011 C 
ENDROOT
BRANCH   1   2
HETATM    2  C6  UNL     1     -32.470   5.524   1.560  1.00 20.00     0.001 C 
BRANCH   2   3
HETATM    3  C8  UNL     1     -33.859   5.922   2.072  1.00 20.00     0.004 C 
BRANCH   3   4
HETATM    4  C10 UNL     1     -34.039   5.710   3.586  1.00 20.00    -0.023 C 
HETATM    5  C4  UNL     1     -35.341   6.316   4.110  1.00 20.00     0.009 C 
HETATM    6  C5  UNL     1     -34.000   4.214   3.908  1.00 20.00     0.009 C 
ENDBRANCH   3   4
ENDBRANCH   2   3
ENDBRANCH   1   2
BRANCH   1   7
HETATM    7  C9  UNL     1     -32.233   8.092   1.720  1.00 20.00     0.051 C 
HETATM    8  C3  UNL     1     -31.920   8.693   3.091  1.00 20.00     0.018 C 
BRANCH   7   9
HETATM    9  C1  UNL     1     -31.916   9.080   0.595  1.00 20.00     0.126 C 
HETATM   10  C2  UNL     1     -32.762  10.326   0.517  1.00 20.00     0.091 C 
HETATM   11  O11 UNL     1     -31.002   8.893  -0.209  1.00 20.00    -0.298 OA
ENDBRANCH   7   9
ENDBRANCH   1   7
TORSDOF 5
ENDMDL
MODEL 8
REMARK VINA RESULT:      -1.2      2.455      5.553
REMARK  5 active torsions:
REMARK  status: ('A' for Active; 'I' for Inactive)
REMARK    1  A    between atoms: C1_1  and  C9_9 
REMARK    2  A    between atoms: C6_6  and  C7_7 
REMARK    3  A    between atoms: C6_6  and  C8_8 
REMARK    4  A    between atoms: C7_7  and  C9_9 
REMARK    5  A    between atoms: C8_8  and  C10_10 
ROOT
HETATM    1  C7  UNL     1     -31.902   6.709   1.433  1.00 20.00     0.011 C 
ENDROOT
BRANCH   1   2
HETATM    2  C6  UNL     1     -33.023   5.709   1.746  1.00 20.00     0.001 C 
BRANCH   2   3
HETATM    3  C8  UNL     1     -33.535   5.889   3.180  1.00 20.00     0.004 C 
BRANCH   3   4
HETATM    4  C10 UNL     1     -34.403   4.717   3.673  1.00 20.00    -0.023 C 
HETATM    5  C4  UNL     1     -33.575   3.618   4.340  1.00 20.00     0.009 C 
HETATM    6  C5  UNL     1     -35.461   5.231   4.653  1.00 20.00     0.009 C 
ENDBRANCH   3   4
ENDBRANCH   2   3
ENDBRANCH   1   2
BRANCH   1   7
HETATM    7  C9  UNL     1     -32.250   8.175   1.736  1.00 20.00     0.051 C 
HETATM    8  C3  UNL     1     -31.605   8.668   3.031  1.00 20.00     0.018 C 
BRANCH   7   9
HETATM    9  C1  UNL     1     -31.909   9.093   0.561  1.00 20.00     0.126 C 
HETATM   10  C2  UNL     1     -32.698  10.372   0.437  1.00 20.00     0.091 C 
HETATM   11  O11 UNL     1     -31.020   8.827  -0.248  1.00 20.00    -0.298 OA
ENDBRANCH   7   9
ENDBRANCH   1   7
TORSDOF 5
ENDMDL
MODEL 9
REMARK VINA RESULT:      -1.1      1.089      1.732
REMARK  5 active torsions:
REMARK  status: ('A' for Active; 'I' for Inactive)
REMARK    1  A    between atoms: C1_1  and  C9_9 
REMARK    2  A    between atoms: C6_6  and  C7_7 
REMARK    3  A    between atoms: C6_6  and  C8_8 
REMARK    4  A    between atoms: C7_7  and  C9_9 
REMARK    5  A    between atoms: C8_8  and  C10_10 
ROOT
HETATM    1  C7  UNL     1     -32.772   7.699   2.509  1.00 20.00     0.011 C 
ENDROOT
BRANCH   1   2
HETATM    2  C6  UNL     1     -31.449   7.685   1.731  1.00 20.00     0.001 C 
BRANCH   2   3
HETATM    3  C8  UNL     1     -31.270   8.978   0.928  1.00 20.00     0.004 C 
BRANCH   3   4
HETATM    4  C10 UNL     1     -32.600   9.653   0.548  1.00 20.00    -0.023 C 
HETATM    5  C4  UNL     1     -32.724  11.064   1.124  1.00 20.00     0.009 C 
HETATM    6  C5  UNL     1     -32.739   9.704  -0.976  1.00 20.00     0.009 C 
ENDBRANCH   3   4
ENDBRANCH   2   3
ENDBRANCH   1   2
BRANCH   1   7
HETATM    7  C9  UNL     1     -33.683   6.490   2.241  1.00 20.00     0.051 C 
HETATM    8  C3  UNL     1     -32.950   5.360   1.518  1.00 20.00     0.018 C 
BRANCH   7   9
HETATM    9  C1  UNL     1     -34.352   5.989   3.522  1.00 20.00     0.126 C 
HETATM   10  C2  UNL     1     -34.085   4.560   3.922  1.00 20.00     0.091 C 
HETATM   11  O11 UNL     1     -35.065   6.711   4.219  1.00 20.00    -0.298 OA
ENDBRANCH   7   9
ENDBRANCH   1   7
TORSDOF 5
ENDMDL
