MODEL 1
REMARK VINA RESULT:       0.9      0.000      0.000
REMARK  3 active torsions:
REMARK  status: ('A' for Active; 'I' for Inactive)
REMARK    1  A    between atoms: C7_7  and  C8_8 
REMARK    2  A    between atoms: C7_7  and  C9_9 
REMARK    3  A    between atoms: C9_9  and  S10_10 
ROOT
HETATM    1  C7  UNL     1     -33.748   7.708   2.239  1.00 20.00     0.028 C 
ENDROOT
BRANCH   1   2
HETATM    2  C8  UNL     1     -34.162   6.864   3.489  1.00 20.00    -0.050 C 
HETATM    3  C1  UNL     1     -33.468   5.499   3.576  1.00 20.00     0.014 C 
HETATM    4  C2  UNL     1     -33.746   7.679   4.739  1.00 20.00     0.014 C 
HETATM    5  C3  UNL     1     -35.687   6.666   3.572  1.00 20.00     0.014 C 
ENDBRANCH   1   2
BRANCH   1   6
HETATM    6  C9  UNL     1     -32.284   7.807   1.719  1.00 20.00     0.001 C 
HETATM    7  C4  UNL     1     -31.805   6.384   1.364  1.00 20.00     0.026 C 
HETATM    8  C5  UNL     1     -31.293   8.414   2.715  1.00 20.00     0.026 C 
BRANCH   6   9
HETATM    9  S10 UNL     1     -32.185   8.773   0.155  1.00 20.00    -0.164 SA
HETATM   10  C6  UNL     1     -32.652  10.376   0.838  1.00 20.00     0.090 C 
ENDBRANCH   6   9
ENDBRANCH   1   6
TORSDOF 3
ENDMDL
MODEL 2
REMARK VINA RESULT:       1.0      0.079      1.374
REMARK  3 active torsions:
REMARK  status: ('A' for Active; 'I' for Inactive)
REMARK    1  A    between atoms: C7_7  and  C8_8 
REMARK    2  A    between atoms: C7_7  and  C9_9 
REMARK    3  A    between atoms: C9_9  and  S10_10 
ROOT
HETATM    1  C7  UNL     1     -33.746   7.627   2.185  1.00 20.00     0.028 C 
ENDROOT
BRANCH   1   2
HETATM    2  C8  UNL     1     -34.161   6.911   3.511  1.00 20.00    -0.050 C 
HETATM    3  C1  UNL     1     -35.668   6.655   3.635  1.00 20.00     0.014 C 
HETATM    4  C2  UNL     1     -33.452   5.533   3.519  1.00 20.00     0.014 C 
HETATM    5  C3  UNL     1     -33.670   7.672   4.757  1.00 20.00     0.014 C 
ENDBRANCH   1   2
BRANCH   1   6
HETATM    6  C9  UNL     1     -32.266   7.810   1.737  1.00 20.00     0.001 C 
HETATM    7  C4  UNL     1     -31.692   6.417   1.401  1.00 20.00     0.026 C 
HETATM    8  C5  UNL     1     -31.359   8.463   2.782  1.00 20.00     0.026 C 
BRANCH   6   9
HETATM    9  S10 UNL     1     -32.144   8.790   0.183  1.00 20.00    -0.164 SA
HETATM   10  C6  UNL     1     -32.720  10.364   0.851  1.00 20.00     0.090 C 
ENDBRANCH   6   9
ENDBRANCH   1   6
TORSDOF 3
ENDMDL
MODEL 3
REMARK VINA RESULT:       1.1      1.465      2.293
REMARK  3 active torsions:
REMARK  status: ('A' for Active; 'I' for Inactive)
REMARK    1  A    between atoms: C7_7  and  C8_8 
REMARK    2  A    between atoms: C7_7  and  C9_9 
REMARK    3  A    between atoms: C9_9  and  S10_10 
ROOT
HETATM    1  C7  UNL     1     -33.637   5.589   2.868  1.00 20.00     0.028 C 
ENDROOT
BRANCH   1   2
HETATM    2  C8  UNL     1     -34.691   6.371   3.717  1.00 20.00    -0.050 C 
HETATM    3  C1  UNL     1     -35.835   6.971   2.890  1.00 20.00     0.014 C 
HETATM    4  C2  UNL     1     -35.315   5.355   4.706  1.00 20.00     0.014 C 
HETATM    5  C3  UNL     1     -34.042   7.480   4.566  1.00 20.00     0.014 C 
ENDBRANCH   1   2
BRANCH   1   6
HETATM    6  C9  UNL     1     -32.784   6.247   1.744  1.00 20.00     0.001 C 
HETATM    7  C4  UNL     1     -33.715   6.548   0.551  1.00 20.00     0.026 C 
HETATM    8  C5  UNL     1     -31.620   5.391   1.242  1.00 20.00     0.026 C 
BRANCH   6   9
HETATM    9  S10 UNL     1     -32.106   7.876   2.273  1.00 20.00    -0.164 SA
HETATM   10  C6  UNL     1     -32.265   8.723   0.688  1.00 20.00     0.090 C 
ENDBRANCH   6   9
ENDBRANCH   1   6
TORSDOF 3
ENDMDL
MODEL 4
REMARK VINA RESULT:       1.1      1.728      4.242
REMARK  3 active torsions:
REMARK  status: ('A' for Active; 'I' for Inactive)
REMARK    1  A    between atoms: C7_7  and  C8_8 
REMARK    2  A    between atoms: C7_7  and  C9_9 
REMARK    3  A    between atoms: C9_9  and  S10_10 
ROOT
HETATM    1  C7  UNL     1     -33.740   7.727   2.275  1.00 20.00     0.028 C 
ENDROOT
BRANCH   1   2
HETATM    2  C8  UNL     1     -32.305   8.095   1.776  1.00 20.00    -0.050 C 
HETATM    3  C1  UNL     1     -31.349   8.527   2.895  1.00 20.00     0.014 C 
HETATM    4  C2  UNL     1     -31.714   6.820   1.125  1.00 20.00     0.014 C 
HETATM    5  C3  UNL     1     -32.334   9.182   0.685  1.00 20.00     0.014 C 
ENDBRANCH   1   2
BRANCH   1   6
HETATM    6  C9  UNL     1     -34.014   6.923   3.580  1.00 20.00     0.001 C 
HETATM    7  C4  UNL     1     -35.528   6.640   3.659  1.00 20.00     0.026 C 
HETATM    8  C5  UNL     1     -33.589   7.632   4.867  1.00 20.00     0.026 C 
BRANCH   6   9
HETATM    9  S10 UNL     1     -33.198   5.272   3.542  1.00 20.00    -0.164 SA
HETATM   10  C6  UNL     1     -34.493   4.350   4.394  1.00 20.00     0.090 C 
ENDBRANCH   6   9
ENDBRANCH   1   6
TORSDOF 3
ENDMDL
MODEL 5
REMARK VINA RESULT:       1.1      1.722      4.201
REMARK  3 active torsions:
REMARK  status: ('A' for Active; 'I' for Inactive)
REMARK    1  A    between atoms: C7_7  and  C8_8 
REMARK    2  A    between atoms: C7_7  and  C9_9 
REMARK    3  A    between atoms: C9_9  and  S10_10 
ROOT
HETATM    1  C7  UNL     1     -33.711   7.791   2.303  1.00 20.00     0.028 C 
ENDROOT
BRANCH   1   2
HETATM    2  C8  UNL     1     -32.256   8.047   1.790  1.00 20.00    -0.050 C 
HETATM    3  C1  UNL     1     -31.615   6.834   1.107  1.00 20.00     0.014 C 
HETATM    4  C2  UNL     1     -32.343   9.182   0.739  1.00 20.00     0.014 C 
HETATM    5  C3  UNL     1     -31.329   8.549   2.913  1.00 20.00     0.014 C 
ENDBRANCH   1   2
BRANCH   1   6
HETATM    6  C9  UNL     1     -34.036   6.955   3.575  1.00 20.00     0.001 C 
HETATM    7  C4  UNL     1     -35.559   6.706   3.608  1.00 20.00     0.026 C 
HETATM    8  C5  UNL     1     -33.629   7.616   4.894  1.00 20.00     0.026 C 
BRANCH   6   9
HETATM    9  S10 UNL     1     -33.257   5.288   3.508  1.00 20.00    -0.164 SA
HETATM   10  C6  UNL     1     -34.522   4.399   4.438  1.00 20.00     0.090 C 
ENDBRANCH   6   9
ENDBRANCH   1   6
TORSDOF 3
ENDMDL
MODEL 6
REMARK VINA RESULT:       1.3      1.715      4.196
REMARK  3 active torsions:
REMARK  status: ('A' for Active; 'I' for Inactive)
REMARK    1  A    between atoms: C7_7  and  C8_8 
REMARK    2  A    between atoms: C7_7  and  C9_9 
REMARK    3  A    between atoms: C9_9  and  S10_10 
ROOT
HETATM    1  C7  UNL     1     -33.771   7.778   2.314  1.00 20.00     0.028 C 
ENDROOT
BRANCH   1   2
HETATM    2  C8  UNL     1     -32.341   8.053   1.744  1.00 20.00    -0.050 C 
HETATM    3  C1  UNL     1     -32.297   9.156   0.680  1.00 20.00     0.014 C 
HETATM    4  C2  UNL     1     -31.464   8.517   2.934  1.00 20.00     0.014 C 
HETATM    5  C3  UNL     1     -31.690   6.776   1.181  1.00 20.00     0.014 C 
ENDBRANCH   1   2
BRANCH   1   6
HETATM    6  C9  UNL     1     -34.036   6.915   3.583  1.00 20.00     0.001 C 
HETATM    7  C4  UNL     1     -35.550   6.623   3.655  1.00 20.00     0.026 C 
HETATM    8  C5  UNL     1     -33.610   7.568   4.899  1.00 20.00     0.026 C 
BRANCH   6   9
HETATM    9  S10 UNL     1     -33.214   5.272   3.468  1.00 20.00    -0.164 SA
HETATM   10  C6  UNL     1     -34.425   4.335   4.423  1.00 20.00     0.090 C 
ENDBRANCH   6   9
ENDBRANCH   1   6
TORSDOF 3
ENDMDL
MODEL 7
REMARK VINA RESULT:       1.6      2.455      4.486
REMARK  3 active torsions:
REMARK  status: ('A' for Active; 'I' for Inactive)
REMARK    1  A    between atoms: C7_7  and  C8_8 
REMARK    2  A    between atoms: C7_7  and  C9_9 
REMARK    3  A    between atoms: C9_9  and  S10_10 
ROOT
HETATM    1  C7  UNL     1     -33.414   5.599   2.696  1.00 20.00     0.028 C 
ENDROOT
BRANCH   1   2
HETATM    2  C8  UNL     1     -32.755   6.319   1.474  1.00 20.00    -0.050 C 
HETATM    3  C1  UNL     1     -32.217   7.719   1.792  1.00 20.00     0.014 C 
HETATM    4  C2  UNL     1     -31.553   5.447   1.033  1.00 20.00     0.014 C 
HETATM    5  C3  UNL     1     -33.711   6.403   0.270  1.00 20.00     0.014 C 
ENDBRANCH   1   2
BRANCH   1   6
HETATM    6  C9  UNL     1     -34.442   6.286   3.642  1.00 20.00     0.001 C 
HETATM    7  C4  UNL     1     -35.623   6.785   2.784  1.00 20.00     0.026 C 
HETATM    8  C5  UNL     1     -33.887   7.473   4.433  1.00 20.00     0.026 C 
BRANCH   6   9
HETATM    9  S10 UNL     1     -35.164   5.089   4.841  1.00 20.00    -0.164 SA
HETATM   10  C6  UNL     1     -33.984   3.750   4.577  1.00 20.00     0.090 C 
ENDBRANCH   6   9
ENDBRANCH   1   6
TORSDOF 3
ENDMDL
MODEL 8
REMARK VINA RESULT:       2.0      1.742      4.342
REMARK  3 active torsions:
REMARK  status: ('A' for Active; 'I' for Inactive)
REMARK    1  A    between atoms: C7_7  and  C8_8 
REMARK    2  A    between atoms: C7_7  and  C9_9 
REMARK    3  A    between atoms: C9_9  and  S10_10 
ROOT
HETATM    1  C7  UNL     1     -33.240   8.605   1.119  1.00 20.00     0.028 C 
ENDROOT
BRANCH   1   2
HETATM    2  C8  UNL     1     -32.360   9.658   0.371  1.00 20.00    -0.050 C 
HETATM    3  C1  UNL     1     -30.943   9.168   0.047  1.00 20.00     0.014 C 
HETATM    4  C2  UNL     1     -33.067   9.961  -0.974  1.00 20.00     0.014 C 
HETATM    5  C3  UNL     1     -32.274  10.989   1.140  1.00 20.00     0.014 C 
ENDBRANCH   1   2
BRANCH   1   6
HETATM    6  C9  UNL     1     -32.684   7.648   2.216  1.00 20.00     0.001 C 
HETATM    7  C4  UNL     1     -31.293   8.164   2.640  1.00 20.00     0.026 C 
HETATM    8  C5  UNL     1     -32.543   6.189   1.778  1.00 20.00     0.026 C 
BRANCH   6   9
HETATM    9  S10 UNL     1     -33.719   7.690   3.738  1.00 20.00    -0.164 SA
HETATM   10  C6  UNL     1     -34.476   6.063   3.554  1.00 20.00     0.090 C 
ENDBRANCH   6   9
ENDBRANCH   1   6
TORSDOF 3
ENDMDL
MODEL 9
REMARK VINA RESULT:       2.0      1.897      4.299
REMARK  3 active torsions:
REMARK  status: ('A' for Active; 'I' for Inactive)
REMARK    1  A    between atoms: C7_7  and  C8_8 
REMARK    2  A    between atoms: C7_7  and  C9_9 
REMARK    3  A    between atoms: C9_9  and  S10_10 
ROOT
HETATM    1  C7  UNL     1     -33.622   7.923   2.318  1.00 20.00     0.028 C 
ENDROOT
BRANCH   1   2
HETATM    2  C8  UNL     1     -32.216   8.186   1.689  1.00 20.00    -0.050 C 
HETATM    3  C1  UNL     1     -31.138   8.567   2.711  1.00 20.00     0.014 C 
HETATM    4  C2  UNL     1     -31.771   6.864   1.013  1.00 20.00     0.014 C 
HETATM    5  C3  UNL     1     -32.269   9.257   0.583  1.00 20.00     0.014 C 
ENDBRANCH   1   2
BRANCH   1   6
HETATM    6  C9  UNL     1     -33.858   6.950   3.511  1.00 20.00     0.001 C 
HETATM    7  C4  UNL     1     -33.446   7.676   4.809  1.00 20.00     0.026 C 
HETATM    8  C5  UNL     1     -33.080   5.636   3.427  1.00 20.00     0.026 C 
BRANCH   6   9
HETATM    9  S10 UNL     1     -35.643   6.544   3.711  1.00 20.00    -0.164 SA
HETATM   10  C6  UNL     1     -35.433   5.002   4.624  1.00 20.00     0.090 C 
ENDBRANCH   6   9
ENDBRANCH   1   6
TORSDOF 3
ENDMDL
