MODEL 1
REMARK VINA RESULT:       3.1      0.000      0.000
REMARK  0 active torsions:
REMARK  status: ('A' for Active; 'I' for Inactive)
ROOT
HETATM    1  C1  UNL     1     -34.260   6.888   3.716  1.00 20.00     0.127 C 
HETATM    2  C2  UNL     1     -33.500   7.391   4.918  1.00 20.00     0.078 C 
HETATM    3  C3  UNL     1     -33.457   6.681   2.450  1.00 20.00     0.087 C 
HETATM    4  C4  UNL     1     -32.689   8.625   4.557  1.00 20.00     0.008 C 
HETATM    5  C5  UNL     1     -31.940   9.843  -0.151  1.00 20.00     0.000 C 
HETATM    6  C6  UNL     1     -32.899  10.253   0.961  1.00 20.00     0.001 C 
HETATM    7  C7  UNL     1     -30.959   8.770   0.308  1.00 20.00     0.001 C 
HETATM    8  C8  UNL     1     -31.830   8.403   3.309  1.00 20.00     0.010 C 
HETATM    9  C9  UNL     1     -33.615   9.043   1.562  1.00 20.00     0.010 C 
HETATM   10  C10 UNL     1     -31.680   7.566   0.915  1.00 20.00     0.010 C 
HETATM   11  C11 UNL     1     -32.647   7.942   2.070  1.00 20.00    -0.034 C 
HETATM   12  O12 UNL     1     -35.447   6.573   3.786  1.00 20.00    -0.298 OA
ENDROOT
TORSDOF 0
ENDMDL
MODEL 2
REMARK VINA RESULT:       3.6      1.742      2.764
REMARK  0 active torsions:
REMARK  status: ('A' for Active; 'I' for Inactive)
ROOT
HETATM    1  C1  UNL     1     -34.142   4.558   4.247  1.00 20.00     0.127 C 
HETATM    2  C2  UNL     1     -35.458   5.233   4.545  1.00 20.00     0.078 C 
HETATM    3  C3  UNL     1     -32.938   5.465   4.108  1.00 20.00     0.087 C 
HETATM    4  C4  UNL     1     -35.713   6.361   3.558  1.00 20.00     0.008 C 
HETATM    5  C5  UNL     1     -32.085   8.063   0.703  1.00 20.00     0.000 C 
HETATM    6  C6  UNL     1     -33.240   7.078   0.559  1.00 20.00     0.001 C 
HETATM    7  C7  UNL     1     -32.031   8.678   2.097  1.00 20.00     0.001 C 
HETATM    8  C8  UNL     1     -34.520   7.314   3.454  1.00 20.00     0.010 C 
HETATM    9  C9  UNL     1     -33.212   6.011   1.654  1.00 20.00     0.010 C 
HETATM   10  C10 UNL     1     -32.011   7.607   3.189  1.00 20.00     0.010 C 
HETATM   11  C11 UNL     1     -33.188   6.601   3.090  1.00 20.00    -0.034 C 
HETATM   12  O12 UNL     1     -34.035   3.334   4.214  1.00 20.00    -0.298 OA
ENDROOT
TORSDOF 0
ENDMDL
MODEL 3
REMARK VINA RESULT:       4.3      1.967      4.299
REMARK  0 active torsions:
REMARK  status: ('A' for Active; 'I' for Inactive)
ROOT
HETATM    1  C1  UNL     1     -32.475   9.401   0.233  1.00 20.00     0.127 C 
HETATM    2  C2  UNL     1     -31.003   9.168   0.469  1.00 20.00     0.078 C 
HETATM    3  C3  UNL     1     -33.356   9.435   1.463  1.00 20.00     0.087 C 
HETATM    4  C4  UNL     1     -30.792   7.945   1.348  1.00 20.00     0.008 C 
HETATM    5  C5  UNL     1     -34.546   5.972   3.842  1.00 20.00     0.000 C 
HETATM    6  C6  UNL     1     -33.826   5.702   2.526  1.00 20.00     0.001 C 
HETATM    7  C7  UNL     1     -33.959   7.171   4.578  1.00 20.00     0.001 C 
HETATM    8  C8  UNL     1     -31.639   8.001   2.622  1.00 20.00     0.010 C 
HETATM    9  C9  UNL     1     -33.779   6.948   1.642  1.00 20.00     0.010 C 
HETATM   10  C10 UNL     1     -33.908   8.413   3.687  1.00 20.00     0.010 C 
HETATM   11  C11 UNL     1     -33.158   8.183   2.348  1.00 20.00    -0.034 C 
HETATM   12  O12 UNL     1     -32.921   9.645  -0.887  1.00 20.00    -0.298 OA
ENDROOT
TORSDOF 0
ENDMDL
MODEL 4
REMARK VINA RESULT:       4.5      2.094      4.500
REMARK  0 active torsions:
REMARK  status: ('A' for Active; 'I' for Inactive)
ROOT
HETATM    1  C1  UNL     1     -32.175   8.168   1.657  1.00 20.00     0.127 C 
HETATM    2  C2  UNL     1     -31.676   9.002   2.811  1.00 20.00     0.078 C 
HETATM    3  C3  UNL     1     -33.579   7.618   1.782  1.00 20.00     0.087 C 
HETATM    4  C4  UNL     1     -31.877   8.265   4.126  1.00 20.00     0.008 C 
HETATM    5  C5  UNL     1     -34.799   4.314   4.364  1.00 20.00     0.000 C 
HETATM    6  C6  UNL     1     -33.304   4.580   4.230  1.00 20.00     0.001 C 
HETATM    7  C7  UNL     1     -35.605   5.606   4.436  1.00 20.00     0.001 C 
HETATM    8  C8  UNL     1     -33.312   7.754   4.284  1.00 20.00     0.010 C 
HETATM    9  C9  UNL     1     -33.000   5.510   3.054  1.00 20.00     0.010 C 
HETATM   10  C10 UNL     1     -35.292   6.535   3.262  1.00 20.00     0.010 C 
HETATM   11  C11 UNL     1     -33.780   6.851   3.110  1.00 20.00    -0.034 C 
HETATM   12  O12 UNL     1     -31.514   8.024   0.630  1.00 20.00    -0.298 OA
ENDROOT
TORSDOF 0
ENDMDL
MODEL 5
REMARK VINA RESULT:       4.8      2.167      4.666
REMARK  0 active torsions:
REMARK  status: ('A' for Active; 'I' for Inactive)
ROOT
HETATM    1  C1  UNL     1     -32.052   8.107   1.650  1.00 20.00     0.127 C 
HETATM    2  C2  UNL     1     -32.456   7.640   0.273  1.00 20.00     0.078 C 
HETATM    3  C3  UNL     1     -31.910   7.035   2.708  1.00 20.00     0.087 C 
HETATM    4  C4  UNL     1     -33.692   6.758   0.352  1.00 20.00     0.008 C 
HETATM    5  C5  UNL     1     -35.201   4.935   4.665  1.00 20.00     0.000 C 
HETATM    6  C6  UNL     1     -35.559   6.121   3.777  1.00 20.00     0.001 C 
HETATM    7  C7  UNL     1     -34.077   4.095   4.070  1.00 20.00     0.001 C 
HETATM    8  C8  UNL     1     -33.533   5.637   1.382  1.00 20.00     0.010 C 
HETATM    9  C9  UNL     1     -34.329   6.967   3.443  1.00 20.00     0.010 C 
HETATM   10  C10 UNL     1     -32.853   4.946   3.730  1.00 20.00     0.010 C 
HETATM   11  C11 UNL     1     -33.174   6.150   2.804  1.00 20.00    -0.034 C 
HETATM   12  O12 UNL     1     -31.762   9.281   1.876  1.00 20.00    -0.298 OA
ENDROOT
TORSDOF 0
ENDMDL
MODEL 6
REMARK VINA RESULT:       5.2      2.049      4.335
REMARK  0 active torsions:
REMARK  status: ('A' for Active; 'I' for Inactive)
ROOT
HETATM    1  C1  UNL     1     -31.445   8.760   0.052  1.00 20.00     0.127 C 
HETATM    2  C2  UNL     1     -32.253  10.002  -0.236  1.00 20.00     0.078 C 
HETATM    3  C3  UNL     1     -32.151   7.662   0.817  1.00 20.00     0.087 C 
HETATM    4  C4  UNL     1     -32.896  10.526   1.038  1.00 20.00     0.008 C 
HETATM    5  C5  UNL     1     -33.095   7.728   5.080  1.00 20.00     0.000 C 
HETATM    6  C6  UNL     1     -32.201   8.840   4.546  1.00 20.00     0.001 C 
HETATM    7  C7  UNL     1     -34.219   7.382   4.110  1.00 20.00     0.001 C 
HETATM    8  C8  UNL     1     -33.659   9.431   1.788  1.00 20.00     0.010 C 
HETATM    9  C9  UNL     1     -31.670   8.515   3.149  1.00 20.00     0.010 C 
HETATM   10  C10 UNL     1     -33.683   7.065   2.713  1.00 20.00     0.010 C 
HETATM   11  C11 UNL     1     -32.789   8.188   2.124  1.00 20.00    -0.034 C 
HETATM   12  O12 UNL     1     -30.309   8.610  -0.392  1.00 20.00    -0.298 OA
ENDROOT
TORSDOF 0
ENDMDL
MODEL 7
REMARK VINA RESULT:       5.3      1.787      2.779
REMARK  0 active torsions:
REMARK  status: ('A' for Active; 'I' for Inactive)
ROOT
HETATM    1  C1  UNL     1     -34.933   4.900   4.222  1.00 20.00     0.127 C 
HETATM    2  C2  UNL     1     -33.935   3.768   4.256  1.00 20.00     0.078 C 
HETATM    3  C3  UNL     1     -34.922   5.768   2.983  1.00 20.00     0.087 C 
HETATM    4  C4  UNL     1     -32.540   4.279   3.937  1.00 20.00     0.008 C 
HETATM    5  C5  UNL     1     -31.890   8.747   1.984  1.00 20.00     0.000 C 
HETATM    6  C6  UNL     1     -31.827   8.126   3.375  1.00 20.00     0.001 C 
HETATM    7  C7  UNL     1     -32.257   7.723   0.917  1.00 20.00     0.001 C 
HETATM    8  C8  UNL     1     -32.512   5.111   2.653  1.00 20.00     0.010 C 
HETATM    9  C9  UNL     1     -33.118   7.381   3.718  1.00 20.00     0.010 C 
HETATM   10  C10 UNL     1     -33.543   6.975   1.268  1.00 20.00     0.010 C 
HETATM   11  C11 UNL     1     -33.507   6.305   2.668  1.00 20.00    -0.034 C 
HETATM   12  O12 UNL     1     -35.771   5.051   5.109  1.00 20.00    -0.298 OA
ENDROOT
TORSDOF 0
ENDMDL
MODEL 8
REMARK VINA RESULT:       5.5      1.211      2.309
REMARK  0 active torsions:
REMARK  status: ('A' for Active; 'I' for Inactive)
ROOT
HETATM    1  C1  UNL     1     -33.863   7.582   4.137  1.00 20.00     0.127 C 
HETATM    2  C2  UNL     1     -34.296   6.225   3.638  1.00 20.00     0.078 C 
HETATM    3  C3  UNL     1     -33.855   8.701   3.118  1.00 20.00     0.087 C 
HETATM    4  C4  UNL     1     -33.518   5.845   2.389  1.00 20.00     0.008 C 
HETATM    5  C5  UNL     1     -30.919   9.220  -0.073  1.00 20.00     0.000 C 
HETATM    6  C6  UNL     1     -30.634   8.146   0.971  1.00 20.00     0.001 C 
HETATM    7  C7  UNL     1     -32.395   9.271  -0.451  1.00 20.00     0.001 C 
HETATM    8  C8  UNL     1     -33.553   6.951   1.331  1.00 20.00     0.010 C 
HETATM    9  C9  UNL     1     -31.534   8.300   2.198  1.00 20.00     0.010 C 
HETATM   10  C10 UNL     1     -33.291   9.417   0.780  1.00 20.00     0.010 C 
HETATM   11  C11 UNL     1     -33.048   8.324   1.855  1.00 20.00    -0.034 C 
HETATM   12  O12 UNL     1     -33.623   7.789   5.325  1.00 20.00    -0.298 OA
ENDROOT
TORSDOF 0
ENDMDL
MODEL 9
REMARK VINA RESULT:       5.8      2.189      3.360
REMARK  0 active torsions:
REMARK  status: ('A' for Active; 'I' for Inactive)
ROOT
HETATM    1  C1  UNL     1     -33.455   7.516   3.587  1.00 20.00     0.127 C 
HETATM    2  C2  UNL     1     -32.647   8.655   3.014  1.00 20.00     0.078 C 
HETATM    3  C3  UNL     1     -32.964   6.120   3.274  1.00 20.00     0.087 C 
HETATM    4  C4  UNL     1     -32.428   8.455   1.523  1.00 20.00     0.008 C 
HETATM    5  C5  UNL     1     -33.320   4.098  -0.580  1.00 20.00     0.000 C 
HETATM    6  C6  UNL     1     -34.060   5.420  -0.414  1.00 20.00     0.001 C 
HETATM    7  C7  UNL     1     -31.948   4.123   0.084  1.00 20.00     0.001 C 
HETATM    8  C8  UNL     1     -31.878   7.062   1.205  1.00 20.00     0.010 C 
HETATM    9  C9  UNL     1     -34.143   5.839   1.054  1.00 20.00     0.010 C 
HETATM   10  C10 UNL     1     -32.037   4.550   1.550  1.00 20.00     0.010 C 
HETATM   11  C11 UNL     1     -32.760   5.908   1.756  1.00 20.00    -0.034 C 
HETATM   12  O12 UNL     1     -34.404   7.713   4.344  1.00 20.00    -0.298 OA
ENDROOT
TORSDOF 0
ENDMDL
