MODEL 1
REMARK VINA RESULT:      -2.8      0.000      0.000
REMARK  3 active torsions:
REMARK  status: ('A' for Active; 'I' for Inactive)
REMARK    1  A    between atoms: C3_3  and  C4_4 
REMARK    2  A    between atoms: C5_5  and  C8_8 
REMARK    3  A    between atoms: C6_6  and  C8_8 
ROOT
HETATM    1  C4  UNL     1     -32.072   8.122   1.948  1.00 20.00    -0.004 C 
HETATM    2  C6  UNL     1     -33.298   7.770   2.363  1.00 20.00    -0.019 C 
ENDROOT
BRANCH   2   3
HETATM    3  C8  UNL     1     -33.574   7.121   3.698  1.00 20.00     0.026 C 
HETATM    4  C7  UNL     1     -33.381   8.139   4.826  1.00 20.00     0.018 C 
BRANCH   3   5
HETATM    5  C5  UNL     1     -34.975   6.563   3.738  1.00 20.00    -0.029 C 
HETATM    6  C2  UNL     1     -35.307   5.422   4.352  1.00 20.00     0.007 C 
ENDBRANCH   3   5
ENDBRANCH   2   3
BRANCH   1   7
HETATM    7  C3  UNL     1     -31.820   8.743   0.669  1.00 20.00    -0.011 C 
HETATM    8  C1  UNL     1     -32.472   9.828   0.236  1.00 20.00     0.011 C 
ENDBRANCH   1   7
TORSDOF 3
ENDMDL
MODEL 2
REMARK VINA RESULT:      -2.7      1.371      1.865
REMARK  3 active torsions:
REMARK  status: ('A' for Active; 'I' for Inactive)
REMARK    1  A    between atoms: C3_3  and  C4_4 
REMARK    2  A    between atoms: C5_5  and  C8_8 
REMARK    3  A    between atoms: C6_6  and  C8_8 
ROOT
HETATM    1  C4  UNL     1     -32.668   7.543   2.588  1.00 20.00    -0.004 C 
HETATM    2  C6  UNL     1     -33.243   6.331   2.621  1.00 20.00    -0.019 C 
ENDROOT
BRANCH   2   3
HETATM    3  C8  UNL     1     -33.998   5.797   3.815  1.00 20.00     0.026 C 
HETATM    4  C7  UNL     1     -35.381   6.448   3.896  1.00 20.00     0.018 C 
BRANCH   3   5
HETATM    5  C5  UNL     1     -34.134   4.297   3.728  1.00 20.00    -0.029 C 
HETATM    6  C2  UNL     1     -33.513   3.441   4.549  1.00 20.00     0.007 C 
ENDBRANCH   3   5
ENDBRANCH   2   3
BRANCH   1   7
HETATM    7  C3  UNL     1     -31.949   8.044   1.441  1.00 20.00    -0.011 C 
HETATM    8  C1  UNL     1     -32.283   9.168   0.796  1.00 20.00     0.011 C 
ENDBRANCH   1   7
TORSDOF 3
ENDMDL
MODEL 3
REMARK VINA RESULT:      -2.6      1.769      4.638
REMARK  3 active torsions:
REMARK  status: ('A' for Active; 'I' for Inactive)
REMARK    1  A    between atoms: C3_3  and  C4_4 
REMARK    2  A    between atoms: C5_5  and  C8_8 
REMARK    3  A    between atoms: C6_6  and  C8_8 
ROOT
HETATM    1  C4  UNL     1     -33.593   4.755   3.769  1.00 20.00    -0.004 C 
HETATM    2  C6  UNL     1     -34.437   5.793   3.866  1.00 20.00    -0.019 C 
ENDROOT
BRANCH   2   3
HETATM    3  C8  UNL     1     -34.148   7.161   3.296  1.00 20.00     0.026 C 
HETATM    4  C7  UNL     1     -33.640   8.093   4.399  1.00 20.00     0.018 C 
BRANCH   3   5
HETATM    5  C5  UNL     1     -33.131   7.068   2.186  1.00 20.00    -0.029 C 
HETATM    6  C2  UNL     1     -32.131   7.941   2.014  1.00 20.00     0.007 C 
ENDBRANCH   3   5
ENDBRANCH   2   3
BRANCH   1   7
HETATM    7  C3  UNL     1     -33.881   3.450   4.318  1.00 20.00    -0.011 C 
HETATM    8  C1  UNL     1     -32.977   2.713   4.975  1.00 20.00     0.011 C 
ENDBRANCH   1   7
TORSDOF 3
ENDMDL
MODEL 4
REMARK VINA RESULT:      -2.5      0.857      4.578
REMARK  3 active torsions:
REMARK  status: ('A' for Active; 'I' for Inactive)
REMARK    1  A    between atoms: C3_3  and  C4_4 
REMARK    2  A    between atoms: C5_5  and  C8_8 
REMARK    3  A    between atoms: C6_6  and  C8_8 
ROOT
HETATM    1  C4  UNL     1     -33.969   6.771   3.048  1.00 20.00    -0.004 C 
HETATM    2  C6  UNL     1     -33.126   7.812   3.117  1.00 20.00    -0.019 C 
ENDROOT
BRANCH   2   3
HETATM    3  C8  UNL     1     -32.052   8.086   2.091  1.00 20.00     0.026 C 
HETATM    4  C7  UNL     1     -31.901   6.885   1.155  1.00 20.00     0.018 C 
BRANCH   3   5
HETATM    5  C5  UNL     1     -32.382   9.325   1.296  1.00 20.00    -0.029 C 
HETATM    6  C2  UNL     1     -32.298   9.402  -0.037  1.00 20.00     0.007 C 
ENDBRANCH   3   5
ENDBRANCH   2   3
BRANCH   1   7
HETATM    7  C3  UNL     1     -34.993   6.518   4.035  1.00 20.00    -0.011 C 
HETATM    8  C1  UNL     1     -35.326   5.291   4.452  1.00 20.00     0.011 C 
ENDBRANCH   1   7
TORSDOF 3
ENDMDL
MODEL 5
REMARK VINA RESULT:      -2.2      1.524      2.186
REMARK  3 active torsions:
REMARK  status: ('A' for Active; 'I' for Inactive)
REMARK    1  A    between atoms: C3_3  and  C4_4 
REMARK    2  A    between atoms: C5_5  and  C8_8 
REMARK    3  A    between atoms: C6_6  and  C8_8 
ROOT
HETATM    1  C4  UNL     1     -32.305   8.365   1.064  1.00 20.00    -0.004 C 
HETATM    2  C6  UNL     1     -32.704   8.091   2.316  1.00 20.00    -0.019 C 
ENDROOT
BRANCH   2   3
HETATM    3  C8  UNL     1     -33.008   6.696   2.809  1.00 20.00     0.026 C 
HETATM    4  C7  UNL     1     -34.326   6.690   3.586  1.00 20.00     0.018 C 
BRANCH   3   5
HETATM    5  C5  UNL     1     -33.083   5.730   1.652  1.00 20.00    -0.029 C 
HETATM    6  C2  UNL     1     -32.037   5.031   1.194  1.00 20.00     0.007 C 
ENDBRANCH   3   5
ENDBRANCH   2   3
BRANCH   1   7
HETATM    7  C3  UNL     1     -32.017   9.703   0.603  1.00 20.00    -0.011 C 
HETATM    8  C1  UNL     1     -32.762  10.346  -0.303  1.00 20.00     0.011 C 
ENDBRANCH   1   7
TORSDOF 3
ENDMDL
MODEL 6
REMARK VINA RESULT:      -2.1      1.666      2.703
REMARK  3 active torsions:
REMARK  status: ('A' for Active; 'I' for Inactive)
REMARK    1  A    between atoms: C3_3  and  C4_4 
REMARK    2  A    between atoms: C5_5  and  C8_8 
REMARK    3  A    between atoms: C6_6  and  C8_8 
ROOT
HETATM    1  C4  UNL     1     -33.062   5.827   1.867  1.00 20.00    -0.004 C 
HETATM    2  C6  UNL     1     -33.006   5.259   3.082  1.00 20.00    -0.019 C 
ENDROOT
BRANCH   2   3
HETATM    3  C8  UNL     1     -34.081   4.352   3.630  1.00 20.00     0.026 C 
HETATM    4  C7  UNL     1     -33.464   3.323   4.581  1.00 20.00     0.018 C 
BRANCH   3   5
HETATM    5  C5  UNL     1     -35.137   5.155   4.349  1.00 20.00    -0.029 C 
HETATM    6  C2  UNL     1     -35.368   6.454   4.126  1.00 20.00     0.007 C 
ENDBRANCH   3   5
ENDBRANCH   2   3
BRANCH   1   7
HETATM    7  C3  UNL     1     -32.028   6.693   1.352  1.00 20.00    -0.011 C 
HETATM    8  C1  UNL     1     -31.906   7.980   1.698  1.00 20.00     0.011 C 
ENDBRANCH   1   7
TORSDOF 3
ENDMDL
MODEL 7
REMARK VINA RESULT:      -2.1      1.366      2.046
REMARK  3 active torsions:
REMARK  status: ('A' for Active; 'I' for Inactive)
REMARK    1  A    between atoms: C3_3  and  C4_4 
REMARK    2  A    between atoms: C5_5  and  C8_8 
REMARK    3  A    between atoms: C6_6  and  C8_8 
ROOT
HETATM    1  C4  UNL     1     -32.314   8.280   0.672  1.00 20.00    -0.004 C 
HETATM    2  C6  UNL     1     -32.659   7.662   1.812  1.00 20.00    -0.019 C 
ENDROOT
BRANCH   2   3
HETATM    3  C8  UNL     1     -33.113   6.223   1.878  1.00 20.00     0.026 C 
HETATM    4  C7  UNL     1     -31.934   5.287   1.602  1.00 20.00     0.018 C 
BRANCH   3   5
HETATM    5  C5  UNL     1     -33.713   5.918   3.228  1.00 20.00    -0.029 C 
HETATM    6  C2  UNL     1     -34.655   6.667   3.813  1.00 20.00     0.007 C 
ENDBRANCH   3   5
ENDBRANCH   2   3
BRANCH   1   7
HETATM    7  C3  UNL     1     -31.880   9.656   0.621  1.00 20.00    -0.011 C 
HETATM    8  C1  UNL     1     -32.656  10.656   0.186  1.00 20.00     0.011 C 
ENDBRANCH   1   7
TORSDOF 3
ENDMDL
MODEL 8
REMARK VINA RESULT:      -1.8      2.200      4.835
REMARK  3 active torsions:
REMARK  status: ('A' for Active; 'I' for Inactive)
REMARK    1  A    between atoms: C3_3  and  C4_4 
REMARK    2  A    between atoms: C5_5  and  C8_8 
REMARK    3  A    between atoms: C6_6  and  C8_8 
ROOT
HETATM    1  C4  UNL     1     -34.086   4.153   4.188  1.00 20.00    -0.004 C 
HETATM    2  C6  UNL     1     -33.562   5.145   3.452  1.00 20.00    -0.019 C 
ENDROOT
BRANCH   2   3
HETATM    3  C8  UNL     1     -34.281   6.442   3.167  1.00 20.00     0.026 C 
HETATM    4  C7  UNL     1     -35.641   6.454   3.868  1.00 20.00     0.018 C 
BRANCH   3   5
HETATM    5  C5  UNL     1     -33.452   7.618   3.621  1.00 20.00    -0.029 C 
HETATM    6  C2  UNL     1     -33.508   8.141   4.852  1.00 20.00     0.007 C 
ENDBRANCH   3   5
ENDBRANCH   2   3
BRANCH   1   7
HETATM    7  C3  UNL     1     -33.390   2.917   4.455  1.00 20.00    -0.011 C 
HETATM    8  C1  UNL     1     -32.642   2.714   5.546  1.00 20.00     0.011 C 
ENDBRANCH   1   7
TORSDOF 3
ENDMDL
MODEL 9
REMARK VINA RESULT:      -1.5      1.797      4.298
REMARK  3 active torsions:
REMARK  status: ('A' for Active; 'I' for Inactive)
REMARK    1  A    between atoms: C3_3  and  C4_4 
REMARK    2  A    between atoms: C5_5  and  C8_8 
REMARK    3  A    between atoms: C6_6  and  C8_8 
ROOT
HETATM    1  C4  UNL     1     -34.148   7.016   3.466  1.00 20.00    -0.004 C 
HETATM    2  C6  UNL     1     -33.650   6.330   2.425  1.00 20.00    -0.019 C 
ENDROOT
BRANCH   2   3
HETATM    3  C8  UNL     1     -32.596   6.878   1.492  1.00 20.00     0.026 C 
HETATM    4  C7  UNL     1     -31.844   8.028   2.166  1.00 20.00     0.018 C 
BRANCH   3   5
HETATM    5  C5  UNL     1     -31.630   5.792   1.088  1.00 20.00    -0.029 C 
HETATM    6  C2  UNL     1     -32.005   4.587   0.642  1.00 20.00     0.007 C 
ENDBRANCH   3   5
ENDBRANCH   2   3
BRANCH   1   7
HETATM    7  C3  UNL     1     -35.156   6.482   4.352  1.00 20.00    -0.011 C 
HETATM    8  C1  UNL     1     -35.361   5.171   4.527  1.00 20.00     0.011 C 
ENDBRANCH   1   7
TORSDOF 3
ENDMDL
