MODEL 1
REMARK VINA RESULT:      -2.7      0.000      0.000
REMARK  3 active torsions:
REMARK  status: ('A' for Active; 'I' for Inactive)
REMARK    1  A    between atoms: C5_5  and  C8_8 
REMARK    2  A    between atoms: C6_6  and  O10_10 
REMARK    3  A    between atoms: C8_8  and  C9_9 
ROOT
HETATM    1  C1  UNL     1     -33.023   6.063   1.853  1.00 20.00     0.007 C 
HETATM    2  C2  UNL     1     -33.593   8.134   3.188  1.00 20.00     0.007 C 
HETATM    3  C3  UNL     1     -33.768   5.206   2.872  1.00 20.00     0.032 C 
HETATM    4  C4  UNL     1     -34.336   7.272   4.203  1.00 20.00     0.032 C 
HETATM    5  C5  UNL     1     -32.475   7.348   2.489  1.00 20.00    -0.014 C 
HETATM    6  C6  UNL     1     -34.877   5.993   3.568  1.00 20.00     0.118 C 
ENDROOT
BRANCH   5   7
HETATM    7  C8  UNL     1     -31.781   8.215   1.439  1.00 20.00     0.004 C 
BRANCH   7   8
HETATM    8  C9  UNL     1     -32.547   9.512   1.202  1.00 20.00    -0.004 C 
HETATM    9  C7  UNL     1     -32.536   9.897  -0.269  1.00 20.00     0.005 C 
ENDBRANCH   7   8
ENDBRANCH   5   7
BRANCH   6  10
HETATM   10  O10 UNL     1     -35.465   5.193   4.587  1.00 20.00    -0.396 OA
HETATM   11  H28 UNL     1     -36.325   4.898   4.248  1.00 20.00     0.210 HD
ENDBRANCH   6  10
TORSDOF 3
ENDMDL
MODEL 2
REMARK VINA RESULT:      -2.6      0.619      1.711
REMARK  3 active torsions:
REMARK  status: ('A' for Active; 'I' for Inactive)
REMARK    1  A    between atoms: C5_5  and  C8_8 
REMARK    2  A    between atoms: C6_6  and  O10_10 
REMARK    3  A    between atoms: C8_8  and  C9_9 
ROOT
HETATM    1  C1  UNL     1     -33.326   7.964   3.547  1.00 20.00     0.007 C 
HETATM    2  C2  UNL     1     -32.740   6.019   2.040  1.00 20.00     0.007 C 
HETATM    3  C3  UNL     1     -34.522   7.184   4.083  1.00 20.00     0.032 C 
HETATM    4  C4  UNL     1     -33.939   5.245   2.579  1.00 20.00     0.032 C 
HETATM    5  C5  UNL     1     -32.965   7.536   2.118  1.00 20.00    -0.014 C 
HETATM    6  C6  UNL     1     -34.297   5.676   4.000  1.00 20.00     0.118 C 
ENDROOT
BRANCH   5   7
HETATM    7  C8  UNL     1     -31.731   8.290   1.624  1.00 20.00     0.004 C 
BRANCH   7   8
HETATM    8  C9  UNL     1     -31.984   8.929   0.263  1.00 20.00    -0.004 C 
HETATM    9  C7  UNL     1     -32.600  10.311   0.410  1.00 20.00     0.005 C 
ENDBRANCH   7   8
ENDBRANCH   5   7
BRANCH   6  10
HETATM   10  O10 UNL     1     -35.478   4.991   4.399  1.00 20.00    -0.396 OA
HETATM   11  H28 UNL     1     -35.913   5.550   5.063  1.00 20.00     0.210 HD
ENDBRANCH   6  10
TORSDOF 3
ENDMDL
MODEL 3
REMARK VINA RESULT:      -2.2      2.389      4.647
REMARK  3 active torsions:
REMARK  status: ('A' for Active; 'I' for Inactive)
REMARK    1  A    between atoms: C5_5  and  C8_8 
REMARK    2  A    between atoms: C6_6  and  O10_10 
REMARK    3  A    between atoms: C8_8  and  C9_9 
ROOT
HETATM    1  C1  UNL     1     -33.030   5.418   2.338  1.00 20.00     0.007 C 
HETATM    2  C2  UNL     1     -33.804   7.192   3.966  1.00 20.00     0.007 C 
HETATM    3  C3  UNL     1     -32.631   6.507   1.347  1.00 20.00     0.032 C 
HETATM    4  C4  UNL     1     -33.403   8.276   2.970  1.00 20.00     0.032 C 
HETATM    5  C5  UNL     1     -34.169   5.881   3.257  1.00 20.00    -0.014 C 
HETATM    6  C6  UNL     1     -32.272   7.812   2.055  1.00 20.00     0.118 C 
ENDROOT
BRANCH   5   7
HETATM    7  C8  UNL     1     -34.514   4.795   4.276  1.00 20.00     0.004 C 
BRANCH   7   8
HETATM    8  C9  UNL     1     -33.741   3.511   3.997  1.00 20.00    -0.004 C 
HETATM    9  C7  UNL     1     -32.979   3.047   5.227  1.00 20.00     0.005 C 
ENDBRANCH   7   8
ENDBRANCH   5   7
BRANCH   6  10
HETATM   10  O10 UNL     1     -32.021   8.827   1.091  1.00 20.00    -0.396 OA
HETATM   11  H28 UNL     1     -31.057   8.899   1.007  1.00 20.00     0.210 HD
ENDBRANCH   6  10
TORSDOF 3
ENDMDL
MODEL 4
REMARK VINA RESULT:      -1.5      2.455      4.943
REMARK  3 active torsions:
REMARK  status: ('A' for Active; 'I' for Inactive)
REMARK    1  A    between atoms: C5_5  and  C8_8 
REMARK    2  A    between atoms: C6_6  and  O10_10 
REMARK    3  A    between atoms: C8_8  and  C9_9 
ROOT
HETATM    1  C1  UNL     1     -34.094   7.000   3.746  1.00 20.00     0.007 C 
HETATM    2  C2  UNL     1     -33.102   5.404   2.053  1.00 20.00     0.007 C 
HETATM    3  C3  UNL     1     -33.218   8.122   3.197  1.00 20.00     0.032 C 
HETATM    4  C4  UNL     1     -32.228   6.530   1.509  1.00 20.00     0.032 C 
HETATM    5  C5  UNL     1     -33.450   5.623   3.532  1.00 20.00    -0.014 C 
HETATM    6  C6  UNL     1     -32.870   7.899   1.727  1.00 20.00     0.118 C 
ENDROOT
BRANCH   5   7
HETATM    7  C8  UNL     1     -34.370   4.513   4.039  1.00 20.00     0.004 C 
BRANCH   7   8
HETATM    8  C9  UNL     1     -33.635   3.179   4.114  1.00 20.00    -0.004 C 
HETATM    9  C7  UNL     1     -32.813   3.074   5.389  1.00 20.00     0.005 C 
ENDBRANCH   7   8
ENDBRANCH   5   7
BRANCH   6  10
HETATM   10  O10 UNL     1     -31.961   8.902   1.291  1.00 20.00    -0.396 OA
HETATM   11  H28 UNL     1     -31.811   9.490   2.049  1.00 20.00     0.210 HD
ENDBRANCH   6  10
TORSDOF 3
ENDMDL
MODEL 5
REMARK VINA RESULT:      -1.1      2.403      4.752
REMARK  3 active torsions:
REMARK  status: ('A' for Active; 'I' for Inactive)
REMARK    1  A    between atoms: C5_5  and  C8_8 
REMARK    2  A    between atoms: C6_6  and  O10_10 
REMARK    3  A    between atoms: C8_8  and  C9_9 
ROOT
HETATM    1  C1  UNL     1     -33.653   7.859   3.663  1.00 20.00     0.007 C 
HETATM    2  C2  UNL     1     -33.685   5.972   1.979  1.00 20.00     0.007 C 
HETATM    3  C3  UNL     1     -32.335   8.355   3.077  1.00 20.00     0.032 C 
HETATM    4  C4  UNL     1     -32.366   6.472   1.399  1.00 20.00     0.032 C 
HETATM    5  C5  UNL     1     -33.829   6.348   3.461  1.00 20.00    -0.014 C 
HETATM    6  C6  UNL     1     -32.193   7.975   1.604  1.00 20.00     0.118 C 
ENDROOT
BRANCH   5   7
HETATM    7  C8  UNL     1     -35.179   5.884   4.006  1.00 20.00     0.004 C 
BRANCH   7   8
HETATM    8  C9  UNL     1     -35.044   4.573   4.772  1.00 20.00    -0.004 C 
HETATM    9  C7  UNL     1     -33.823   3.792   4.316  1.00 20.00     0.005 C 
ENDBRANCH   7   8
ENDBRANCH   5   7
BRANCH   6  10
HETATM   10  O10 UNL     1     -30.905   8.354   1.133  1.00 20.00    -0.396 OA
HETATM   11  H28 UNL     1     -31.047   8.903   0.346  1.00 20.00     0.210 HD
ENDBRANCH   6  10
TORSDOF 3
ENDMDL
MODEL 6
REMARK VINA RESULT:       0.2      2.473      4.313
REMARK  3 active torsions:
REMARK  status: ('A' for Active; 'I' for Inactive)
REMARK    1  A    between atoms: C5_5  and  C8_8 
REMARK    2  A    between atoms: C6_6  and  O10_10 
REMARK    3  A    between atoms: C8_8  and  C9_9 
ROOT
HETATM    1  C1  UNL     1     -32.462   5.616   1.663  1.00 20.00     0.007 C 
HETATM    2  C2  UNL     1     -33.123   7.179   3.538  1.00 20.00     0.007 C 
HETATM    3  C3  UNL     1     -32.228   6.815   0.750  1.00 20.00     0.032 C 
HETATM    4  C4  UNL     1     -32.888   8.374   2.620  1.00 20.00     0.032 C 
HETATM    5  C5  UNL     1     -33.508   5.923   2.743  1.00 20.00    -0.014 C 
HETATM    6  C6  UNL     1     -31.850   8.064   1.544  1.00 20.00     0.118 C 
ENDROOT
BRANCH   5   7
HETATM    7  C8  UNL     1     -33.684   4.727   3.678  1.00 20.00     0.004 C 
BRANCH   7   8
HETATM    8  C9  UNL     1     -34.983   4.833   4.470  1.00 20.00    -0.004 C 
HETATM    9  C7  UNL     1     -35.719   6.124   4.151  1.00 20.00     0.005 C 
ENDBRANCH   7   8
ENDBRANCH   5   7
BRANCH   6  10
HETATM   10  O10 UNL     1     -31.757   9.180   0.667  1.00 20.00    -0.396 OA
HETATM   11  H28 UNL     1     -32.656   9.531   0.566  1.00 20.00     0.210 HD
ENDBRANCH   6  10
TORSDOF 3
ENDMDL
