MODEL 1
REMARK VINA RESULT:      -2.7      0.000      0.000
REMARK  4 active torsions:
REMARK  status: ('A' for Active; 'I' for Inactive)
REMARK    1  A    between atoms: C5_5  and  O8_8 
REMARK    2  A    between atoms: C6_6  and  O9_9 
REMARK    3  A    between atoms: C7_7  and  O8_8 
REMARK    4  A    between atoms: C7_7  and  O9_9 
ROOT
HETATM    1  C1  UNL     1     -32.369   9.761   0.423  1.00 20.00     0.014 C 
HETATM    2  C2  UNL     1     -32.249   8.739   1.043  1.00 20.00    -0.091 C 
HETATM    3  C5  UNL     1     -32.100   7.493   1.796  1.00 20.00     0.263 C 
ENDROOT
BRANCH   3   4
HETATM    4  O8  UNL     1     -32.964   7.487   2.924  1.00 20.00    -0.350 OA
BRANCH   4   5
HETATM    5  C7  UNL     1     -33.945   6.448   2.871  1.00 20.00     0.256 C 
HETATM    6  C4  UNL     1     -35.002   6.700   3.939  1.00 20.00     0.070 C 
BRANCH   5   7
HETATM    7  O9  UNL     1     -33.360   5.172   3.160  1.00 20.00    -0.362 OA
BRANCH   7   8
HETATM    8  C6  UNL     1     -34.163   4.398   4.040  1.00 20.00     0.166 C 
HETATM    9  C3  UNL     1     -33.369   3.194   4.503  1.00 20.00     0.033 C 
ENDBRANCH   7   8
ENDBRANCH   5   7
ENDBRANCH   4   5
ENDBRANCH   3   4
TORSDOF 4
ENDMDL
MODEL 2
REMARK VINA RESULT:      -2.5      1.644      4.810
REMARK  4 active torsions:
REMARK  status: ('A' for Active; 'I' for Inactive)
REMARK    1  A    between atoms: C5_5  and  O8_8 
REMARK    2  A    between atoms: C6_6  and  O9_9 
REMARK    3  A    between atoms: C7_7  and  O8_8 
REMARK    4  A    between atoms: C7_7  and  O9_9 
ROOT
HETATM    1  C1  UNL     1     -35.367   5.752   4.088  1.00 20.00     0.014 C 
HETATM    2  C2  UNL     1     -34.672   6.728   4.007  1.00 20.00    -0.091 C 
HETATM    3  C5  UNL     1     -33.828   7.920   3.909  1.00 20.00     0.263 C 
ENDROOT
BRANCH   3   4
HETATM    4  O8  UNL     1     -32.605   7.611   3.254  1.00 20.00    -0.350 OA
BRANCH   4   5
HETATM    5  C7  UNL     1     -32.749   7.475   1.838  1.00 20.00     0.256 C 
HETATM    6  C4  UNL     1     -32.431   6.041   1.436  1.00 20.00     0.070 C 
BRANCH   5   7
HETATM    7  O9  UNL     1     -31.820   8.316   1.142  1.00 20.00    -0.362 OA
BRANCH   7   8
HETATM    8  C6  UNL     1     -32.315   9.635   0.963  1.00 20.00     0.166 C 
HETATM    9  C3  UNL     1     -32.665   9.838  -0.496  1.00 20.00     0.033 C 
ENDBRANCH   7   8
ENDBRANCH   5   7
ENDBRANCH   4   5
ENDBRANCH   3   4
TORSDOF 4
ENDMDL
MODEL 3
REMARK VINA RESULT:      -2.3      1.211      1.784
REMARK  4 active torsions:
REMARK  status: ('A' for Active; 'I' for Inactive)
REMARK    1  A    between atoms: C5_5  and  O8_8 
REMARK    2  A    between atoms: C6_6  and  O9_9 
REMARK    3  A    between atoms: C7_7  and  O8_8 
REMARK    4  A    between atoms: C7_7  and  O9_9 
ROOT
HETATM    1  C1  UNL     1     -32.654  10.258   0.076  1.00 20.00     0.014 C 
HETATM    2  C2  UNL     1     -32.274   9.295   0.685  1.00 20.00    -0.091 C 
HETATM    3  C5  UNL     1     -31.807   8.121   1.424  1.00 20.00     0.263 C 
ENDROOT
BRANCH   3   4
HETATM    4  O8  UNL     1     -32.547   7.964   2.627  1.00 20.00    -0.350 OA
BRANCH   4   5
HETATM    5  C7  UNL     1     -33.105   6.656   2.771  1.00 20.00     0.256 C 
HETATM    6  C4  UNL     1     -32.750   5.820   1.548  1.00 20.00     0.070 C 
BRANCH   5   7
HETATM    7  O9  UNL     1     -34.537   6.710   2.833  1.00 20.00    -0.362 OA
BRANCH   7   8
HETATM    8  C6  UNL     1     -35.031   6.428   4.135  1.00 20.00     0.166 C 
HETATM    9  C3  UNL     1     -34.966   4.934   4.375  1.00 20.00     0.033 C 
ENDBRANCH   7   8
ENDBRANCH   5   7
ENDBRANCH   4   5
ENDBRANCH   3   4
TORSDOF 4
ENDMDL
MODEL 4
REMARK VINA RESULT:      -2.2      0.957      4.764
REMARK  4 active torsions:
REMARK  status: ('A' for Active; 'I' for Inactive)
REMARK    1  A    between atoms: C5_5  and  O8_8 
REMARK    2  A    between atoms: C6_6  and  O9_9 
REMARK    3  A    between atoms: C7_7  and  O8_8 
REMARK    4  A    between atoms: C7_7  and  O9_9 
ROOT
HETATM    1  C1  UNL     1     -33.162   2.945   4.509  1.00 20.00     0.014 C 
HETATM    2  C2  UNL     1     -33.950   3.850   4.463  1.00 20.00    -0.091 C 
HETATM    3  C5  UNL     1     -34.912   4.952   4.411  1.00 20.00     0.263 C 
ENDROOT
BRANCH   3   4
HETATM    4  O8  UNL     1     -34.697   5.744   3.250  1.00 20.00    -0.350 OA
BRANCH   4   5
HETATM    5  C7  UNL     1     -33.520   6.550   3.334  1.00 20.00     0.256 C 
HETATM    6  C4  UNL     1     -33.837   7.825   4.104  1.00 20.00     0.070 C 
BRANCH   5   7
HETATM    7  O9  UNL     1     -33.076   6.953   2.031  1.00 20.00    -0.362 OA
BRANCH   7   8
HETATM    8  C6  UNL     1     -32.024   7.906   2.091  1.00 20.00     0.166 C 
HETATM    9  C3  UNL     1     -32.153   8.858   0.920  1.00 20.00     0.033 C 
ENDBRANCH   7   8
ENDBRANCH   5   7
ENDBRANCH   4   5
ENDBRANCH   3   4
TORSDOF 4
ENDMDL
MODEL 5
REMARK VINA RESULT:      -2.2      0.955      4.968
REMARK  4 active torsions:
REMARK  status: ('A' for Active; 'I' for Inactive)
REMARK    1  A    between atoms: C5_5  and  O8_8 
REMARK    2  A    between atoms: C6_6  and  O9_9 
REMARK    3  A    between atoms: C7_7  and  O8_8 
REMARK    4  A    between atoms: C7_7  and  O9_9 
ROOT
HETATM    1  C1  UNL     1     -33.817   3.621   4.380  1.00 20.00     0.014 C 
HETATM    2  C2  UNL     1     -34.175   4.719   4.048  1.00 20.00    -0.091 C 
HETATM    3  C5  UNL     1     -34.614   6.055   3.645  1.00 20.00     0.263 C 
ENDROOT
BRANCH   3   4
HETATM    4  O8  UNL     1     -33.499   6.927   3.512  1.00 20.00    -0.350 OA
BRANCH   4   5
HETATM    5  C7  UNL     1     -33.192   7.236   2.151  1.00 20.00     0.256 C 
HETATM    6  C4  UNL     1     -32.489   6.046   1.511  1.00 20.00     0.070 C 
BRANCH   5   7
HETATM    7  O9  UNL     1     -32.287   8.345   2.066  1.00 20.00    -0.362 OA
BRANCH   7   8
HETATM    8  C6  UNL     1     -31.918   8.638   0.725  1.00 20.00     0.166 C 
HETATM    9  C3  UNL     1     -32.491   9.984   0.338  1.00 20.00     0.033 C 
ENDBRANCH   7   8
ENDBRANCH   5   7
ENDBRANCH   4   5
ENDBRANCH   3   4
TORSDOF 4
ENDMDL
MODEL 6
REMARK VINA RESULT:      -2.1      1.455      4.262
REMARK  4 active torsions:
REMARK  status: ('A' for Active; 'I' for Inactive)
REMARK    1  A    between atoms: C5_5  and  O8_8 
REMARK    2  A    between atoms: C6_6  and  O9_9 
REMARK    3  A    between atoms: C7_7  and  O8_8 
REMARK    4  A    between atoms: C7_7  and  O9_9 
ROOT
HETATM    1  C1  UNL     1     -33.596   3.434   4.285  1.00 20.00     0.014 C 
HETATM    2  C2  UNL     1     -34.337   4.379   4.323  1.00 20.00    -0.091 C 
HETATM    3  C5  UNL     1     -35.241   5.528   4.374  1.00 20.00     0.263 C 
ENDROOT
BRANCH   3   4
HETATM    4  O8  UNL     1     -34.881   6.488   3.390  1.00 20.00    -0.350 OA
BRANCH   4   5
HETATM    5  C7  UNL     1     -33.582   7.045   3.603  1.00 20.00     0.256 C 
HETATM    6  C4  UNL     1     -33.637   8.014   4.777  1.00 20.00     0.070 C 
BRANCH   5   7
HETATM    7  O9  UNL     1     -33.150   7.800   2.463  1.00 20.00    -0.362 OA
BRANCH   7   8
HETATM    8  C6  UNL     1     -32.056   7.189   1.794  1.00 20.00     0.166 C 
HETATM    9  C3  UNL     1     -32.468   5.804   1.338  1.00 20.00     0.033 C 
ENDBRANCH   7   8
ENDBRANCH   5   7
ENDBRANCH   4   5
ENDBRANCH   3   4
TORSDOF 4
ENDMDL
MODEL 7
REMARK VINA RESULT:      -1.8      1.485      4.997
REMARK  4 active torsions:
REMARK  status: ('A' for Active; 'I' for Inactive)
REMARK    1  A    between atoms: C5_5  and  O8_8 
REMARK    2  A    between atoms: C6_6  and  O9_9 
REMARK    3  A    between atoms: C7_7  and  O8_8 
REMARK    4  A    between atoms: C7_7  and  O9_9 
ROOT
HETATM    1  C1  UNL     1     -35.433   5.500   4.331  1.00 20.00     0.014 C 
HETATM    2  C2  UNL     1     -34.666   6.328   3.920  1.00 20.00    -0.091 C 
HETATM    3  C5  UNL     1     -33.732   7.339   3.423  1.00 20.00     0.263 C 
ENDROOT
BRANCH   3   4
HETATM    4  O8  UNL     1     -33.114   6.898   2.221  1.00 20.00    -0.350 OA
BRANCH   4   5
HETATM    5  C7  UNL     1     -31.902   7.596   1.928  1.00 20.00     0.256 C 
HETATM    6  C4  UNL     1     -31.669   8.665   2.989  1.00 20.00     0.070 C 
BRANCH   5   7
HETATM    7  O9  UNL     1     -31.989   8.275   0.669  1.00 20.00    -0.362 OA
BRANCH   7   8
HETATM    8  C6  UNL     1     -32.250   9.664   0.822  1.00 20.00     0.166 C 
HETATM    9  C3  UNL     1     -32.832  10.202  -0.468  1.00 20.00     0.033 C 
ENDBRANCH   7   8
ENDBRANCH   5   7
ENDBRANCH   4   5
ENDBRANCH   3   4
TORSDOF 4
ENDMDL
MODEL 8
REMARK VINA RESULT:      -1.8      0.664      4.737
REMARK  4 active torsions:
REMARK  status: ('A' for Active; 'I' for Inactive)
REMARK    1  A    between atoms: C5_5  and  O8_8 
REMARK    2  A    between atoms: C6_6  and  O9_9 
REMARK    3  A    between atoms: C7_7  and  O8_8 
REMARK    4  A    between atoms: C7_7  and  O9_9 
ROOT
HETATM    1  C1  UNL     1     -32.811   2.701   5.161  1.00 20.00     0.014 C 
HETATM    2  C2  UNL     1     -33.464   3.447   4.482  1.00 20.00    -0.091 C 
HETATM    3  C5  UNL     1     -34.262   4.354   3.657  1.00 20.00     0.263 C 
ENDROOT
BRANCH   3   4
HETATM    4  O8  UNL     1     -33.454   5.410   3.153  1.00 20.00    -0.350 OA
BRANCH   4   5
HETATM    5  C7  UNL     1     -33.749   6.673   3.753  1.00 20.00     0.256 C 
HETATM    6  C4  UNL     1     -35.260   6.843   3.848  1.00 20.00     0.070 C 
BRANCH   5   7
HETATM    7  O9  UNL     1     -33.261   7.754   2.948  1.00 20.00    -0.362 OA
BRANCH   7   8
HETATM    8  C6  UNL     1     -32.365   7.311   1.938  1.00 20.00     0.166 C 
HETATM    9  C3  UNL     1     -31.924   8.502   1.113  1.00 20.00     0.033 C 
ENDBRANCH   7   8
ENDBRANCH   5   7
ENDBRANCH   4   5
ENDBRANCH   3   4
TORSDOF 4
ENDMDL
MODEL 9
REMARK VINA RESULT:      -1.6      1.314      2.586
REMARK  4 active torsions:
REMARK  status: ('A' for Active; 'I' for Inactive)
REMARK    1  A    between atoms: C5_5  and  O8_8 
REMARK    2  A    between atoms: C6_6  and  O9_9 
REMARK    3  A    between atoms: C7_7  and  O8_8 
REMARK    4  A    between atoms: C7_7  and  O9_9 
ROOT
HETATM    1  C1  UNL     1     -31.954   8.415   1.448  1.00 20.00     0.014 C 
HETATM    2  C2  UNL     1     -32.088   7.225   1.544  1.00 20.00    -0.091 C 
HETATM    3  C5  UNL     1     -32.247   5.775   1.660  1.00 20.00     0.263 C 
ENDROOT
BRANCH   3   4
HETATM    4  O8  UNL     1     -33.564   5.451   2.085  1.00 20.00    -0.350 OA
BRANCH   4   5
HETATM    5  C7  UNL     1     -33.706   5.447   3.508  1.00 20.00     0.256 C 
HETATM    6  C4  UNL     1     -33.864   4.011   3.993  1.00 20.00     0.070 C 
BRANCH   5   7
HETATM    7  O9  UNL     1     -34.887   6.152   3.911  1.00 20.00    -0.362 OA
BRANCH   7   8
HETATM    8  C6  UNL     1     -34.695   7.560   3.928  1.00 20.00     0.166 C 
HETATM    9  C3  UNL     1     -33.555   7.891   4.868  1.00 20.00     0.033 C 
ENDBRANCH   7   8
ENDBRANCH   5   7
ENDBRANCH   4   5
ENDBRANCH   3   4
TORSDOF 4
ENDMDL
