MODEL 1
REMARK VINA RESULT:      -0.7      0.000      0.000
REMARK  1 active torsions:
REMARK  status: ('A' for Active; 'I' for Inactive)
REMARK    1  A    between atoms: C1_1  and  C7_7 
ROOT
HETATM    1  C2  UNL     1     -32.064   7.829   2.365  1.00 20.00     0.000 C 
HETATM    2  C3  UNL     1     -32.814   6.860   1.458  1.00 20.00     0.001 C 
HETATM    3  C4  UNL     1     -32.943   8.315   3.512  1.00 20.00     0.001 C 
HETATM    4  C5  UNL     1     -33.388   5.679   2.244  1.00 20.00     0.018 C 
HETATM    5  C6  UNL     1     -33.518   7.150   4.318  1.00 20.00     0.018 C 
HETATM    6  C7  UNL     1     -34.235   6.118   3.441  1.00 20.00     0.032 C 
HETATM    7  C8  UNL     1     -35.558   6.699   2.948  1.00 20.00     0.025 C 
ENDROOT
BRANCH   6   8
HETATM    8  C1  UNL     1     -34.685   4.913   4.267  1.00 20.00     0.227 C 
HETATM    9  O9  UNL     1     -35.752   4.909   4.874  1.00 20.00    -0.279 OA
HETATM   10 CL10 UNL     1     -33.525   3.620   4.223  1.00 20.00    -0.043 Cl
ENDBRANCH   6   8
TORSDOF 1
ENDMDL
MODEL 2
REMARK VINA RESULT:      -0.0      3.517      4.497
REMARK  1 active torsions:
REMARK  status: ('A' for Active; 'I' for Inactive)
REMARK    1  A    between atoms: C1_1  and  C7_7 
ROOT
HETATM    1  C2  UNL     1     -34.286   6.214   3.354  1.00 20.00     0.000 C 
HETATM    2  C3  UNL     1     -33.087   5.652   2.598  1.00 20.00     0.001 C 
HETATM    3  C4  UNL     1     -33.999   7.608   3.899  1.00 20.00     0.001 C 
HETATM    4  C5  UNL     1     -32.632   6.592   1.480  1.00 20.00     0.018 C 
HETATM    5  C6  UNL     1     -33.554   8.568   2.795  1.00 20.00     0.018 C 
HETATM    6  C7  UNL     1     -32.385   8.021   1.970  1.00 20.00     0.032 C 
HETATM    7  C8  UNL     1     -31.106   8.062   2.805  1.00 20.00     0.025 C 
ENDROOT
BRANCH   6   8
HETATM    8  C1  UNL     1     -32.053   8.952   0.803  1.00 20.00     0.227 C 
HETATM    9  O9  UNL     1     -31.202   8.660  -0.033  1.00 20.00    -0.279 OA
HETATM   10 CL10 UNL     1     -33.007  10.403   0.833  1.00 20.00    -0.043 Cl
ENDBRANCH   6   8
TORSDOF 1
ENDMDL
MODEL 3
REMARK VINA RESULT:       0.4      2.706      3.893
REMARK  1 active torsions:
REMARK  status: ('A' for Active; 'I' for Inactive)
REMARK    1  A    between atoms: C1_1  and  C7_7 
ROOT
HETATM    1  C2  UNL     1     -34.923   4.888   4.532  1.00 20.00     0.000 C 
HETATM    2  C3  UNL     1     -35.510   6.166   3.944  1.00 20.00     0.001 C 
HETATM    3  C4  UNL     1     -33.909   4.253   3.588  1.00 20.00     0.001 C 
HETATM    4  C5  UNL     1     -34.418   7.167   3.563  1.00 20.00     0.018 C 
HETATM    5  C6  UNL     1     -32.801   5.233   3.203  1.00 20.00     0.018 C 
HETATM    6  C7  UNL     1     -33.344   6.558   2.658  1.00 20.00     0.032 C 
HETATM    7  C8  UNL     1     -33.917   6.339   1.259  1.00 20.00     0.025 C 
ENDROOT
BRANCH   6   8
HETATM    8  C1  UNL     1     -32.212   7.554   2.404  1.00 20.00     0.227 C 
HETATM    9  O9  UNL     1     -31.594   7.571   1.343  1.00 20.00    -0.279 OA
HETATM   10 CL10 UNL     1     -31.942   8.599   3.764  1.00 20.00    -0.043 Cl
ENDBRANCH   6   8
TORSDOF 1
ENDMDL
MODEL 4
REMARK VINA RESULT:       0.7      2.682      3.870
REMARK  1 active torsions:
REMARK  status: ('A' for Active; 'I' for Inactive)
REMARK    1  A    between atoms: C1_1  and  C7_7 
ROOT
HETATM    1  C2  UNL     1     -34.854   4.877   4.421  1.00 20.00     0.000 C 
HETATM    2  C3  UNL     1     -35.480   6.186   3.954  1.00 20.00     0.001 C 
HETATM    3  C4  UNL     1     -33.825   4.362   3.422  1.00 20.00     0.001 C 
HETATM    4  C5  UNL     1     -34.418   7.250   3.668  1.00 20.00     0.018 C 
HETATM    5  C6  UNL     1     -32.747   5.406   3.130  1.00 20.00     0.018 C 
HETATM    6  C7  UNL     1     -33.329   6.759   2.710  1.00 20.00     0.032 C 
HETATM    7  C8  UNL     1     -33.900   6.654   1.297  1.00 20.00     0.025 C 
ENDROOT
BRANCH   6   8
HETATM    8  C1  UNL     1     -32.227   7.807   2.549  1.00 20.00     0.227 C 
HETATM    9  O9  UNL     1     -31.750   8.395   3.516  1.00 20.00    -0.279 OA
HETATM   10 CL10 UNL     1     -31.774   8.029   0.887  1.00 20.00    -0.043 Cl
ENDBRANCH   6   8
TORSDOF 1
ENDMDL
MODEL 5
REMARK VINA RESULT:       0.8      1.663      2.458
REMARK  1 active torsions:
REMARK  status: ('A' for Active; 'I' for Inactive)
REMARK    1  A    between atoms: C1_1  and  C7_7 
ROOT
HETATM    1  C2  UNL     1     -32.090   7.963   1.847  1.00 20.00     0.000 C 
HETATM    2  C3  UNL     1     -32.227   8.117   3.358  1.00 20.00     0.001 C 
HETATM    3  C4  UNL     1     -32.391   6.538   1.401  1.00 20.00     0.001 C 
HETATM    4  C5  UNL     1     -33.606   7.672   3.848  1.00 20.00     0.018 C 
HETATM    5  C6  UNL     1     -33.771   6.076   1.871  1.00 20.00     0.018 C 
HETATM    6  C7  UNL     1     -33.978   6.264   3.377  1.00 20.00     0.032 C 
HETATM    7  C8  UNL     1     -33.147   5.233   4.139  1.00 20.00     0.025 C 
ENDROOT
BRANCH   6   8
HETATM    8  C1  UNL     1     -35.408   5.908   3.784  1.00 20.00     0.227 C 
HETATM    9  O9  UNL     1     -35.645   5.031   4.610  1.00 20.00    -0.279 OA
HETATM   10 CL10 UNL     1     -36.585   6.875   2.949  1.00 20.00    -0.043 Cl
ENDBRANCH   6   8
TORSDOF 1
ENDMDL
MODEL 6
REMARK VINA RESULT:       1.0      1.370      2.290
REMARK  1 active torsions:
REMARK  status: ('A' for Active; 'I' for Inactive)
REMARK    1  A    between atoms: C1_1  and  C7_7 
ROOT
HETATM    1  C2  UNL     1     -31.909   7.841   1.642  1.00 20.00     0.000 C 
HETATM    2  C3  UNL     1     -32.043   8.084   3.141  1.00 20.00     0.001 C 
HETATM    3  C4  UNL     1     -32.303   6.417   1.269  1.00 20.00     0.001 C 
HETATM    4  C5  UNL     1     -33.452   7.760   3.642  1.00 20.00     0.018 C 
HETATM    5  C6  UNL     1     -33.714   6.076   1.750  1.00 20.00     0.018 C 
HETATM    6  C7  UNL     1     -33.916   6.357   3.243  1.00 20.00     0.032 C 
HETATM    7  C8  UNL     1     -33.161   5.315   4.066  1.00 20.00     0.025 C 
ENDROOT
BRANCH   6   8
HETATM    8  C1  UNL     1     -35.369   6.121   3.655  1.00 20.00     0.227 C 
HETATM    9  O9  UNL     1     -36.287   6.796   3.197  1.00 20.00    -0.279 OA
HETATM   10 CL10 UNL     1     -35.521   4.828   4.805  1.00 20.00    -0.043 Cl
ENDBRANCH   6   8
TORSDOF 1
ENDMDL
MODEL 7
REMARK VINA RESULT:       1.1      2.610      3.715
REMARK  1 active torsions:
REMARK  status: ('A' for Active; 'I' for Inactive)
REMARK    1  A    between atoms: C1_1  and  C7_7 
ROOT
HETATM    1  C2  UNL     1     -32.191   9.934  -0.311  1.00 20.00     0.000 C 
HETATM    2  C3  UNL     1     -32.806  10.440   0.990  1.00 20.00     0.001 C 
HETATM    3  C4  UNL     1     -31.192   8.812  -0.057  1.00 20.00     0.001 C 
HETATM    4  C5  UNL     1     -33.451   9.306   1.788  1.00 20.00     0.018 C 
HETATM    5  C6  UNL     1     -31.820   7.662   0.730  1.00 20.00     0.018 C 
HETATM    6  C7  UNL     1     -32.501   8.128   2.021  1.00 20.00     0.032 C 
HETATM    7  C8  UNL     1     -31.439   8.522   3.046  1.00 20.00     0.025 C 
ENDROOT
BRANCH   6   8
HETATM    8  C1  UNL     1     -33.221   6.970   2.712  1.00 20.00     0.227 C 
HETATM    9  O9  UNL     1     -33.123   5.815   2.306  1.00 20.00    -0.279 OA
HETATM   10 CL10 UNL     1     -34.147   7.500   4.083  1.00 20.00    -0.043 Cl
ENDBRANCH   6   8
TORSDOF 1
ENDMDL
MODEL 8
REMARK VINA RESULT:       1.3      2.542      3.273
REMARK  1 active torsions:
REMARK  status: ('A' for Active; 'I' for Inactive)
REMARK    1  A    between atoms: C1_1  and  C7_7 
ROOT
HETATM    1  C2  UNL     1     -33.355   7.906   3.907  1.00 20.00     0.000 C 
HETATM    2  C3  UNL     1     -32.670   8.393   2.635  1.00 20.00     0.001 C 
HETATM    3  C4  UNL     1     -34.337   6.777   3.615  1.00 20.00     0.001 C 
HETATM    4  C5  UNL     1     -31.979   7.248   1.891  1.00 20.00     0.018 C 
HETATM    5  C6  UNL     1     -33.665   5.617   2.882  1.00 20.00     0.018 C 
HETATM    6  C7  UNL     1     -32.913   6.065   1.624  1.00 20.00     0.032 C 
HETATM    7  C8  UNL     1     -33.917   6.440   0.536  1.00 20.00     0.025 C 
ENDROOT
BRANCH   6   8
HETATM    8  C1  UNL     1     -32.154   4.898   0.992  1.00 20.00     0.227 C 
HETATM    9  O9  UNL     1     -31.013   4.606   1.341  1.00 20.00    -0.279 OA
HETATM   10 CL10 UNL     1     -33.093   4.089  -0.225  1.00 20.00    -0.043 Cl
ENDBRANCH   6   8
TORSDOF 1
ENDMDL
MODEL 9
REMARK VINA RESULT:       1.3      2.412      3.650
REMARK  1 active torsions:
REMARK  status: ('A' for Active; 'I' for Inactive)
REMARK    1  A    between atoms: C1_1  and  C7_7 
ROOT
HETATM    1  C2  UNL     1     -35.505   4.995   4.299  1.00 20.00     0.000 C 
HETATM    2  C3  UNL     1     -34.038   4.653   4.535  1.00 20.00     0.001 C 
HETATM    3  C4  UNL     1     -35.700   6.488   4.065  1.00 20.00     0.001 C 
HETATM    4  C5  UNL     1     -33.152   5.145   3.389  1.00 20.00     0.018 C 
HETATM    5  C6  UNL     1     -34.831   6.999   2.915  1.00 20.00     0.018 C 
HETATM    6  C7  UNL     1     -33.353   6.630   3.078  1.00 20.00     0.032 C 
HETATM    7  C8  UNL     1     -32.736   7.475   4.191  1.00 20.00     0.025 C 
ENDROOT
BRANCH   6   8
HETATM    8  C1  UNL     1     -32.543   7.049   1.851  1.00 20.00     0.227 C 
HETATM    9  O9  UNL     1     -32.341   8.231   1.584  1.00 20.00    -0.279 OA
HETATM   10 CL10 UNL     1     -31.982   5.681   0.939  1.00 20.00    -0.043 Cl
ENDBRANCH   6   8
TORSDOF 1
ENDMDL
