MODEL 1
REMARK VINA RESULT:      -1.2      0.000      0.000
REMARK  2 active torsions:
REMARK  status: ('A' for Active; 'I' for Inactive)
REMARK    1  A    between atoms: C6_6  and  C7_7 
REMARK    2  A    between atoms: C6_6  and  C8_8 
ROOT
HETATM    1  C1  UNL     1     -34.232   4.994   4.019  1.00 20.00     0.068 C 
HETATM    2  C4  UNL     1     -36.009   6.572   3.463  1.00 20.00     0.031 C 
HETATM    3  C5  UNL     1     -33.931   7.372   4.594  1.00 20.00     0.031 C 
HETATM    4  C8  UNL     1     -34.480   6.380   3.559  1.00 20.00     0.042 C 
HETATM    5  N9  UNL     1     -34.049   3.907   4.382  1.00 20.00    -0.196 NA
ENDROOT
BRANCH   4   6
HETATM    6  C6  UNL     1     -33.872   6.611   2.147  1.00 20.00     0.027 C 
BRANCH   6   7
HETATM    7  C7  UNL     1     -32.336   6.537   1.983  1.00 20.00    -0.021 C 
HETATM    8  C2  UNL     1     -31.814   7.896   1.498  1.00 20.00     0.009 C 
HETATM    9  C3  UNL     1     -31.869   5.448   1.017  1.00 20.00     0.009 C 
ENDBRANCH   6   7
ENDBRANCH   4   6
TORSDOF 2
ENDMDL
MODEL 2
REMARK VINA RESULT:      -1.2      2.177      3.944
REMARK  2 active torsions:
REMARK  status: ('A' for Active; 'I' for Inactive)
REMARK    1  A    between atoms: C6_6  and  C7_7 
REMARK    2  A    between atoms: C6_6  and  C8_8 
ROOT
HETATM    1  C1  UNL     1     -32.163   7.397   1.510  1.00 20.00     0.068 C 
HETATM    2  C4  UNL     1     -33.792   5.859   0.544  1.00 20.00     0.031 C 
HETATM    3  C5  UNL     1     -31.552   5.021   1.264  1.00 20.00     0.031 C 
HETATM    4  C8  UNL     1     -32.676   6.011   1.600  1.00 20.00     0.042 C 
HETATM    5  N9  UNL     1     -31.766   8.484   1.430  1.00 20.00    -0.196 NA
ENDROOT
BRANCH   4   6
HETATM    6  C6  UNL     1     -33.295   5.740   3.001  1.00 20.00     0.027 C 
BRANCH   6   7
HETATM    7  C7  UNL     1     -34.454   6.643   3.483  1.00 20.00    -0.021 C 
HETATM    8  C2  UNL     1     -33.888   7.759   4.372  1.00 20.00     0.009 C 
HETATM    9  C3  UNL     1     -35.542   5.895   4.252  1.00 20.00     0.009 C 
ENDBRANCH   6   7
ENDBRANCH   4   6
TORSDOF 2
ENDMDL
MODEL 3
REMARK VINA RESULT:      -1.1      2.736      4.545
REMARK  2 active torsions:
REMARK  status: ('A' for Active; 'I' for Inactive)
REMARK    1  A    between atoms: C6_6  and  C7_7 
REMARK    2  A    between atoms: C6_6  and  C8_8 
ROOT
HETATM    1  C1  UNL     1     -32.348   9.037   0.753  1.00 20.00     0.068 C 
HETATM    2  C4  UNL     1     -31.985   6.672   1.233  1.00 20.00     0.031 C 
HETATM    3  C5  UNL     1     -31.202   8.412   2.845  1.00 20.00     0.031 C 
HETATM    4  C8  UNL     1     -32.316   8.046   1.854  1.00 20.00     0.042 C 
HETATM    5  N9  UNL     1     -32.369   9.806  -0.115  1.00 20.00    -0.196 NA
ENDROOT
BRANCH   4   6
HETATM    6  C6  UNL     1     -33.704   7.943   2.546  1.00 20.00     0.027 C 
BRANCH   6   7
HETATM    7  C7  UNL     1     -33.807   7.171   3.883  1.00 20.00    -0.021 C 
HETATM    8  C2  UNL     1     -35.115   6.369   3.903  1.00 20.00     0.009 C 
HETATM    9  C3  UNL     1     -33.750   8.067   5.120  1.00 20.00     0.009 C 
ENDBRANCH   6   7
ENDBRANCH   4   6
TORSDOF 2
ENDMDL
MODEL 4
REMARK VINA RESULT:      -0.6      1.729      4.019
REMARK  2 active torsions:
REMARK  status: ('A' for Active; 'I' for Inactive)
REMARK    1  A    between atoms: C6_6  and  C7_7 
REMARK    2  A    between atoms: C6_6  and  C8_8 
ROOT
HETATM    1  C1  UNL     1     -32.108   6.526   1.434  1.00 20.00     0.068 C 
HETATM    2  C4  UNL     1     -31.111   8.348   2.716  1.00 20.00     0.031 C 
HETATM    3  C5  UNL     1     -32.286   8.826   0.564  1.00 20.00     0.031 C 
HETATM    4  C8  UNL     1     -32.301   7.943   1.820  1.00 20.00     0.042 C 
HETATM    5  N9  UNL     1     -31.947   5.417   1.136  1.00 20.00    -0.196 NA
ENDROOT
BRANCH   4   6
HETATM    6  C6  UNL     1     -33.609   8.119   2.643  1.00 20.00     0.027 C 
BRANCH   6   7
HETATM    7  C7  UNL     1     -33.794   7.272   3.925  1.00 20.00    -0.021 C 
HETATM    8  C2  UNL     1     -35.115   6.498   3.831  1.00 20.00     0.009 C 
HETATM    9  C3  UNL     1     -33.785   8.092   5.214  1.00 20.00     0.009 C 
ENDBRANCH   6   7
ENDBRANCH   4   6
TORSDOF 2
ENDMDL
MODEL 5
REMARK VINA RESULT:      -0.5      1.474      2.060
REMARK  2 active torsions:
REMARK  status: ('A' for Active; 'I' for Inactive)
REMARK    1  A    between atoms: C6_6  and  C7_7 
REMARK    2  A    between atoms: C6_6  and  C8_8 
ROOT
HETATM    1  C1  UNL     1     -33.843   7.398   4.395  1.00 20.00     0.068 C 
HETATM    2  C4  UNL     1     -34.107   4.987   4.131  1.00 20.00     0.031 C 
HETATM    3  C5  UNL     1     -35.975   6.527   3.518  1.00 20.00     0.031 C 
HETATM    4  C8  UNL     1     -34.449   6.365   3.524  1.00 20.00     0.042 C 
HETATM    5  N9  UNL     1     -33.365   8.200   5.084  1.00 20.00    -0.196 NA
ENDROOT
BRANCH   4   6
HETATM    6  C6  UNL     1     -33.848   6.426   2.091  1.00 20.00     0.027 C 
BRANCH   6   7
HETATM    7  C7  UNL     1     -32.308   6.417   1.936  1.00 20.00    -0.021 C 
HETATM    8  C2  UNL     1     -31.843   7.800   1.460  1.00 20.00     0.009 C 
HETATM    9  C3  UNL     1     -31.791   5.354   0.967  1.00 20.00     0.009 C 
ENDBRANCH   6   7
ENDBRANCH   4   6
TORSDOF 2
ENDMDL
MODEL 6
REMARK VINA RESULT:       0.1      1.906      3.805
REMARK  2 active torsions:
REMARK  status: ('A' for Active; 'I' for Inactive)
REMARK    1  A    between atoms: C6_6  and  C7_7 
REMARK    2  A    between atoms: C6_6  and  C8_8 
ROOT
HETATM    1  C1  UNL     1     -33.626   5.725   0.526  1.00 20.00     0.068 C 
HETATM    2  C4  UNL     1     -31.464   5.016   1.406  1.00 20.00     0.031 C 
HETATM    3  C5  UNL     1     -32.090   7.434   1.417  1.00 20.00     0.031 C 
HETATM    4  C8  UNL     1     -32.633   6.008   1.587  1.00 20.00     0.042 C 
HETATM    5  N9  UNL     1     -34.398   5.496  -0.310  1.00 20.00    -0.196 NA
ENDROOT
BRANCH   4   6
HETATM    6  C6  UNL     1     -33.248   5.780   2.997  1.00 20.00     0.027 C 
BRANCH   6   7
HETATM    7  C7  UNL     1     -34.406   6.697   3.454  1.00 20.00    -0.021 C 
HETATM    8  C2  UNL     1     -33.847   7.800   4.363  1.00 20.00     0.009 C 
HETATM    9  C3  UNL     1     -35.525   5.961   4.191  1.00 20.00     0.009 C 
ENDBRANCH   6   7
ENDBRANCH   4   6
TORSDOF 2
ENDMDL
MODEL 7
REMARK VINA RESULT:       0.1      1.777      3.760
REMARK  2 active torsions:
REMARK  status: ('A' for Active; 'I' for Inactive)
REMARK    1  A    between atoms: C6_6  and  C7_7 
REMARK    2  A    between atoms: C6_6  and  C8_8 
ROOT
HETATM    1  C1  UNL     1     -31.821   5.182   1.143  1.00 20.00     0.068 C 
HETATM    2  C4  UNL     1     -31.967   7.575   1.599  1.00 20.00     0.031 C 
HETATM    3  C5  UNL     1     -33.905   6.372   0.580  1.00 20.00     0.031 C 
HETATM    4  C8  UNL     1     -32.752   6.245   1.586  1.00 20.00     0.042 C 
HETATM    5  N9  UNL     1     -31.084   4.357   0.794  1.00 20.00    -0.196 NA
ENDROOT
BRANCH   4   6
HETATM    6  C6  UNL     1     -33.262   5.970   3.029  1.00 20.00     0.027 C 
BRANCH   6   7
HETATM    7  C7  UNL     1     -34.450   6.803   3.564  1.00 20.00    -0.021 C 
HETATM    8  C2  UNL     1     -33.923   7.866   4.537  1.00 20.00     0.009 C 
HETATM    9  C3  UNL     1     -35.523   5.971   4.266  1.00 20.00     0.009 C 
ENDBRANCH   6   7
ENDBRANCH   4   6
TORSDOF 2
ENDMDL
MODEL 8
REMARK VINA RESULT:       0.1      1.704      3.322
REMARK  2 active torsions:
REMARK  status: ('A' for Active; 'I' for Inactive)
REMARK    1  A    between atoms: C6_6  and  C7_7 
REMARK    2  A    between atoms: C6_6  and  C8_8 
ROOT
HETATM    1  C1  UNL     1     -33.748   6.484   2.898  1.00 20.00     0.068 C 
HETATM    2  C4  UNL     1     -31.765   5.560   1.818  1.00 20.00     0.031 C 
HETATM    3  C5  UNL     1     -33.674   6.386   0.436  1.00 20.00     0.031 C 
HETATM    4  C8  UNL     1     -32.867   6.637   1.717  1.00 20.00     0.042 C 
HETATM    5  N9  UNL     1     -34.434   6.356   3.825  1.00 20.00    -0.196 NA
ENDROOT
BRANCH   4   6
HETATM    6  C6  UNL     1     -32.182   8.032   1.715  1.00 20.00     0.027 C 
BRANCH   6   7
HETATM    7  C7  UNL     1     -32.321   8.921   0.456  1.00 20.00    -0.021 C 
HETATM    8  C2  UNL     1     -31.001   8.894  -0.328  1.00 20.00     0.009 C 
HETATM    9  C3  UNL     1     -32.693  10.371   0.760  1.00 20.00     0.009 C 
ENDBRANCH   6   7
ENDBRANCH   4   6
TORSDOF 2
ENDMDL
MODEL 9
REMARK VINA RESULT:       0.2      0.971      1.520
REMARK  2 active torsions:
REMARK  status: ('A' for Active; 'I' for Inactive)
REMARK    1  A    between atoms: C6_6  and  C7_7 
REMARK    2  A    between atoms: C6_6  and  C8_8 
ROOT
HETATM    1  C1  UNL     1     -35.117   5.478   4.433  1.00 20.00     0.068 C 
HETATM    2  C4  UNL     1     -35.352   7.103   2.628  1.00 20.00     0.031 C 
HETATM    3  C5  UNL     1     -34.043   7.684   4.675  1.00 20.00     0.031 C 
HETATM    4  C8  UNL     1     -34.395   6.548   3.705  1.00 20.00     0.042 C 
HETATM    5  N9  UNL     1     -35.690   4.643   4.999  1.00 20.00    -0.196 NA
ENDROOT
BRANCH   4   6
HETATM    6  C6  UNL     1     -33.138   5.979   2.989  1.00 20.00     0.027 C 
BRANCH   6   7
HETATM    7  C7  UNL     1     -32.767   6.537   1.595  1.00 20.00    -0.021 C 
HETATM    8  C2  UNL     1     -32.028   5.454   0.798  1.00 20.00     0.009 C 
HETATM    9  C3  UNL     1     -31.904   7.798   1.643  1.00 20.00     0.009 C 
ENDBRANCH   6   7
ENDBRANCH   4   6
TORSDOF 2
ENDMDL
