MODEL 1
REMARK VINA RESULT:      -3.3      0.000      0.000
REMARK  4 active torsions:
REMARK  status: ('A' for Active; 'I' for Inactive)
REMARK    1  A    between atoms: C3_3  and  C4_4 
REMARK    2  A    between atoms: C4_4  and  C5_5 
REMARK    3  A    between atoms: C5_5  and  C6_6 
REMARK    4  A    between atoms: C6_6  and  C7_7 
ROOT
HETATM    1  C1  UNL     1     -32.220   9.000   0.905  1.00 20.00    -0.176 C 
HETATM    2  C2  UNL     1     -32.437   9.941   0.038  1.00 20.00     0.091 C 
HETATM    3  C3  UNL     1     -32.003   8.057   1.775  1.00 20.00     0.066 C 
ENDROOT
BRANCH   3   4
HETATM    4  C4  UNL     1     -32.133   6.589   1.497  1.00 20.00     0.017 C 
BRANCH   4   5
HETATM    5  C5  UNL     1     -33.263   5.965   2.317  1.00 20.00     0.002 C 
BRANCH   5   6
HETATM    6  C6  UNL     1     -33.838   6.965   3.322  1.00 20.00     0.015 C 
BRANCH   6   7
HETATM    7  C7  UNL     1     -35.088   6.411   3.993  1.00 20.00     0.114 C 
HETATM    8 CL8  UNL     1     -34.864   4.695   4.405  1.00 20.00    -0.130 Cl
ENDBRANCH   6   7
ENDBRANCH   5   6
ENDBRANCH   4   5
ENDBRANCH   3   4
TORSDOF 4
ENDMDL
MODEL 2
REMARK VINA RESULT:      -3.2      0.696      1.036
REMARK  4 active torsions:
REMARK  status: ('A' for Active; 'I' for Inactive)
REMARK    1  A    between atoms: C3_3  and  C4_4 
REMARK    2  A    between atoms: C4_4  and  C5_5 
REMARK    3  A    between atoms: C5_5  and  C6_6 
REMARK    4  A    between atoms: C6_6  and  C7_7 
ROOT
HETATM    1  C1  UNL     1     -32.253   8.888   0.996  1.00 20.00    -0.176 C 
HETATM    2  C2  UNL     1     -32.449   9.875   0.176  1.00 20.00     0.091 C 
HETATM    3  C3  UNL     1     -32.057   7.899   1.819  1.00 20.00     0.066 C 
ENDROOT
BRANCH   3   4
HETATM    4  C4  UNL     1     -33.062   6.830   2.129  1.00 20.00     0.017 C 
BRANCH   4   5
HETATM    5  C5  UNL     1     -33.612   6.977   3.548  1.00 20.00     0.002 C 
BRANCH   5   6
HETATM    6  C6  UNL     1     -35.077   6.542   3.624  1.00 20.00     0.015 C 
BRANCH   6   7
HETATM    7  C7  UNL     1     -35.235   5.300   4.492  1.00 20.00     0.114 C 
HETATM    8 CL8  UNL     1     -34.002   4.088   4.076  1.00 20.00    -0.130 Cl
ENDBRANCH   6   7
ENDBRANCH   5   6
ENDBRANCH   4   5
ENDBRANCH   3   4
TORSDOF 4
ENDMDL
MODEL 3
REMARK VINA RESULT:      -3.1      2.865      5.064
REMARK  4 active torsions:
REMARK  status: ('A' for Active; 'I' for Inactive)
REMARK    1  A    between atoms: C3_3  and  C4_4 
REMARK    2  A    between atoms: C4_4  and  C5_5 
REMARK    3  A    between atoms: C5_5  and  C6_6 
REMARK    4  A    between atoms: C6_6  and  C7_7 
ROOT
HETATM    1  C1  UNL     1     -34.245   4.284   4.348  1.00 20.00    -0.176 C 
HETATM    2  C2  UNL     1     -33.472   3.254   4.509  1.00 20.00     0.091 C 
HETATM    3  C3  UNL     1     -35.020   5.316   4.187  1.00 20.00     0.066 C 
ENDROOT
BRANCH   3   4
HETATM    4  C4  UNL     1     -34.551   6.688   3.803  1.00 20.00     0.017 C 
BRANCH   4   5
HETATM    5  C5  UNL     1     -33.464   6.624   2.729  1.00 20.00     0.002 C 
BRANCH   5   6
HETATM    6  C6  UNL     1     -32.622   7.901   2.714  1.00 20.00     0.015 C 
BRANCH   6   7
HETATM    7  C7  UNL     1     -31.878   8.053   1.394  1.00 20.00     0.114 C 
HETATM    8 CL8  UNL     1     -32.383   9.542   0.563  1.00 20.00    -0.130 Cl
ENDBRANCH   6   7
ENDBRANCH   5   6
ENDBRANCH   4   5
ENDBRANCH   3   4
TORSDOF 4
ENDMDL
MODEL 4
REMARK VINA RESULT:      -2.9      1.254      1.294
REMARK  4 active torsions:
REMARK  status: ('A' for Active; 'I' for Inactive)
REMARK    1  A    between atoms: C3_3  and  C4_4 
REMARK    2  A    between atoms: C4_4  and  C5_5 
REMARK    3  A    between atoms: C5_5  and  C6_6 
REMARK    4  A    between atoms: C6_6  and  C7_7 
ROOT
HETATM    1  C1  UNL     1     -32.262   9.040   0.912  1.00 20.00    -0.176 C 
HETATM    2  C2  UNL     1     -32.527   9.952   0.028  1.00 20.00     0.091 C 
HETATM    3  C3  UNL     1     -31.997   8.126   1.799  1.00 20.00     0.066 C 
ENDROOT
BRANCH   3   4
HETATM    4  C4  UNL     1     -31.922   6.655   1.518  1.00 20.00     0.017 C 
BRANCH   4   5
HETATM    5  C5  UNL     1     -33.291   5.989   1.670  1.00 20.00     0.002 C 
BRANCH   5   6
HETATM    6  C6  UNL     1     -33.556   5.591   3.123  1.00 20.00     0.015 C 
BRANCH   6   7
HETATM    7  C7  UNL     1     -34.689   6.415   3.719  1.00 20.00     0.114 C 
HETATM    8 CL8  UNL     1     -34.044   7.853   4.545  1.00 20.00    -0.130 Cl
ENDBRANCH   6   7
ENDBRANCH   5   6
ENDBRANCH   4   5
ENDBRANCH   3   4
TORSDOF 4
ENDMDL
MODEL 5
REMARK VINA RESULT:      -2.9      1.981      2.824
REMARK  4 active torsions:
REMARK  status: ('A' for Active; 'I' for Inactive)
REMARK    1  A    between atoms: C3_3  and  C4_4 
REMARK    2  A    between atoms: C4_4  and  C5_5 
REMARK    3  A    between atoms: C5_5  and  C6_6 
REMARK    4  A    between atoms: C6_6  and  C7_7 
ROOT
HETATM    1  C1  UNL     1     -32.785   6.774   2.059  1.00 20.00    -0.176 C 
HETATM    2  C2  UNL     1     -32.300   5.894   1.238  1.00 20.00     0.091 C 
HETATM    3  C3  UNL     1     -33.271   7.657   2.881  1.00 20.00     0.066 C 
ENDROOT
BRANCH   3   4
HETATM    4  C4  UNL     1     -34.104   7.338   4.087  1.00 20.00     0.017 C 
BRANCH   4   5
HETATM    5  C5  UNL     1     -35.176   6.297   3.763  1.00 20.00     0.002 C 
BRANCH   5   6
HETATM    6  C6  UNL     1     -34.958   5.009   4.560  1.00 20.00     0.015 C 
BRANCH   6   7
HETATM    7  C7  UNL     1     -34.014   4.064   3.828  1.00 20.00     0.114 C 
HETATM    8 CL8  UNL     1     -33.151   3.027   4.986  1.00 20.00    -0.130 Cl
ENDBRANCH   6   7
ENDBRANCH   5   6
ENDBRANCH   4   5
ENDBRANCH   3   4
TORSDOF 4
ENDMDL
MODEL 6
REMARK VINA RESULT:      -2.9      2.081      4.647
REMARK  4 active torsions:
REMARK  status: ('A' for Active; 'I' for Inactive)
REMARK    1  A    between atoms: C3_3  and  C4_4 
REMARK    2  A    between atoms: C4_4  and  C5_5 
REMARK    3  A    between atoms: C5_5  and  C6_6 
REMARK    4  A    between atoms: C6_6  and  C7_7 
ROOT
HETATM    1  C1  UNL     1     -34.364   4.390   4.347  1.00 20.00    -0.176 C 
HETATM    2  C2  UNL     1     -33.518   3.407   4.310  1.00 20.00     0.091 C 
HETATM    3  C3  UNL     1     -35.213   5.376   4.386  1.00 20.00     0.066 C 
ENDROOT
BRANCH   3   4
HETATM    4  C4  UNL     1     -35.019   6.700   3.710  1.00 20.00     0.017 C 
BRANCH   4   5
HETATM    5  C5  UNL     1     -33.576   7.189   3.848  1.00 20.00     0.002 C 
BRANCH   5   6
HETATM    6  C6  UNL     1     -33.149   8.009   2.629  1.00 20.00     0.015 C 
BRANCH   6   7
HETATM    7  C7  UNL     1     -32.063   7.290   1.838  1.00 20.00     0.114 C 
HETATM    8 CL8  UNL     1     -32.574   5.632   1.446  1.00 20.00    -0.130 Cl
ENDBRANCH   6   7
ENDBRANCH   5   6
ENDBRANCH   4   5
ENDBRANCH   3   4
TORSDOF 4
ENDMDL
MODEL 7
REMARK VINA RESULT:      -2.9      2.914      5.082
REMARK  4 active torsions:
REMARK  status: ('A' for Active; 'I' for Inactive)
REMARK    1  A    between atoms: C3_3  and  C4_4 
REMARK    2  A    between atoms: C4_4  and  C5_5 
REMARK    3  A    between atoms: C5_5  and  C6_6 
REMARK    4  A    between atoms: C6_6  and  C7_7 
ROOT
HETATM    1  C1  UNL     1     -33.748   3.814   4.284  1.00 20.00    -0.176 C 
HETATM    2  C2  UNL     1     -33.227   2.834   4.957  1.00 20.00     0.091 C 
HETATM    3  C3  UNL     1     -34.271   4.796   3.609  1.00 20.00     0.066 C 
ENDROOT
BRANCH   3   4
HETATM    4  C4  UNL     1     -34.944   5.990   4.216  1.00 20.00     0.017 C 
BRANCH   4   5
HETATM    5  C5  UNL     1     -34.228   7.287   3.835  1.00 20.00     0.002 C 
BRANCH   5   6
HETATM    6  C6  UNL     1     -33.419   7.116   2.547  1.00 20.00     0.015 C 
BRANCH   6   7
HETATM    7  C7  UNL     1     -32.245   8.085   2.505  1.00 20.00     0.114 C 
HETATM    8 CL8  UNL     1     -32.093   8.809   0.887  1.00 20.00    -0.130 Cl
ENDBRANCH   6   7
ENDBRANCH   5   6
ENDBRANCH   4   5
ENDBRANCH   3   4
TORSDOF 4
ENDMDL
MODEL 8
REMARK VINA RESULT:      -2.9      2.529      4.894
REMARK  4 active torsions:
REMARK  status: ('A' for Active; 'I' for Inactive)
REMARK    1  A    between atoms: C3_3  and  C4_4 
REMARK    2  A    between atoms: C4_4  and  C5_5 
REMARK    3  A    between atoms: C5_5  and  C6_6 
REMARK    4  A    between atoms: C6_6  and  C7_7 
ROOT
HETATM    1  C1  UNL     1     -33.657   3.639   4.406  1.00 20.00    -0.176 C 
HETATM    2  C2  UNL     1     -32.979   2.757   5.074  1.00 20.00     0.091 C 
HETATM    3  C3  UNL     1     -34.336   4.524   3.736  1.00 20.00     0.066 C 
ENDROOT
BRANCH   3   4
HETATM    4  C4  UNL     1     -35.138   5.633   4.349  1.00 20.00     0.017 C 
BRANCH   4   5
HETATM    5  C5  UNL     1     -34.889   6.962   3.634  1.00 20.00     0.002 C 
BRANCH   5   6
HETATM    6  C6  UNL     1     -33.434   7.412   3.790  1.00 20.00     0.015 C 
BRANCH   6   7
HETATM    7  C7  UNL     1     -32.810   7.728   2.437  1.00 20.00     0.114 C 
HETATM    8 CL8  UNL     1     -32.546   6.233   1.510  1.00 20.00    -0.130 Cl
ENDBRANCH   6   7
ENDBRANCH   5   6
ENDBRANCH   4   5
ENDBRANCH   3   4
TORSDOF 4
ENDMDL
MODEL 9
REMARK VINA RESULT:      -2.8      0.804      1.273
REMARK  4 active torsions:
REMARK  status: ('A' for Active; 'I' for Inactive)
REMARK    1  A    between atoms: C3_3  and  C4_4 
REMARK    2  A    between atoms: C4_4  and  C5_5 
REMARK    3  A    between atoms: C5_5  and  C6_6 
REMARK    4  A    between atoms: C6_6  and  C7_7 
ROOT
HETATM    1  C1  UNL     1     -32.282   9.643   0.327  1.00 20.00    -0.176 C 
HETATM    2  C2  UNL     1     -32.908  10.701  -0.090  1.00 20.00     0.091 C 
HETATM    3  C3  UNL     1     -31.654   8.583   0.745  1.00 20.00     0.066 C 
ENDROOT
BRANCH   3   4
HETATM    4  C4  UNL     1     -32.032   7.786   1.957  1.00 20.00     0.017 C 
BRANCH   4   5
HETATM    5  C5  UNL     1     -32.258   6.314   1.607  1.00 20.00     0.002 C 
BRANCH   5   6
HETATM    6  C6  UNL     1     -33.480   5.751   2.336  1.00 20.00     0.015 C 
BRANCH   6   7
HETATM    7  C7  UNL     1     -33.975   6.718   3.404  1.00 20.00     0.114 C 
HETATM    8 CL8  UNL     1     -35.459   6.099   4.164  1.00 20.00    -0.130 Cl
ENDBRANCH   6   7
ENDBRANCH   5   6
ENDBRANCH   4   5
ENDBRANCH   3   4
TORSDOF 4
ENDMDL
