MODEL 1
REMARK VINA RESULT:      -2.2      0.000      0.000
REMARK  0 active torsions:
REMARK  status: ('A' for Active; 'I' for Inactive)
ROOT
HETATM    1  C1  UNL     1     -33.095   6.053   3.238  1.00 20.00     0.288 C 
HETATM    2  C2  UNL     1     -33.242   7.589   3.321  1.00 20.00     0.288 C 
HETATM    3  C3  UNL     1     -32.761   6.232   1.739  1.00 20.00     0.343 C 
HETATM    4  C4  UNL     1     -32.331   7.682   2.076  1.00 20.00     0.343 C 
HETATM    5  F5  UNL     1     -34.208   5.337   3.512  1.00 20.00    -0.240 F 
HETATM    6  F6  UNL     1     -34.502   8.058   3.151  1.00 20.00    -0.240 F 
HETATM    7  F7  UNL     1     -33.814   6.125   0.896  1.00 20.00    -0.196 F 
HETATM    8  F8  UNL     1     -31.788   5.430   1.253  1.00 20.00    -0.196 F 
HETATM    9  F9  UNL     1     -32.673   8.620   1.167  1.00 20.00    -0.196 F 
HETATM   10  F10 UNL     1     -31.013   7.847   2.334  1.00 20.00    -0.196 F 
ENDROOT
TORSDOF 0
ENDMDL
MODEL 2
REMARK VINA RESULT:      -1.8      1.049      2.359
REMARK  0 active torsions:
REMARK  status: ('A' for Active; 'I' for Inactive)
ROOT
HETATM    1  C1  UNL     1     -32.940   7.233   3.798  1.00 20.00     0.288 C 
HETATM    2  C2  UNL     1     -32.525   7.630   2.364  1.00 20.00     0.288 C 
HETATM    3  C3  UNL     1     -33.913   6.212   3.164  1.00 20.00     0.343 C 
HETATM    4  C4  UNL     1     -33.012   6.236   1.904  1.00 20.00     0.343 C 
HETATM    5  F5  UNL     1     -33.511   8.209   4.539  1.00 20.00    -0.240 F 
HETATM    6  F6  UNL     1     -33.200   8.680   1.837  1.00 20.00    -0.240 F 
HETATM    7  F7  UNL     1     -35.176   6.657   2.977  1.00 20.00    -0.196 F 
HETATM    8  F8  UNL     1     -34.007   5.020   3.794  1.00 20.00    -0.196 F 
HETATM    9  F9  UNL     1     -33.661   6.202   0.720  1.00 20.00    -0.196 F 
HETATM   10  F10 UNL     1     -32.059   5.276   1.858  1.00 20.00    -0.196 F 
ENDROOT
TORSDOF 0
ENDMDL
MODEL 3
REMARK VINA RESULT:      -1.7      0.745      2.743
REMARK  0 active torsions:
REMARK  status: ('A' for Active; 'I' for Inactive)
ROOT
HETATM    1  C1  UNL     1     -33.943   7.367   3.030  1.00 20.00     0.288 C 
HETATM    2  C2  UNL     1     -33.768   5.844   2.837  1.00 20.00     0.288 C 
HETATM    3  C3  UNL     1     -32.647   7.554   2.206  1.00 20.00     0.343 C 
HETATM    4  C4  UNL     1     -32.922   6.163   1.582  1.00 20.00     0.343 C 
HETATM    5  F5  UNL     1     -33.898   7.810   4.305  1.00 20.00    -0.240 F 
HETATM    6  F6  UNL     1     -33.106   5.208   3.833  1.00 20.00    -0.240 F 
HETATM    7  F7  UNL     1     -31.510   7.645   2.932  1.00 20.00    -0.196 F 
HETATM    8  F8  UNL     1     -32.644   8.593   1.342  1.00 20.00    -0.196 F 
HETATM    9  F9  UNL     1     -31.836   5.382   1.393  1.00 20.00    -0.196 F 
HETATM   10  F10 UNL     1     -33.603   6.179   0.413  1.00 20.00    -0.196 F 
ENDROOT
TORSDOF 0
ENDMDL
MODEL 4
REMARK VINA RESULT:      -1.6      1.440      2.972
REMARK  0 active torsions:
REMARK  status: ('A' for Active; 'I' for Inactive)
ROOT
HETATM    1  C1  UNL     1     -33.845   7.221   4.461  1.00 20.00     0.288 C 
HETATM    2  C2  UNL     1     -32.953   7.202   3.200  1.00 20.00     0.288 C 
HETATM    3  C3  UNL     1     -34.852   6.342   3.680  1.00 20.00     0.343 C 
HETATM    4  C4  UNL     1     -33.668   5.894   2.788  1.00 20.00     0.343 C 
HETATM    5  F5  UNL     1     -34.299   8.434   4.846  1.00 20.00    -0.240 F 
HETATM    6  F6  UNL     1     -33.127   8.245   2.353  1.00 20.00    -0.240 F 
HETATM    7  F7  UNL     1     -35.832   7.018   3.039  1.00 20.00    -0.196 F 
HETATM    8  F8  UNL     1     -35.452   5.363   4.392  1.00 20.00    -0.196 F 
HETATM    9  F9  UNL     1     -33.943   5.765   1.472  1.00 20.00    -0.196 F 
HETATM   10  F10 UNL     1     -33.053   4.752   3.176  1.00 20.00    -0.196 F 
ENDROOT
TORSDOF 0
ENDMDL
MODEL 5
REMARK VINA RESULT:      -1.5      1.251      2.984
REMARK  0 active torsions:
REMARK  status: ('A' for Active; 'I' for Inactive)
ROOT
HETATM    1  C1  UNL     1     -33.064   7.817   2.290  1.00 20.00     0.288 C 
HETATM    2  C2  UNL     1     -33.584   7.719   3.741  1.00 20.00     0.288 C 
HETATM    3  C3  UNL     1     -33.273   6.288   2.182  1.00 20.00     0.343 C 
HETATM    4  C4  UNL     1     -34.305   6.415   3.329  1.00 20.00     0.343 C 
HETATM    5  F5  UNL     1     -31.791   8.248   2.146  1.00 20.00    -0.240 F 
HETATM    6  F6  UNL     1     -32.626   7.574   4.689  1.00 20.00    -0.240 F 
HETATM    7  F7  UNL     1     -32.185   5.535   2.466  1.00 20.00    -0.196 F 
HETATM    8  F8  UNL     1     -33.759   5.843   1.002  1.00 20.00    -0.196 F 
HETATM    9  F9  UNL     1     -34.288   5.421   4.244  1.00 20.00    -0.196 F 
HETATM   10  F10 UNL     1     -35.591   6.564   2.935  1.00 20.00    -0.196 F 
ENDROOT
TORSDOF 0
ENDMDL
MODEL 6
REMARK VINA RESULT:      -1.4      1.102      2.927
REMARK  0 active torsions:
REMARK  status: ('A' for Active; 'I' for Inactive)
ROOT
HETATM    1  C1  UNL     1     -33.681   6.513   1.861  1.00 20.00     0.288 C 
HETATM    2  C2  UNL     1     -32.789   7.684   2.330  1.00 20.00     0.288 C 
HETATM    3  C3  UNL     1     -33.935   6.195   3.353  1.00 20.00     0.343 C 
HETATM    4  C4  UNL     1     -33.578   7.671   3.660  1.00 20.00     0.343 C 
HETATM    5  F5  UNL     1     -33.061   5.546   1.150  1.00 20.00    -0.240 F 
HETATM    6  F6  UNL     1     -31.469   7.397   2.439  1.00 20.00    -0.240 F 
HETATM    7  F7  UNL     1     -33.105   5.276   3.897  1.00 20.00    -0.196 F 
HETATM    8  F8  UNL     1     -35.195   5.820   3.668  1.00 20.00    -0.196 F 
HETATM    9  F9  UNL     1     -32.847   7.875   4.777  1.00 20.00    -0.196 F 
HETATM   10  F10 UNL     1     -34.630   8.520   3.717  1.00 20.00    -0.196 F 
ENDROOT
TORSDOF 0
ENDMDL
MODEL 7
REMARK VINA RESULT:      -1.3      1.245      2.389
REMARK  0 active torsions:
REMARK  status: ('A' for Active; 'I' for Inactive)
ROOT
HETATM    1  C1  UNL     1     -32.892   6.206   2.661  1.00 20.00     0.288 C 
HETATM    2  C2  UNL     1     -34.163   6.421   3.513  1.00 20.00     0.288 C 
HETATM    3  C3  UNL     1     -32.750   7.745   2.603  1.00 20.00     0.343 C 
HETATM    4  C4  UNL     1     -33.593   7.806   3.901  1.00 20.00     0.343 C 
HETATM    5  F5  UNL     1     -33.075   5.587   1.474  1.00 20.00    -0.240 F 
HETATM    6  F6  UNL     1     -35.326   6.450   2.819  1.00 20.00    -0.240 F 
HETATM    7  F7  UNL     1     -33.311   8.336   1.523  1.00 20.00    -0.196 F 
HETATM    8  F8  UNL     1     -31.489   8.222   2.700  1.00 20.00    -0.196 F 
HETATM    9  F9  UNL     1     -34.491   8.812   3.968  1.00 20.00    -0.196 F 
HETATM   10  F10 UNL     1     -32.880   7.836   5.051  1.00 20.00    -0.196 F 
ENDROOT
TORSDOF 0
ENDMDL
MODEL 8
REMARK VINA RESULT:      -1.2      1.205      3.471
REMARK  0 active torsions:
REMARK  status: ('A' for Active; 'I' for Inactive)
ROOT
HETATM    1  C1  UNL     1     -32.566   7.293   3.084  1.00 20.00     0.288 C 
HETATM    2  C2  UNL     1     -33.409   6.222   2.357  1.00 20.00     0.288 C 
HETATM    3  C3  UNL     1     -33.858   7.709   3.828  1.00 20.00     0.343 C 
HETATM    4  C4  UNL     1     -34.402   6.288   3.541  1.00 20.00     0.343 C 
HETATM    5  F5  UNL     1     -32.009   8.240   2.298  1.00 20.00    -0.240 F 
HETATM    6  F6  UNL     1     -33.915   6.600   1.158  1.00 20.00    -0.240 F 
HETATM    7  F7  UNL     1     -34.553   8.719   3.256  1.00 20.00    -0.196 F 
HETATM    8  F8  UNL     1     -33.708   8.027   5.133  1.00 20.00    -0.196 F 
HETATM    9  F9  UNL     1     -35.710   6.218   3.214  1.00 20.00    -0.196 F 
HETATM   10  F10 UNL     1     -34.193   5.381   4.523  1.00 20.00    -0.196 F 
ENDROOT
TORSDOF 0
ENDMDL
MODEL 9
REMARK VINA RESULT:      -1.0      0.957      2.671
REMARK  0 active torsions:
REMARK  status: ('A' for Active; 'I' for Inactive)
ROOT
HETATM    1  C1  UNL     1     -33.894   6.255   2.595  1.00 20.00     0.288 C 
HETATM    2  C2  UNL     1     -32.629   6.181   1.711  1.00 20.00     0.288 C 
HETATM    3  C3  UNL     1     -33.293   7.529   3.234  1.00 20.00     0.343 C 
HETATM    4  C4  UNL     1     -32.452   7.699   1.944  1.00 20.00     0.343 C 
HETATM    5  F5  UNL     1     -34.091   5.214   3.433  1.00 20.00    -0.240 F 
HETATM    6  F6  UNL     1     -31.631   5.403   2.196  1.00 20.00    -0.240 F 
HETATM    7  F7  UNL     1     -32.578   7.326   4.364  1.00 20.00    -0.196 F 
HETATM    8  F8  UNL     1     -34.169   8.524   3.498  1.00 20.00    -0.196 F 
HETATM    9  F9  UNL     1     -31.182   8.121   2.125  1.00 20.00    -0.196 F 
HETATM   10  F10 UNL     1     -33.001   8.497   0.999  1.00 20.00    -0.196 F 
ENDROOT
TORSDOF 0
ENDMDL
