MODEL 1
REMARK VINA RESULT:      -3.1      0.000      0.000
REMARK  1 active torsions:
REMARK  status: ('A' for Active; 'I' for Inactive)
REMARK    1  A    between atoms: C2_2  and  C3_3 
ROOT
HETATM    1  C3  UNL     1     -33.013   6.958   2.486  1.00 20.00     0.101 C 
HETATM    2  C4  UNL     1     -33.887   6.933   3.503  1.00 20.00     0.288 C 
HETATM    3  F5  UNL     1     -34.635   5.832   3.740  1.00 20.00    -0.171 F 
HETATM    4  F6  UNL     1     -34.036   8.008   4.308  1.00 20.00    -0.171 F 
HETATM    5 CL7  UNL     1     -32.865   5.545   1.487  1.00 20.00    -0.079 Cl
ENDROOT
BRANCH   1   6
HETATM    6  C2  UNL     1     -32.194   8.123   2.204  1.00 20.00     0.019 C 
HETATM    7  C1  UNL     1     -32.137   8.816   1.059  1.00 20.00     0.013 C 
ENDBRANCH   1   6
TORSDOF 1
ENDMDL
MODEL 2
REMARK VINA RESULT:      -2.9      1.662      2.360
REMARK  1 active torsions:
REMARK  status: ('A' for Active; 'I' for Inactive)
REMARK    1  A    between atoms: C2_2  and  C3_3 
ROOT
HETATM    1  C3  UNL     1     -33.260   6.882   2.661  1.00 20.00     0.101 C 
HETATM    2  C4  UNL     1     -34.125   6.941   3.684  1.00 20.00     0.288 C 
HETATM    3  F5  UNL     1     -34.163   8.024   4.491  1.00 20.00    -0.171 F 
HETATM    4  F6  UNL     1     -34.973   5.917   3.927  1.00 20.00    -0.171 F 
HETATM    5 CL7  UNL     1     -32.196   8.230   2.398  1.00 20.00    -0.079 Cl
ENDROOT
BRANCH   1   6
HETATM    6  C2  UNL     1     -33.192   5.734   1.775  1.00 20.00     0.019 C 
HETATM    7  C1  UNL     1     -32.121   5.290   1.102  1.00 20.00     0.013 C 
ENDBRANCH   1   6
TORSDOF 1
ENDMDL
MODEL 3
REMARK VINA RESULT:      -2.8      2.564      3.789
REMARK  1 active torsions:
REMARK  status: ('A' for Active; 'I' for Inactive)
REMARK    1  A    between atoms: C2_2  and  C3_3 
ROOT
HETATM    1  C3  UNL     1     -33.831   6.234   3.300  1.00 20.00     0.101 C 
HETATM    2  C4  UNL     1     -33.047   6.336   2.216  1.00 20.00     0.288 C 
HETATM    3  F5  UNL     1     -32.507   7.526   1.868  1.00 20.00    -0.171 F 
HETATM    4  F6  UNL     1     -32.785   5.253   1.452  1.00 20.00    -0.171 F 
HETATM    5 CL7  UNL     1     -34.131   7.662   4.243  1.00 20.00    -0.079 Cl
ENDROOT
BRANCH   1   6
HETATM    6  C2  UNL     1     -34.426   4.972   3.703  1.00 20.00     0.019 C 
HETATM    7  C1  UNL     1     -33.801   3.913   4.233  1.00 20.00     0.013 C 
ENDBRANCH   1   6
TORSDOF 1
ENDMDL
MODEL 4
REMARK VINA RESULT:      -2.7      2.066      2.386
REMARK  1 active torsions:
REMARK  status: ('A' for Active; 'I' for Inactive)
REMARK    1  A    between atoms: C2_2  and  C3_3 
ROOT
HETATM    1  C3  UNL     1     -32.775   7.154   2.420  1.00 20.00     0.101 C 
HETATM    2  C4  UNL     1     -32.747   5.863   2.056  1.00 20.00     0.288 C 
HETATM    3  F5  UNL     1     -33.535   4.956   2.675  1.00 20.00    -0.171 F 
HETATM    4  F6  UNL     1     -31.927   5.446   1.066  1.00 20.00    -0.171 F 
HETATM    5 CL7  UNL     1     -33.850   7.629   3.699  1.00 20.00    -0.079 Cl
ENDROOT
BRANCH   1   6
HETATM    6  C2  UNL     1     -31.942   8.154   1.776  1.00 20.00     0.019 C 
HETATM    7  C1  UNL     1     -32.309   9.029   0.830  1.00 20.00     0.013 C 
ENDBRANCH   1   6
TORSDOF 1
ENDMDL
MODEL 5
REMARK VINA RESULT:      -2.7      2.208      3.111
REMARK  1 active torsions:
REMARK  status: ('A' for Active; 'I' for Inactive)
REMARK    1  A    between atoms: C2_2  and  C3_3 
ROOT
HETATM    1  C3  UNL     1     -33.015   6.971   2.540  1.00 20.00     0.101 C 
HETATM    2  C4  UNL     1     -32.775   5.707   2.161  1.00 20.00     0.288 C 
HETATM    3  F5  UNL     1     -31.919   5.443   1.149  1.00 20.00    -0.171 F 
HETATM    4  F6  UNL     1     -33.387   4.675   2.783  1.00 20.00    -0.171 F 
HETATM    5 CL7  UNL     1     -32.197   8.255   1.702  1.00 20.00    -0.079 Cl
ENDROOT
BRANCH   1   6
HETATM    6  C2  UNL     1     -33.928   7.291   3.622  1.00 20.00     0.019 C 
HETATM    7  C1  UNL     1     -35.061   6.652   3.942  1.00 20.00     0.013 C 
ENDBRANCH   1   6
TORSDOF 1
ENDMDL
MODEL 6
REMARK VINA RESULT:      -2.7      2.436      2.864
REMARK  1 active torsions:
REMARK  status: ('A' for Active; 'I' for Inactive)
REMARK    1  A    between atoms: C2_2  and  C3_3 
ROOT
HETATM    1  C3  UNL     1     -33.694   6.053   3.110  1.00 20.00     0.101 C 
HETATM    2  C4  UNL     1     -32.899   6.225   2.044  1.00 20.00     0.288 C 
HETATM    3  F5  UNL     1     -32.341   5.162   1.423  1.00 20.00    -0.171 F 
HETATM    4  F6  UNL     1     -32.640   7.465   1.572  1.00 20.00    -0.171 F 
HETATM    5 CL7  UNL     1     -33.990   4.435   3.669  1.00 20.00    -0.079 Cl
ENDROOT
BRANCH   1   6
HETATM    6  C2  UNL     1     -34.309   7.172   3.801  1.00 20.00     0.019 C 
HETATM    7  C1  UNL     1     -33.722   8.015   4.661  1.00 20.00     0.013 C 
ENDBRANCH   1   6
TORSDOF 1
ENDMDL
MODEL 7
REMARK VINA RESULT:      -2.7      1.723      3.090
REMARK  1 active torsions:
REMARK  status: ('A' for Active; 'I' for Inactive)
REMARK    1  A    between atoms: C2_2  and  C3_3 
ROOT
HETATM    1  C3  UNL     1     -33.663   6.029   3.072  1.00 20.00     0.101 C 
HETATM    2  C4  UNL     1     -33.632   7.314   3.455  1.00 20.00     0.288 C 
HETATM    3  F5  UNL     1     -32.958   8.233   2.729  1.00 20.00    -0.171 F 
HETATM    4  F6  UNL     1     -34.274   7.713   4.576  1.00 20.00    -0.171 F 
HETATM    5 CL7  UNL     1     -32.819   5.578   1.622  1.00 20.00    -0.079 Cl
ENDROOT
BRANCH   1   6
HETATM    6  C2  UNL     1     -34.377   5.017   3.828  1.00 20.00     0.019 C 
HETATM    7  C1  UNL     1     -33.901   3.843   4.263  1.00 20.00     0.013 C 
ENDBRANCH   1   6
TORSDOF 1
ENDMDL
MODEL 8
REMARK VINA RESULT:      -2.6      1.982      2.996
REMARK  1 active torsions:
REMARK  status: ('A' for Active; 'I' for Inactive)
REMARK    1  A    between atoms: C2_2  and  C3_3 
ROOT
HETATM    1  C3  UNL     1     -33.021   6.962   2.489  1.00 20.00     0.101 C 
HETATM    2  C4  UNL     1     -32.044   7.846   2.235  1.00 20.00     0.288 C 
HETATM    3  F5  UNL     1     -31.224   7.678   1.174  1.00 20.00    -0.171 F 
HETATM    4  F6  UNL     1     -31.862   8.918   3.036  1.00 20.00    -0.171 F 
HETATM    5 CL7  UNL     1     -33.206   5.603   1.423  1.00 20.00    -0.079 Cl
ENDROOT
BRANCH   1   6
HETATM    6  C2  UNL     1     -33.919   7.112   3.620  1.00 20.00     0.019 C 
HETATM    7  C1  UNL     1     -35.037   6.415   3.866  1.00 20.00     0.013 C 
ENDBRANCH   1   6
TORSDOF 1
ENDMDL
MODEL 9
REMARK VINA RESULT:      -2.5      2.494      2.798
REMARK  1 active torsions:
REMARK  status: ('A' for Active; 'I' for Inactive)
REMARK    1  A    between atoms: C2_2  and  C3_3 
ROOT
HETATM    1  C3  UNL     1     -34.022   5.621   3.353  1.00 20.00     0.101 C 
HETATM    2  C4  UNL     1     -34.357   4.505   4.018  1.00 20.00     0.288 C 
HETATM    3  F5  UNL     1     -33.812   3.315   3.683  1.00 20.00    -0.171 F 
HETATM    4  F6  UNL     1     -35.246   4.552   5.035  1.00 20.00    -0.171 F 
HETATM    5 CL7  UNL     1     -32.873   5.497   2.055  1.00 20.00    -0.079 Cl
ENDROOT
BRANCH   1   6
HETATM    6  C2  UNL     1     -34.587   6.916   3.686  1.00 20.00     0.019 C 
HETATM    7  C1  UNL     1     -33.956   7.956   4.247  1.00 20.00     0.013 C 
ENDBRANCH   1   6
TORSDOF 1
ENDMDL
