MODEL 1
REMARK VINA RESULT:      -0.6      0.000      0.000
REMARK  1 active torsions:
REMARK  status: ('A' for Active; 'I' for Inactive)
REMARK    1  A    between atoms: C3_3  and  C5_5 
ROOT
HETATM    1  C1  UNL     1     -33.660   7.820   3.471  1.00 20.00     0.065 A 
HETATM    2  C2  UNL     1     -34.031   5.432   3.016  1.00 20.00     0.069 A 
HETATM    3  C3  UNL     1     -32.850   7.354   2.459  1.00 20.00     0.026 A 
HETATM    4  C4  UNL     1     -33.065   5.971   2.195  1.00 20.00     0.031 A 
HETATM    5  S7  UNL     1     -34.675   6.592   4.098  1.00 20.00    -0.111 SA
HETATM    6 BR8  UNL     1     -32.129   5.001   0.876  1.00 20.00    -0.050 Br
ENDROOT
BRANCH   3   7
HETATM    7  C5  UNL     1     -31.915   8.220   1.785  1.00 20.00     0.271 C 
HETATM    8  O6  UNL     1     -32.243   9.037   0.910  1.00 20.00    -0.301 OA
ENDBRANCH   3   7
TORSDOF 1
ENDMDL
MODEL 2
REMARK VINA RESULT:       0.1      2.119      2.713
REMARK  1 active torsions:
REMARK  status: ('A' for Active; 'I' for Inactive)
REMARK    1  A    between atoms: C3_3  and  C5_5 
ROOT
HETATM    1  C1  UNL     1     -33.992   5.378   3.021  1.00 20.00     0.065 A 
HETATM    2  C2  UNL     1     -33.823   7.782   3.510  1.00 20.00     0.069 A 
HETATM    3  C3  UNL     1     -33.068   6.006   2.215  1.00 20.00     0.026 A 
HETATM    4  C4  UNL     1     -32.971   7.399   2.498  1.00 20.00     0.031 A 
HETATM    5  S7  UNL     1     -34.735   6.466   4.115  1.00 20.00    -0.111 SA
HETATM    6 BR8  UNL     1     -31.808   8.571   1.585  1.00 20.00    -0.050 Br
ENDROOT
BRANCH   3   7
HETATM    7  C5  UNL     1     -32.321   5.280   1.219  1.00 20.00     0.271 C 
HETATM    8  O6  UNL     1     -32.850   4.623   0.308  1.00 20.00    -0.301 OA
ENDBRANCH   3   7
TORSDOF 1
ENDMDL
MODEL 3
REMARK VINA RESULT:       0.1      3.289      3.974
REMARK  1 active torsions:
REMARK  status: ('A' for Active; 'I' for Inactive)
REMARK    1  A    between atoms: C3_3  and  C5_5 
ROOT
HETATM    1  C1  UNL     1     -32.949   5.708   1.749  1.00 20.00     0.065 A 
HETATM    2  C2  UNL     1     -32.364   7.999   2.427  1.00 20.00     0.069 A 
HETATM    3  C3  UNL     1     -33.518   6.052   2.955  1.00 20.00     0.026 A 
HETATM    4  C4  UNL     1     -33.179   7.379   3.348  1.00 20.00     0.031 A 
HETATM    5  S7  UNL     1     -32.012   6.983   1.094  1.00 20.00    -0.111 SA
HETATM    6 BR8  UNL     1     -33.780   8.180   4.946  1.00 20.00    -0.050 Br
ENDROOT
BRANCH   3   7
HETATM    7  C5  UNL     1     -34.350   5.128   3.685  1.00 20.00     0.271 C 
HETATM    8  O6  UNL     1     -33.962   4.013   4.071  1.00 20.00    -0.301 OA
ENDBRANCH   3   7
TORSDOF 1
ENDMDL
MODEL 4
REMARK VINA RESULT:       0.3      2.563      3.273
REMARK  1 active torsions:
REMARK  status: ('A' for Active; 'I' for Inactive)
REMARK    1  A    between atoms: C3_3  and  C5_5 
ROOT
HETATM    1  C1  UNL     1     -34.448   6.675   4.278  1.00 20.00     0.065 A 
HETATM    2  C2  UNL     1     -32.988   7.609   2.533  1.00 20.00     0.069 A 
HETATM    3  C3  UNL     1     -33.932   5.697   3.457  1.00 20.00     0.026 A 
HETATM    4  C4  UNL     1     -33.086   6.238   2.446  1.00 20.00     0.031 A 
HETATM    5  S7  UNL     1     -33.912   8.238   3.830  1.00 20.00    -0.111 SA
HETATM    6 BR8  UNL     1     -32.211   5.188   1.146  1.00 20.00    -0.050 Br
ENDROOT
BRANCH   3   7
HETATM    7  C5  UNL     1     -34.252   4.305   3.653  1.00 20.00     0.271 C 
HETATM    8  O6  UNL     1     -33.624   3.558   4.421  1.00 20.00    -0.301 OA
ENDBRANCH   3   7
TORSDOF 1
ENDMDL
MODEL 5
REMARK VINA RESULT:       0.3      2.421      3.014
REMARK  1 active torsions:
REMARK  status: ('A' for Active; 'I' for Inactive)
REMARK    1  A    between atoms: C3_3  and  C5_5 
ROOT
HETATM    1  C1  UNL     1     -33.255   7.819   3.665  1.00 20.00     0.065 A 
HETATM    2  C2  UNL     1     -31.921   7.493   1.625  1.00 20.00     0.069 A 
HETATM    3  C3  UNL     1     -33.533   6.618   3.052  1.00 20.00     0.026 A 
HETATM    4  C4  UNL     1     -32.761   6.429   1.870  1.00 20.00     0.031 A 
HETATM    5  S7  UNL     1     -32.066   8.713   2.817  1.00 20.00    -0.111 SA
HETATM    6 BR8  UNL     1     -32.884   4.897   0.776  1.00 20.00    -0.050 Br
ENDROOT
BRANCH   3   7
HETATM    7  C5  UNL     1     -34.506   5.703   3.596  1.00 20.00     0.271 C 
HETATM    8  O6  UNL     1     -35.571   6.066   4.120  1.00 20.00    -0.301 OA
ENDBRANCH   3   7
TORSDOF 1
ENDMDL
MODEL 6
REMARK VINA RESULT:       0.3      2.604      2.962
REMARK  1 active torsions:
REMARK  status: ('A' for Active; 'I' for Inactive)
REMARK    1  A    between atoms: C3_3  and  C5_5 
ROOT
HETATM    1  C1  UNL     1     -32.676   8.015   2.359  1.00 20.00     0.065 A 
HETATM    2  C2  UNL     1     -32.557   5.646   1.710  1.00 20.00     0.069 A 
HETATM    3  C3  UNL     1     -33.385   7.207   3.219  1.00 20.00     0.026 A 
HETATM    4  C4  UNL     1     -33.317   5.835   2.843  1.00 20.00     0.031 A 
HETATM    5  S7  UNL     1     -31.930   7.120   1.104  1.00 20.00    -0.111 SA
HETATM    6 BR8  UNL     1     -34.172   4.448   3.793  1.00 20.00    -0.050 Br
ENDROOT
BRANCH   3   7
HETATM    7  C5  UNL     1     -34.094   7.752   4.350  1.00 20.00     0.271 C 
HETATM    8  O6  UNL     1     -33.537   8.347   5.287  1.00 20.00    -0.301 OA
ENDBRANCH   3   7
TORSDOF 1
ENDMDL
MODEL 7
REMARK VINA RESULT:       0.5      2.611      3.093
REMARK  1 active torsions:
REMARK  status: ('A' for Active; 'I' for Inactive)
REMARK    1  A    between atoms: C3_3  and  C5_5 
ROOT
HETATM    1  C1  UNL     1     -32.010   7.528   1.938  1.00 20.00     0.065 A 
HETATM    2  C2  UNL     1     -33.303   8.075   3.957  1.00 20.00     0.069 A 
HETATM    3  C3  UNL     1     -32.993   6.596   2.191  1.00 20.00     0.026 A 
HETATM    4  C4  UNL     1     -33.742   6.913   3.361  1.00 20.00     0.031 A 
HETATM    5  S7  UNL     1     -31.994   8.779   3.107  1.00 20.00    -0.111 SA
HETATM    6 BR8  UNL     1     -35.164   5.856   4.009  1.00 20.00    -0.050 Br
ENDROOT
BRANCH   3   7
HETATM    7  C5  UNL     1     -33.187   5.455   1.332  1.00 20.00     0.271 C 
HETATM    8  O6  UNL     1     -32.261   4.867   0.752  1.00 20.00    -0.301 OA
ENDBRANCH   3   7
TORSDOF 1
ENDMDL
MODEL 8
REMARK VINA RESULT:       0.6      2.332      2.555
REMARK  1 active torsions:
REMARK  status: ('A' for Active; 'I' for Inactive)
REMARK    1  A    between atoms: C3_3  and  C5_5 
ROOT
HETATM    1  C1  UNL     1     -31.922   6.429   0.947  1.00 20.00     0.065 A 
HETATM    2  C2  UNL     1     -33.386   5.427   2.650  1.00 20.00     0.069 A 
HETATM    3  C3  UNL     1     -32.415   7.370   1.823  1.00 20.00     0.026 A 
HETATM    4  C4  UNL     1     -33.264   6.790   2.810  1.00 20.00     0.031 A 
HETATM    5  S7  UNL     1     -32.481   4.853   1.315  1.00 20.00    -0.111 SA
HETATM    6 BR8  UNL     1     -34.115   7.783   4.170  1.00 20.00    -0.050 Br
ENDROOT
BRANCH   3   7
HETATM    7  C5  UNL     1     -32.073   8.765   1.700  1.00 20.00     0.271 C 
HETATM    8  O6  UNL     1     -32.350   9.455   0.706  1.00 20.00    -0.301 OA
ENDBRANCH   3   7
TORSDOF 1
ENDMDL
MODEL 9
REMARK VINA RESULT:       1.0      2.376      2.774
REMARK  1 active torsions:
REMARK  status: ('A' for Active; 'I' for Inactive)
REMARK    1  A    between atoms: C3_3  and  C5_5 
ROOT
HETATM    1  C1  UNL     1     -34.145   5.656   3.676  1.00 20.00     0.065 A 
HETATM    2  C2  UNL     1     -32.742   5.634   1.657  1.00 20.00     0.069 A 
HETATM    3  C3  UNL     1     -33.653   6.907   3.375  1.00 20.00     0.026 A 
HETATM    4  C4  UNL     1     -32.840   6.894   2.205  1.00 20.00     0.031 A 
HETATM    5  S7  UNL     1     -33.628   4.474   2.551  1.00 20.00    -0.111 SA
HETATM    6 BR8  UNL     1     -32.000   8.430   1.501  1.00 20.00    -0.050 Br
ENDROOT
BRANCH   3   7
HETATM    7  C5  UNL     1     -33.963   8.054   4.191  1.00 20.00     0.271 C 
HETATM    8  O6  UNL     1     -33.343   8.348   5.225  1.00 20.00    -0.301 OA
ENDBRANCH   3   7
TORSDOF 1
ENDMDL
