MODEL 1
REMARK VINA RESULT:      -1.0      0.000      0.000
REMARK  2 active torsions:
REMARK  status: ('A' for Active; 'I' for Inactive)
REMARK    1  A    between atoms: C1_1  and  C5_5 
REMARK    2  A    between atoms: C5_5  and  C6_6 
ROOT
HETATM    1  C5  UNL     1     -33.915   6.445   1.994  1.00 20.00     0.104 C 
ENDROOT
BRANCH   1   2
HETATM    2  C1  UNL     1     -32.433   6.440   1.654  1.00 20.00     0.219 C 
HETATM    3  O7  UNL     1     -31.832   5.396   1.416  1.00 20.00    -0.280 OA
HETATM    4 CL8  UNL     1     -31.733   8.033   1.640  1.00 20.00    -0.044 Cl
ENDBRANCH   1   2
BRANCH   1   5
HETATM    5  C6  UNL     1     -34.238   6.302   3.500  1.00 20.00    -0.044 C 
HETATM    6  C2  UNL     1     -33.554   7.403   4.325  1.00 20.00     0.015 C 
HETATM    7  C3  UNL     1     -35.764   6.436   3.676  1.00 20.00     0.015 C 
HETATM    8  C4  UNL     1     -33.810   4.925   4.036  1.00 20.00     0.015 C 
ENDBRANCH   1   5
TORSDOF 2
ENDMDL
MODEL 2
REMARK VINA RESULT:      -1.0      0.092      1.528
REMARK  2 active torsions:
REMARK  status: ('A' for Active; 'I' for Inactive)
REMARK    1  A    between atoms: C1_1  and  C5_5 
REMARK    2  A    between atoms: C5_5  and  C6_6 
ROOT
HETATM    1  C5  UNL     1     -33.890   6.378   1.956  1.00 20.00     0.104 C 
ENDROOT
BRANCH   1   2
HETATM    2  C1  UNL     1     -32.407   6.473   1.637  1.00 20.00     0.219 C 
HETATM    3  O7  UNL     1     -31.722   5.469   1.458  1.00 20.00    -0.280 OA
HETATM    4 CL8  UNL     1     -31.832   8.114   1.556  1.00 20.00    -0.044 Cl
ENDBRANCH   1   2
BRANCH   1   5
HETATM    5  C6  UNL     1     -34.229   6.293   3.463  1.00 20.00    -0.044 C 
HETATM    6  C2  UNL     1     -35.740   6.434   3.704  1.00 20.00     0.015 C 
HETATM    7  C3  UNL     1     -33.779   4.911   3.977  1.00 20.00     0.015 C 
HETATM    8  C4  UNL     1     -33.483   7.373   4.267  1.00 20.00     0.015 C 
ENDBRANCH   1   5
TORSDOF 2
ENDMDL
MODEL 3
REMARK VINA RESULT:      -1.0      0.055      1.530
REMARK  2 active torsions:
REMARK  status: ('A' for Active; 'I' for Inactive)
REMARK    1  A    between atoms: C1_1  and  C5_5 
REMARK    2  A    between atoms: C5_5  and  C6_6 
ROOT
HETATM    1  C5  UNL     1     -33.900   6.452   1.975  1.00 20.00     0.104 C 
ENDROOT
BRANCH   1   2
HETATM    2  C1  UNL     1     -32.417   6.450   1.640  1.00 20.00     0.219 C 
HETATM    3  O7  UNL     1     -31.811   5.407   1.412  1.00 20.00    -0.280 OA
HETATM    4 CL8  UNL     1     -31.724   8.047   1.617  1.00 20.00    -0.044 Cl
ENDBRANCH   1   2
BRANCH   1   5
HETATM    5  C6  UNL     1     -34.230   6.268   3.475  1.00 20.00    -0.044 C 
HETATM    6  C2  UNL     1     -33.743   4.904   3.990  1.00 20.00     0.015 C 
HETATM    7  C3  UNL     1     -33.503   7.375   4.263  1.00 20.00     0.015 C 
HETATM    8  C4  UNL     1     -35.740   6.401   3.737  1.00 20.00     0.015 C 
ENDBRANCH   1   5
TORSDOF 2
ENDMDL
MODEL 4
REMARK VINA RESULT:      -1.0      2.239      3.403
REMARK  2 active torsions:
REMARK  status: ('A' for Active; 'I' for Inactive)
REMARK    1  A    between atoms: C1_1  and  C5_5 
REMARK    2  A    between atoms: C5_5  and  C6_6 
ROOT
HETATM    1  C5  UNL     1     -33.422   5.667   3.100  1.00 20.00     0.104 C 
ENDROOT
BRANCH   1   2
HETATM    2  C1  UNL     1     -34.451   6.599   3.719  1.00 20.00     0.219 C 
HETATM    3  O7  UNL     1     -35.656   6.382   3.621  1.00 20.00    -0.280 OA
HETATM    4 CL8  UNL     1     -33.732   7.948   4.552  1.00 20.00    -0.044 Cl
ENDBRANCH   1   2
BRANCH   1   5
HETATM    5  C6  UNL     1     -32.846   6.140   1.744  1.00 20.00    -0.044 C 
HETATM    6  C2  UNL     1     -32.279   7.565   1.846  1.00 20.00     0.015 C 
HETATM    7  C3  UNL     1     -31.701   5.185   1.353  1.00 20.00     0.015 C 
HETATM    8  C4  UNL     1     -33.912   6.096   0.636  1.00 20.00     0.015 C 
ENDBRANCH   1   5
TORSDOF 2
ENDMDL
MODEL 5
REMARK VINA RESULT:      -0.9      2.234      3.393
REMARK  2 active torsions:
REMARK  status: ('A' for Active; 'I' for Inactive)
REMARK    1  A    between atoms: C1_1  and  C5_5 
REMARK    2  A    between atoms: C5_5  and  C6_6 
ROOT
HETATM    1  C5  UNL     1     -33.431   5.657   3.110  1.00 20.00     0.104 C 
ENDROOT
BRANCH   1   2
HETATM    2  C1  UNL     1     -34.451   6.605   3.719  1.00 20.00     0.219 C 
HETATM    3  O7  UNL     1     -35.658   6.402   3.618  1.00 20.00    -0.280 OA
HETATM    4 CL8  UNL     1     -33.719   7.950   4.547  1.00 20.00    -0.044 Cl
ENDBRANCH   1   2
BRANCH   1   5
HETATM    5  C6  UNL     1     -32.825   6.126   1.767  1.00 20.00    -0.044 C 
HETATM    6  C2  UNL     1     -31.693   5.193   1.308  1.00 20.00     0.015 C 
HETATM    7  C3  UNL     1     -33.941   6.099   0.704  1.00 20.00     0.015 C 
HETATM    8  C4  UNL     1     -32.289   7.565   1.866  1.00 20.00     0.015 C 
ENDBRANCH   1   5
TORSDOF 2
ENDMDL
MODEL 6
REMARK VINA RESULT:      -0.9      1.345      2.056
REMARK  2 active torsions:
REMARK  status: ('A' for Active; 'I' for Inactive)
REMARK    1  A    between atoms: C1_1  and  C5_5 
REMARK    2  A    between atoms: C5_5  and  C6_6 
ROOT
HETATM    1  C5  UNL     1     -33.853   6.833   2.037  1.00 20.00     0.104 C 
ENDROOT
BRANCH   1   2
HETATM    2  C1  UNL     1     -32.367   6.819   1.718  1.00 20.00     0.219 C 
HETATM    3  O7  UNL     1     -31.665   7.813   1.881  1.00 20.00    -0.280 OA
HETATM    4 CL8  UNL     1     -31.813   5.279   1.124  1.00 20.00    -0.044 Cl
ENDBRANCH   1   2
BRANCH   1   5
HETATM    5  C6  UNL     1     -34.207   6.506   3.507  1.00 20.00    -0.044 C 
HETATM    6  C2  UNL     1     -35.729   6.442   3.713  1.00 20.00     0.015 C 
HETATM    7  C3  UNL     1     -33.609   5.127   3.847  1.00 20.00     0.015 C 
HETATM    8  C4  UNL     1     -33.606   7.543   4.472  1.00 20.00     0.015 C 
ENDBRANCH   1   5
TORSDOF 2
ENDMDL
MODEL 7
REMARK VINA RESULT:      -0.8      2.560      3.624
REMARK  2 active torsions:
REMARK  status: ('A' for Active; 'I' for Inactive)
REMARK    1  A    between atoms: C1_1  and  C5_5 
REMARK    2  A    between atoms: C5_5  and  C6_6 
ROOT
HETATM    1  C5  UNL     1     -33.279   6.781   3.319  1.00 20.00     0.104 C 
ENDROOT
BRANCH   1   2
HETATM    2  C1  UNL     1     -34.476   5.917   3.682  1.00 20.00     0.219 C 
HETATM    3  O7  UNL     1     -35.608   6.386   3.757  1.00 20.00    -0.280 OA
HETATM    4 CL8  UNL     1     -34.053   4.251   3.959  1.00 20.00    -0.044 Cl
ENDBRANCH   1   2
BRANCH   1   5
HETATM    5  C6  UNL     1     -32.752   6.593   1.877  1.00 20.00    -0.044 C 
HETATM    6  C2  UNL     1     -33.905   6.349   0.890  1.00 20.00     0.015 C 
HETATM    7  C3  UNL     1     -32.019   7.884   1.464  1.00 20.00     0.015 C 
HETATM    8  C4  UNL     1     -31.756   5.424   1.792  1.00 20.00     0.015 C 
ENDBRANCH   1   5
TORSDOF 2
ENDMDL
MODEL 8
REMARK VINA RESULT:      -0.7      2.759      3.860
REMARK  2 active torsions:
REMARK  status: ('A' for Active; 'I' for Inactive)
REMARK    1  A    between atoms: C1_1  and  C5_5 
REMARK    2  A    between atoms: C5_5  and  C6_6 
ROOT
HETATM    1  C5  UNL     1     -33.727   8.307   2.674  1.00 20.00     0.104 C 
ENDROOT
BRANCH   1   2
HETATM    2  C1  UNL     1     -33.961   7.601   4.000  1.00 20.00     0.219 C 
HETATM    3  O7  UNL     1     -33.387   7.953   5.027  1.00 20.00    -0.280 OA
HETATM    4 CL8  UNL     1     -35.102   6.291   3.880  1.00 20.00    -0.044 Cl
ENDBRANCH   1   2
BRANCH   1   5
HETATM    5  C6  UNL     1     -32.385   7.968   1.984  1.00 20.00    -0.044 C 
HETATM    6  C2  UNL     1     -32.317   6.482   1.595  1.00 20.00     0.015 C 
HETATM    7  C3  UNL     1     -32.281   8.814   0.699  1.00 20.00     0.015 C 
HETATM    8  C4  UNL     1     -31.187   8.312   2.886  1.00 20.00     0.015 C 
ENDBRANCH   1   5
TORSDOF 2
ENDMDL
MODEL 9
REMARK VINA RESULT:      -0.6      2.751      3.791
REMARK  2 active torsions:
REMARK  status: ('A' for Active; 'I' for Inactive)
REMARK    1  A    between atoms: C1_1  and  C5_5 
REMARK    2  A    between atoms: C5_5  and  C6_6 
ROOT
HETATM    1  C5  UNL     1     -33.723   8.340   2.691  1.00 20.00     0.104 C 
ENDROOT
BRANCH   1   2
HETATM    2  C1  UNL     1     -33.951   7.610   4.005  1.00 20.00     0.219 C 
HETATM    3  O7  UNL     1     -33.371   7.943   5.035  1.00 20.00    -0.280 OA
HETATM    4 CL8  UNL     1     -35.092   6.303   3.867  1.00 20.00    -0.044 Cl
ENDBRANCH   1   2
BRANCH   1   5
HETATM    5  C6  UNL     1     -32.410   7.975   1.961  1.00 20.00    -0.044 C 
HETATM    6  C2  UNL     1     -32.246   8.788   0.667  1.00 20.00     0.015 C 
HETATM    7  C3  UNL     1     -31.233   8.308   2.899  1.00 20.00     0.015 C 
HETATM    8  C4  UNL     1     -32.352   6.474   1.628  1.00 20.00     0.015 C 
ENDBRANCH   1   5
TORSDOF 2
ENDMDL
