MODEL 1
REMARK VINA RESULT:      -3.1      0.000      0.000
REMARK  2 active torsions:
REMARK  status: ('A' for Active; 'I' for Inactive)
REMARK    1  A    between atoms: C3_3  and  C4_4 
REMARK    2  A    between atoms: C4_4  and  C5_5 
ROOT
HETATM    1  C1  UNL     1     -32.481   9.879   0.151  1.00 20.00     0.012 C 
HETATM    2  C2  UNL     1     -32.202   8.965   0.878  1.00 20.00    -0.117 C 
HETATM    3  C3  UNL     1     -31.853   7.849   1.768  1.00 20.00     0.094 C 
ENDROOT
BRANCH   3   4
HETATM    4  C4  UNL     1     -33.079   7.030   2.182  1.00 20.00     0.027 C 
BRANCH   4   5
HETATM    5  C5  UNL     1     -33.693   7.417   3.527  1.00 20.00     0.115 C 
HETATM    6 CL6  UNL     1     -35.123   6.434   3.919  1.00 20.00    -0.130 Cl
ENDBRANCH   4   5
ENDBRANCH   3   4
TORSDOF 2
ENDMDL
MODEL 2
REMARK VINA RESULT:      -2.8      2.427      4.062
REMARK  2 active torsions:
REMARK  status: ('A' for Active; 'I' for Inactive)
REMARK    1  A    between atoms: C3_3  and  C4_4 
REMARK    2  A    between atoms: C4_4  and  C5_5 
ROOT
HETATM    1  C1  UNL     1     -35.381   6.092   4.094  1.00 20.00     0.012 C 
HETATM    2  C2  UNL     1     -34.456   6.793   3.791  1.00 20.00    -0.117 C 
HETATM    3  C3  UNL     1     -33.323   7.656   3.426  1.00 20.00     0.094 C 
ENDROOT
BRANCH   3   4
HETATM    4  C4  UNL     1     -32.733   7.293   2.061  1.00 20.00     0.027 C 
BRANCH   4   5
HETATM    5  C5  UNL     1     -31.698   8.279   1.518  1.00 20.00     0.115 C 
HETATM    6 CL6  UNL     1     -32.440   9.538   0.504  1.00 20.00    -0.130 Cl
ENDBRANCH   4   5
ENDBRANCH   3   4
TORSDOF 2
ENDMDL
MODEL 3
REMARK VINA RESULT:      -2.8      2.683      4.665
REMARK  2 active torsions:
REMARK  status: ('A' for Active; 'I' for Inactive)
REMARK    1  A    between atoms: C3_3  and  C4_4 
REMARK    2  A    between atoms: C4_4  and  C5_5 
ROOT
HETATM    1  C1  UNL     1     -33.875   3.683   4.295  1.00 20.00     0.012 C 
HETATM    2  C2  UNL     1     -34.415   4.748   4.181  1.00 20.00    -0.117 C 
HETATM    3  C3  UNL     1     -35.082   6.050   4.042  1.00 20.00     0.094 C 
ENDROOT
BRANCH   3   4
HETATM    4  C4  UNL     1     -34.126   7.146   3.562  1.00 20.00     0.027 C 
BRANCH   4   5
HETATM    5  C5  UNL     1     -33.216   6.749   2.400  1.00 20.00     0.115 C 
HETATM    6 CL6  UNL     1     -32.068   8.041   1.977  1.00 20.00    -0.130 Cl
ENDBRANCH   4   5
ENDBRANCH   3   4
TORSDOF 2
ENDMDL
MODEL 4
REMARK VINA RESULT:      -2.7      3.297      4.106
REMARK  2 active torsions:
REMARK  status: ('A' for Active; 'I' for Inactive)
REMARK    1  A    between atoms: C3_3  and  C4_4 
REMARK    2  A    between atoms: C4_4  and  C5_5 
ROOT
HETATM    1  C1  UNL     1     -33.502   8.015   4.134  1.00 20.00     0.012 C 
HETATM    2  C2  UNL     1     -34.357   7.180   4.028  1.00 20.00    -0.117 C 
HETATM    3  C3  UNL     1     -35.409   6.162   3.894  1.00 20.00     0.094 C 
ENDROOT
BRANCH   3   4
HETATM    4  C4  UNL     1     -35.018   4.833   4.545  1.00 20.00     0.027 C 
BRANCH   4   5
HETATM    5  C5  UNL     1     -33.872   4.087   3.860  1.00 20.00     0.115 C 
HETATM    6 CL6  UNL     1     -33.101   2.905   4.942  1.00 20.00    -0.130 Cl
ENDBRANCH   4   5
ENDBRANCH   3   4
TORSDOF 2
ENDMDL
MODEL 5
REMARK VINA RESULT:      -2.7      1.738      2.661
REMARK  2 active torsions:
REMARK  status: ('A' for Active; 'I' for Inactive)
REMARK    1  A    between atoms: C3_3  and  C4_4 
REMARK    2  A    between atoms: C4_4  and  C5_5 
ROOT
HETATM    1  C1  UNL     1     -32.165   7.822   1.880  1.00 20.00     0.012 C 
HETATM    2  C2  UNL     1     -32.908   7.646   2.805  1.00 20.00    -0.117 C 
HETATM    3  C3  UNL     1     -33.814   7.435   3.943  1.00 20.00     0.094 C 
ENDROOT
BRANCH   3   4
HETATM    4  C4  UNL     1     -35.007   6.547   3.580  1.00 20.00     0.027 C 
BRANCH   4   5
HETATM    5  C5  UNL     1     -35.191   5.313   4.462  1.00 20.00     0.115 C 
HETATM    6 CL6  UNL     1     -33.989   4.050   4.106  1.00 20.00    -0.130 Cl
ENDBRANCH   4   5
ENDBRANCH   3   4
TORSDOF 2
ENDMDL
MODEL 6
REMARK VINA RESULT:      -2.6      2.499      3.687
REMARK  2 active torsions:
REMARK  status: ('A' for Active; 'I' for Inactive)
REMARK    1  A    between atoms: C3_3  and  C4_4 
REMARK    2  A    between atoms: C4_4  and  C5_5 
ROOT
HETATM    1  C1  UNL     1     -34.549   7.251   4.080  1.00 20.00     0.012 C 
HETATM    2  C2  UNL     1     -33.932   6.591   3.290  1.00 20.00    -0.117 C 
HETATM    3  C3  UNL     1     -33.178   5.777   2.325  1.00 20.00     0.094 C 
ENDROOT
BRANCH   3   4
HETATM    4  C4  UNL     1     -32.384   6.635   1.336  1.00 20.00     0.027 C 
BRANCH   4   5
HETATM    5  C5  UNL     1     -31.966   8.009   1.858  1.00 20.00     0.115 C 
HETATM    6 CL6  UNL     1     -32.299   9.303   0.683  1.00 20.00    -0.130 Cl
ENDBRANCH   4   5
ENDBRANCH   3   4
TORSDOF 2
ENDMDL
MODEL 7
REMARK VINA RESULT:      -2.5      1.689      1.712
REMARK  2 active torsions:
REMARK  status: ('A' for Active; 'I' for Inactive)
REMARK    1  A    between atoms: C3_3  and  C4_4 
REMARK    2  A    between atoms: C4_4  and  C5_5 
ROOT
HETATM    1  C1  UNL     1     -32.624  10.271   0.042  1.00 20.00     0.012 C 
HETATM    2  C2  UNL     1     -32.244   9.331   0.684  1.00 20.00    -0.117 C 
HETATM    3  C3  UNL     1     -31.772   8.179   1.465  1.00 20.00     0.094 C 
ENDROOT
BRANCH   3   4
HETATM    4  C4  UNL     1     -32.709   7.842   2.628  1.00 20.00     0.027 C 
BRANCH   4   5
HETATM    5  C5  UNL     1     -33.369   6.465   2.552  1.00 20.00     0.115 C 
HETATM    6 CL6  UNL     1     -32.609   5.424   1.327  1.00 20.00    -0.130 Cl
ENDBRANCH   4   5
ENDBRANCH   3   4
TORSDOF 2
ENDMDL
MODEL 8
REMARK VINA RESULT:      -2.5      2.159      3.733
REMARK  2 active torsions:
REMARK  status: ('A' for Active; 'I' for Inactive)
REMARK    1  A    between atoms: C3_3  and  C4_4 
REMARK    2  A    between atoms: C4_4  and  C5_5 
ROOT
HETATM    1  C1  UNL     1     -35.392   6.160   3.971  1.00 20.00     0.012 C 
HETATM    2  C2  UNL     1     -34.437   6.882   3.887  1.00 20.00    -0.117 C 
HETATM    3  C3  UNL     1     -33.267   7.767   3.791  1.00 20.00     0.094 C 
ENDROOT
BRANCH   3   4
HETATM    4  C4  UNL     1     -32.888   8.073   2.340  1.00 20.00     0.027 C 
BRANCH   4   5
HETATM    5  C5  UNL     1     -31.843   7.139   1.731  1.00 20.00     0.115 C 
HETATM    6 CL6  UNL     1     -32.527   5.553   1.308  1.00 20.00    -0.130 Cl
ENDBRANCH   4   5
ENDBRANCH   3   4
TORSDOF 2
ENDMDL
MODEL 9
REMARK VINA RESULT:      -2.4      2.024      2.634
REMARK  2 active torsions:
REMARK  status: ('A' for Active; 'I' for Inactive)
REMARK    1  A    between atoms: C3_3  and  C4_4 
REMARK    2  A    between atoms: C4_4  and  C5_5 
ROOT
HETATM    1  C1  UNL     1     -32.531   5.497   1.313  1.00 20.00     0.012 C 
HETATM    2  C2  UNL     1     -32.836   6.472   1.943  1.00 20.00    -0.117 C 
HETATM    3  C3  UNL     1     -33.205   7.670   2.710  1.00 20.00     0.094 C 
ENDROOT
BRANCH   3   4
HETATM    4  C4  UNL     1     -33.968   7.327   3.992  1.00 20.00     0.027 C 
BRANCH   4   5
HETATM    5  C5  UNL     1     -35.170   6.401   3.804  1.00 20.00     0.115 C 
HETATM    6 CL6  UNL     1     -34.848   4.755   4.398  1.00 20.00    -0.130 Cl
ENDBRANCH   4   5
ENDBRANCH   3   4
TORSDOF 2
ENDMDL
