MODEL 1
REMARK VINA RESULT:      -2.6      0.000      0.000
REMARK  5 active torsions:
REMARK  status: ('A' for Active; 'I' for Inactive)
REMARK    1  A    between atoms: C1_1  and  C8_8 
REMARK    2  A    between atoms: C4_4  and  C6_6 
REMARK    3  A    between atoms: C5_5  and  C8_8 
REMARK    4  A    between atoms: C6_6  and  C7_7 
REMARK    5  A    between atoms: C7_7  and  C8_8 
ROOT
HETATM    1  C8  UNL     1     -33.510   5.538   3.316  1.00 20.00     0.072 C 
ENDROOT
BRANCH   1   2
HETATM    2  C1  UNL     1     -34.548   6.484   3.919  1.00 20.00     0.223 C 
HETATM    3  O9  UNL     1     -35.748   6.224   3.909  1.00 20.00    -0.279 OA
HETATM    4 CL10 UNL     1     -33.834   7.922   4.594  1.00 20.00    -0.043 Cl
ENDBRANCH   1   2
BRANCH   1   5
HETATM    5  C5  UNL     1     -33.969   4.080   3.497  1.00 20.00     0.009 C 
HETATM    6  C3  UNL     1     -33.372   3.423   4.735  1.00 20.00     0.006 C 
ENDBRANCH   1   5
BRANCH   1   7
HETATM    7  C7  UNL     1     -33.323   5.856   1.821  1.00 20.00     0.013 C 
BRANCH   7   8
HETATM    8  C6  UNL     1     -31.954   6.478   1.519  1.00 20.00     0.000 C 
BRANCH   8   9
HETATM    9  C4  UNL     1     -31.876   7.966   1.873  1.00 20.00    -0.005 C 
HETATM   10  C2  UNL     1     -32.175   8.886   0.701  1.00 20.00     0.005 C 
ENDBRANCH   8   9
ENDBRANCH   7   8
ENDBRANCH   1   7
TORSDOF 5
ENDMDL
MODEL 2
REMARK VINA RESULT:      -2.3      2.253      2.980
REMARK  5 active torsions:
REMARK  status: ('A' for Active; 'I' for Inactive)
REMARK    1  A    between atoms: C1_1  and  C8_8 
REMARK    2  A    between atoms: C4_4  and  C6_6 
REMARK    3  A    between atoms: C5_5  and  C8_8 
REMARK    4  A    between atoms: C6_6  and  C7_7 
REMARK    5  A    between atoms: C7_7  and  C8_8 
ROOT
HETATM    1  C8  UNL     1     -33.525   7.108   2.549  1.00 20.00     0.072 C 
ENDROOT
BRANCH   1   2
HETATM    2  C1  UNL     1     -33.188   5.632   2.336  1.00 20.00     0.223 C 
HETATM    3  O9  UNL     1     -32.547   5.246   1.362  1.00 20.00    -0.279 OA
HETATM    4 CL10 UNL     1     -33.808   4.612   3.603  1.00 20.00    -0.043 Cl
ENDBRANCH   1   2
BRANCH   1   5
HETATM    5  C5  UNL     1     -34.262   7.283   3.890  1.00 20.00     0.009 C 
HETATM    6  C3  UNL     1     -33.474   8.119   4.891  1.00 20.00     0.006 C 
ENDBRANCH   1   5
BRANCH   1   7
HETATM    7  C7  UNL     1     -32.232   7.943   2.539  1.00 20.00     0.013 C 
BRANCH   7   8
HETATM    8  C6  UNL     1     -31.868   8.446   1.137  1.00 20.00     0.000 C 
BRANCH   8   9
HETATM    9  C4  UNL     1     -32.417   9.843   0.836  1.00 20.00    -0.005 C 
HETATM   10  C2  UNL     1     -32.754  10.061  -0.631  1.00 20.00     0.005 C 
ENDBRANCH   8   9
ENDBRANCH   7   8
ENDBRANCH   1   7
TORSDOF 5
ENDMDL
MODEL 3
REMARK VINA RESULT:      -2.3      1.748      2.422
REMARK  5 active torsions:
REMARK  status: ('A' for Active; 'I' for Inactive)
REMARK    1  A    between atoms: C1_1  and  C8_8 
REMARK    2  A    between atoms: C4_4  and  C6_6 
REMARK    3  A    between atoms: C5_5  and  C8_8 
REMARK    4  A    between atoms: C6_6  and  C7_7 
REMARK    5  A    between atoms: C7_7  and  C8_8 
ROOT
HETATM    1  C8  UNL     1     -34.399   6.132   3.307  1.00 20.00     0.072 C 
ENDROOT
BRANCH   1   2
HETATM    2  C1  UNL     1     -34.777   4.943   4.190  1.00 20.00     0.223 C 
HETATM    3  O9  UNL     1     -35.815   4.924   4.847  1.00 20.00    -0.279 OA
HETATM    4 CL10 UNL     1     -33.589   3.670   4.146  1.00 20.00    -0.043 Cl
ENDBRANCH   1   2
BRANCH   1   5
HETATM    5  C5  UNL     1     -34.610   7.444   4.084  1.00 20.00     0.009 C 
HETATM    6  C3  UNL     1     -33.360   7.895   4.831  1.00 20.00     0.006 C 
ENDBRANCH   1   5
BRANCH   1   7
HETATM    7  C7  UNL     1     -32.929   6.005   2.865  1.00 20.00     0.013 C 
BRANCH   7   8
HETATM    8  C6  UNL     1     -32.666   6.659   1.503  1.00 20.00     0.000 C 
BRANCH   8   9
HETATM    9  C4  UNL     1     -31.804   7.921   1.597  1.00 20.00    -0.005 C 
HETATM   10  C2  UNL     1     -32.376   9.106   0.835  1.00 20.00     0.005 C 
ENDBRANCH   8   9
ENDBRANCH   7   8
ENDBRANCH   1   7
TORSDOF 5
ENDMDL
MODEL 4
REMARK VINA RESULT:      -2.3      1.758      2.421
REMARK  5 active torsions:
REMARK  status: ('A' for Active; 'I' for Inactive)
REMARK    1  A    between atoms: C1_1  and  C8_8 
REMARK    2  A    between atoms: C4_4  and  C6_6 
REMARK    3  A    between atoms: C5_5  and  C8_8 
REMARK    4  A    between atoms: C6_6  and  C7_7 
REMARK    5  A    between atoms: C7_7  and  C8_8 
ROOT
HETATM    1  C8  UNL     1     -32.983   6.356   2.732  1.00 20.00     0.072 C 
ENDROOT
BRANCH   1   2
HETATM    2  C1  UNL     1     -34.178   5.931   3.585  1.00 20.00     0.223 C 
HETATM    3  O9  UNL     1     -35.074   6.715   3.886  1.00 20.00    -0.279 OA
HETATM    4 CL10 UNL     1     -34.103   4.257   4.057  1.00 20.00    -0.043 Cl
ENDBRANCH   1   2
BRANCH   1   5
HETATM    5  C5  UNL     1     -33.091   5.720   1.334  1.00 20.00     0.009 C 
HETATM    6  C3  UNL     1     -31.871   4.882   0.971  1.00 20.00     0.006 C 
ENDBRANCH   1   5
BRANCH   1   7
HETATM    7  C7  UNL     1     -32.947   7.892   2.616  1.00 20.00     0.013 C 
BRANCH   7   8
HETATM    8  C6  UNL     1     -32.053   8.374   1.467  1.00 20.00     0.000 C 
BRANCH   8   9
HETATM    9  C4  UNL     1     -32.404   9.782   0.980  1.00 20.00    -0.005 C 
HETATM   10  C2  UNL     1     -32.665   9.860  -0.516  1.00 20.00     0.005 C 
ENDBRANCH   8   9
ENDBRANCH   7   8
ENDBRANCH   1   7
TORSDOF 5
ENDMDL
MODEL 5
REMARK VINA RESULT:      -2.2      2.379      4.187
REMARK  5 active torsions:
REMARK  status: ('A' for Active; 'I' for Inactive)
REMARK    1  A    between atoms: C1_1  and  C8_8 
REMARK    2  A    between atoms: C4_4  and  C6_6 
REMARK    3  A    between atoms: C5_5  and  C8_8 
REMARK    4  A    between atoms: C6_6  and  C7_7 
REMARK    5  A    between atoms: C7_7  and  C8_8 
ROOT
HETATM    1  C8  UNL     1     -33.077   7.126   2.065  1.00 20.00     0.072 C 
ENDROOT
BRANCH   1   2
HETATM    2  C1  UNL     1     -32.082   8.282   1.958  1.00 20.00     0.223 C 
HETATM    3  O9  UNL     1     -31.218   8.477   2.809  1.00 20.00    -0.279 OA
HETATM    4 CL10 UNL     1     -32.324   9.246   0.528  1.00 20.00    -0.043 Cl
ENDBRANCH   1   2
BRANCH   1   5
HETATM    5  C5  UNL     1     -32.429   5.832   1.539  1.00 20.00     0.009 C 
HETATM    6  C3  UNL     1     -33.307   5.099   0.534  1.00 20.00     0.006 C 
ENDBRANCH   1   5
BRANCH   1   7
HETATM    7  C7  UNL     1     -33.510   6.947   3.532  1.00 20.00     0.013 C 
BRANCH   7   8
HETATM    8  C6  UNL     1     -34.998   6.602   3.667  1.00 20.00     0.000 C 
BRANCH   8   9
HETATM    9  C4  UNL     1     -35.247   5.291   4.418  1.00 20.00    -0.005 C 
HETATM   10  C2  UNL     1     -34.158   4.253   4.205  1.00 20.00     0.005 C 
ENDBRANCH   8   9
ENDBRANCH   7   8
ENDBRANCH   1   7
TORSDOF 5
ENDMDL
MODEL 6
REMARK VINA RESULT:      -2.2      2.050      4.274
REMARK  5 active torsions:
REMARK  status: ('A' for Active; 'I' for Inactive)
REMARK    1  A    between atoms: C1_1  and  C8_8 
REMARK    2  A    between atoms: C4_4  and  C6_6 
REMARK    3  A    between atoms: C5_5  and  C8_8 
REMARK    4  A    between atoms: C6_6  and  C7_7 
REMARK    5  A    between atoms: C7_7  and  C8_8 
ROOT
HETATM    1  C8  UNL     1     -33.517   6.642   3.500  1.00 20.00     0.072 C 
ENDROOT
BRANCH   1   2
HETATM    2  C1  UNL     1     -32.947   6.639   2.082  1.00 20.00     0.223 C 
HETATM    3  O9  UNL     1     -33.096   5.685   1.322  1.00 20.00    -0.279 OA
HETATM    4 CL10 UNL     1     -32.093   8.108   1.699  1.00 20.00    -0.043 Cl
ENDBRANCH   1   2
BRANCH   1   5
HETATM    5  C5  UNL     1     -33.765   8.091   3.957  1.00 20.00     0.009 C 
HETATM    6  C3  UNL     1     -33.123   8.403   5.303  1.00 20.00     0.006 C 
ENDBRANCH   1   5
BRANCH   1   7
HETATM    7  C7  UNL     1     -34.831   5.840   3.534  1.00 20.00     0.013 C 
BRANCH   7   8
HETATM    8  C6  UNL     1     -34.753   4.621   4.460  1.00 20.00     0.000 C 
BRANCH   8   9
HETATM    9  C4  UNL     1     -33.714   3.589   4.012  1.00 20.00    -0.005 C 
HETATM   10  C2  UNL     1     -32.983   2.921   5.166  1.00 20.00     0.005 C 
ENDBRANCH   8   9
ENDBRANCH   7   8
ENDBRANCH   1   7
TORSDOF 5
ENDMDL
MODEL 7
REMARK VINA RESULT:      -2.0      2.365      4.416
REMARK  5 active torsions:
REMARK  status: ('A' for Active; 'I' for Inactive)
REMARK    1  A    between atoms: C1_1  and  C8_8 
REMARK    2  A    between atoms: C4_4  and  C6_6 
REMARK    3  A    between atoms: C5_5  and  C8_8 
REMARK    4  A    between atoms: C6_6  and  C7_7 
REMARK    5  A    between atoms: C7_7  and  C8_8 
ROOT
HETATM    1  C8  UNL     1     -33.395   6.744   3.509  1.00 20.00     0.072 C 
ENDROOT
BRANCH   1   2
HETATM    2  C1  UNL     1     -32.725   6.979   2.155  1.00 20.00     0.223 C 
HETATM    3  O9  UNL     1     -32.300   8.082   1.822  1.00 20.00    -0.279 OA
HETATM    4 CL10 UNL     1     -32.648   5.535   1.184  1.00 20.00    -0.043 Cl
ENDBRANCH   1   2
BRANCH   1   5
HETATM    5  C5  UNL     1     -33.850   8.089   4.104  1.00 20.00     0.009 C 
HETATM    6  C3  UNL     1     -33.121   8.440   5.394  1.00 20.00     0.006 C 
ENDBRANCH   1   5
BRANCH   1   7
HETATM    7  C7  UNL     1     -34.602   5.803   3.335  1.00 20.00     0.013 C 
BRANCH   7   8
HETATM    8  C6  UNL     1     -34.618   4.671   4.370  1.00 20.00     0.000 C 
BRANCH   8   9
HETATM    9  C4  UNL     1     -33.684   3.512   4.010  1.00 20.00    -0.005 C 
HETATM   10  C2  UNL     1     -32.935   2.942   5.204  1.00 20.00     0.005 C 
ENDBRANCH   8   9
ENDBRANCH   7   8
ENDBRANCH   1   7
TORSDOF 5
ENDMDL
MODEL 8
REMARK VINA RESULT:      -1.9      2.961      4.331
REMARK  5 active torsions:
REMARK  status: ('A' for Active; 'I' for Inactive)
REMARK    1  A    between atoms: C1_1  and  C8_8 
REMARK    2  A    between atoms: C4_4  and  C6_6 
REMARK    3  A    between atoms: C5_5  and  C8_8 
REMARK    4  A    between atoms: C6_6  and  C7_7 
REMARK    5  A    between atoms: C7_7  and  C8_8 
ROOT
HETATM    1  C8  UNL     1     -32.522   7.949   1.773  1.00 20.00     0.072 C 
ENDROOT
BRANCH   1   2
HETATM    2  C1  UNL     1     -31.991   8.970   0.768  1.00 20.00     0.223 C 
HETATM    3  O9  UNL     1     -31.028   8.730   0.043  1.00 20.00    -0.279 OA
HETATM    4 CL10 UNL     1     -32.893  10.460   0.784  1.00 20.00    -0.043 Cl
ENDBRANCH   1   2
BRANCH   1   5
HETATM    5  C5  UNL     1     -31.818   6.596   1.559  1.00 20.00     0.009 C 
HETATM    6  C3  UNL     1     -32.792   5.467   1.244  1.00 20.00     0.006 C 
ENDBRANCH   1   5
BRANCH   1   7
HETATM    7  C7  UNL     1     -32.278   8.455   3.207  1.00 20.00     0.013 C 
BRANCH   7   8
HETATM    8  C6  UNL     1     -33.142   7.725   4.243  1.00 20.00     0.000 C 
BRANCH   8   9
HETATM    9  C4  UNL     1     -34.595   7.544   3.797  1.00 20.00    -0.005 C 
HETATM   10  C2  UNL     1     -35.141   6.149   4.055  1.00 20.00     0.005 C 
ENDBRANCH   8   9
ENDBRANCH   7   8
ENDBRANCH   1   7
TORSDOF 5
ENDMDL
MODEL 9
REMARK VINA RESULT:      -1.7      2.402      4.607
REMARK  5 active torsions:
REMARK  status: ('A' for Active; 'I' for Inactive)
REMARK    1  A    between atoms: C1_1  and  C8_8 
REMARK    2  A    between atoms: C4_4  and  C6_6 
REMARK    3  A    between atoms: C5_5  and  C8_8 
REMARK    4  A    between atoms: C6_6  and  C7_7 
REMARK    5  A    between atoms: C7_7  and  C8_8 
ROOT
HETATM    1  C8  UNL     1     -32.308   7.196   2.218  1.00 20.00     0.072 C 
ENDROOT
BRANCH   1   2
HETATM    2  C1  UNL     1     -32.387   5.922   1.376  1.00 20.00     0.223 C 
HETATM    3  O9  UNL     1     -31.477   5.098   1.356  1.00 20.00    -0.279 OA
HETATM    4 CL10 UNL     1     -33.879   5.798   0.486  1.00 20.00    -0.043 Cl
ENDBRANCH   1   2
BRANCH   1   5
HETATM    5  C5  UNL     1     -31.553   8.287   1.437  1.00 20.00     0.009 C 
HETATM    6  C3  UNL     1     -32.487   9.254   0.721  1.00 20.00     0.006 C 
ENDBRANCH   1   5
BRANCH   1   7
HETATM    7  C7  UNL     1     -33.728   7.678   2.567  1.00 20.00     0.013 C 
BRANCH   7   8
HETATM    8  C6  UNL     1     -34.143   7.298   3.994  1.00 20.00     0.000 C 
BRANCH   8   9
HETATM    9  C4  UNL     1     -35.189   6.181   4.041  1.00 20.00    -0.005 C 
HETATM   10  C2  UNL     1     -34.588   4.792   4.193  1.00 20.00     0.005 C 
ENDBRANCH   8   9
ENDBRANCH   7   8
ENDBRANCH   1   7
TORSDOF 5
ENDMDL
