MODEL 1
REMARK VINA RESULT:      -2.7      0.000      0.000
REMARK  2 active torsions:
REMARK  status: ('A' for Active; 'I' for Inactive)
REMARK    1  A    between atoms: C1_1  and  C5_5 
REMARK    2  A    between atoms: C4_4  and  C5_5 
ROOT
HETATM    1  C1  UNL     1     -32.653   6.904   2.116  1.00 20.00     0.164 C 
HETATM    2  C2  UNL     1     -33.526   6.799   3.122  1.00 20.00     0.301 C 
HETATM    3  F7  UNL     1     -32.339   5.779   1.432  1.00 20.00    -0.205 F 
HETATM    4  F8  UNL     1     -34.063   5.597   3.418  1.00 20.00    -0.170 F 
HETATM    5  F9  UNL     1     -33.878   7.883   3.845  1.00 20.00    -0.170 F 
ENDROOT
BRANCH   1   6
HETATM    6  C5  UNL     1     -31.987   8.184   1.700  1.00 20.00     0.110 C 
BRANCH   6   7
HETATM    7  C4  UNL     1     -32.844   9.080   0.858  1.00 20.00     0.151 A 
HETATM    8  C3  UNL     1     -32.299   9.741  -0.378  1.00 20.00     0.200 A 
HETATM    9  O6  UNL     1     -32.448  10.455   0.860  1.00 20.00    -0.381 OA
ENDBRANCH   6   7
ENDBRANCH   1   6
TORSDOF 2
ENDMDL
MODEL 2
REMARK VINA RESULT:      -2.7      1.897      2.778
REMARK  2 active torsions:
REMARK  status: ('A' for Active; 'I' for Inactive)
REMARK    1  A    between atoms: C1_1  and  C5_5 
REMARK    2  A    between atoms: C4_4  and  C5_5 
ROOT
HETATM    1  C1  UNL     1     -34.250   6.160   3.445  1.00 20.00     0.164 C 
HETATM    2  C2  UNL     1     -34.553   5.007   4.046  1.00 20.00     0.301 C 
HETATM    3  F7  UNL     1     -34.970   7.256   3.782  1.00 20.00    -0.205 F 
HETATM    4  F8  UNL     1     -35.547   4.970   4.959  1.00 20.00    -0.170 F 
HETATM    5  F9  UNL     1     -33.876   3.877   3.752  1.00 20.00    -0.170 F 
ENDROOT
BRANCH   1   6
HETATM    6  C5  UNL     1     -33.173   6.322   2.412  1.00 20.00     0.110 C 
BRANCH   6   7
HETATM    7  C4  UNL     1     -32.460   7.639   2.465  1.00 20.00     0.151 A 
HETATM    8  C3  UNL     1     -32.399   8.539   1.263  1.00 20.00     0.200 A 
HETATM    9  O6  UNL     1     -31.288   7.713   1.646  1.00 20.00    -0.381 OA
ENDBRANCH   6   7
ENDBRANCH   1   6
TORSDOF 2
ENDMDL
MODEL 3
REMARK VINA RESULT:      -2.4      0.668      1.838
REMARK  2 active torsions:
REMARK  status: ('A' for Active; 'I' for Inactive)
REMARK    1  A    between atoms: C1_1  and  C5_5 
REMARK    2  A    between atoms: C4_4  and  C5_5 
ROOT
HETATM    1  C1  UNL     1     -32.704   7.225   2.269  1.00 20.00     0.164 C 
HETATM    2  C2  UNL     1     -32.707   5.920   1.984  1.00 20.00     0.301 C 
HETATM    3  F7  UNL     1     -33.434   7.641   3.331  1.00 20.00    -0.205 F 
HETATM    4  F8  UNL     1     -33.420   5.070   2.753  1.00 20.00    -0.170 F 
HETATM    5  F9  UNL     1     -32.002   5.441   0.937  1.00 20.00    -0.170 F 
ENDROOT
BRANCH   1   6
HETATM    6  C5  UNL     1     -31.956   8.263   1.485  1.00 20.00     0.110 C 
BRANCH   6   7
HETATM    7  C4  UNL     1     -32.833   9.234   0.754  1.00 20.00     0.151 A 
HETATM    8  C3  UNL     1     -32.383   9.874  -0.530  1.00 20.00     0.200 A 
HETATM    9  O6  UNL     1     -32.336  10.577   0.723  1.00 20.00    -0.381 OA
ENDBRANCH   6   7
ENDBRANCH   1   6
TORSDOF 2
ENDMDL
MODEL 4
REMARK VINA RESULT:      -2.3      2.736      4.000
REMARK  2 active torsions:
REMARK  status: ('A' for Active; 'I' for Inactive)
REMARK    1  A    between atoms: C1_1  and  C5_5 
REMARK    2  A    between atoms: C4_4  and  C5_5 
ROOT
HETATM    1  C1  UNL     1     -32.133   7.798   1.803  1.00 20.00     0.164 C 
HETATM    2  C2  UNL     1     -32.020   8.856   0.995  1.00 20.00     0.301 C 
HETATM    3  F7  UNL     1     -31.378   6.709   1.526  1.00 20.00    -0.205 F 
HETATM    4  F8  UNL     1     -31.167   8.810  -0.050  1.00 20.00    -0.170 F 
HETATM    5  F9  UNL     1     -32.747   9.972   1.214  1.00 20.00    -0.170 F 
ENDROOT
BRANCH   1   6
HETATM    6  C5  UNL     1     -33.049   7.731   2.989  1.00 20.00     0.110 C 
BRANCH   6   7
HETATM    7  C4  UNL     1     -34.134   6.703   2.874  1.00 20.00     0.151 A 
HETATM    8  C3  UNL     1     -35.080   6.439   4.011  1.00 20.00     0.200 A 
HETATM    9  O6  UNL     1     -33.971   5.568   3.731  1.00 20.00    -0.381 OA
ENDBRANCH   6   7
ENDBRANCH   1   6
TORSDOF 2
ENDMDL
MODEL 5
REMARK VINA RESULT:      -2.3      1.704      2.137
REMARK  2 active torsions:
REMARK  status: ('A' for Active; 'I' for Inactive)
REMARK    1  A    between atoms: C1_1  and  C5_5 
REMARK    2  A    between atoms: C4_4  and  C5_5 
ROOT
HETATM    1  C1  UNL     1     -33.883   5.764   3.122  1.00 20.00     0.164 C 
HETATM    2  C2  UNL     1     -34.754   6.516   3.801  1.00 20.00     0.301 C 
HETATM    3  F7  UNL     1     -33.775   4.459   3.464  1.00 20.00    -0.205 F 
HETATM    4  F8  UNL     1     -35.491   5.960   4.786  1.00 20.00    -0.170 F 
HETATM    5  F9  UNL     1     -34.907   7.825   3.511  1.00 20.00    -0.170 F 
ENDROOT
BRANCH   1   6
HETATM    6  C5  UNL     1     -33.007   6.271   2.014  1.00 20.00     0.110 C 
BRANCH   6   7
HETATM    7  C4  UNL     1     -32.362   7.595   2.294  1.00 20.00     0.151 A 
HETATM    8  C3  UNL     1     -32.294   8.665   1.241  1.00 20.00     0.200 A 
HETATM    9  O6  UNL     1     -31.161   7.839   1.554  1.00 20.00    -0.381 OA
ENDBRANCH   6   7
ENDBRANCH   1   6
TORSDOF 2
ENDMDL
MODEL 6
REMARK VINA RESULT:      -2.2      3.881      5.306
REMARK  2 active torsions:
REMARK  status: ('A' for Active; 'I' for Inactive)
REMARK    1  A    between atoms: C1_1  and  C5_5 
REMARK    2  A    between atoms: C4_4  and  C5_5 
ROOT
HETATM    1  C1  UNL     1     -34.504   6.059   3.832  1.00 20.00     0.164 C 
HETATM    2  C2  UNL     1     -33.993   7.255   3.528  1.00 20.00     0.301 C 
HETATM    3  F7  UNL     1     -35.677   6.027   4.508  1.00 20.00    -0.205 F 
HETATM    4  F8  UNL     1     -34.652   8.375   3.890  1.00 20.00    -0.170 F 
HETATM    5  F9  UNL     1     -32.825   7.355   2.859  1.00 20.00    -0.170 F 
ENDROOT
BRANCH   1   6
HETATM    6  C5  UNL     1     -33.860   4.747   3.489  1.00 20.00     0.110 C 
BRANCH   6   7
HETATM    7  C4  UNL     1     -33.937   3.718   4.576  1.00 20.00     0.151 A 
HETATM    8  C3  UNL     1     -32.697   3.055   5.108  1.00 20.00     0.200 A 
HETATM    9  O6  UNL     1     -33.565   2.397   4.170  1.00 20.00    -0.381 OA
ENDBRANCH   6   7
ENDBRANCH   1   6
TORSDOF 2
ENDMDL
MODEL 7
REMARK VINA RESULT:      -2.1      1.775      2.179
REMARK  2 active torsions:
REMARK  status: ('A' for Active; 'I' for Inactive)
REMARK    1  A    between atoms: C1_1  and  C5_5 
REMARK    2  A    between atoms: C4_4  and  C5_5 
ROOT
HETATM    1  C1  UNL     1     -33.848   6.018   3.188  1.00 20.00     0.164 C 
HETATM    2  C2  UNL     1     -34.725   5.544   4.077  1.00 20.00     0.301 C 
HETATM    3  F7  UNL     1     -33.020   5.133   2.585  1.00 20.00    -0.205 F 
HETATM    4  F8  UNL     1     -34.764   4.220   4.338  1.00 20.00    -0.170 F 
HETATM    5  F9  UNL     1     -35.577   6.375   4.716  1.00 20.00    -0.170 F 
ENDROOT
BRANCH   1   6
HETATM    6  C5  UNL     1     -33.709   7.467   2.822  1.00 20.00     0.110 C 
BRANCH   6   7
HETATM    7  C4  UNL     1     -32.305   7.894   2.514  1.00 20.00     0.151 A 
HETATM    8  C3  UNL     1     -31.985   8.673   1.269  1.00 20.00     0.200 A 
HETATM    9  O6  UNL     1     -31.731   7.262   1.365  1.00 20.00    -0.381 OA
ENDBRANCH   6   7
ENDBRANCH   1   6
TORSDOF 2
ENDMDL
MODEL 8
REMARK VINA RESULT:      -2.1      2.454      3.751
REMARK  2 active torsions:
REMARK  status: ('A' for Active; 'I' for Inactive)
REMARK    1  A    between atoms: C1_1  and  C5_5 
REMARK    2  A    between atoms: C4_4  and  C5_5 
ROOT
HETATM    1  C1  UNL     1     -32.394   6.441   1.636  1.00 20.00     0.164 C 
HETATM    2  C2  UNL     1     -31.974   7.706   1.547  1.00 20.00     0.301 C 
HETATM    3  F7  UNL     1     -31.529   5.462   1.279  1.00 20.00    -0.205 F 
HETATM    4  F8  UNL     1     -30.720   7.965   1.118  1.00 20.00    -0.170 F 
HETATM    5  F9  UNL     1     -32.788   8.728   1.885  1.00 20.00    -0.170 F 
ENDROOT
BRANCH   1   6
HETATM    6  C5  UNL     1     -33.764   6.031   2.092  1.00 20.00     0.110 C 
BRANCH   6   7
HETATM    7  C4  UNL     1     -33.968   6.103   3.575  1.00 20.00     0.151 A 
HETATM    8  C3  UNL     1     -35.346   6.204   4.166  1.00 20.00     0.200 A 
HETATM    9  O6  UNL     1     -34.490   7.352   4.043  1.00 20.00    -0.381 OA
ENDBRANCH   6   7
ENDBRANCH   1   6
TORSDOF 2
ENDMDL
MODEL 9
REMARK VINA RESULT:      -2.0      1.524      1.918
REMARK  2 active torsions:
REMARK  status: ('A' for Active; 'I' for Inactive)
REMARK    1  A    between atoms: C1_1  and  C5_5 
REMARK    2  A    between atoms: C4_4  and  C5_5 
ROOT
HETATM    1  C1  UNL     1     -32.473   8.081   2.980  1.00 20.00     0.164 C 
HETATM    2  C2  UNL     1     -33.474   7.622   3.735  1.00 20.00     0.301 C 
HETATM    3  F7  UNL     1     -31.482   8.769   3.595  1.00 20.00    -0.205 F 
HETATM    4  F8  UNL     1     -33.466   7.849   5.066  1.00 20.00    -0.170 F 
HETATM    5  F9  UNL     1     -34.494   6.931   3.183  1.00 20.00    -0.170 F 
ENDROOT
BRANCH   1   6
HETATM    6  C5  UNL     1     -32.377   7.896   1.494  1.00 20.00     0.110 C 
BRANCH   6   7
HETATM    7  C4  UNL     1     -31.858   9.092   0.755  1.00 20.00     0.151 A 
HETATM    8  C3  UNL     1     -32.708  10.317   0.563  1.00 20.00     0.200 A 
HETATM    9  O6  UNL     1     -32.519   9.356  -0.488  1.00 20.00    -0.381 OA
ENDBRANCH   6   7
ENDBRANCH   1   6
TORSDOF 2
ENDMDL
