MODEL 1
REMARK VINA RESULT:      -3.0      0.000      0.000
REMARK  3 active torsions:
REMARK  status: ('A' for Active; 'I' for Inactive)
REMARK    1  A    between atoms: C2_2  and  O5_5 
REMARK    2  A    between atoms: C3_3  and  C4_4 
REMARK    3  A    between atoms: C3_3  and  O5_5 
ROOT
HETATM    1  C3  UNL     1     -32.422   7.445   1.915  1.00 20.00     0.454 C 
HETATM    2  F6  UNL     1     -31.088   7.620   2.081  1.00 20.00    -0.166 F 
HETATM    3  F7  UNL     1     -33.035   7.802   3.070  1.00 20.00    -0.166 F 
ENDROOT
BRANCH   1   4
HETATM    4  C4  UNL     1     -32.711   6.003   1.609  1.00 20.00     0.484 C 
HETATM    5  F8  UNL     1     -31.574   5.334   1.326  1.00 20.00    -0.163 F 
HETATM    6  F9  UNL     1     -33.300   5.391   2.659  1.00 20.00    -0.163 F 
HETATM    7  F10 UNL     1     -33.535   5.886   0.546  1.00 20.00    -0.163 F 
ENDBRANCH   1   4
BRANCH   1   8
HETATM    8  O5  UNL     1     -32.880   8.279   0.860  1.00 20.00    -0.319 OA
BRANCH   8   9
HETATM    9  C2  UNL     1     -31.937   9.281   0.508  1.00 20.00     0.170 C 
HETATM   10  C1  UNL     1     -32.675  10.563   0.187  1.00 20.00     0.033 C 
ENDBRANCH   8   9
ENDBRANCH   1   8
TORSDOF 3
ENDMDL
MODEL 2
REMARK VINA RESULT:      -2.7      1.919      3.515
REMARK  3 active torsions:
REMARK  status: ('A' for Active; 'I' for Inactive)
REMARK    1  A    between atoms: C2_2  and  O5_5 
REMARK    2  A    between atoms: C3_3  and  C4_4 
REMARK    3  A    between atoms: C3_3  and  O5_5 
ROOT
HETATM    1  C3  UNL     1     -32.669   6.534   1.819  1.00 20.00     0.454 C 
HETATM    2  F6  UNL     1     -31.783   5.575   1.457  1.00 20.00    -0.166 F 
HETATM    3  F7  UNL     1     -33.711   6.486   0.954  1.00 20.00    -0.166 F 
ENDROOT
BRANCH   1   4
HETATM    4  C4  UNL     1     -32.014   7.885   1.752  1.00 20.00     0.484 C 
HETATM    5  F8  UNL     1     -30.943   7.858   0.931  1.00 20.00    -0.163 F 
HETATM    6  F9  UNL     1     -32.869   8.819   1.285  1.00 20.00    -0.163 F 
HETATM    7  F10 UNL     1     -31.591   8.282   2.971  1.00 20.00    -0.163 F 
ENDBRANCH   1   4
BRANCH   1   8
HETATM    8  O5  UNL     1     -33.136   6.274   3.135  1.00 20.00    -0.319 OA
BRANCH   8   9
HETATM    9  C2  UNL     1     -34.297   7.024   3.460  1.00 20.00     0.170 C 
HETATM   10  C1  UNL     1     -35.326   6.100   4.078  1.00 20.00     0.033 C 
ENDBRANCH   8   9
ENDBRANCH   1   8
TORSDOF 3
ENDMDL
MODEL 3
REMARK VINA RESULT:      -2.7      1.919      3.513
REMARK  3 active torsions:
REMARK  status: ('A' for Active; 'I' for Inactive)
REMARK    1  A    between atoms: C2_2  and  O5_5 
REMARK    2  A    between atoms: C3_3  and  C4_4 
REMARK    3  A    between atoms: C3_3  and  O5_5 
ROOT
HETATM    1  C3  UNL     1     -32.671   6.532   1.821  1.00 20.00     0.454 C 
HETATM    2  F6  UNL     1     -31.790   5.569   1.458  1.00 20.00    -0.166 F 
HETATM    3  F7  UNL     1     -33.716   6.487   0.959  1.00 20.00    -0.166 F 
ENDROOT
BRANCH   1   4
HETATM    4  C4  UNL     1     -32.011   7.880   1.751  1.00 20.00     0.484 C 
HETATM    5  F8  UNL     1     -32.870   8.812   1.287  1.00 20.00    -0.163 F 
HETATM    6  F9  UNL     1     -31.586   8.279   2.969  1.00 20.00    -0.163 F 
HETATM    7  F10 UNL     1     -30.942   7.856   0.926  1.00 20.00    -0.163 F 
ENDBRANCH   1   4
BRANCH   1   8
HETATM    8  O5  UNL     1     -33.136   6.275   3.139  1.00 20.00    -0.319 OA
BRANCH   8   9
HETATM    9  C2  UNL     1     -34.300   7.020   3.462  1.00 20.00     0.170 C 
HETATM   10  C1  UNL     1     -35.324   6.093   4.082  1.00 20.00     0.033 C 
ENDBRANCH   8   9
ENDBRANCH   1   8
TORSDOF 3
ENDMDL
MODEL 4
REMARK VINA RESULT:      -2.6      2.069      3.080
REMARK  3 active torsions:
REMARK  status: ('A' for Active; 'I' for Inactive)
REMARK    1  A    between atoms: C2_2  and  O5_5 
REMARK    2  A    between atoms: C3_3  and  C4_4 
REMARK    3  A    between atoms: C3_3  and  O5_5 
ROOT
HETATM    1  C3  UNL     1     -33.795   6.263   2.836  1.00 20.00     0.454 C 
HETATM    2  F6  UNL     1     -34.257   6.165   1.566  1.00 20.00    -0.166 F 
HETATM    3  F7  UNL     1     -33.118   5.124   3.122  1.00 20.00    -0.166 F 
ENDROOT
BRANCH   1   4
HETATM    4  C4  UNL     1     -34.949   6.421   3.786  1.00 20.00     0.484 C 
HETATM    5  F8  UNL     1     -35.182   5.272   4.455  1.00 20.00    -0.163 F 
HETATM    6  F9  UNL     1     -34.701   7.386   4.697  1.00 20.00    -0.163 F 
HETATM    7  F10 UNL     1     -36.080   6.753   3.128  1.00 20.00    -0.163 F 
ENDBRANCH   1   4
BRANCH   1   8
HETATM    8  O5  UNL     1     -32.915   7.373   2.935  1.00 20.00    -0.319 OA
BRANCH   8   9
HETATM    9  C2  UNL     1     -32.027   7.464   1.830  1.00 20.00     0.170 C 
HETATM   10  C1  UNL     1     -32.208   8.810   1.161  1.00 20.00     0.033 C 
ENDBRANCH   8   9
ENDBRANCH   1   8
TORSDOF 3
ENDMDL
MODEL 5
REMARK VINA RESULT:      -2.6      2.054      3.177
REMARK  3 active torsions:
REMARK  status: ('A' for Active; 'I' for Inactive)
REMARK    1  A    between atoms: C2_2  and  O5_5 
REMARK    2  A    between atoms: C3_3  and  C4_4 
REMARK    3  A    between atoms: C3_3  and  O5_5 
ROOT
HETATM    1  C3  UNL     1     -33.780   6.254   2.821  1.00 20.00     0.454 C 
HETATM    2  F6  UNL     1     -34.242   6.167   1.550  1.00 20.00    -0.166 F 
HETATM    3  F7  UNL     1     -33.112   5.108   3.100  1.00 20.00    -0.166 F 
ENDROOT
BRANCH   1   4
HETATM    4  C4  UNL     1     -34.933   6.415   3.771  1.00 20.00     0.484 C 
HETATM    5  F8  UNL     1     -34.680   7.389   4.671  1.00 20.00    -0.163 F 
HETATM    6  F9  UNL     1     -36.065   6.745   3.113  1.00 20.00    -0.163 F 
HETATM    7  F10 UNL     1     -35.168   5.273   4.452  1.00 20.00    -0.163 F 
ENDBRANCH   1   4
BRANCH   1   8
HETATM    8  O5  UNL     1     -32.891   7.356   2.927  1.00 20.00    -0.319 OA
BRANCH   8   9
HETATM    9  C2  UNL     1     -32.009   7.453   1.818  1.00 20.00     0.170 C 
HETATM   10  C1  UNL     1     -32.193   8.803   1.157  1.00 20.00     0.033 C 
ENDBRANCH   8   9
ENDBRANCH   1   8
TORSDOF 3
ENDMDL
MODEL 6
REMARK VINA RESULT:      -2.6      1.296      2.399
REMARK  3 active torsions:
REMARK  status: ('A' for Active; 'I' for Inactive)
REMARK    1  A    between atoms: C2_2  and  O5_5 
REMARK    2  A    between atoms: C3_3  and  C4_4 
REMARK    3  A    between atoms: C3_3  and  O5_5 
ROOT
HETATM    1  C3  UNL     1     -32.502   7.759   2.407  1.00 20.00     0.454 C 
HETATM    2  F6  UNL     1     -32.186   6.608   1.766  1.00 20.00    -0.166 F 
HETATM    3  F7  UNL     1     -31.364   8.261   2.945  1.00 20.00    -0.166 F 
ENDROOT
BRANCH   1   4
HETATM    4  C4  UNL     1     -33.499   7.480   3.495  1.00 20.00     0.484 C 
HETATM    5  F8  UNL     1     -34.624   8.204   3.314  1.00 20.00    -0.163 F 
HETATM    6  F9  UNL     1     -33.847   6.175   3.513  1.00 20.00    -0.163 F 
HETATM    7  F10 UNL     1     -32.997   7.792   4.709  1.00 20.00    -0.163 F 
ENDBRANCH   1   4
BRANCH   1   8
HETATM    8  O5  UNL     1     -33.032   8.689   1.473  1.00 20.00    -0.319 OA
BRANCH   8   9
HETATM    9  C2  UNL     1     -32.028   9.280   0.662  1.00 20.00     0.170 C 
HETATM   10  C1  UNL     1     -32.688  10.148  -0.388  1.00 20.00     0.033 C 
ENDBRANCH   8   9
ENDBRANCH   1   8
TORSDOF 3
ENDMDL
MODEL 7
REMARK VINA RESULT:      -2.6      2.052      3.561
REMARK  3 active torsions:
REMARK  status: ('A' for Active; 'I' for Inactive)
REMARK    1  A    between atoms: C2_2  and  O5_5 
REMARK    2  A    between atoms: C3_3  and  C4_4 
REMARK    3  A    between atoms: C3_3  and  O5_5 
ROOT
HETATM    1  C3  UNL     1     -32.041   7.966   1.904  1.00 20.00     0.454 C 
HETATM    2  F6  UNL     1     -31.079   8.388   2.760  1.00 20.00    -0.166 F 
HETATM    3  F7  UNL     1     -31.692   6.733   1.462  1.00 20.00    -0.166 F 
ENDROOT
BRANCH   1   4
HETATM    4  C4  UNL     1     -32.142   8.914   0.743  1.00 20.00     0.484 C 
HETATM    5  F8  UNL     1     -32.471  10.154   1.163  1.00 20.00    -0.163 F 
HETATM    6  F9  UNL     1     -30.968   9.001   0.081  1.00 20.00    -0.163 F 
HETATM    7  F10 UNL     1     -33.084   8.510  -0.136  1.00 20.00    -0.163 F 
ENDBRANCH   1   4
BRANCH   1   8
HETATM    8  O5  UNL     1     -33.282   7.887   2.591  1.00 20.00    -0.319 OA
BRANCH   8   9
HETATM    9  C2  UNL     1     -33.605   6.561   2.983  1.00 20.00     0.170 C 
HETATM   10  C1  UNL     1     -34.841   6.591   3.857  1.00 20.00     0.033 C 
ENDBRANCH   8   9
ENDBRANCH   1   8
TORSDOF 3
ENDMDL
MODEL 8
REMARK VINA RESULT:      -2.5      2.397      3.100
REMARK  3 active torsions:
REMARK  status: ('A' for Active; 'I' for Inactive)
REMARK    1  A    between atoms: C2_2  and  O5_5 
REMARK    2  A    between atoms: C3_3  and  C4_4 
REMARK    3  A    between atoms: C3_3  and  O5_5 
ROOT
HETATM    1  C3  UNL     1     -33.961   7.497   3.627  1.00 20.00     0.454 C 
HETATM    2  F6  UNL     1     -33.185   7.746   4.710  1.00 20.00    -0.166 F 
HETATM    3  F7  UNL     1     -34.615   8.641   3.311  1.00 20.00    -0.166 F 
ENDROOT
BRANCH   1   4
HETATM    4  C4  UNL     1     -34.952   6.415   3.949  1.00 20.00     0.484 C 
HETATM    5  F8  UNL     1     -35.388   6.527   5.222  1.00 20.00    -0.163 F 
HETATM    6  F9  UNL     1     -36.029   6.483   3.137  1.00 20.00    -0.163 F 
HETATM    7  F10 UNL     1     -34.402   5.191   3.806  1.00 20.00    -0.163 F 
ENDBRANCH   1   4
BRANCH   1   8
HETATM    8  O5  UNL     1     -33.137   7.107   2.536  1.00 20.00    -0.319 OA
BRANCH   8   9
HETATM    9  C2  UNL     1     -32.037   7.984   2.344  1.00 20.00     0.170 C 
HETATM   10  C1  UNL     1     -32.212   8.716   1.030  1.00 20.00     0.033 C 
ENDBRANCH   8   9
ENDBRANCH   1   8
TORSDOF 3
ENDMDL
MODEL 9
REMARK VINA RESULT:      -2.5      2.176      3.875
REMARK  3 active torsions:
REMARK  status: ('A' for Active; 'I' for Inactive)
REMARK    1  A    between atoms: C2_2  and  O5_5 
REMARK    2  A    between atoms: C3_3  and  C4_4 
REMARK    3  A    between atoms: C3_3  and  O5_5 
ROOT
HETATM    1  C3  UNL     1     -33.366   7.573   3.197  1.00 20.00     0.454 C 
HETATM    2  F6  UNL     1     -34.420   8.405   3.015  1.00 20.00    -0.166 F 
HETATM    3  F7  UNL     1     -32.968   7.682   4.488  1.00 20.00    -0.166 F 
ENDROOT
BRANCH   1   4
HETATM    4  C4  UNL     1     -32.241   7.969   2.282  1.00 20.00     0.484 C 
HETATM    5  F8  UNL     1     -31.208   8.480   2.985  1.00 20.00    -0.163 F 
HETATM    6  F9  UNL     1     -31.782   6.907   1.587  1.00 20.00    -0.163 F 
HETATM    7  F10 UNL     1     -32.641   8.904   1.394  1.00 20.00    -0.163 F 
ENDBRANCH   1   4
BRANCH   1   8
HETATM    8  O5  UNL     1     -33.769   6.236   2.938  1.00 20.00    -0.319 OA
BRANCH   8   9
HETATM    9  C2  UNL     1     -34.632   5.723   3.943  1.00 20.00     0.170 C 
HETATM   10  C1  UNL     1     -34.232   4.297   4.258  1.00 20.00     0.033 C 
ENDBRANCH   8   9
ENDBRANCH   1   8
TORSDOF 3
ENDMDL
