MODEL 1
REMARK VINA RESULT:      -2.4      0.000      0.000
REMARK  4 active torsions:
REMARK  status: ('A' for Active; 'I' for Inactive)
REMARK    1  A    between atoms: C1_1  and  C5_5 
REMARK    2  A    between atoms: C1_1  and  C8_8 
REMARK    3  A    between atoms: C6_6  and  C8_8 
REMARK    4  A    between atoms: C7_7  and  C8_8 
ROOT
HETATM    1  C8  UNL     1     -33.318   7.137   2.295  1.00 20.00     0.054 C 
ENDROOT
BRANCH   1   2
HETATM    2  C1  UNL     1     -32.167   8.110   2.024  1.00 20.00     0.130 C 
HETATM    3  O9  UNL     1     -31.354   8.412   2.899  1.00 20.00    -0.298 OA
BRANCH   2   4
HETATM    4  C5  UNL     1     -32.071   8.661   0.610  1.00 20.00     0.074 C 
HETATM    5  C2  UNL     1     -32.587  10.086   0.503  1.00 20.00     0.013 C 
ENDBRANCH   2   4
ENDBRANCH   1   2
BRANCH   1   6
HETATM    6  C6  UNL     1     -34.032   7.444   3.621  1.00 20.00     0.007 C 
HETATM    7  C3  UNL     1     -35.089   6.402   3.969  1.00 20.00     0.006 C 
ENDBRANCH   1   6
BRANCH   1   8
HETATM    8  C7  UNL     1     -32.813   5.685   2.218  1.00 20.00     0.007 C 
HETATM    9  C4  UNL     1     -32.288   5.258   0.853  1.00 20.00     0.006 C 
ENDBRANCH   1   8
TORSDOF 4
ENDMDL
MODEL 2
REMARK VINA RESULT:      -2.4      2.753      4.462
REMARK  4 active torsions:
REMARK  status: ('A' for Active; 'I' for Inactive)
REMARK    1  A    between atoms: C1_1  and  C5_5 
REMARK    2  A    between atoms: C1_1  and  C8_8 
REMARK    3  A    between atoms: C6_6  and  C8_8 
REMARK    4  A    between atoms: C7_7  and  C8_8 
ROOT
HETATM    1  C8  UNL     1     -33.604   5.950   3.537  1.00 20.00     0.054 C 
ENDROOT
BRANCH   1   2
HETATM    2  C1  UNL     1     -34.333   4.714   4.073  1.00 20.00     0.130 C 
HETATM    3  O9  UNL     1     -35.450   4.792   4.587  1.00 20.00    -0.298 OA
BRANCH   2   4
HETATM    4  C5  UNL     1     -33.611   3.385   3.912  1.00 20.00     0.074 C 
HETATM    5  C2  UNL     1     -32.915   2.941   5.186  1.00 20.00     0.013 C 
ENDBRANCH   2   4
ENDBRANCH   1   2
BRANCH   1   6
HETATM    6  C6  UNL     1     -34.389   7.243   3.808  1.00 20.00     0.007 C 
HETATM    7  C3  UNL     1     -33.693   8.145   4.822  1.00 20.00     0.006 C 
ENDBRANCH   1   6
BRANCH   1   8
HETATM    8  C7  UNL     1     -33.269   5.763   2.047  1.00 20.00     0.007 C 
HETATM    9  C4  UNL     1     -32.239   6.740   1.492  1.00 20.00     0.006 C 
ENDBRANCH   1   8
TORSDOF 4
ENDMDL
MODEL 3
REMARK VINA RESULT:      -2.4      1.054      3.823
REMARK  4 active torsions:
REMARK  status: ('A' for Active; 'I' for Inactive)
REMARK    1  A    between atoms: C1_1  and  C5_5 
REMARK    2  A    between atoms: C1_1  and  C8_8 
REMARK    3  A    between atoms: C6_6  and  C8_8 
REMARK    4  A    between atoms: C7_7  and  C8_8 
ROOT
HETATM    1  C8  UNL     1     -33.355   7.125   2.111  1.00 20.00     0.054 C 
ENDROOT
BRANCH   1   2
HETATM    2  C1  UNL     1     -33.886   7.177   3.547  1.00 20.00     0.130 C 
HETATM    3  O9  UNL     1     -33.299   7.800   4.433  1.00 20.00    -0.298 OA
BRANCH   2   4
HETATM    4  C5  UNL     1     -35.189   6.438   3.810  1.00 20.00     0.074 C 
HETATM    5  C2  UNL     1     -34.969   5.068   4.426  1.00 20.00     0.013 C 
ENDBRANCH   2   4
ENDBRANCH   1   2
BRANCH   1   6
HETATM    6  C6  UNL     1     -33.146   5.681   1.627  1.00 20.00     0.007 C 
HETATM    7  C3  UNL     1     -31.683   5.375   1.324  1.00 20.00     0.006 C 
ENDBRANCH   1   6
BRANCH   1   8
HETATM    8  C7  UNL     1     -32.082   7.981   1.985  1.00 20.00     0.007 C 
HETATM    9  C4  UNL     1     -32.128   9.043   0.894  1.00 20.00     0.006 C 
ENDBRANCH   1   8
TORSDOF 4
ENDMDL
MODEL 4
REMARK VINA RESULT:      -2.2      0.436      2.367
REMARK  4 active torsions:
REMARK  status: ('A' for Active; 'I' for Inactive)
REMARK    1  A    between atoms: C1_1  and  C5_5 
REMARK    2  A    between atoms: C1_1  and  C8_8 
REMARK    3  A    between atoms: C6_6  and  C8_8 
REMARK    4  A    between atoms: C7_7  and  C8_8 
ROOT
HETATM    1  C8  UNL     1     -32.878   6.943   2.680  1.00 20.00     0.054 C 
ENDROOT
BRANCH   1   2
HETATM    2  C1  UNL     1     -32.055   8.157   2.240  1.00 20.00     0.130 C 
HETATM    3  O9  UNL     1     -31.344   8.779   3.031  1.00 20.00    -0.298 OA
BRANCH   2   4
HETATM    4  C5  UNL     1     -32.145   8.535   0.770  1.00 20.00     0.074 C 
HETATM    5  C2  UNL     1     -32.515   9.993   0.564  1.00 20.00     0.013 C 
ENDBRANCH   2   4
ENDBRANCH   1   2
BRANCH   1   6
HETATM    6  C6  UNL     1     -33.252   6.041   1.493  1.00 20.00     0.007 C 
HETATM    7  C3  UNL     1     -32.157   5.033   1.160  1.00 20.00     0.006 C 
ENDBRANCH   1   6
BRANCH   1   8
HETATM    8  C7  UNL     1     -34.107   7.399   3.486  1.00 20.00     0.007 C 
HETATM    9  C4  UNL     1     -35.040   6.277   3.926  1.00 20.00     0.006 C 
ENDBRANCH   1   8
TORSDOF 4
ENDMDL
MODEL 5
REMARK VINA RESULT:      -2.2      2.826      4.928
REMARK  4 active torsions:
REMARK  status: ('A' for Active; 'I' for Inactive)
REMARK    1  A    between atoms: C1_1  and  C5_5 
REMARK    2  A    between atoms: C1_1  and  C8_8 
REMARK    3  A    between atoms: C6_6  and  C8_8 
REMARK    4  A    between atoms: C7_7  and  C8_8 
ROOT
HETATM    1  C8  UNL     1     -34.299   6.041   3.223  1.00 20.00     0.054 C 
ENDROOT
BRANCH   1   2
HETATM    2  C1  UNL     1     -34.540   4.775   4.049  1.00 20.00     0.130 C 
HETATM    3  O9  UNL     1     -35.486   4.681   4.833  1.00 20.00    -0.298 OA
BRANCH   2   4
HETATM    4  C5  UNL     1     -33.561   3.632   3.830  1.00 20.00     0.074 C 
HETATM    5  C2  UNL     1     -33.097   3.002   5.131  1.00 20.00     0.013 C 
ENDBRANCH   2   4
ENDBRANCH   1   2
BRANCH   1   6
HETATM    6  C6  UNL     1     -32.871   6.096   2.657  1.00 20.00     0.007 C 
HETATM    7  C3  UNL     1     -32.824   5.781   1.165  1.00 20.00     0.006 C 
ENDBRANCH   1   6
BRANCH   1   8
HETATM    8  C7  UNL     1     -34.656   7.289   4.050  1.00 20.00     0.007 C 
HETATM    9  C4  UNL     1     -33.464   8.026   4.648  1.00 20.00     0.006 C 
ENDBRANCH   1   8
TORSDOF 4
ENDMDL
MODEL 6
REMARK VINA RESULT:      -2.1      2.595      3.863
REMARK  4 active torsions:
REMARK  status: ('A' for Active; 'I' for Inactive)
REMARK    1  A    between atoms: C1_1  and  C5_5 
REMARK    2  A    between atoms: C1_1  and  C8_8 
REMARK    3  A    between atoms: C6_6  and  C8_8 
REMARK    4  A    between atoms: C7_7  and  C8_8 
ROOT
HETATM    1  C8  UNL     1     -33.543   5.332   3.333  1.00 20.00     0.054 C 
ENDROOT
BRANCH   1   2
HETATM    2  C1  UNL     1     -34.580   6.328   3.859  1.00 20.00     0.130 C 
HETATM    3  O9  UNL     1     -35.686   5.962   4.259  1.00 20.00    -0.298 OA
BRANCH   2   4
HETATM    4  C5  UNL     1     -34.157   7.789   3.885  1.00 20.00     0.074 C 
HETATM    5  C2  UNL     1     -33.173   8.093   5.001  1.00 20.00     0.013 C 
ENDBRANCH   2   4
ENDBRANCH   1   2
BRANCH   1   6
HETATM    6  C6  UNL     1     -33.299   5.499   1.824  1.00 20.00     0.007 C 
HETATM    7  C3  UNL     1     -31.937   6.111   1.518  1.00 20.00     0.006 C 
ENDBRANCH   1   6
BRANCH   1   8
HETATM    8  C7  UNL     1     -33.947   3.896   3.711  1.00 20.00     0.007 C 
HETATM    9  C4  UNL     1     -33.096   3.255   4.802  1.00 20.00     0.006 C 
ENDBRANCH   1   8
TORSDOF 4
ENDMDL
MODEL 7
REMARK VINA RESULT:      -2.0      1.225      3.576
REMARK  4 active torsions:
REMARK  status: ('A' for Active; 'I' for Inactive)
REMARK    1  A    between atoms: C1_1  and  C5_5 
REMARK    2  A    between atoms: C1_1  and  C8_8 
REMARK    3  A    between atoms: C6_6  and  C8_8 
REMARK    4  A    between atoms: C7_7  and  C8_8 
ROOT
HETATM    1  C8  UNL     1     -32.701   7.099   2.801  1.00 20.00     0.054 C 
ENDROOT
BRANCH   1   2
HETATM    2  C1  UNL     1     -33.837   7.290   3.809  1.00 20.00     0.130 C 
HETATM    3  O9  UNL     1     -33.756   8.102   4.731  1.00 20.00    -0.298 OA
BRANCH   2   4
HETATM    4  C5  UNL     1     -35.079   6.439   3.592  1.00 20.00     0.074 C 
HETATM    5  C2  UNL     1     -35.057   5.156   4.405  1.00 20.00     0.013 C 
ENDBRANCH   2   4
ENDBRANCH   1   2
BRANCH   1   6
HETATM    6  C6  UNL     1     -32.062   8.437   2.393  1.00 20.00     0.007 C 
HETATM    7  C3  UNL     1     -32.293   8.768   0.923  1.00 20.00     0.006 C 
ENDBRANCH   1   6
BRANCH   1   8
HETATM    8  C7  UNL     1     -33.196   6.287   1.590  1.00 20.00     0.007 C 
HETATM    9  C4  UNL     1     -32.271   5.160   1.149  1.00 20.00     0.006 C 
ENDBRANCH   1   8
TORSDOF 4
ENDMDL
MODEL 8
REMARK VINA RESULT:      -2.0      1.999      3.006
REMARK  4 active torsions:
REMARK  status: ('A' for Active; 'I' for Inactive)
REMARK    1  A    between atoms: C1_1  and  C5_5 
REMARK    2  A    between atoms: C1_1  and  C8_8 
REMARK    3  A    between atoms: C6_6  and  C8_8 
REMARK    4  A    between atoms: C7_7  and  C8_8 
ROOT
HETATM    1  C8  UNL     1     -33.479   5.882   3.360  1.00 20.00     0.054 C 
ENDROOT
BRANCH   1   2
HETATM    2  C1  UNL     1     -32.897   6.135   1.966  1.00 20.00     0.130 C 
HETATM    3  O9  UNL     1     -33.307   5.532   0.973  1.00 20.00    -0.298 OA
BRANCH   2   4
HETATM    4  C5  UNL     1     -31.802   7.187   1.875  1.00 20.00     0.074 C 
HETATM    5  C2  UNL     1     -32.290   8.483   1.253  1.00 20.00     0.013 C 
ENDBRANCH   2   4
ENDBRANCH   1   2
BRANCH   1   6
HETATM    6  C6  UNL     1     -34.176   4.516   3.453  1.00 20.00     0.007 C 
HETATM    7  C3  UNL     1     -33.508   3.589   4.464  1.00 20.00     0.006 C 
ENDBRANCH   1   6
BRANCH   1   8
HETATM    8  C7  UNL     1     -34.402   7.046   3.767  1.00 20.00     0.007 C 
HETATM    9  C4  UNL     1     -33.795   8.031   4.759  1.00 20.00     0.006 C 
ENDBRANCH   1   8
TORSDOF 4
ENDMDL
MODEL 9
REMARK VINA RESULT:      -1.8      1.851      4.343
REMARK  4 active torsions:
REMARK  status: ('A' for Active; 'I' for Inactive)
REMARK    1  A    between atoms: C1_1  and  C5_5 
REMARK    2  A    between atoms: C1_1  and  C8_8 
REMARK    3  A    between atoms: C6_6  and  C8_8 
REMARK    4  A    between atoms: C7_7  and  C8_8 
ROOT
HETATM    1  C8  UNL     1     -33.542   7.227   2.741  1.00 20.00     0.054 C 
ENDROOT
BRANCH   1   2
HETATM    2  C1  UNL     1     -33.483   5.698   2.670  1.00 20.00     0.130 C 
HETATM    3  O9  UNL     1     -32.807   5.114   1.823  1.00 20.00    -0.298 OA
BRANCH   2   4
HETATM    4  C5  UNL     1     -34.285   4.945   3.720  1.00 20.00     0.074 C 
HETATM    5  C2  UNL     1     -33.618   3.648   4.144  1.00 20.00     0.013 C 
ENDBRANCH   2   4
ENDBRANCH   1   2
BRANCH   1   6
HETATM    6  C6  UNL     1     -32.177   7.870   2.447  1.00 20.00     0.007 C 
HETATM    7  C3  UNL     1     -32.182   8.682   1.156  1.00 20.00     0.006 C 
ENDBRANCH   1   6
BRANCH   1   8
HETATM    8  C7  UNL     1     -34.126   7.673   4.094  1.00 20.00     0.007 C 
HETATM    9  C4  UNL     1     -33.116   8.275   5.063  1.00 20.00     0.006 C 
ENDBRANCH   1   8
TORSDOF 4
ENDMDL
