MODEL 1
REMARK VINA RESULT:      -0.3      0.000      0.000
REMARK  0 active torsions:
REMARK  status: ('A' for Active; 'I' for Inactive)
ROOT
HETATM    1  C1  UNL     1     -32.497  10.107   0.263  1.00 20.00     0.014 C 
HETATM    2  C2  UNL     1     -32.506   9.123   0.951  1.00 20.00    -0.091 C 
HETATM    3  C3  UNL     1     -33.321   5.579   3.240  1.00 20.00     0.000 C 
HETATM    4  C4  UNL     1     -32.932   5.384   1.776  1.00 20.00     0.003 C 
HETATM    5  C5  UNL     1     -34.176   6.820   3.447  1.00 20.00     0.003 C 
HETATM    6  C6  UNL     1     -32.899   6.685   0.964  1.00 20.00     0.039 C 
HETATM    7  C7  UNL     1     -33.475   8.106   2.990  1.00 20.00     0.039 C 
HETATM    8  C8  UNL     1     -32.517   7.917   1.796  1.00 20.00     0.099 C 
HETATM    9 CL9  UNL     1     -30.824   7.734   2.390  1.00 20.00    -0.105 Cl
ENDROOT
TORSDOF 0
ENDMDL
MODEL 2
REMARK VINA RESULT:       0.5      1.569      2.237
REMARK  0 active torsions:
REMARK  status: ('A' for Active; 'I' for Inactive)
ROOT
HETATM    1  C1  UNL     1     -32.005   8.450   1.404  1.00 20.00     0.014 C 
HETATM    2  C2  UNL     1     -32.653   7.858   2.222  1.00 20.00    -0.091 C 
HETATM    3  C3  UNL     1     -35.364   5.439   4.517  1.00 20.00     0.000 C 
HETATM    4  C4  UNL     1     -34.050   4.790   4.086  1.00 20.00     0.003 C 
HETATM    5  C5  UNL     1     -35.912   6.383   3.458  1.00 20.00     0.003 C 
HETATM    6  C6  UNL     1     -33.252   5.618   3.071  1.00 20.00     0.039 C 
HETATM    7  C7  UNL     1     -34.938   7.517   3.113  1.00 20.00     0.039 C 
HETATM    8  C8  UNL     1     -33.449   7.132   3.226  1.00 20.00     0.099 C 
HETATM    9 CL9  UNL     1     -32.799   7.659   4.824  1.00 20.00    -0.105 Cl
ENDROOT
TORSDOF 0
ENDMDL
MODEL 3
REMARK VINA RESULT:       0.7      1.911      2.818
REMARK  0 active torsions:
REMARK  status: ('A' for Active; 'I' for Inactive)
ROOT
HETATM    1  C1  UNL     1     -31.381   8.028   1.473  1.00 20.00     0.014 C 
HETATM    2  C2  UNL     1     -32.267   7.332   1.887  1.00 20.00    -0.091 C 
HETATM    3  C3  UNL     1     -35.026   4.852   4.056  1.00 20.00     0.000 C 
HETATM    4  C4  UNL     1     -35.262   6.361   4.107  1.00 20.00     0.003 C 
HETATM    5  C5  UNL     1     -33.546   4.503   4.051  1.00 20.00     0.003 C 
HETATM    6  C6  UNL     1     -34.110   7.188   3.525  1.00 20.00     0.039 C 
HETATM    7  C7  UNL     1     -32.795   5.119   2.864  1.00 20.00     0.039 C 
HETATM    8  C8  UNL     1     -33.355   6.478   2.394  1.00 20.00     0.099 C 
HETATM    9 CL9  UNL     1     -34.465   6.234   0.994  1.00 20.00    -0.105 Cl
ENDROOT
TORSDOF 0
ENDMDL
MODEL 4
REMARK VINA RESULT:       1.1      1.917      3.914
REMARK  0 active torsions:
REMARK  status: ('A' for Active; 'I' for Inactive)
ROOT
HETATM    1  C1  UNL     1     -34.179   4.040   4.529  1.00 20.00     0.014 C 
HETATM    2  C2  UNL     1     -33.983   5.051   3.912  1.00 20.00    -0.091 C 
HETATM    3  C3  UNL     1     -32.510   8.548   1.895  1.00 20.00     0.000 C 
HETATM    4  C4  UNL     1     -32.571   7.254   1.085  1.00 20.00     0.003 C 
HETATM    5  C5  UNL     1     -32.126   8.299   3.345  1.00 20.00     0.003 C 
HETATM    6  C6  UNL     1     -32.866   6.008   1.928  1.00 20.00     0.039 C 
HETATM    7  C7  UNL     1     -33.102   7.360   4.065  1.00 20.00     0.039 C 
HETATM    8  C8  UNL     1     -33.742   6.291   3.155  1.00 20.00     0.099 C 
HETATM    9 CL9  UNL     1     -35.371   6.844   2.612  1.00 20.00    -0.105 Cl
ENDROOT
TORSDOF 0
ENDMDL
MODEL 5
REMARK VINA RESULT:       1.3      1.394      3.590
REMARK  0 active torsions:
REMARK  status: ('A' for Active; 'I' for Inactive)
ROOT
HETATM    1  C1  UNL     1     -35.746   6.154   4.189  1.00 20.00     0.014 C 
HETATM    2  C2  UNL     1     -34.726   6.578   3.720  1.00 20.00    -0.091 C 
HETATM    3  C3  UNL     1     -31.350   7.789   1.353  1.00 20.00     0.000 C 
HETATM    4  C4  UNL     1     -32.519   8.769   1.447  1.00 20.00     0.003 C 
HETATM    5  C5  UNL     1     -31.817   6.342   1.312  1.00 20.00     0.003 C 
HETATM    6  C6  UNL     1     -33.776   8.175   2.093  1.00 20.00     0.039 C 
HETATM    7  C7  UNL     1     -32.640   5.948   2.545  1.00 20.00     0.039 C 
HETATM    8  C8  UNL     1     -33.474   7.099   3.145  1.00 20.00     0.099 C 
HETATM    9 CL9  UNL     1     -32.587   7.845   4.526  1.00 20.00    -0.105 Cl
ENDROOT
TORSDOF 0
ENDMDL
MODEL 6
REMARK VINA RESULT:       1.5      1.420      1.771
REMARK  0 active torsions:
REMARK  status: ('A' for Active; 'I' for Inactive)
ROOT
HETATM    1  C1  UNL     1     -32.194   9.540   0.037  1.00 20.00     0.014 C 
HETATM    2  C2  UNL     1     -32.400   8.831   0.983  1.00 20.00    -0.091 C 
HETATM    3  C3  UNL     1     -33.513   6.936   4.676  1.00 20.00     0.000 C 
HETATM    4  C4  UNL     1     -34.506   6.837   3.519  1.00 20.00     0.003 C 
HETATM    5  C5  UNL     1     -32.799   8.279   4.706  1.00 20.00     0.003 C 
HETATM    6  C6  UNL     1     -34.160   7.736   2.326  1.00 20.00     0.039 C 
HETATM    7  C7  UNL     1     -32.021   8.566   3.416  1.00 20.00     0.039 C 
HETATM    8  C8  UNL     1     -32.653   7.962   2.145  1.00 20.00     0.099 C 
HETATM    9 CL9  UNL     1     -31.857   6.393   1.750  1.00 20.00    -0.105 Cl
ENDROOT
TORSDOF 0
ENDMDL
MODEL 7
REMARK VINA RESULT:       1.6      2.018      3.343
REMARK  0 active torsions:
REMARK  status: ('A' for Active; 'I' for Inactive)
ROOT
HETATM    1  C1  UNL     1     -31.111   4.238   0.438  1.00 20.00     0.014 C 
HETATM    2  C2  UNL     1     -31.914   4.956   0.967  1.00 20.00    -0.091 C 
HETATM    3  C3  UNL     1     -34.365   7.386   3.527  1.00 20.00     0.000 C 
HETATM    4  C4  UNL     1     -33.176   8.069   2.854  1.00 20.00     0.003 C 
HETATM    5  C5  UNL     1     -34.053   5.952   3.925  1.00 20.00     0.003 C 
HETATM    6  C6  UNL     1     -32.212   7.097   2.162  1.00 20.00     0.039 C 
HETATM    7  C7  UNL     1     -33.646   5.079   2.731  1.00 20.00     0.039 C 
HETATM    8  C8  UNL     1     -32.899   5.838   1.615  1.00 20.00     0.099 C 
HETATM    9 CL9  UNL     1     -34.054   6.306   0.312  1.00 20.00    -0.105 Cl
ENDROOT
TORSDOF 0
ENDMDL
MODEL 8
REMARK VINA RESULT:       2.0      1.948      3.279
REMARK  0 active torsions:
REMARK  status: ('A' for Active; 'I' for Inactive)
ROOT
HETATM    1  C1  UNL     1     -33.857   4.810  -0.215  1.00 20.00     0.014 C 
HETATM    2  C2  UNL     1     -33.592   5.352   0.823  1.00 20.00    -0.091 C 
HETATM    3  C3  UNL     1     -32.859   7.968   4.153  1.00 20.00     0.000 C 
HETATM    4  C4  UNL     1     -34.266   7.385   4.026  1.00 20.00     0.003 C 
HETATM    5  C5  UNL     1     -32.245   8.286   2.798  1.00 20.00     0.003 C 
HETATM    6  C6  UNL     1     -34.522   6.670   2.694  1.00 20.00     0.039 C 
HETATM    7  C7  UNL     1     -32.144   7.055   1.889  1.00 20.00     0.039 C 
HETATM    8  C8  UNL     1     -33.268   6.018   2.096  1.00 20.00     0.099 C 
HETATM    9 CL9  UNL     1     -32.697   4.705   3.191  1.00 20.00    -0.105 Cl
ENDROOT
TORSDOF 0
ENDMDL
MODEL 9
REMARK VINA RESULT:       2.3      2.096      3.354
REMARK  0 active torsions:
REMARK  status: ('A' for Active; 'I' for Inactive)
ROOT
HETATM    1  C1  UNL     1     -33.737   8.442   5.669  1.00 20.00     0.014 C 
HETATM    2  C2  UNL     1     -33.750   7.810   4.649  1.00 20.00    -0.091 C 
HETATM    3  C3  UNL     1     -33.004   5.490   1.109  1.00 20.00     0.000 C 
HETATM    4  C4  UNL     1     -33.300   4.719   2.394  1.00 20.00     0.003 C 
HETATM    5  C5  UNL     1     -32.188   6.747   1.370  1.00 20.00     0.003 C 
HETATM    6  C6  UNL     1     -33.310   5.593   3.654  1.00 20.00     0.039 C 
HETATM    7  C7  UNL     1     -32.885   7.719   2.331  1.00 20.00     0.039 C 
HETATM    8  C8  UNL     1     -33.766   7.035   3.396  1.00 20.00     0.099 C 
HETATM    9 CL9  UNL     1     -35.487   7.030   2.859  1.00 20.00    -0.105 Cl
ENDROOT
TORSDOF 0
ENDMDL
