MODEL 1
REMARK VINA RESULT:      -1.8      0.000      0.000
REMARK  0 active torsions:
REMARK  status: ('A' for Active; 'I' for Inactive)
REMARK       I    between atoms: C2_2  and  N4_4 
ROOT
HETATM    1  C1  UNL     1     -32.840   7.088   2.183  1.00 20.00     0.166 C 
HETATM    2  C2  UNL     1     -34.333   6.715   3.741  1.00 20.00     0.240 C 
HETATM    3  C3  UNL     1     -35.297   5.680   4.224  1.00 20.00     0.119 C 
HETATM    4  N4  UNL     1     -33.620   6.330   2.626  1.00 20.00    -0.200 NA
HETATM    5  O5  UNL     1     -34.255   7.778   4.347  1.00 20.00    -0.272 OA
HETATM    6  S6  UNL     1     -31.775   8.093   1.555  1.00 20.00    -0.055 SA
ENDROOT
TORSDOF 0
ENDMDL
MODEL 2
REMARK VINA RESULT:      -1.7      2.675      3.548
REMARK  0 active torsions:
REMARK  status: ('A' for Active; 'I' for Inactive)
REMARK       I    between atoms: C2_2  and  N4_4 
ROOT
HETATM    1  C1  UNL     1     -34.220   6.806   3.611  1.00 20.00     0.166 C 
HETATM    2  C2  UNL     1     -32.695   7.088   2.064  1.00 20.00     0.240 C 
HETATM    3  C3  UNL     1     -31.702   8.083   1.558  1.00 20.00     0.119 C 
HETATM    4  N4  UNL     1     -33.417   7.531   3.152  1.00 20.00    -0.200 NA
HETATM    5  O5  UNL     1     -32.786   6.003   1.499  1.00 20.00    -0.272 OA
HETATM    6  S6  UNL     1     -35.318   5.850   4.258  1.00 20.00    -0.055 SA
ENDROOT
TORSDOF 0
ENDMDL
MODEL 3
REMARK VINA RESULT:      -1.1      1.436      1.436
REMARK  0 active torsions:
REMARK  status: ('A' for Active; 'I' for Inactive)
REMARK       I    between atoms: C2_2  and  N4_4 
ROOT
HETATM    1  C1  UNL     1     -32.961   7.692   2.659  1.00 20.00     0.166 C 
HETATM    2  C2  UNL     1     -34.188   6.072   3.476  1.00 20.00     0.240 C 
HETATM    3  C3  UNL     1     -35.356   5.818   4.373  1.00 20.00     0.119 C 
HETATM    4  N4  UNL     1     -33.869   7.408   3.348  1.00 20.00    -0.200 NA
HETATM    5  O5  UNL     1     -33.630   5.117   2.947  1.00 20.00    -0.272 OA
HETATM    6  S6  UNL     1     -31.735   8.114   1.733  1.00 20.00    -0.055 SA
ENDROOT
TORSDOF 0
ENDMDL
MODEL 4
REMARK VINA RESULT:      -0.8      3.535      4.425
REMARK  0 active torsions:
REMARK  status: ('A' for Active; 'I' for Inactive)
REMARK       I    between atoms: C2_2  and  N4_4 
ROOT
HETATM    1  C1  UNL     1     -32.272   7.647   1.494  1.00 20.00     0.166 C 
HETATM    2  C2  UNL     1     -32.495   9.511   0.367  1.00 20.00     0.240 C 
HETATM    3  C3  UNL     1     -32.375  10.994   0.508  1.00 20.00     0.119 C 
HETATM    4  N4  UNL     1     -32.201   8.819   1.522  1.00 20.00    -0.200 NA
HETATM    5  O5  UNL     1     -32.830   9.046  -0.718  1.00 20.00    -0.272 OA
HETATM    6  S6  UNL     1     -32.358   6.056   1.492  1.00 20.00    -0.055 SA
ENDROOT
TORSDOF 0
ENDMDL
MODEL 5
REMARK VINA RESULT:      -0.6      3.202      3.488
REMARK  0 active torsions:
REMARK  status: ('A' for Active; 'I' for Inactive)
REMARK       I    between atoms: C2_2  and  N4_4 
ROOT
HETATM    1  C1  UNL     1     -33.995   3.841   4.457  1.00 20.00     0.166 C 
HETATM    2  C2  UNL     1     -34.469   5.799   3.597  1.00 20.00     0.240 C 
HETATM    3  C3  UNL     1     -35.527   6.854   3.586  1.00 20.00     0.119 C 
HETATM    4  N4  UNL     1     -34.775   4.716   4.394  1.00 20.00    -0.200 NA
HETATM    5  O5  UNL     1     -33.456   5.970   2.927  1.00 20.00    -0.272 OA
HETATM    6  S6  UNL     1     -32.958   2.636   4.565  1.00 20.00    -0.055 SA
ENDROOT
TORSDOF 0
ENDMDL
MODEL 6
REMARK VINA RESULT:      -0.5      2.502      3.229
REMARK  0 active torsions:
REMARK  status: ('A' for Active; 'I' for Inactive)
REMARK       I    between atoms: C2_2  and  N4_4 
ROOT
HETATM    1  C1  UNL     1     -33.834   6.571   3.296  1.00 20.00     0.166 C 
HETATM    2  C2  UNL     1     -32.488   6.121   1.628  1.00 20.00     0.240 C 
HETATM    3  C3  UNL     1     -32.126   5.035   0.668  1.00 20.00     0.119 C 
HETATM    4  N4  UNL     1     -33.491   5.771   2.507  1.00 20.00    -0.200 NA
HETATM    5  O5  UNL     1     -31.892   7.192   1.563  1.00 20.00    -0.272 OA
HETATM    6  S6  UNL     1     -34.324   7.630   4.380  1.00 20.00    -0.055 SA
ENDROOT
TORSDOF 0
ENDMDL
MODEL 7
REMARK VINA RESULT:      -0.5      1.915      1.994
REMARK  0 active torsions:
REMARK  status: ('A' for Active; 'I' for Inactive)
REMARK       I    between atoms: C2_2  and  N4_4 
ROOT
HETATM    1  C1  UNL     1     -32.668   6.075   1.731  1.00 20.00     0.166 C 
HETATM    2  C2  UNL     1     -33.914   6.584   3.458  1.00 20.00     0.240 C 
HETATM    3  C3  UNL     1     -34.346   7.743   4.297  1.00 20.00     0.119 C 
HETATM    4  N4  UNL     1     -33.055   6.930   2.437  1.00 20.00    -0.200 NA
HETATM    5  O5  UNL     1     -34.338   5.466   3.731  1.00 20.00    -0.272 OA
HETATM    6  S6  UNL     1     -32.122   4.940   0.755  1.00 20.00    -0.055 SA
ENDROOT
TORSDOF 0
ENDMDL
MODEL 8
REMARK VINA RESULT:      -0.5      2.328      3.315
REMARK  0 active torsions:
REMARK  status: ('A' for Active; 'I' for Inactive)
REMARK       I    between atoms: C2_2  and  N4_4 
ROOT
HETATM    1  C1  UNL     1     -34.023   6.380   3.005  1.00 20.00     0.166 C 
HETATM    2  C2  UNL     1     -32.371   7.629   2.291  1.00 20.00     0.240 C 
HETATM    3  C3  UNL     1     -31.426   7.788   1.145  1.00 20.00     0.119 C 
HETATM    4  N4  UNL     1     -33.246   6.574   2.145  1.00 20.00    -0.200 NA
HETATM    5  O5  UNL     1     -32.298   8.414   3.231  1.00 20.00    -0.272 OA
HETATM    6  S6  UNL     1     -35.089   6.089   4.152  1.00 20.00    -0.055 SA
ENDROOT
TORSDOF 0
ENDMDL
MODEL 9
REMARK VINA RESULT:      -0.5      2.826      3.023
REMARK  0 active torsions:
REMARK  status: ('A' for Active; 'I' for Inactive)
REMARK       I    between atoms: C2_2  and  N4_4 
ROOT
HETATM    1  C1  UNL     1     -32.250   9.182   0.643  1.00 20.00     0.166 C 
HETATM    2  C2  UNL     1     -32.371   7.314   1.781  1.00 20.00     0.240 C 
HETATM    3  C3  UNL     1     -31.942   5.883   1.744  1.00 20.00     0.119 C 
HETATM    4  N4  UNL     1     -31.952   8.046   0.690  1.00 20.00    -0.200 NA
HETATM    5  O5  UNL     1     -33.033   7.709   2.736  1.00 20.00    -0.272 OA
HETATM    6  S6  UNL     1     -32.635  10.724   0.547  1.00 20.00    -0.055 SA
ENDROOT
TORSDOF 0
ENDMDL
