MODEL 1
REMARK VINA RESULT:      -1.5      0.000      0.000
REMARK  4 active torsions:
REMARK  status: ('A' for Active; 'I' for Inactive)
REMARK    1  A    between atoms: C1_1  and  C4_4 
REMARK    2  A    between atoms: C2_2  and  C8_8 
REMARK    3  A    between atoms: C8_8  and  C9_9 
REMARK    4  A    between atoms: C8_8  and  O10_10 
ROOT
HETATM    1  C8  UNL     1     -32.802   6.390   2.396  1.00 20.00     0.200 C 
ENDROOT
BRANCH   1   2
HETATM    2  C2  UNL     1     -32.674   7.658   1.664  1.00 20.00    -0.069 C 
HETATM    3  C1  UNL     1     -32.571   8.696   1.067  1.00 20.00    -0.070 C 
BRANCH   3   4
HETATM    4  C4  UNL     1     -32.451   9.927   0.357  1.00 20.00    -0.018 C 
HETATM    5  C3  UNL     1     -32.279   9.904  -0.972  1.00 20.00     0.028 C 
HETATM    6  C5  UNL     1     -32.521  11.216   1.123  1.00 20.00     0.057 C 
ENDBRANCH   3   4
ENDBRANCH   1   2
BRANCH   1   7
HETATM    7  C9  UNL     1     -34.115   6.278   3.200  1.00 20.00     0.018 C 
HETATM    8  C6  UNL     1     -34.297   7.411   4.216  1.00 20.00     0.013 C 
HETATM    9  C7  UNL     1     -34.253   4.918   3.887  1.00 20.00     0.013 C 
ENDBRANCH   1   7
BRANCH   1  10
HETATM   10  O10 UNL     1     -32.712   5.313   1.465  1.00 20.00    -0.383 OA
HETATM   11  H24 UNL     1     -31.847   5.392   1.035  1.00 20.00     0.211 HD
ENDBRANCH   1  10
TORSDOF 4
ENDMDL
MODEL 2
REMARK VINA RESULT:      -0.8      1.508      5.122
REMARK  4 active torsions:
REMARK  status: ('A' for Active; 'I' for Inactive)
REMARK    1  A    between atoms: C1_1  and  C4_4 
REMARK    2  A    between atoms: C2_2  and  C8_8 
REMARK    3  A    between atoms: C8_8  and  C9_9 
REMARK    4  A    between atoms: C8_8  and  O10_10 
ROOT
HETATM    1  C8  UNL     1     -31.940   8.069   1.482  1.00 20.00     0.200 C 
ENDROOT
BRANCH   1   2
HETATM    2  C2  UNL     1     -32.821   7.198   2.272  1.00 20.00    -0.069 C 
HETATM    3  C1  UNL     1     -33.543   6.487   2.916  1.00 20.00    -0.070 C 
BRANCH   3   4
HETATM    4  C4  UNL     1     -34.402   5.645   3.684  1.00 20.00    -0.018 C 
HETATM    5  C3  UNL     1     -35.556   6.139   4.155  1.00 20.00     0.028 C 
HETATM    6  C5  UNL     1     -33.986   4.226   3.942  1.00 20.00     0.057 C 
ENDBRANCH   3   4
ENDBRANCH   1   2
BRANCH   1   7
HETATM    7  C9  UNL     1     -32.702   9.139   0.673  1.00 20.00     0.018 C 
HETATM    8  C6  UNL     1     -32.239   9.234  -0.786  1.00 20.00     0.013 C 
HETATM    9  C7  UNL     1     -32.645  10.514   1.341  1.00 20.00     0.013 C 
ENDBRANCH   1   7
BRANCH   1  10
HETATM   10  O10 UNL     1     -31.011   8.699   2.362  1.00 20.00    -0.383 OA
HETATM   11  H24 UNL     1     -31.475   8.832   3.202  1.00 20.00     0.211 HD
ENDBRANCH   1  10
TORSDOF 4
ENDMDL
MODEL 3
REMARK VINA RESULT:      -0.8      0.803      1.668
REMARK  4 active torsions:
REMARK  status: ('A' for Active; 'I' for Inactive)
REMARK    1  A    between atoms: C1_1  and  C4_4 
REMARK    2  A    between atoms: C2_2  and  C8_8 
REMARK    3  A    between atoms: C8_8  and  C9_9 
REMARK    4  A    between atoms: C8_8  and  O10_10 
ROOT
HETATM    1  C8  UNL     1     -32.874   6.473   2.793  1.00 20.00     0.200 C 
ENDROOT
BRANCH   1   2
HETATM    2  C2  UNL     1     -32.700   7.645   1.925  1.00 20.00    -0.069 C 
HETATM    3  C1  UNL     1     -32.558   8.605   1.216  1.00 20.00    -0.070 C 
BRANCH   3   4
HETATM    4  C4  UNL     1     -32.393   9.744   0.373  1.00 20.00    -0.018 C 
HETATM    5  C3  UNL     1     -32.725  10.957   0.838  1.00 20.00     0.028 C 
HETATM    6  C5  UNL     1     -31.849   9.549  -1.012  1.00 20.00     0.057 C 
ENDBRANCH   3   4
ENDBRANCH   1   2
BRANCH   1   7
HETATM    7  C9  UNL     1     -33.827   6.727   3.980  1.00 20.00     0.018 C 
HETATM    8  C6  UNL     1     -35.287   6.385   3.664  1.00 20.00     0.013 C 
HETATM    9  C7  UNL     1     -33.717   8.159   4.508  1.00 20.00     0.013 C 
ENDBRANCH   1   7
BRANCH   1  10
HETATM   10  O10 UNL     1     -33.364   5.389   2.005  1.00 20.00    -0.383 OA
HETATM   11  H24 UNL     1     -32.774   4.638   2.173  1.00 20.00     0.211 HD
ENDBRANCH   1  10
TORSDOF 4
ENDMDL
MODEL 4
REMARK VINA RESULT:      -0.5      1.762      2.059
REMARK  4 active torsions:
REMARK  status: ('A' for Active; 'I' for Inactive)
REMARK    1  A    between atoms: C1_1  and  C4_4 
REMARK    2  A    between atoms: C2_2  and  C8_8 
REMARK    3  A    between atoms: C8_8  and  C9_9 
REMARK    4  A    between atoms: C8_8  and  O10_10 
ROOT
HETATM    1  C8  UNL     1     -33.635   7.766   3.892  1.00 20.00     0.200 C 
ENDROOT
BRANCH   1   2
HETATM    2  C2  UNL     1     -33.071   8.311   2.649  1.00 20.00    -0.069 C 
HETATM    3  C1  UNL     1     -32.611   8.759   1.633  1.00 20.00    -0.070 C 
BRANCH   3   4
HETATM    4  C4  UNL     1     -32.067   9.290   0.426  1.00 20.00    -0.018 C 
HETATM    5  C3  UNL     1     -31.013   8.685  -0.140  1.00 20.00     0.028 C 
HETATM    6  C5  UNL     1     -32.694  10.514  -0.176  1.00 20.00     0.057 C 
ENDBRANCH   3   4
ENDBRANCH   1   2
BRANCH   1   7
HETATM    7  C9  UNL     1     -33.966   6.261   3.805  1.00 20.00     0.018 C 
HETATM    8  C6  UNL     1     -33.519   5.622   2.485  1.00 20.00     0.013 C 
HETATM    9  C7  UNL     1     -35.450   5.983   4.055  1.00 20.00     0.013 C 
ENDBRANCH   1   7
BRANCH   1  10
HETATM   10  O10 UNL     1     -32.711   7.997   4.954  1.00 20.00    -0.383 OA
HETATM   11  H24 UNL     1     -33.194   8.487   5.637  1.00 20.00     0.211 HD
ENDBRANCH   1  10
TORSDOF 4
ENDMDL
MODEL 5
REMARK VINA RESULT:      -0.5      1.461      5.175
REMARK  4 active torsions:
REMARK  status: ('A' for Active; 'I' for Inactive)
REMARK    1  A    between atoms: C1_1  and  C4_4 
REMARK    2  A    between atoms: C2_2  and  C8_8 
REMARK    3  A    between atoms: C8_8  and  C9_9 
REMARK    4  A    between atoms: C8_8  and  O10_10 
ROOT
HETATM    1  C8  UNL     1     -32.470   6.591   1.205  1.00 20.00     0.200 C 
ENDROOT
BRANCH   1   2
HETATM    2  C2  UNL     1     -33.101   5.825   2.289  1.00 20.00    -0.069 C 
HETATM    3  C1  UNL     1     -33.617   5.197   3.173  1.00 20.00    -0.070 C 
BRANCH   3   4
HETATM    4  C4  UNL     1     -34.233   4.452   4.222  1.00 20.00    -0.018 C 
HETATM    5  C3  UNL     1     -35.383   4.893   4.752  1.00 20.00     0.028 C 
HETATM    6  C5  UNL     1     -33.572   3.193   4.703  1.00 20.00     0.057 C 
ENDBRANCH   3   4
ENDBRANCH   1   2
BRANCH   1   7
HETATM    7  C9  UNL     1     -31.868   7.932   1.674  1.00 20.00     0.018 C 
HETATM    8  C6  UNL     1     -32.326   8.338   3.080  1.00 20.00     0.013 C 
HETATM    9  C7  UNL     1     -32.136   9.063   0.679  1.00 20.00     0.013 C 
ENDBRANCH   1   7
BRANCH   1  10
HETATM   10  O10 UNL     1     -31.453   5.788   0.608  1.00 20.00    -0.383 OA
HETATM   11  H24 UNL     1     -31.857   5.359  -0.161  1.00 20.00     0.211 HD
ENDBRANCH   1  10
TORSDOF 4
ENDMDL
MODEL 6
REMARK VINA RESULT:       0.0      1.663      1.914
REMARK  4 active torsions:
REMARK  status: ('A' for Active; 'I' for Inactive)
REMARK    1  A    between atoms: C1_1  and  C4_4 
REMARK    2  A    between atoms: C2_2  and  C8_8 
REMARK    3  A    between atoms: C8_8  and  C9_9 
REMARK    4  A    between atoms: C8_8  and  O10_10 
ROOT
HETATM    1  C8  UNL     1     -34.026   7.537   3.751  1.00 20.00     0.200 C 
ENDROOT
BRANCH   1   2
HETATM    2  C2  UNL     1     -33.326   8.144   2.610  1.00 20.00    -0.069 C 
HETATM    3  C1  UNL     1     -32.755   8.641   1.678  1.00 20.00    -0.070 C 
BRANCH   3   4
HETATM    4  C4  UNL     1     -32.079   9.230   0.568  1.00 20.00    -0.018 C 
HETATM    5  C3  UNL     1     -31.024   8.600   0.033  1.00 20.00     0.028 C 
HETATM    6  C5  UNL     1     -32.572  10.542   0.032  1.00 20.00     0.057 C 
ENDBRANCH   3   4
ENDBRANCH   1   2
BRANCH   1   7
HETATM    7  C9  UNL     1     -34.500   6.093   3.481  1.00 20.00     0.018 C 
HETATM    8  C6  UNL     1     -35.401   5.538   4.590  1.00 20.00     0.013 C 
HETATM    9  C7  UNL     1     -33.329   5.144   3.221  1.00 20.00     0.013 C 
ENDBRANCH   1   7
BRANCH   1  10
HETATM   10  O10 UNL     1     -33.159   7.557   4.884  1.00 20.00    -0.383 OA
HETATM   11  H24 UNL     1     -32.332   7.970   4.590  1.00 20.00     0.211 HD
ENDBRANCH   1  10
TORSDOF 4
ENDMDL
MODEL 7
REMARK VINA RESULT:       0.1      2.183      5.613
REMARK  4 active torsions:
REMARK  status: ('A' for Active; 'I' for Inactive)
REMARK    1  A    between atoms: C1_1  and  C4_4 
REMARK    2  A    between atoms: C2_2  and  C8_8 
REMARK    3  A    between atoms: C8_8  and  C9_9 
REMARK    4  A    between atoms: C8_8  and  O10_10 
ROOT
HETATM    1  C8  UNL     1     -33.745   6.008   2.228  1.00 20.00     0.200 C 
ENDROOT
BRANCH   1   2
HETATM    2  C2  UNL     1     -33.513   4.925   3.194  1.00 20.00    -0.069 C 
HETATM    3  C1  UNL     1     -33.322   4.040   3.983  1.00 20.00    -0.070 C 
BRANCH   3   4
HETATM    4  C4  UNL     1     -33.094   2.986   4.918  1.00 20.00    -0.018 C 
HETATM    5  C3  UNL     1     -33.373   1.723   4.564  1.00 20.00     0.028 C 
HETATM    6  C5  UNL     1     -32.547   3.326   6.274  1.00 20.00     0.057 C 
ENDBRANCH   3   4
ENDBRANCH   1   2
BRANCH   1   7
HETATM    7  C9  UNL     1     -33.604   7.416   2.843  1.00 20.00     0.018 C 
HETATM    8  C6  UNL     1     -32.194   7.999   2.694  1.00 20.00     0.013 C 
HETATM    9  C7  UNL     1     -34.043   7.451   4.308  1.00 20.00     0.013 C 
ENDBRANCH   1   7
BRANCH   1  10
HETATM   10  O10 UNL     1     -32.828   5.860   1.145  1.00 20.00    -0.383 OA
HETATM   11  H24 UNL     1     -32.962   6.624   0.565  1.00 20.00     0.211 HD
ENDBRANCH   1  10
TORSDOF 4
ENDMDL
MODEL 8
REMARK VINA RESULT:       0.5      2.232      5.892
REMARK  4 active torsions:
REMARK  status: ('A' for Active; 'I' for Inactive)
REMARK    1  A    between atoms: C1_1  and  C4_4 
REMARK    2  A    between atoms: C2_2  and  C8_8 
REMARK    3  A    between atoms: C8_8  and  C9_9 
REMARK    4  A    between atoms: C8_8  and  O10_10 
ROOT
HETATM    1  C8  UNL     1     -34.104   6.655   3.311  1.00 20.00     0.200 C 
ENDROOT
BRANCH   1   2
HETATM    2  C2  UNL     1     -33.756   5.365   3.923  1.00 20.00    -0.069 C 
HETATM    3  C1  UNL     1     -33.473   4.311   4.424  1.00 20.00    -0.070 C 
BRANCH   3   4
HETATM    4  C4  UNL     1     -33.136   3.060   5.022  1.00 20.00    -0.018 C 
HETATM    5  C3  UNL     1     -33.386   1.925   4.354  1.00 20.00     0.028 C 
HETATM    6  C5  UNL     1     -32.509   3.054   6.387  1.00 20.00     0.057 C 
ENDBRANCH   3   4
ENDBRANCH   1   2
BRANCH   1   7
HETATM    7  C9  UNL     1     -33.366   6.921   1.982  1.00 20.00     0.018 C 
HETATM    8  C6  UNL     1     -32.820   5.644   1.331  1.00 20.00     0.013 C 
HETATM    9  C7  UNL     1     -32.251   7.956   2.141  1.00 20.00     0.013 C 
ENDBRANCH   1   7
BRANCH   1  10
HETATM   10  O10 UNL     1     -35.514   6.694   3.096  1.00 20.00    -0.383 OA
HETATM   11  H24 UNL     1     -35.910   7.013   3.921  1.00 20.00     0.211 HD
ENDBRANCH   1  10
TORSDOF 4
ENDMDL
MODEL 9
REMARK VINA RESULT:       0.7      1.800      5.200
REMARK  4 active torsions:
REMARK  status: ('A' for Active; 'I' for Inactive)
REMARK    1  A    between atoms: C1_1  and  C4_4 
REMARK    2  A    between atoms: C2_2  and  C8_8 
REMARK    3  A    between atoms: C8_8  and  C9_9 
REMARK    4  A    between atoms: C8_8  and  O10_10 
ROOT
HETATM    1  C8  UNL     1     -32.721   8.340   2.749  1.00 20.00     0.200 C 
ENDROOT
BRANCH   1   2
HETATM    2  C2  UNL     1     -33.358   7.125   3.277  1.00 20.00    -0.069 C 
HETATM    3  C1  UNL     1     -33.878   6.131   3.707  1.00 20.00    -0.070 C 
BRANCH   3   4
HETATM    4  C4  UNL     1     -34.497   4.951   4.215  1.00 20.00    -0.018 C 
HETATM    5  C3  UNL     1     -35.736   5.026   4.722  1.00 20.00     0.028 C 
HETATM    6  C5  UNL     1     -33.740   3.656   4.168  1.00 20.00     0.057 C 
ENDBRANCH   3   4
ENDBRANCH   1   2
BRANCH   1   7
HETATM    7  C9  UNL     1     -31.798   8.071   1.542  1.00 20.00     0.018 C 
HETATM    8  C6  UNL     1     -32.012   9.059   0.389  1.00 20.00     0.013 C 
HETATM    9  C7  UNL     1     -31.914   6.631   1.038  1.00 20.00     0.013 C 
ENDBRANCH   1   7
BRANCH   1  10
HETATM   10  O10 UNL     1     -33.741   9.267   2.380  1.00 20.00    -0.383 OA
HETATM   11  H24 UNL     1     -33.899   9.139   1.432  1.00 20.00     0.211 HD
ENDBRANCH   1  10
TORSDOF 4
ENDMDL
