MODEL 1
REMARK VINA RESULT:      -2.1      0.000      0.000
REMARK  2 active torsions:
REMARK  status: ('A' for Active; 'I' for Inactive)
REMARK    1  A    between atoms: C2_2  and  C3_3 
REMARK    2  A    between atoms: C2_2  and  N4_4 
ROOT
HETATM    1  C1  UNL     1     -32.159   8.668   1.171  1.00 20.00     0.157 C 
HETATM    2  N4  UNL     1     -31.891   7.754   1.859  1.00 20.00    -0.274 NA
HETATM    3  S5  UNL     1     -32.494   9.916   0.239  1.00 20.00    -0.055 SA
ENDROOT
BRANCH   2   4
HETATM    4  C2  UNL     1     -33.024   6.894   2.209  1.00 20.00     0.165 C 
BRANCH   4   5
HETATM    5  C3  UNL     1     -33.665   7.384   3.496  1.00 20.00     0.136 C 
HETATM    6 CL6  UNL     1     -35.116   6.433   3.898  1.00 20.00    -0.129 Cl
ENDBRANCH   4   5
ENDBRANCH   2   4
TORSDOF 2
ENDMDL
MODEL 2
REMARK VINA RESULT:      -1.6      3.313      3.833
REMARK  2 active torsions:
REMARK  status: ('A' for Active; 'I' for Inactive)
REMARK    1  A    between atoms: C2_2  and  C3_3 
REMARK    2  A    between atoms: C2_2  and  N4_4 
ROOT
HETATM    1  C1  UNL     1     -33.542   6.713   2.743  1.00 20.00     0.157 C 
HETATM    2  N4  UNL     1     -32.715   6.828   1.917  1.00 20.00    -0.274 NA
HETATM    3  S5  UNL     1     -34.670   6.529   3.853  1.00 20.00    -0.055 SA
ENDROOT
BRANCH   2   4
HETATM    4  C2  UNL     1     -31.987   8.098   1.948  1.00 20.00     0.165 C 
BRANCH   4   5
HETATM    5  C3  UNL     1     -31.877   8.665   0.543  1.00 20.00     0.136 C 
HETATM    6 CL6  UNL     1     -32.625  10.277   0.436  1.00 20.00    -0.129 Cl
ENDBRANCH   4   5
ENDBRANCH   2   4
TORSDOF 2
ENDMDL
MODEL 3
REMARK VINA RESULT:      -1.5      2.147      2.412
REMARK  2 active torsions:
REMARK  status: ('A' for Active; 'I' for Inactive)
REMARK    1  A    between atoms: C2_2  and  C3_3 
REMARK    2  A    between atoms: C2_2  and  N4_4 
ROOT
HETATM    1  C1  UNL     1     -32.832   6.987   2.216  1.00 20.00     0.157 C 
HETATM    2  N4  UNL     1     -33.515   6.123   2.624  1.00 20.00    -0.274 NA
HETATM    3  S5  UNL     1     -31.892   8.140   1.644  1.00 20.00    -0.055 SA
ENDROOT
BRANCH   2   4
HETATM    4  C2  UNL     1     -34.460   6.526   3.667  1.00 20.00     0.165 C 
BRANCH   4   5
HETATM    5  C3  UNL     1     -35.075   5.294   4.310  1.00 20.00     0.136 C 
HETATM    6 CL6  UNL     1     -33.967   3.902   4.230  1.00 20.00    -0.129 Cl
ENDBRANCH   4   5
ENDBRANCH   2   4
TORSDOF 2
ENDMDL
MODEL 4
REMARK VINA RESULT:      -1.5      2.317      2.610
REMARK  2 active torsions:
REMARK  status: ('A' for Active; 'I' for Inactive)
REMARK    1  A    between atoms: C2_2  and  C3_3 
REMARK    2  A    between atoms: C2_2  and  N4_4 
ROOT
HETATM    1  C1  UNL     1     -33.159   7.667   3.063  1.00 20.00     0.157 C 
HETATM    2  N4  UNL     1     -33.924   7.502   3.939  1.00 20.00    -0.274 NA
HETATM    3  S5  UNL     1     -32.113   7.916   1.888  1.00 20.00    -0.055 SA
ENDROOT
BRANCH   2   4
HETATM    4  C2  UNL     1     -34.734   6.286   3.829  1.00 20.00     0.165 C 
BRANCH   4   5
HETATM    5  C3  UNL     1     -33.887   5.151   3.280  1.00 20.00     0.136 C 
HETATM    6 CL6  UNL     1     -33.903   3.746   4.374  1.00 20.00    -0.129 Cl
ENDBRANCH   4   5
ENDBRANCH   2   4
TORSDOF 2
ENDMDL
MODEL 5
REMARK VINA RESULT:      -1.5      1.640      1.690
REMARK  2 active torsions:
REMARK  status: ('A' for Active; 'I' for Inactive)
REMARK    1  A    between atoms: C2_2  and  C3_3 
REMARK    2  A    between atoms: C2_2  and  N4_4 
ROOT
HETATM    1  C1  UNL     1     -32.167   8.869   1.010  1.00 20.00     0.157 C 
HETATM    2  N4  UNL     1     -31.894   7.960   1.701  1.00 20.00    -0.274 NA
HETATM    3  S5  UNL     1     -32.511  10.098   0.056  1.00 20.00    -0.055 SA
ENDROOT
BRANCH   2   4
HETATM    4  C2  UNL     1     -32.849   7.700   2.781  1.00 20.00     0.165 C 
BRANCH   4   5
HETATM    5  C3  UNL     1     -33.420   6.300   2.639  1.00 20.00     0.136 C 
HETATM    6 CL6  UNL     1     -32.582   5.386   1.361  1.00 20.00    -0.129 Cl
ENDBRANCH   4   5
ENDBRANCH   2   4
TORSDOF 2
ENDMDL
MODEL 6
REMARK VINA RESULT:      -1.3      3.376      3.783
REMARK  2 active torsions:
REMARK  status: ('A' for Active; 'I' for Inactive)
REMARK    1  A    between atoms: C2_2  and  C3_3 
REMARK    2  A    between atoms: C2_2  and  N4_4 
ROOT
HETATM    1  C1  UNL     1     -34.306   6.781   3.543  1.00 20.00     0.157 C 
HETATM    2  N4  UNL     1     -35.271   6.253   3.955  1.00 20.00    -0.274 NA
HETATM    3  S5  UNL     1     -33.014   7.520   2.974  1.00 20.00    -0.055 SA
ENDROOT
BRANCH   2   4
HETATM    4  C2  UNL     1     -35.040   4.949   4.579  1.00 20.00     0.165 C 
BRANCH   4   5
HETATM    5  C3  UNL     1     -33.970   4.192   3.811  1.00 20.00     0.136 C 
HETATM    6 CL6  UNL     1     -33.192   2.958   4.833  1.00 20.00    -0.129 Cl
ENDBRANCH   4   5
ENDBRANCH   2   4
TORSDOF 2
ENDMDL
MODEL 7
REMARK VINA RESULT:      -1.2      4.174      4.663
REMARK  2 active torsions:
REMARK  status: ('A' for Active; 'I' for Inactive)
REMARK    1  A    between atoms: C2_2  and  C3_3 
REMARK    2  A    between atoms: C2_2  and  N4_4 
ROOT
HETATM    1  C1  UNL     1     -34.286   4.643   4.176  1.00 20.00     0.157 C 
HETATM    2  N4  UNL     1     -34.893   5.620   3.939  1.00 20.00    -0.274 NA
HETATM    3  S5  UNL     1     -33.489   3.303   4.503  1.00 20.00    -0.055 SA
ENDROOT
BRANCH   2   4
HETATM    4  C2  UNL     1     -34.077   6.774   3.556  1.00 20.00     0.165 C 
BRANCH   4   5
HETATM    5  C3  UNL     1     -33.240   6.432   2.336  1.00 20.00     0.136 C 
HETATM    6 CL6  UNL     1     -32.161   7.778   1.893  1.00 20.00    -0.129 Cl
ENDBRANCH   4   5
ENDBRANCH   2   4
TORSDOF 2
ENDMDL
MODEL 8
REMARK VINA RESULT:      -1.1      1.888      2.027
REMARK  2 active torsions:
REMARK  status: ('A' for Active; 'I' for Inactive)
REMARK    1  A    between atoms: C2_2  and  C3_3 
REMARK    2  A    between atoms: C2_2  and  N4_4 
ROOT
HETATM    1  C1  UNL     1     -32.631   6.756   1.802  1.00 20.00     0.157 C 
HETATM    2  N4  UNL     1     -33.190   5.731   1.935  1.00 20.00    -0.274 NA
HETATM    3  S5  UNL     1     -31.867   8.138   1.592  1.00 20.00    -0.055 SA
ENDROOT
BRANCH   2   4
HETATM    4  C2  UNL     1     -33.707   5.482   3.282  1.00 20.00     0.165 C 
BRANCH   4   5
HETATM    5  C3  UNL     1     -34.723   6.549   3.650  1.00 20.00     0.136 C 
HETATM    6 CL6  UNL     1     -33.993   7.816   4.666  1.00 20.00    -0.129 Cl
ENDBRANCH   4   5
ENDBRANCH   2   4
TORSDOF 2
ENDMDL
MODEL 9
REMARK VINA RESULT:      -1.0      2.263      2.521
REMARK  2 active torsions:
REMARK  status: ('A' for Active; 'I' for Inactive)
REMARK    1  A    between atoms: C2_2  and  C3_3 
REMARK    2  A    between atoms: C2_2  and  N4_4 
ROOT
HETATM    1  C1  UNL     1     -32.932   6.842   2.221  1.00 20.00     0.157 C 
HETATM    2  N4  UNL     1     -33.265   7.743   2.897  1.00 20.00    -0.274 NA
HETATM    3  S5  UNL     1     -32.468   5.639   1.286  1.00 20.00    -0.055 SA
ENDROOT
BRANCH   2   4
HETATM    4  C2  UNL     1     -33.978   7.366   4.120  1.00 20.00     0.165 C 
BRANCH   4   5
HETATM    5  C3  UNL     1     -35.165   6.484   3.773  1.00 20.00     0.136 C 
HETATM    6 CL6  UNL     1     -34.960   4.838   4.420  1.00 20.00    -0.129 Cl
ENDBRANCH   4   5
ENDBRANCH   2   4
TORSDOF 2
ENDMDL
