MODEL 1
REMARK VINA RESULT:      -3.1      0.000      0.000
REMARK  2 active torsions:
REMARK  status: ('A' for Active; 'I' for Inactive)
REMARK    1  A    between atoms: C1_1  and  C2_2 
REMARK    2  A    between atoms: C1_1  and  C3_3 
ROOT
HETATM    1  C1  UNL     1     -33.125   6.989   2.527  1.00 20.00     0.245 C 
HETATM    2  O4  UNL     1     -33.263   5.921   1.932  1.00 20.00    -0.287 OA
ENDROOT
BRANCH   1   3
HETATM    3  C2  UNL     1     -33.973   7.406   3.706  1.00 20.00     0.202 C 
HETATM    4 CL8  UNL     1     -35.301   6.261   3.956  1.00 20.00    -0.122 Cl
ENDBRANCH   1   3
BRANCH   1   5
HETATM    5  C3  UNL     1     -32.071   7.972   2.099  1.00 20.00     0.452 C 
HETATM    6  F5  UNL     1     -31.095   7.377   1.369  1.00 20.00    -0.163 F 
HETATM    7  F6  UNL     1     -31.468   8.559   3.163  1.00 20.00    -0.163 F 
HETATM    8  F7  UNL     1     -32.581   8.971   1.335  1.00 20.00    -0.163 F 
ENDBRANCH   1   5
TORSDOF 2
ENDMDL
MODEL 2
REMARK VINA RESULT:      -3.0      0.104      1.329
REMARK  2 active torsions:
REMARK  status: ('A' for Active; 'I' for Inactive)
REMARK    1  A    between atoms: C1_1  and  C2_2 
REMARK    2  A    between atoms: C1_1  and  C3_3 
ROOT
HETATM    1  C1  UNL     1     -33.157   6.931   2.486  1.00 20.00     0.245 C 
HETATM    2  O4  UNL     1     -33.318   5.879   1.870  1.00 20.00    -0.287 OA
ENDROOT
BRANCH   1   3
HETATM    3  C2  UNL     1     -33.942   7.305   3.722  1.00 20.00     0.202 C 
HETATM    4 CL8  UNL     1     -35.342   6.238   3.920  1.00 20.00    -0.122 Cl
ENDBRANCH   1   3
BRANCH   1   5
HETATM    5  C3  UNL     1     -32.137   7.936   2.029  1.00 20.00     0.452 C 
HETATM    6  F5  UNL     1     -31.508   8.527   3.076  1.00 20.00    -0.163 F 
HETATM    7  F6  UNL     1     -32.701   8.928   1.295  1.00 20.00    -0.163 F 
HETATM    8  F7  UNL     1     -31.173   7.374   1.257  1.00 20.00    -0.163 F 
ENDBRANCH   1   5
TORSDOF 2
ENDMDL
MODEL 3
REMARK VINA RESULT:      -2.8      2.884      3.319
REMARK  2 active torsions:
REMARK  status: ('A' for Active; 'I' for Inactive)
REMARK    1  A    between atoms: C1_1  and  C2_2 
REMARK    2  A    between atoms: C1_1  and  C3_3 
ROOT
HETATM    1  C1  UNL     1     -32.706   7.255   2.290  1.00 20.00     0.245 C 
HETATM    2  O4  UNL     1     -33.443   7.589   3.217  1.00 20.00    -0.287 OA
ENDROOT
BRANCH   1   3
HETATM    3  C2  UNL     1     -31.673   8.169   1.674  1.00 20.00     0.202 C 
HETATM    4 CL8  UNL     1     -32.445   9.366   0.621  1.00 20.00    -0.122 Cl
ENDBRANCH   1   3
BRANCH   1   5
HETATM    5  C3  UNL     1     -32.797   5.877   1.699  1.00 20.00     0.452 C 
HETATM    6  F5  UNL     1     -33.604   5.848   0.609  1.00 20.00    -0.163 F 
HETATM    7  F6  UNL     1     -33.297   4.980   2.586  1.00 20.00    -0.163 F 
HETATM    8  F7  UNL     1     -31.586   5.407   1.305  1.00 20.00    -0.163 F 
ENDBRANCH   1   5
TORSDOF 2
ENDMDL
MODEL 4
REMARK VINA RESULT:      -2.8      2.923      3.342
REMARK  2 active torsions:
REMARK  status: ('A' for Active; 'I' for Inactive)
REMARK    1  A    between atoms: C1_1  and  C2_2 
REMARK    2  A    between atoms: C1_1  and  C3_3 
ROOT
HETATM    1  C1  UNL     1     -33.118   6.762   2.384  1.00 20.00     0.245 C 
HETATM    2  O4  UNL     1     -33.027   5.897   1.513  1.00 20.00    -0.287 OA
ENDROOT
BRANCH   1   3
HETATM    3  C2  UNL     1     -32.240   7.990   2.437  1.00 20.00     0.202 C 
HETATM    4 CL8  UNL     1     -32.254   8.837   0.881  1.00 20.00    -0.122 Cl
ENDBRANCH   1   3
BRANCH   1   5
HETATM    5  C3  UNL     1     -34.139   6.639   3.479  1.00 20.00     0.452 C 
HETATM    6  F5  UNL     1     -33.919   7.532   4.476  1.00 20.00    -0.163 F 
HETATM    7  F6  UNL     1     -34.128   5.405   4.042  1.00 20.00    -0.163 F 
HETATM    8  F7  UNL     1     -35.402   6.856   3.029  1.00 20.00    -0.163 F 
ENDBRANCH   1   5
TORSDOF 2
ENDMDL
MODEL 5
REMARK VINA RESULT:      -2.8      2.923      3.379
REMARK  2 active torsions:
REMARK  status: ('A' for Active; 'I' for Inactive)
REMARK    1  A    between atoms: C1_1  and  C2_2 
REMARK    2  A    between atoms: C1_1  and  C3_3 
ROOT
HETATM    1  C1  UNL     1     -33.116   6.761   2.383  1.00 20.00     0.245 C 
HETATM    2  O4  UNL     1     -33.025   5.897   1.511  1.00 20.00    -0.287 OA
ENDROOT
BRANCH   1   3
HETATM    3  C2  UNL     1     -32.239   7.990   2.436  1.00 20.00     0.202 C 
HETATM    4 CL8  UNL     1     -32.252   8.835   0.880  1.00 20.00    -0.122 Cl
ENDBRANCH   1   3
BRANCH   1   5
HETATM    5  C3  UNL     1     -34.137   6.637   3.478  1.00 20.00     0.452 C 
HETATM    6  F5  UNL     1     -35.395   6.855   3.021  1.00 20.00    -0.163 F 
HETATM    7  F6  UNL     1     -33.917   7.530   4.475  1.00 20.00    -0.163 F 
HETATM    8  F7  UNL     1     -34.132   5.404   4.046  1.00 20.00    -0.163 F 
ENDBRANCH   1   5
TORSDOF 2
ENDMDL
MODEL 6
REMARK VINA RESULT:      -2.8      2.924      3.373
REMARK  2 active torsions:
REMARK  status: ('A' for Active; 'I' for Inactive)
REMARK    1  A    between atoms: C1_1  and  C2_2 
REMARK    2  A    between atoms: C1_1  and  C3_3 
ROOT
HETATM    1  C1  UNL     1     -33.119   6.764   2.387  1.00 20.00     0.245 C 
HETATM    2  O4  UNL     1     -33.028   5.898   1.518  1.00 20.00    -0.287 OA
ENDROOT
BRANCH   1   3
HETATM    3  C2  UNL     1     -32.242   7.993   2.439  1.00 20.00     0.202 C 
HETATM    4 CL8  UNL     1     -32.252   8.835   0.882  1.00 20.00    -0.122 Cl
ENDBRANCH   1   3
BRANCH   1   5
HETATM    5  C3  UNL     1     -34.142   6.642   3.482  1.00 20.00     0.452 C 
HETATM    6  F5  UNL     1     -34.131   5.409   4.046  1.00 20.00    -0.163 F 
HETATM    7  F6  UNL     1     -35.400   6.857   3.022  1.00 20.00    -0.163 F 
HETATM    8  F7  UNL     1     -33.930   7.535   4.482  1.00 20.00    -0.163 F 
ENDBRANCH   1   5
TORSDOF 2
ENDMDL
MODEL 7
REMARK VINA RESULT:      -2.7      2.125      2.558
REMARK  2 active torsions:
REMARK  status: ('A' for Active; 'I' for Inactive)
REMARK    1  A    between atoms: C1_1  and  C2_2 
REMARK    2  A    between atoms: C1_1  and  C3_3 
ROOT
HETATM    1  C1  UNL     1     -32.761   7.278   2.340  1.00 20.00     0.245 C 
HETATM    2  O4  UNL     1     -32.243   8.212   1.730  1.00 20.00    -0.287 OA
ENDROOT
BRANCH   1   3
HETATM    3  C2  UNL     1     -33.406   7.421   3.699  1.00 20.00     0.202 C 
HETATM    4 CL8  UNL     1     -35.025   6.704   3.702  1.00 20.00    -0.122 Cl
ENDBRANCH   1   3
BRANCH   1   5
HETATM    5  C3  UNL     1     -32.781   5.896   1.750  1.00 20.00     0.452 C 
HETATM    6  F5  UNL     1     -31.557   5.524   1.297  1.00 20.00    -0.163 F 
HETATM    7  F6  UNL     1     -33.635   5.809   0.699  1.00 20.00    -0.163 F 
HETATM    8  F7  UNL     1     -33.168   4.958   2.651  1.00 20.00    -0.163 F 
ENDBRANCH   1   5
TORSDOF 2
ENDMDL
MODEL 8
REMARK VINA RESULT:      -2.7      3.363      3.828
REMARK  2 active torsions:
REMARK  status: ('A' for Active; 'I' for Inactive)
REMARK    1  A    between atoms: C1_1  and  C2_2 
REMARK    2  A    between atoms: C1_1  and  C3_3 
ROOT
HETATM    1  C1  UNL     1     -34.705   5.041   4.195  1.00 20.00     0.245 C 
HETATM    2  O4  UNL     1     -35.602   4.630   4.930  1.00 20.00    -0.287 OA
ENDROOT
BRANCH   1   3
HETATM    3  C2  UNL     1     -33.553   4.185   3.723  1.00 20.00     0.202 C 
HETATM    4 CL8  UNL     1     -33.176   2.932   4.916  1.00 20.00    -0.122 Cl
ENDBRANCH   1   3
BRANCH   1   5
HETATM    5  C3  UNL     1     -34.705   6.463   3.710  1.00 20.00     0.452 C 
HETATM    6  F5  UNL     1     -35.898   6.810   3.165  1.00 20.00    -0.163 F 
HETATM    7  F6  UNL     1     -33.760   6.672   2.760  1.00 20.00    -0.163 F 
HETATM    8  F7  UNL     1     -34.460   7.346   4.712  1.00 20.00    -0.163 F 
ENDBRANCH   1   5
TORSDOF 2
ENDMDL
MODEL 9
REMARK VINA RESULT:      -2.7      3.399      3.845
REMARK  2 active torsions:
REMARK  status: ('A' for Active; 'I' for Inactive)
REMARK    1  A    between atoms: C1_1  and  C2_2 
REMARK    2  A    between atoms: C1_1  and  C3_3 
ROOT
HETATM    1  C1  UNL     1     -33.955   5.635   3.307  1.00 20.00     0.245 C 
HETATM    2  O4  UNL     1     -33.680   4.472   3.596  1.00 20.00    -0.287 OA
ENDROOT
BRANCH   1   3
HETATM    3  C2  UNL     1     -33.197   6.443   2.280  1.00 20.00     0.202 C 
HETATM    4 CL8  UNL     1     -32.297   5.379   1.188  1.00 20.00    -0.122 Cl
ENDBRANCH   1   3
BRANCH   1   5
HETATM    5  C3  UNL     1     -35.097   6.342   3.983  1.00 20.00     0.452 C 
HETATM    6  F5  UNL     1     -34.687   7.470   4.615  1.00 20.00    -0.163 F 
HETATM    7  F6  UNL     1     -35.692   5.558   4.917  1.00 20.00    -0.163 F 
HETATM    8  F7  UNL     1     -36.063   6.711   3.104  1.00 20.00    -0.163 F 
ENDBRANCH   1   5
TORSDOF 2
ENDMDL
