MODEL 1
REMARK VINA RESULT:      -1.2      0.000      0.000
REMARK  0 active torsions:
REMARK  status: ('A' for Active; 'I' for Inactive)
ROOT
HETATM    1  C1  UNL     1     -33.195   7.693   3.319  1.00 20.00     0.134 C 
HETATM    2  C2  UNL     1     -33.404   5.458   2.447  1.00 20.00     0.134 C 
HETATM    3  C3  UNL     1     -32.299   8.041   2.134  1.00 20.00     0.183 C 
HETATM    4  C4  UNL     1     -32.502   5.859   1.283  1.00 20.00     0.183 C 
HETATM    5  N5  UNL     1     -34.134   6.629   2.945  1.00 20.00    -0.224 NA
HETATM    6  O6  UNL     1     -31.592   6.882   1.689  1.00 20.00    -0.389 OA
HETATM    7 CL7  UNL     1     -35.225   6.212   4.272  1.00 20.00    -0.022 Cl
ENDROOT
TORSDOF 0
ENDMDL
MODEL 2
REMARK VINA RESULT:      -1.1      0.546      1.868
REMARK  0 active torsions:
REMARK  status: ('A' for Active; 'I' for Inactive)
ROOT
HETATM    1  C1  UNL     1     -33.599   5.721   2.129  1.00 20.00     0.134 C 
HETATM    2  C2  UNL     1     -33.600   7.823   3.303  1.00 20.00     0.134 C 
HETATM    3  C3  UNL     1     -32.208   6.053   1.596  1.00 20.00     0.183 C 
HETATM    4  C4  UNL     1     -32.210   8.105   2.741  1.00 20.00     0.183 C 
HETATM    5  N5  UNL     1     -33.811   6.376   3.425  1.00 20.00    -0.224 NA
HETATM    6  O6  UNL     1     -32.047   7.467   1.474  1.00 20.00    -0.389 OA
HETATM    7 CL7  UNL     1     -35.395   5.995   4.108  1.00 20.00    -0.022 Cl
ENDROOT
TORSDOF 0
ENDMDL
MODEL 3
REMARK VINA RESULT:      -0.7      2.431      3.032
REMARK  0 active torsions:
REMARK  status: ('A' for Active; 'I' for Inactive)
ROOT
HETATM    1  C1  UNL     1     -33.563   5.541   2.886  1.00 20.00     0.134 C 
HETATM    2  C2  UNL     1     -32.141   7.290   2.041  1.00 20.00     0.134 C 
HETATM    3  C3  UNL     1     -34.374   6.598   3.628  1.00 20.00     0.183 C 
HETATM    4  C4  UNL     1     -32.986   8.306   2.804  1.00 20.00     0.183 C 
HETATM    5  N5  UNL     1     -32.956   6.124   1.684  1.00 20.00    -0.224 NA
HETATM    6  O6  UNL     1     -33.545   7.708   3.975  1.00 20.00    -0.389 OA
HETATM    7 CL7  UNL     1     -32.033   4.931   0.763  1.00 20.00    -0.022 Cl
ENDROOT
TORSDOF 0
ENDMDL
MODEL 4
REMARK VINA RESULT:      -0.6      2.636      2.904
REMARK  0 active torsions:
REMARK  status: ('A' for Active; 'I' for Inactive)
ROOT
HETATM    1  C1  UNL     1     -33.560   8.166   3.125  1.00 20.00     0.134 C 
HETATM    2  C2  UNL     1     -33.092   6.115   1.954  1.00 20.00     0.134 C 
HETATM    3  C3  UNL     1     -34.190   7.348   4.248  1.00 20.00     0.183 C 
HETATM    4  C4  UNL     1     -33.733   5.345   3.105  1.00 20.00     0.183 C 
HETATM    5  N5  UNL     1     -32.526   7.377   2.445  1.00 20.00    -0.224 NA
HETATM    6  O6  UNL     1     -34.744   6.138   3.731  1.00 20.00    -0.389 OA
HETATM    7 CL7  UNL     1     -31.736   8.291   1.156  1.00 20.00    -0.022 Cl
ENDROOT
TORSDOF 0
ENDMDL
MODEL 5
REMARK VINA RESULT:      -0.5      2.697      3.475
REMARK  0 active torsions:
REMARK  status: ('A' for Active; 'I' for Inactive)
ROOT
HETATM    1  C1  UNL     1     -32.942   5.266   2.949  1.00 20.00     0.134 C 
HETATM    2  C2  UNL     1     -34.232   7.184   3.619  1.00 20.00     0.134 C 
HETATM    3  C3  UNL     1     -34.075   4.368   3.437  1.00 20.00     0.183 C 
HETATM    4  C4  UNL     1     -35.335   6.241   4.093  1.00 20.00     0.183 C 
HETATM    5  N5  UNL     1     -33.475   6.565   2.526  1.00 20.00    -0.224 NA
HETATM    6  O6  UNL     1     -34.777   4.995   4.512  1.00 20.00    -0.389 OA
HETATM    7 CL7  UNL     1     -32.208   7.634   1.913  1.00 20.00    -0.022 Cl
ENDROOT
TORSDOF 0
ENDMDL
MODEL 6
REMARK VINA RESULT:      -0.3      2.532      3.252
REMARK  0 active torsions:
REMARK  status: ('A' for Active; 'I' for Inactive)
ROOT
HETATM    1  C1  UNL     1     -32.416   6.051   1.807  1.00 20.00     0.134 C 
HETATM    2  C2  UNL     1     -33.268   7.783   3.245  1.00 20.00     0.134 C 
HETATM    3  C3  UNL     1     -33.533   5.134   2.298  1.00 20.00     0.183 C 
HETATM    4  C4  UNL     1     -34.364   6.826   3.702  1.00 20.00     0.183 C 
HETATM    5  N5  UNL     1     -32.846   7.452   1.880  1.00 20.00    -0.224 NA
HETATM    6  O6  UNL     1     -33.904   5.475   3.634  1.00 20.00    -0.389 OA
HETATM    7 CL7  UNL     1     -31.601   8.557   1.286  1.00 20.00    -0.022 Cl
ENDROOT
TORSDOF 0
ENDMDL
MODEL 7
REMARK VINA RESULT:      -0.3      2.649      3.059
REMARK  0 active torsions:
REMARK  status: ('A' for Active; 'I' for Inactive)
ROOT
HETATM    1  C1  UNL     1     -34.932   4.990   4.668  1.00 20.00     0.134 C 
HETATM    2  C2  UNL     1     -32.951   5.087   3.303  1.00 20.00     0.134 C 
HETATM    3  C3  UNL     1     -35.455   6.229   3.948  1.00 20.00     0.183 C 
HETATM    4  C4  UNL     1     -33.521   6.325   2.615  1.00 20.00     0.183 C 
HETATM    5  N5  UNL     1     -34.042   4.231   3.783  1.00 20.00    -0.224 NA
HETATM    6  O6  UNL     1     -34.368   7.046   3.511  1.00 20.00    -0.389 OA
HETATM    7 CL7  UNL     1     -33.435   2.761   4.555  1.00 20.00    -0.022 Cl
ENDROOT
TORSDOF 0
ENDMDL
MODEL 8
REMARK VINA RESULT:       0.3      2.283      2.619
REMARK  0 active torsions:
REMARK  status: ('A' for Active; 'I' for Inactive)
ROOT
HETATM    1  C1  UNL     1     -32.088   6.990   1.262  1.00 20.00     0.134 C 
HETATM    2  C2  UNL     1     -33.901   5.977   2.480  1.00 20.00     0.134 C 
HETATM    3  C3  UNL     1     -31.830   7.900   2.459  1.00 20.00     0.183 C 
HETATM    4  C4  UNL     1     -33.600   6.911   3.649  1.00 20.00     0.183 C 
HETATM    5  N5  UNL     1     -32.678   5.724   1.709  1.00 20.00    -0.224 NA
HETATM    6  O6  UNL     1     -33.044   8.138   3.174  1.00 20.00    -0.389 OA
HETATM    7 CL7  UNL     1     -32.964   4.614   0.364  1.00 20.00    -0.022 Cl
ENDROOT
TORSDOF 0
ENDMDL
MODEL 9
REMARK VINA RESULT:       1.1      2.791      3.314
REMARK  0 active torsions:
REMARK  status: ('A' for Active; 'I' for Inactive)
ROOT
HETATM    1  C1  UNL     1     -35.342   6.437   3.918  1.00 20.00     0.134 C 
HETATM    2  C2  UNL     1     -33.309   5.506   3.025  1.00 20.00     0.134 C 
HETATM    3  C3  UNL     1     -35.500   5.189   4.782  1.00 20.00     0.183 C 
HETATM    4  C4  UNL     1     -33.515   4.280   3.911  1.00 20.00     0.183 C 
HETATM    5  N5  UNL     1     -33.922   6.686   3.647  1.00 20.00    -0.224 NA
HETATM    6  O6  UNL     1     -34.908   4.060   4.138  1.00 20.00    -0.389 OA
HETATM    7 CL7  UNL     1     -33.678   8.144   2.679  1.00 20.00    -0.022 Cl
ENDROOT
TORSDOF 0
ENDMDL
