MODEL 1
REMARK VINA RESULT:       0.2      0.000      0.000
REMARK  5 active torsions:
REMARK  status: ('A' for Active; 'I' for Inactive)
REMARK    1  A    between atoms: C1_1  and  C2_2 
REMARK    2  A    between atoms: C1_1  and  C3_3 
REMARK    3  A    between atoms: C2_2  and  P11_11 
REMARK    4  A    between atoms: C8_8  and  P11_11 
REMARK    5  A    between atoms: C9_9  and  P11_11 
ROOT
HETATM    1  O10 UNL     1     -30.931   8.127   2.530  1.00 20.00    -0.317 OA
HETATM    2  P11 UNL     1     -32.305   7.721   2.066  1.00 20.00     0.105 P 
ENDROOT
BRANCH   2   3
HETATM    3  C2  UNL     1     -32.767   6.069   1.794  1.00 20.00     0.096 C 
BRANCH   3   4
HETATM    4  C1  UNL     1     -33.418   5.447   2.730  1.00 20.00    -0.141 C 
BRANCH   4   5
HETATM    5  C3  UNL     1     -34.072   4.827   3.674  1.00 20.00     0.026 C 
HETATM    6  C4  UNL     1     -33.625   3.504   4.226  1.00 20.00     0.030 C 
HETATM    7  C5  UNL     1     -35.325   5.390   4.283  1.00 20.00     0.030 C 
ENDBRANCH   4   5
ENDBRANCH   3   4
ENDBRANCH   2   3
BRANCH   2   8
HETATM    8  C8  UNL     1     -32.719   8.531   0.520  1.00 20.00     0.073 C 
HETATM    9  C6  UNL     1     -32.420  10.016   0.548  1.00 20.00     0.013 C 
ENDBRANCH   2   8
BRANCH   2  10
HETATM   10  C9  UNL     1     -33.562   8.326   3.195  1.00 20.00     0.073 C 
HETATM   11  C7  UNL     1     -33.110   8.286   4.639  1.00 20.00     0.013 C 
ENDBRANCH   2  10
TORSDOF 5
ENDMDL
MODEL 2
REMARK VINA RESULT:       0.4      1.195      2.712
REMARK  5 active torsions:
REMARK  status: ('A' for Active; 'I' for Inactive)
REMARK    1  A    between atoms: C1_1  and  C2_2 
REMARK    2  A    between atoms: C1_1  and  C3_3 
REMARK    3  A    between atoms: C2_2  and  P11_11 
REMARK    4  A    between atoms: C8_8  and  P11_11 
REMARK    5  A    between atoms: C9_9  and  P11_11 
ROOT
HETATM    1  O10 UNL     1     -30.690   7.879   2.001  1.00 20.00    -0.317 OA
HETATM    2  P11 UNL     1     -32.191   7.962   2.081  1.00 20.00     0.105 P 
ENDROOT
BRANCH   2   3
HETATM    3  C2  UNL     1     -33.066   7.938   3.581  1.00 20.00     0.096 C 
BRANCH   3   4
HETATM    4  C1  UNL     1     -34.093   7.150   3.685  1.00 20.00    -0.141 C 
BRANCH   4   5
HETATM    5  C3  UNL     1     -35.123   6.354   3.787  1.00 20.00     0.026 C 
HETATM    6  C4  UNL     1     -35.065   5.060   4.548  1.00 20.00     0.030 C 
HETATM    7  C5  UNL     1     -36.446   6.670   3.151  1.00 20.00     0.030 C 
ENDBRANCH   4   5
ENDBRANCH   3   4
ENDBRANCH   2   3
BRANCH   2   8
HETATM    8  C8  UNL     1     -32.952   6.642   1.132  1.00 20.00     0.073 C 
HETATM    9  C6  UNL     1     -32.171   5.347   1.216  1.00 20.00     0.013 C 
ENDBRANCH   2   8
BRANCH   2  10
HETATM   10  C9  UNL     1     -32.790   9.446   1.270  1.00 20.00     0.073 C 
HETATM   11  C7  UNL     1     -32.319   9.551  -0.164  1.00 20.00     0.013 C 
ENDBRANCH   2  10
TORSDOF 5
ENDMDL
MODEL 3
REMARK VINA RESULT:       0.6      1.924      4.761
REMARK  5 active torsions:
REMARK  status: ('A' for Active; 'I' for Inactive)
REMARK    1  A    between atoms: C1_1  and  C2_2 
REMARK    2  A    between atoms: C1_1  and  C3_3 
REMARK    3  A    between atoms: C2_2  and  P11_11 
REMARK    4  A    between atoms: C8_8  and  P11_11 
REMARK    5  A    between atoms: C9_9  and  P11_11 
ROOT
HETATM    1  O10 UNL     1     -33.828   6.124   0.514  1.00 20.00    -0.317 OA
HETATM    2  P11 UNL     1     -32.891   6.282   1.682  1.00 20.00     0.105 P 
ENDROOT
BRANCH   2   3
HETATM    3  C2  UNL     1     -31.970   7.726   1.973  1.00 20.00     0.096 C 
BRANCH   3   4
HETATM    4  C1  UNL     1     -32.212   8.771   1.241  1.00 20.00    -0.141 C 
BRANCH   4   5
HETATM    5  C3  UNL     1     -32.458   9.818   0.502  1.00 20.00     0.026 C 
HETATM    6  C4  UNL     1     -32.631   9.728  -0.987  1.00 20.00     0.030 C 
HETATM    7  C5  UNL     1     -32.589  11.197   1.084  1.00 20.00     0.030 C 
ENDBRANCH   4   5
ENDBRANCH   3   4
ENDBRANCH   2   3
BRANCH   2   8
HETATM    8  C8  UNL     1     -31.649   4.987   1.680  1.00 20.00     0.073 C 
HETATM    9  C6  UNL     1     -31.485   4.346   0.318  1.00 20.00     0.013 C 
ENDBRANCH   2   8
BRANCH   2  10
HETATM   10  C9  UNL     1     -33.757   6.017   3.232  1.00 20.00     0.073 C 
HETATM   11  C7  UNL     1     -34.224   7.312   3.862  1.00 20.00     0.013 C 
ENDBRANCH   2  10
TORSDOF 5
ENDMDL
MODEL 4
REMARK VINA RESULT:       1.1      1.839      4.876
REMARK  5 active torsions:
REMARK  status: ('A' for Active; 'I' for Inactive)
REMARK    1  A    between atoms: C1_1  and  C2_2 
REMARK    2  A    between atoms: C1_1  and  C3_3 
REMARK    3  A    between atoms: C2_2  and  P11_11 
REMARK    4  A    between atoms: C8_8  and  P11_11 
REMARK    5  A    between atoms: C9_9  and  P11_11 
ROOT
HETATM    1  O10 UNL     1     -33.882   5.601   0.935  1.00 20.00    -0.317 OA
HETATM    2  P11 UNL     1     -33.385   6.089   2.270  1.00 20.00     0.105 P 
ENDROOT
BRANCH   2   3
HETATM    3  C2  UNL     1     -32.171   7.319   2.442  1.00 20.00     0.096 C 
BRANCH   3   4
HETATM    4  C1  UNL     1     -32.079   8.230   1.521  1.00 20.00    -0.141 C 
BRANCH   4   5
HETATM    5  C3  UNL     1     -31.985   9.141   0.591  1.00 20.00     0.026 C 
HETATM    6  C4  UNL     1     -32.771  10.420   0.637  1.00 20.00     0.030 C 
HETATM    7  C5  UNL     1     -31.081   8.982  -0.598  1.00 20.00     0.030 C 
ENDBRANCH   4   5
ENDBRANCH   3   4
ENDBRANCH   2   3
BRANCH   2   8
HETATM    8  C8  UNL     1     -32.742   4.727   3.245  1.00 20.00     0.073 C 
HETATM    9  C6  UNL     1     -33.830   3.996   4.004  1.00 20.00     0.013 C 
ENDBRANCH   2   8
BRANCH   2  10
HETATM   10  C9  UNL     1     -34.745   6.701   3.270  1.00 20.00     0.073 C 
HETATM   11  C7  UNL     1     -34.284   7.654   4.352  1.00 20.00     0.013 C 
ENDBRANCH   2  10
TORSDOF 5
ENDMDL
MODEL 5
REMARK VINA RESULT:       1.2      1.802      4.947
REMARK  5 active torsions:
REMARK  status: ('A' for Active; 'I' for Inactive)
REMARK    1  A    between atoms: C1_1  and  C2_2 
REMARK    2  A    between atoms: C1_1  and  C3_3 
REMARK    3  A    between atoms: C2_2  and  P11_11 
REMARK    4  A    between atoms: C8_8  and  P11_11 
REMARK    5  A    between atoms: C9_9  and  P11_11 
ROOT
HETATM    1  O10 UNL     1     -31.570   5.032   1.466  1.00 20.00    -0.317 OA
HETATM    2  P11 UNL     1     -32.590   6.087   1.803  1.00 20.00     0.105 P 
ENDROOT
BRANCH   2   3
HETATM    3  C2  UNL     1     -32.166   7.713   2.244  1.00 20.00     0.096 C 
BRANCH   3   4
HETATM    4  C1  UNL     1     -32.287   8.647   1.350  1.00 20.00    -0.141 C 
BRANCH   4   5
HETATM    5  C3  UNL     1     -32.415   9.586   0.452  1.00 20.00     0.026 C 
HETATM    6  C4  UNL     1     -32.263   9.318  -1.018  1.00 20.00     0.030 C 
HETATM    7  C5  UNL     1     -32.724  11.009   0.820  1.00 20.00     0.030 C 
ENDBRANCH   4   5
ENDBRANCH   3   4
ENDBRANCH   2   3
BRANCH   2   8
HETATM    8  C8  UNL     1     -33.639   5.547   3.155  1.00 20.00     0.073 C 
HETATM    9  C6  UNL     1     -34.506   6.665   3.696  1.00 20.00     0.013 C 
ENDBRANCH   2   8
BRANCH   2  10
HETATM   10  C9  UNL     1     -33.747   6.308   0.449  1.00 20.00     0.073 C 
HETATM   11  C7  UNL     1     -34.094   5.003  -0.233  1.00 20.00     0.013 C 
ENDBRANCH   2  10
TORSDOF 5
ENDMDL
MODEL 6
REMARK VINA RESULT:       1.2      1.800      5.018
REMARK  5 active torsions:
REMARK  status: ('A' for Active; 'I' for Inactive)
REMARK    1  A    between atoms: C1_1  and  C2_2 
REMARK    2  A    between atoms: C1_1  and  C3_3 
REMARK    3  A    between atoms: C2_2  and  P11_11 
REMARK    4  A    between atoms: C8_8  and  P11_11 
REMARK    5  A    between atoms: C9_9  and  P11_11 
ROOT
HETATM    1  O10 UNL     1     -31.593   5.038   1.458  1.00 20.00    -0.317 OA
HETATM    2  P11 UNL     1     -32.605   6.094   1.814  1.00 20.00     0.105 P 
ENDROOT
BRANCH   2   3
HETATM    3  C2  UNL     1     -32.172   7.718   2.251  1.00 20.00     0.096 C 
BRANCH   3   4
HETATM    4  C1  UNL     1     -32.307   8.655   1.361  1.00 20.00    -0.141 C 
BRANCH   4   5
HETATM    5  C3  UNL     1     -32.440   9.592   0.463  1.00 20.00     0.026 C 
HETATM    6  C4  UNL     1     -32.746  11.017   0.827  1.00 20.00     0.030 C 
HETATM    7  C5  UNL     1     -32.298   9.319  -1.007  1.00 20.00     0.030 C 
ENDBRANCH   4   5
ENDBRANCH   3   4
ENDBRANCH   2   3
BRANCH   2   8
HETATM    8  C8  UNL     1     -33.633   5.553   3.182  1.00 20.00     0.073 C 
HETATM    9  C6  UNL     1     -34.527   6.657   3.706  1.00 20.00     0.013 C 
ENDBRANCH   2   8
BRANCH   2  10
HETATM   10  C9  UNL     1     -33.786   6.320   0.481  1.00 20.00     0.073 C 
HETATM   11  C7  UNL     1     -34.096   5.027  -0.241  1.00 20.00     0.013 C 
ENDBRANCH   2  10
TORSDOF 5
ENDMDL
MODEL 7
REMARK VINA RESULT:       1.3      1.923      4.689
REMARK  5 active torsions:
REMARK  status: ('A' for Active; 'I' for Inactive)
REMARK    1  A    between atoms: C1_1  and  C2_2 
REMARK    2  A    between atoms: C1_1  and  C3_3 
REMARK    3  A    between atoms: C2_2  and  P11_11 
REMARK    4  A    between atoms: C8_8  and  P11_11 
REMARK    5  A    between atoms: C9_9  and  P11_11 
ROOT
HETATM    1  O10 UNL     1     -35.255   6.484   3.359  1.00 20.00    -0.317 OA
HETATM    2  P11 UNL     1     -33.801   6.347   2.991  1.00 20.00     0.105 P 
ENDROOT
BRANCH   2   3
HETATM    3  C2  UNL     1     -32.660   7.650   3.119  1.00 20.00     0.096 C 
BRANCH   3   4
HETATM    4  C1  UNL     1     -32.389   8.340   2.052  1.00 20.00    -0.141 C 
BRANCH   4   5
HETATM    5  C3  UNL     1     -32.120   9.037   0.982  1.00 20.00     0.026 C 
HETATM    6  C4  UNL     1     -32.752  10.373   0.714  1.00 20.00     0.030 C 
HETATM    7  C5  UNL     1     -31.157   8.558  -0.066  1.00 20.00     0.030 C 
ENDBRANCH   4   5
ENDBRANCH   3   4
ENDBRANCH   2   3
BRANCH   2   8
HETATM    8  C8  UNL     1     -33.625   5.802   1.291  1.00 20.00     0.073 C 
HETATM    9  C6  UNL     1     -32.300   5.113   1.039  1.00 20.00     0.013 C 
ENDBRANCH   2   8
BRANCH   2  10
HETATM   10  C9  UNL     1     -33.031   5.023   3.927  1.00 20.00     0.073 C 
HETATM   11  C7  UNL     1     -33.987   3.885   4.212  1.00 20.00     0.013 C 
ENDBRANCH   2  10
TORSDOF 5
ENDMDL
MODEL 8
REMARK VINA RESULT:       1.4      2.227      4.586
REMARK  5 active torsions:
REMARK  status: ('A' for Active; 'I' for Inactive)
REMARK    1  A    between atoms: C1_1  and  C2_2 
REMARK    2  A    between atoms: C1_1  and  C3_3 
REMARK    3  A    between atoms: C2_2  and  P11_11 
REMARK    4  A    between atoms: C8_8  and  P11_11 
REMARK    5  A    between atoms: C9_9  and  P11_11 
ROOT
HETATM    1  O10 UNL     1     -36.039   6.533   3.362  1.00 20.00    -0.317 OA
HETATM    2  P11 UNL     1     -34.623   6.085   3.611  1.00 20.00     0.105 P 
ENDROOT
BRANCH   2   3
HETATM    3  C2  UNL     1     -33.450   5.891   2.345  1.00 20.00     0.096 C 
BRANCH   3   4
HETATM    4  C1  UNL     1     -32.728   6.918   2.009  1.00 20.00    -0.141 C 
BRANCH   4   5
HETATM    5  C3  UNL     1     -32.007   7.953   1.672  1.00 20.00     0.026 C 
HETATM    6  C4  UNL     1     -32.175   8.653   0.354  1.00 20.00     0.030 C 
HETATM    7  C5  UNL     1     -30.954   8.525   2.577  1.00 20.00     0.030 C 
ENDBRANCH   4   5
ENDBRANCH   3   4
ENDBRANCH   2   3
BRANCH   2   8
HETATM    8  C8  UNL     1     -34.597   4.499   4.451  1.00 20.00     0.073 C 
HETATM    9  C6  UNL     1     -33.476   3.605   3.963  1.00 20.00     0.013 C 
ENDBRANCH   2   8
BRANCH   2  10
HETATM   10  C9  UNL     1     -33.805   7.178   4.776  1.00 20.00     0.073 C 
HETATM   11  C7  UNL     1     -34.118   8.636   4.518  1.00 20.00     0.013 C 
ENDBRANCH   2  10
TORSDOF 5
ENDMDL
MODEL 9
REMARK VINA RESULT:       1.5      1.538      2.441
REMARK  5 active torsions:
REMARK  status: ('A' for Active; 'I' for Inactive)
REMARK    1  A    between atoms: C1_1  and  C2_2 
REMARK    2  A    between atoms: C1_1  and  C3_3 
REMARK    3  A    between atoms: C2_2  and  P11_11 
REMARK    4  A    between atoms: C8_8  and  P11_11 
REMARK    5  A    between atoms: C9_9  and  P11_11 
ROOT
HETATM    1  O10 UNL     1     -33.636   6.969   0.187  1.00 20.00    -0.317 OA
HETATM    2  P11 UNL     1     -32.823   7.144   1.442  1.00 20.00     0.105 P 
ENDROOT
BRANCH   2   3
HETATM    3  C2  UNL     1     -33.529   7.257   3.025  1.00 20.00     0.096 C 
BRANCH   3   4
HETATM    4  C1  UNL     1     -33.990   6.174   3.575  1.00 20.00    -0.141 C 
BRANCH   4   5
HETATM    5  C3  UNL     1     -34.455   5.089   4.131  1.00 20.00     0.026 C 
HETATM    6  C4  UNL     1     -33.708   3.786   4.100  1.00 20.00     0.030 C 
HETATM    7  C5  UNL     1     -35.775   5.058   4.848  1.00 20.00     0.030 C 
ENDBRANCH   4   5
ENDBRANCH   3   4
ENDBRANCH   2   3
BRANCH   2   8
HETATM    8  C8  UNL     1     -31.799   8.614   1.336  1.00 20.00     0.073 C 
HETATM    9  C6  UNL     1     -32.340   9.623   0.344  1.00 20.00     0.013 C 
ENDBRANCH   2   8
BRANCH   2  10
HETATM   10  C9  UNL     1     -31.622   5.821   1.612  1.00 20.00     0.073 C 
HETATM   11  C7  UNL     1     -31.954   4.625   0.747  1.00 20.00     0.013 C 
ENDBRANCH   2  10
TORSDOF 5
ENDMDL
