MODEL 1
REMARK VINA RESULT:      -2.4      0.000      0.000
REMARK  2 active torsions:
REMARK  status: ('A' for Active; 'I' for Inactive)
REMARK    1  A    between atoms: C3_3  and  C7_7 
REMARK    2  A    between atoms: C7_7  and  C8_8 
ROOT
HETATM    1  C1  UNL     1     -32.530   5.902   1.782  1.00 20.00     0.263 C 
HETATM    2  C2  UNL     1     -33.375   7.778   2.903  1.00 20.00     0.046 C 
HETATM    3  C3  UNL     1     -32.137   7.308   2.163  1.00 20.00     0.088 C 
HETATM    4  C4  UNL     1     -33.853   6.499   3.555  1.00 20.00     0.128 C 
HETATM    5  C5  UNL     1     -35.340   6.498   3.853  1.00 20.00     0.040 C 
HETATM    6  O9  UNL     1     -32.017   5.223   0.907  1.00 20.00    -0.265 OA
HETATM    7  O10 UNL     1     -33.549   5.477   2.595  1.00 20.00    -0.316 OA
ENDROOT
BRANCH   3   8
HETATM    8  C7  UNL     1     -31.806   8.173   0.962  1.00 20.00     0.014 C 
BRANCH   8   9
HETATM    9  C8  UNL     1     -32.586   9.487   0.982  1.00 20.00    -0.004 C 
HETATM   10  C6  UNL     1     -32.649  10.124  -0.396  1.00 20.00     0.005 C 
ENDBRANCH   8   9
ENDBRANCH   3   8
TORSDOF 2
ENDMDL
MODEL 2
REMARK VINA RESULT:      -1.8      1.939      4.554
REMARK  2 active torsions:
REMARK  status: ('A' for Active; 'I' for Inactive)
REMARK    1  A    between atoms: C3_3  and  C7_7 
REMARK    2  A    between atoms: C7_7  and  C8_8 
ROOT
HETATM    1  C1  UNL     1     -33.004   7.804   3.951  1.00 20.00     0.263 C 
HETATM    2  C2  UNL     1     -33.281   6.814   1.846  1.00 20.00     0.046 C 
HETATM    3  C3  UNL     1     -33.510   6.531   3.319  1.00 20.00     0.088 C 
HETATM    4  C4  UNL     1     -32.029   7.664   1.883  1.00 20.00     0.128 C 
HETATM    5  C5  UNL     1     -31.889   8.578   0.681  1.00 20.00     0.040 C 
HETATM    6  O9  UNL     1     -33.266   8.202   5.076  1.00 20.00    -0.265 OA
HETATM    7  O10 UNL     1     -32.168   8.448   3.077  1.00 20.00    -0.316 OA
ENDROOT
BRANCH   3   8
HETATM    8  C7  UNL     1     -34.964   6.249   3.643  1.00 20.00     0.014 C 
BRANCH   8   9
HETATM    9  C8  UNL     1     -35.120   4.973   4.469  1.00 20.00    -0.004 C 
HETATM   10  C6  UNL     1     -33.982   3.999   4.217  1.00 20.00     0.005 C 
ENDBRANCH   8   9
ENDBRANCH   3   8
TORSDOF 2
ENDMDL
MODEL 3
REMARK VINA RESULT:      -1.7      1.679      2.471
REMARK  2 active torsions:
REMARK  status: ('A' for Active; 'I' for Inactive)
REMARK    1  A    between atoms: C3_3  and  C7_7 
REMARK    2  A    between atoms: C7_7  and  C8_8 
ROOT
HETATM    1  C1  UNL     1     -34.028   7.201   3.681  1.00 20.00     0.263 C 
HETATM    2  C2  UNL     1     -32.901   5.528   2.489  1.00 20.00     0.046 C 
HETATM    3  C3  UNL     1     -33.303   6.986   2.376  1.00 20.00     0.088 C 
HETATM    4  C4  UNL     1     -34.056   4.946   3.275  1.00 20.00     0.128 C 
HETATM    5  C5  UNL     1     -33.686   3.696   4.048  1.00 20.00     0.040 C 
HETATM    6  O9  UNL     1     -34.258   8.278   4.209  1.00 20.00    -0.265 OA
HETATM    7  O10 UNL     1     -34.426   5.990   4.187  1.00 20.00    -0.316 OA
ENDROOT
BRANCH   3   8
HETATM    8  C7  UNL     1     -32.114   7.912   2.203  1.00 20.00     0.014 C 
BRANCH   8   9
HETATM    9  C8  UNL     1     -31.912   8.302   0.739  1.00 20.00    -0.004 C 
HETATM   10  C6  UNL     1     -32.423   9.705   0.457  1.00 20.00     0.005 C 
ENDBRANCH   8   9
ENDBRANCH   3   8
TORSDOF 2
ENDMDL
MODEL 4
REMARK VINA RESULT:      -1.6      2.076      3.139
REMARK  2 active torsions:
REMARK  status: ('A' for Active; 'I' for Inactive)
REMARK    1  A    between atoms: C3_3  and  C7_7 
REMARK    2  A    between atoms: C7_7  and  C8_8 
ROOT
HETATM    1  C1  UNL     1     -34.889   5.817   3.903  1.00 20.00     0.263 C 
HETATM    2  C2  UNL     1     -32.852   4.844   3.278  1.00 20.00     0.046 C 
HETATM    3  C3  UNL     1     -33.803   5.951   2.864  1.00 20.00     0.088 C 
HETATM    4  C4  UNL     1     -33.804   3.802   3.822  1.00 20.00     0.128 C 
HETATM    5  C5  UNL     1     -33.160   2.870   4.831  1.00 20.00     0.040 C 
HETATM    6  O9  UNL     1     -35.710   6.671   4.200  1.00 20.00    -0.265 OA
HETATM    7  O10 UNL     1     -34.840   4.565   4.457  1.00 20.00    -0.316 OA
ENDROOT
BRANCH   3   8
HETATM    8  C7  UNL     1     -33.150   7.319   2.866  1.00 20.00     0.014 C 
BRANCH   8   9
HETATM    9  C8  UNL     1     -32.076   7.433   1.785  1.00 20.00    -0.004 C 
HETATM   10  C6  UNL     1     -32.122   8.782   1.088  1.00 20.00     0.005 C 
ENDBRANCH   8   9
ENDBRANCH   3   8
TORSDOF 2
ENDMDL
MODEL 5
REMARK VINA RESULT:      -0.6      2.236      4.303
REMARK  2 active torsions:
REMARK  status: ('A' for Active; 'I' for Inactive)
REMARK    1  A    between atoms: C3_3  and  C7_7 
REMARK    2  A    between atoms: C7_7  and  C8_8 
ROOT
HETATM    1  C1  UNL     1     -32.929   6.279   2.283  1.00 20.00     0.263 C 
HETATM    2  C2  UNL     1     -34.384   6.269   4.119  1.00 20.00     0.046 C 
HETATM    3  C3  UNL     1     -34.108   5.514   2.832  1.00 20.00     0.088 C 
HETATM    4  C4  UNL     1     -34.005   7.684   3.738  1.00 20.00     0.128 C 
HETATM    5  C5  UNL     1     -33.603   8.537   4.926  1.00 20.00     0.040 C 
HETATM    6  O9  UNL     1     -32.139   5.879   1.442  1.00 20.00    -0.265 OA
HETATM    7  O10 UNL     1     -32.886   7.525   2.853  1.00 20.00    -0.316 OA
ENDROOT
BRANCH   3   8
HETATM    8  C7  UNL     1     -33.801   4.048   3.066  1.00 20.00     0.014 C 
BRANCH   8   9
HETATM    9  C8  UNL     1     -33.926   3.674   4.542  1.00 20.00    -0.004 C 
HETATM   10  C6  UNL     1     -32.806   2.747   4.983  1.00 20.00     0.005 C 
ENDBRANCH   8   9
ENDBRANCH   3   8
TORSDOF 2
ENDMDL
MODEL 6
REMARK VINA RESULT:      -0.2      1.851      4.458
REMARK  2 active torsions:
REMARK  status: ('A' for Active; 'I' for Inactive)
REMARK    1  A    between atoms: C3_3  and  C7_7 
REMARK    2  A    between atoms: C7_7  and  C8_8 
ROOT
HETATM    1  C1  UNL     1     -33.291   7.590   3.269  1.00 20.00     0.263 C 
HETATM    2  C2  UNL     1     -32.389   6.738   1.282  1.00 20.00     0.046 C 
HETATM    3  C3  UNL     1     -32.841   6.287   2.658  1.00 20.00     0.088 C 
HETATM    4  C4  UNL     1     -31.849   8.122   1.570  1.00 20.00     0.128 C 
HETATM    5  C5  UNL     1     -31.879   9.040   0.363  1.00 20.00     0.040 C 
HETATM    6  O9  UNL     1     -34.031   7.717   4.232  1.00 20.00    -0.265 OA
HETATM    7  O10 UNL     1     -32.715   8.635   2.593  1.00 20.00    -0.316 OA
ENDROOT
BRANCH   3   8
HETATM    8  C7  UNL     1     -33.947   5.250   2.602  1.00 20.00     0.014 C 
BRANCH   8   9
HETATM    9  C8  UNL     1     -34.010   4.424   3.886  1.00 20.00    -0.004 C 
HETATM   10  C6  UNL     1     -35.235   4.768   4.716  1.00 20.00     0.005 C 
ENDBRANCH   8   9
ENDBRANCH   3   8
TORSDOF 2
ENDMDL
MODEL 7
REMARK VINA RESULT:      -0.2      1.747      3.985
REMARK  2 active torsions:
REMARK  status: ('A' for Active; 'I' for Inactive)
REMARK    1  A    between atoms: C3_3  and  C7_7 
REMARK    2  A    between atoms: C7_7  and  C8_8 
ROOT
HETATM    1  C1  UNL     1     -32.430   7.747   2.082  1.00 20.00     0.263 C 
HETATM    2  C2  UNL     1     -33.180   5.579   2.557  1.00 20.00     0.046 C 
HETATM    3  C3  UNL     1     -32.969   6.924   3.226  1.00 20.00     0.088 C 
HETATM    4  C4  UNL     1     -32.051   5.552   1.549  1.00 20.00     0.128 C 
HETATM    5  C5  UNL     1     -32.332   4.656   0.358  1.00 20.00     0.040 C 
HETATM    6  O9  UNL     1     -32.409   8.966   2.019  1.00 20.00    -0.265 OA
HETATM    7  O10 UNL     1     -31.930   6.914   1.115  1.00 20.00    -0.316 OA
ENDROOT
BRANCH   3   8
HETATM    8  C7  UNL     1     -34.246   7.496   3.812  1.00 20.00     0.014 C 
BRANCH   8   9
HETATM    9  C8  UNL     1     -35.425   6.542   3.630  1.00 20.00    -0.004 C 
HETATM   10  C6  UNL     1     -35.366   5.382   4.610  1.00 20.00     0.005 C 
ENDBRANCH   8   9
ENDBRANCH   3   8
TORSDOF 2
ENDMDL
MODEL 8
REMARK VINA RESULT:       0.1      1.933      4.185
REMARK  2 active torsions:
REMARK  status: ('A' for Active; 'I' for Inactive)
REMARK    1  A    between atoms: C3_3  and  C7_7 
REMARK    2  A    between atoms: C7_7  and  C8_8 
ROOT
HETATM    1  C1  UNL     1     -32.054   8.353   2.700  1.00 20.00     0.263 C 
HETATM    2  C2  UNL     1     -32.806   7.645   0.598  1.00 20.00     0.046 C 
HETATM    3  C3  UNL     1     -32.300   7.089   1.916  1.00 20.00     0.088 C 
HETATM    4  C4  UNL     1     -32.028   8.938   0.486  1.00 20.00     0.128 C 
HETATM    5  C5  UNL     1     -32.717   9.980  -0.374  1.00 20.00     0.040 C 
HETATM    6  O9  UNL     1     -31.952   8.439   3.914  1.00 20.00    -0.265 OA
HETATM    7  O10 UNL     1     -31.928   9.410   1.837  1.00 20.00    -0.316 OA
ENDROOT
BRANCH   3   8
HETATM    8  C7  UNL     1     -33.297   6.164   2.586  1.00 20.00     0.014 C 
BRANCH   8   9
HETATM    9  C8  UNL     1     -34.322   6.944   3.410  1.00 20.00    -0.004 C 
HETATM   10  C6  UNL     1     -35.284   6.015   4.132  1.00 20.00     0.005 C 
ENDBRANCH   8   9
ENDBRANCH   3   8
TORSDOF 2
ENDMDL
MODEL 9
REMARK VINA RESULT:       0.3      1.269      2.525
REMARK  2 active torsions:
REMARK  status: ('A' for Active; 'I' for Inactive)
REMARK    1  A    between atoms: C3_3  and  C7_7 
REMARK    2  A    between atoms: C7_7  and  C8_8 
ROOT
HETATM    1  C1  UNL     1     -33.367   7.210   2.820  1.00 20.00     0.263 C 
HETATM    2  C2  UNL     1     -31.940   6.938   0.982  1.00 20.00     0.046 C 
HETATM    3  C3  UNL     1     -32.884   7.953   1.599  1.00 20.00     0.088 C 
HETATM    4  C4  UNL     1     -32.608   5.630   1.345  1.00 20.00     0.128 C 
HETATM    5  C5  UNL     1     -31.644   4.460   1.403  1.00 20.00     0.040 C 
HETATM    6  O9  UNL     1     -33.885   7.707   3.808  1.00 20.00    -0.265 OA
HETATM    7  O10 UNL     1     -33.165   5.865   2.647  1.00 20.00    -0.316 OA
ENDROOT
BRANCH   3   8
HETATM    8  C7  UNL     1     -32.199   9.262   1.939  1.00 20.00     0.014 C 
BRANCH   8   9
HETATM    9  C8  UNL     1     -32.651  10.392   1.014  1.00 20.00    -0.004 C 
HETATM   10  C6  UNL     1     -32.644   9.960  -0.443  1.00 20.00     0.005 C 
ENDBRANCH   8   9
ENDBRANCH   3   8
TORSDOF 2
ENDMDL
