MODEL 1
REMARK VINA RESULT:      -3.1      0.000      0.000
REMARK  3 active torsions:
REMARK  status: ('A' for Active; 'I' for Inactive)
REMARK    1  A    between atoms: C2_2  and  C3_3 
REMARK    2  A    between atoms: C2_2  and  C4_4 
REMARK    3  A    between atoms: C3_3  and  O5_5 
ROOT
HETATM    1  C2  UNL     1     -33.172   7.259   1.967  1.00 20.00     0.379 C 
HETATM    2  F6  UNL     1     -33.511   7.319   3.286  1.00 20.00    -0.231 F 
ENDROOT
BRANCH   1   3
HETATM    3  C3  UNL     1     -32.057   8.258   1.727  1.00 20.00     0.393 C 
HETATM    4  F7  UNL     1     -31.259   7.806   0.727  1.00 20.00    -0.172 F 
HETATM    5  F8  UNL     1     -31.293   8.384   2.838  1.00 20.00    -0.172 F 
BRANCH   3   6
HETATM    6  O5  UNL     1     -32.575   9.531   1.362  1.00 20.00    -0.329 OA
HETATM    7  C1  UNL     1     -32.429   9.803  -0.026  1.00 20.00     0.208 C 
ENDBRANCH   3   6
ENDBRANCH   1   3
BRANCH   1   8
HETATM    8  C4  UNL     1     -32.793   5.829   1.652  1.00 20.00     0.426 C 
HETATM    9  F9  UNL     1     -33.227   5.000   2.626  1.00 20.00    -0.168 F 
HETATM   10  F10 UNL     1     -31.455   5.679   1.559  1.00 20.00    -0.168 F 
HETATM   11  F11 UNL     1     -33.338   5.418   0.488  1.00 20.00    -0.168 F 
ENDBRANCH   1   8
TORSDOF 3
ENDMDL
MODEL 2
REMARK VINA RESULT:      -2.9      1.276      2.416
REMARK  3 active torsions:
REMARK  status: ('A' for Active; 'I' for Inactive)
REMARK    1  A    between atoms: C2_2  and  C3_3 
REMARK    2  A    between atoms: C2_2  and  C4_4 
REMARK    3  A    between atoms: C3_3  and  O5_5 
ROOT
HETATM    1  C2  UNL     1     -32.958   6.820   2.780  1.00 20.00     0.379 C 
HETATM    2  F6  UNL     1     -33.604   6.165   1.774  1.00 20.00    -0.231 F 
ENDROOT
BRANCH   1   3
HETATM    3  C3  UNL     1     -32.108   7.909   2.156  1.00 20.00     0.393 C 
HETATM    4  F7  UNL     1     -31.143   7.340   1.390  1.00 20.00    -0.172 F 
HETATM    5  F8  UNL     1     -31.493   8.635   3.120  1.00 20.00    -0.172 F 
BRANCH   3   6
HETATM    6  O5  UNL     1     -32.891   8.772   1.341  1.00 20.00    -0.329 OA
HETATM    7  C1  UNL     1     -32.104   9.525   0.428  1.00 20.00     0.208 C 
ENDBRANCH   3   6
ENDBRANCH   1   3
BRANCH   1   8
HETATM    8  C4  UNL     1     -34.005   7.335   3.743  1.00 20.00     0.426 C 
HETATM    9  F9  UNL     1     -33.422   7.791   4.874  1.00 20.00    -0.168 F 
HETATM   10  F10 UNL     1     -34.873   6.364   4.099  1.00 20.00    -0.168 F 
HETATM   11  F11 UNL     1     -34.714   8.350   3.207  1.00 20.00    -0.168 F 
ENDBRANCH   1   8
TORSDOF 3
ENDMDL
MODEL 3
REMARK VINA RESULT:      -2.9      1.081      2.173
REMARK  3 active torsions:
REMARK  status: ('A' for Active; 'I' for Inactive)
REMARK    1  A    between atoms: C2_2  and  C3_3 
REMARK    2  A    between atoms: C2_2  and  C4_4 
REMARK    3  A    between atoms: C3_3  and  O5_5 
ROOT
HETATM    1  C2  UNL     1     -32.836   6.570   2.298  1.00 20.00     0.379 C 
HETATM    2  F6  UNL     1     -33.415   6.152   1.138  1.00 20.00    -0.231 F 
ENDROOT
BRANCH   1   3
HETATM    3  C3  UNL     1     -32.121   7.878   2.017  1.00 20.00     0.393 C 
HETATM    4  F7  UNL     1     -31.074   7.644   1.186  1.00 20.00    -0.172 F 
HETATM    5  F8  UNL     1     -31.627   8.399   3.165  1.00 20.00    -0.172 F 
BRANCH   3   6
HETATM    6  O5  UNL     1     -32.992   8.821   1.405  1.00 20.00    -0.329 OA
HETATM    7  C1  UNL     1     -32.339   9.608   0.418  1.00 20.00     0.208 C 
ENDBRANCH   3   6
ENDBRANCH   1   3
BRANCH   1   8
HETATM    8  C4  UNL     1     -33.923   6.679   3.345  1.00 20.00     0.426 C 
HETATM    9  F9  UNL     1     -34.099   5.493   3.968  1.00 20.00    -0.168 F 
HETATM   10  F10 UNL     1     -35.107   7.028   2.797  1.00 20.00    -0.168 F 
HETATM   11  F11 UNL     1     -33.615   7.596   4.285  1.00 20.00    -0.168 F 
ENDBRANCH   1   8
TORSDOF 3
ENDMDL
MODEL 4
REMARK VINA RESULT:      -2.9      1.697      3.133
REMARK  3 active torsions:
REMARK  status: ('A' for Active; 'I' for Inactive)
REMARK    1  A    between atoms: C2_2  and  C3_3 
REMARK    2  A    between atoms: C2_2  and  C4_4 
REMARK    3  A    between atoms: C3_3  and  O5_5 
ROOT
HETATM    1  C2  UNL     1     -33.494   5.803   3.345  1.00 20.00     0.379 C 
HETATM    2  F6  UNL     1     -33.757   4.468   3.276  1.00 20.00    -0.231 F 
ENDROOT
BRANCH   1   3
HETATM    3  C3  UNL     1     -33.020   6.256   1.977  1.00 20.00     0.393 C 
HETATM    4  F7  UNL     1     -33.902   5.834   1.036  1.00 20.00    -0.172 F 
HETATM    5  F8  UNL     1     -31.817   5.704   1.691  1.00 20.00    -0.172 F 
BRANCH   3   6
HETATM    6  O5  UNL     1     -32.919   7.673   1.910  1.00 20.00    -0.329 OA
HETATM    7  C1  UNL     1     -31.582   8.117   1.720  1.00 20.00     0.208 C 
ENDBRANCH   3   6
ENDBRANCH   1   3
BRANCH   1   8
HETATM    8  C4  UNL     1     -34.751   6.498   3.820  1.00 20.00     0.426 C 
HETATM    9  F9  UNL     1     -35.472   5.678   4.616  1.00 20.00    -0.168 F 
HETATM   10  F10 UNL     1     -35.542   6.856   2.785  1.00 20.00    -0.168 F 
HETATM   11  F11 UNL     1     -34.464   7.611   4.526  1.00 20.00    -0.168 F 
ENDBRANCH   1   8
TORSDOF 3
ENDMDL
MODEL 5
REMARK VINA RESULT:      -2.9      1.081      2.117
REMARK  3 active torsions:
REMARK  status: ('A' for Active; 'I' for Inactive)
REMARK    1  A    between atoms: C2_2  and  C3_3 
REMARK    2  A    between atoms: C2_2  and  C4_4 
REMARK    3  A    between atoms: C3_3  and  O5_5 
ROOT
HETATM    1  C2  UNL     1     -32.832   6.563   2.293  1.00 20.00     0.379 C 
HETATM    2  F6  UNL     1     -33.410   6.143   1.132  1.00 20.00    -0.231 F 
ENDROOT
BRANCH   1   3
HETATM    3  C3  UNL     1     -32.122   7.874   2.012  1.00 20.00     0.393 C 
HETATM    4  F7  UNL     1     -31.071   7.645   1.185  1.00 20.00    -0.172 F 
HETATM    5  F8  UNL     1     -31.635   8.399   3.162  1.00 20.00    -0.172 F 
BRANCH   3   6
HETATM    6  O5  UNL     1     -32.996   8.811   1.396  1.00 20.00    -0.329 OA
HETATM    7  C1  UNL     1     -32.341   9.608   0.419  1.00 20.00     0.208 C 
ENDBRANCH   3   6
ENDBRANCH   1   3
BRANCH   1   8
HETATM    8  C4  UNL     1     -33.918   6.665   3.340  1.00 20.00     0.426 C 
HETATM    9  F9  UNL     1     -35.092   7.018   2.770  1.00 20.00    -0.168 F 
HETATM   10  F10 UNL     1     -33.624   7.598   4.271  1.00 20.00    -0.168 F 
HETATM   11  F11 UNL     1     -34.106   5.489   3.975  1.00 20.00    -0.168 F 
ENDBRANCH   1   8
TORSDOF 3
ENDMDL
MODEL 6
REMARK VINA RESULT:      -2.8      2.048      3.711
REMARK  3 active torsions:
REMARK  status: ('A' for Active; 'I' for Inactive)
REMARK    1  A    between atoms: C2_2  and  C3_3 
REMARK    2  A    between atoms: C2_2  and  C4_4 
REMARK    3  A    between atoms: C3_3  and  O5_5 
ROOT
HETATM    1  C2  UNL     1     -33.154   7.176   2.013  1.00 20.00     0.379 C 
HETATM    2  F6  UNL     1     -32.707   5.914   1.757  1.00 20.00    -0.231 F 
ENDROOT
BRANCH   1   3
HETATM    3  C3  UNL     1     -33.714   7.194   3.423  1.00 20.00     0.393 C 
HETATM    4  F7  UNL     1     -34.780   8.032   3.469  1.00 20.00    -0.172 F 
HETATM    5  F8  UNL     1     -32.785   7.661   4.290  1.00 20.00    -0.172 F 
BRANCH   3   6
HETATM    6  O5  UNL     1     -34.131   5.897   3.829  1.00 20.00    -0.329 OA
HETATM    7  C1  UNL     1     -35.486   5.867   4.256  1.00 20.00     0.208 C 
ENDBRANCH   3   6
ENDBRANCH   1   3
BRANCH   1   8
HETATM    8  C4  UNL     1     -31.999   8.128   1.799  1.00 20.00     0.426 C 
HETATM    9  F9  UNL     1     -32.432   9.276   1.233  1.00 20.00    -0.168 F 
HETATM   10  F10 UNL     1     -31.065   7.600   0.980  1.00 20.00    -0.168 F 
HETATM   11  F11 UNL     1     -31.397   8.445   2.965  1.00 20.00    -0.168 F 
ENDBRANCH   1   8
TORSDOF 3
ENDMDL
MODEL 7
REMARK VINA RESULT:      -2.8      2.056      3.666
REMARK  3 active torsions:
REMARK  status: ('A' for Active; 'I' for Inactive)
REMARK    1  A    between atoms: C2_2  and  C3_3 
REMARK    2  A    between atoms: C2_2  and  C4_4 
REMARK    3  A    between atoms: C3_3  and  O5_5 
ROOT
HETATM    1  C2  UNL     1     -33.187   7.185   2.010  1.00 20.00     0.379 C 
HETATM    2  F6  UNL     1     -32.763   5.921   1.730  1.00 20.00    -0.231 F 
ENDROOT
BRANCH   1   3
HETATM    3  C3  UNL     1     -33.744   7.188   3.421  1.00 20.00     0.393 C 
HETATM    4  F7  UNL     1     -34.833   7.995   3.469  1.00 20.00    -0.172 F 
HETATM    5  F8  UNL     1     -32.827   7.681   4.287  1.00 20.00    -0.172 F 
BRANCH   3   6
HETATM    6  O5  UNL     1     -34.124   5.879   3.827  1.00 20.00    -0.329 OA
HETATM    7  C1  UNL     1     -35.473   5.814   4.269  1.00 20.00     0.208 C 
ENDBRANCH   3   6
ENDBRANCH   1   3
BRANCH   1   8
HETATM    8  C4  UNL     1     -32.015   8.120   1.812  1.00 20.00     0.426 C 
HETATM    9  F9  UNL     1     -31.060   7.529   1.061  1.00 20.00    -0.168 F 
HETATM   10  F10 UNL     1     -31.449   8.464   2.989  1.00 20.00    -0.168 F 
HETATM   11  F11 UNL     1     -32.388   9.256   1.185  1.00 20.00    -0.168 F 
ENDBRANCH   1   8
TORSDOF 3
ENDMDL
MODEL 8
REMARK VINA RESULT:      -2.6      1.724      2.718
REMARK  3 active torsions:
REMARK  status: ('A' for Active; 'I' for Inactive)
REMARK    1  A    between atoms: C2_2  and  C3_3 
REMARK    2  A    between atoms: C2_2  and  C4_4 
REMARK    3  A    between atoms: C3_3  and  O5_5 
ROOT
HETATM    1  C2  UNL     1     -33.302   6.478   2.979  1.00 20.00     0.379 C 
HETATM    2  F6  UNL     1     -33.535   5.898   1.768  1.00 20.00    -0.231 F 
ENDROOT
BRANCH   1   3
HETATM    3  C3  UNL     1     -32.757   7.871   2.731  1.00 20.00     0.393 C 
HETATM    4  F7  UNL     1     -32.044   8.272   3.813  1.00 20.00    -0.172 F 
HETATM    5  F8  UNL     1     -33.774   8.749   2.560  1.00 20.00    -0.172 F 
BRANCH   3   6
HETATM    6  O5  UNL     1     -31.911   7.898   1.588  1.00 20.00    -0.329 OA
HETATM    7  C1  UNL     1     -32.122   9.048   0.779  1.00 20.00     0.208 C 
ENDBRANCH   3   6
ENDBRANCH   1   3
BRANCH   1   8
HETATM    8  C4  UNL     1     -34.596   6.456   3.760  1.00 20.00     0.426 C 
HETATM    9  F9  UNL     1     -34.558   7.360   4.764  1.00 20.00    -0.168 F 
HETATM   10  F10 UNL     1     -34.822   5.245   4.314  1.00 20.00    -0.168 F 
HETATM   11  F11 UNL     1     -35.653   6.755   2.975  1.00 20.00    -0.168 F 
ENDBRANCH   1   8
TORSDOF 3
ENDMDL
MODEL 9
REMARK VINA RESULT:      -2.6      1.764      2.865
REMARK  3 active torsions:
REMARK  status: ('A' for Active; 'I' for Inactive)
REMARK    1  A    between atoms: C2_2  and  C3_3 
REMARK    2  A    between atoms: C2_2  and  C4_4 
REMARK    3  A    between atoms: C3_3  and  O5_5 
ROOT
HETATM    1  C2  UNL     1     -33.761   7.281   3.096  1.00 20.00     0.379 C 
HETATM    2  F6  UNL     1     -32.863   7.716   4.024  1.00 20.00    -0.231 F 
ENDROOT
BRANCH   1   3
HETATM    3  C3  UNL     1     -33.002   6.485   2.052  1.00 20.00     0.393 C 
HETATM    4  F7  UNL     1     -33.779   6.340   0.948  1.00 20.00    -0.172 F 
HETATM    5  F8  UNL     1     -32.719   5.246   2.521  1.00 20.00    -0.172 F 
BRANCH   3   6
HETATM    6  O5  UNL     1     -31.795   7.138   1.682  1.00 20.00    -0.329 OA
HETATM    7  C1  UNL     1     -32.014   8.454   1.190  1.00 20.00     0.208 C 
ENDBRANCH   3   6
ENDBRANCH   1   3
BRANCH   1   8
HETATM    8  C4  UNL     1     -34.827   6.488   3.818  1.00 20.00     0.426 C 
HETATM    9  F9  UNL     1     -35.020   6.980   5.061  1.00 20.00    -0.168 F 
HETATM   10  F10 UNL     1     -34.478   5.190   3.947  1.00 20.00    -0.168 F 
HETATM   11  F11 UNL     1     -36.008   6.538   3.167  1.00 20.00    -0.168 F 
ENDBRANCH   1   8
TORSDOF 3
ENDMDL
