MODEL 1
REMARK VINA RESULT:      -1.4      0.000      0.000
REMARK  1 active torsions:
REMARK  status: ('A' for Active; 'I' for Inactive)
REMARK    1  A    between atoms: C2_2  and  C7_7 
ROOT
HETATM    1  C1  UNL     1     -33.669   4.005   4.286  1.00 20.00    -0.110 C 
HETATM    2  C2  UNL     1     -33.940   5.125   3.942  1.00 20.00    -0.098 C 
HETATM    3  C3  UNL     1     -33.340   2.644   4.704  1.00 20.00     0.112 C 
ENDROOT
BRANCH   2   4
HETATM    4  C7  UNL     1     -34.271   6.503   3.520  1.00 20.00     0.013 C 
HETATM    5  C4  UNL     1     -33.829   7.491   4.609  1.00 20.00     0.028 C 
HETATM    6  C5  UNL     1     -35.786   6.620   3.305  1.00 20.00     0.028 C 
HETATM    7  C6  UNL     1     -33.540   6.824   2.209  1.00 20.00     0.028 C 
ENDBRANCH   2   4
TORSDOF 1
ENDMDL
MODEL 2
REMARK VINA RESULT:      -1.4      0.002      1.642
REMARK  1 active torsions:
REMARK  status: ('A' for Active; 'I' for Inactive)
REMARK    1  A    between atoms: C2_2  and  C7_7 
ROOT
HETATM    1  C1  UNL     1     -33.670   4.005   4.287  1.00 20.00    -0.110 C 
HETATM    2  C2  UNL     1     -33.941   5.124   3.943  1.00 20.00    -0.098 C 
HETATM    3  C3  UNL     1     -33.341   2.644   4.705  1.00 20.00     0.112 C 
ENDROOT
BRANCH   2   4
HETATM    4  C7  UNL     1     -34.273   6.502   3.520  1.00 20.00     0.013 C 
HETATM    5  C4  UNL     1     -33.541   6.823   2.208  1.00 20.00     0.028 C 
HETATM    6  C5  UNL     1     -33.832   7.490   4.608  1.00 20.00     0.028 C 
HETATM    7  C6  UNL     1     -35.788   6.619   3.303  1.00 20.00     0.028 C 
ENDBRANCH   2   4
TORSDOF 1
ENDMDL
MODEL 3
REMARK VINA RESULT:      -0.9      2.167      3.586
REMARK  1 active torsions:
REMARK  status: ('A' for Active; 'I' for Inactive)
REMARK    1  A    between atoms: C2_2  and  C7_7 
ROOT
HETATM    1  C1  UNL     1     -34.241   6.858   3.394  1.00 20.00    -0.110 C 
HETATM    2  C2  UNL     1     -33.321   7.332   2.782  1.00 20.00    -0.098 C 
HETATM    3  C3  UNL     1     -35.359   6.281   4.138  1.00 20.00     0.112 C 
ENDROOT
BRANCH   2   4
HETATM    4  C7  UNL     1     -32.190   7.915   2.029  1.00 20.00     0.013 C 
HETATM    5  C4  UNL     1     -32.717   8.988   1.065  1.00 20.00     0.028 C 
HETATM    6  C5  UNL     1     -31.485   6.810   1.231  1.00 20.00     0.028 C 
HETATM    7  C6  UNL     1     -31.197   8.552   3.011  1.00 20.00     0.028 C 
ENDBRANCH   2   4
TORSDOF 1
ENDMDL
MODEL 4
REMARK VINA RESULT:      -0.9      2.167      3.604
REMARK  1 active torsions:
REMARK  status: ('A' for Active; 'I' for Inactive)
REMARK    1  A    between atoms: C2_2  and  C7_7 
ROOT
HETATM    1  C1  UNL     1     -34.241   6.858   3.395  1.00 20.00    -0.110 C 
HETATM    2  C2  UNL     1     -33.322   7.332   2.782  1.00 20.00    -0.098 C 
HETATM    3  C3  UNL     1     -35.359   6.281   4.139  1.00 20.00     0.112 C 
ENDROOT
BRANCH   2   4
HETATM    4  C7  UNL     1     -32.190   7.915   2.029  1.00 20.00     0.013 C 
HETATM    5  C4  UNL     1     -31.485   6.809   1.231  1.00 20.00     0.028 C 
HETATM    6  C5  UNL     1     -31.198   8.551   3.011  1.00 20.00     0.028 C 
HETATM    7  C6  UNL     1     -32.717   8.987   1.065  1.00 20.00     0.028 C 
ENDBRANCH   2   4
TORSDOF 1
ENDMDL
MODEL 5
REMARK VINA RESULT:      -0.9      2.167      3.334
REMARK  1 active torsions:
REMARK  status: ('A' for Active; 'I' for Inactive)
REMARK    1  A    between atoms: C2_2  and  C7_7 
ROOT
HETATM    1  C1  UNL     1     -34.242   6.857   3.395  1.00 20.00    -0.110 C 
HETATM    2  C2  UNL     1     -33.322   7.332   2.782  1.00 20.00    -0.098 C 
HETATM    3  C3  UNL     1     -35.359   6.280   4.139  1.00 20.00     0.112 C 
ENDROOT
BRANCH   2   4
HETATM    4  C7  UNL     1     -32.191   7.915   2.029  1.00 20.00     0.013 C 
HETATM    5  C4  UNL     1     -31.198   8.552   3.013  1.00 20.00     0.028 C 
HETATM    6  C5  UNL     1     -32.717   8.987   1.066  1.00 20.00     0.028 C 
HETATM    7  C6  UNL     1     -31.484   6.810   1.232  1.00 20.00     0.028 C 
ENDBRANCH   2   4
TORSDOF 1
ENDMDL
MODEL 6
REMARK VINA RESULT:      -0.9      1.525      2.688
REMARK  1 active torsions:
REMARK  status: ('A' for Active; 'I' for Inactive)
REMARK    1  A    between atoms: C2_2  and  C7_7 
ROOT
HETATM    1  C1  UNL     1     -32.882   5.786   1.855  1.00 20.00    -0.110 C 
HETATM    2  C2  UNL     1     -33.689   6.100   2.690  1.00 20.00    -0.098 C 
HETATM    3  C3  UNL     1     -31.902   5.404   0.842  1.00 20.00     0.112 C 
ENDROOT
BRANCH   2   4
HETATM    4  C7  UNL     1     -34.682   6.485   3.716  1.00 20.00     0.013 C 
HETATM    5  C4  UNL     1     -35.054   5.253   4.554  1.00 20.00     0.028 C 
HETATM    6  C5  UNL     1     -35.938   7.037   3.029  1.00 20.00     0.028 C 
HETATM    7  C6  UNL     1     -34.081   7.563   4.629  1.00 20.00     0.028 C 
ENDBRANCH   2   4
TORSDOF 1
ENDMDL
MODEL 7
REMARK VINA RESULT:      -0.8      1.489      2.935
REMARK  1 active torsions:
REMARK  status: ('A' for Active; 'I' for Inactive)
REMARK    1  A    between atoms: C2_2  and  C7_7 
ROOT
HETATM    1  C1  UNL     1     -32.870   5.768   1.840  1.00 20.00    -0.110 C 
HETATM    2  C2  UNL     1     -33.681   6.068   2.676  1.00 20.00    -0.098 C 
HETATM    3  C3  UNL     1     -31.884   5.403   0.825  1.00 20.00     0.112 C 
ENDROOT
BRANCH   2   4
HETATM    4  C7  UNL     1     -34.678   6.436   3.704  1.00 20.00     0.013 C 
HETATM    5  C4  UNL     1     -35.953   6.949   3.018  1.00 20.00     0.028 C 
HETATM    6  C5  UNL     1     -34.100   7.538   4.603  1.00 20.00     0.028 C 
HETATM    7  C6  UNL     1     -35.013   5.203   4.555  1.00 20.00     0.028 C 
ENDBRANCH   2   4
TORSDOF 1
ENDMDL
MODEL 8
REMARK VINA RESULT:      -0.8      1.500      2.617
REMARK  1 active torsions:
REMARK  status: ('A' for Active; 'I' for Inactive)
REMARK    1  A    between atoms: C2_2  and  C7_7 
ROOT
HETATM    1  C1  UNL     1     -32.879   5.778   1.850  1.00 20.00    -0.110 C 
HETATM    2  C2  UNL     1     -33.689   6.078   2.685  1.00 20.00    -0.098 C 
HETATM    3  C3  UNL     1     -31.892   5.412   0.835  1.00 20.00     0.112 C 
ENDROOT
BRANCH   2   4
HETATM    4  C7  UNL     1     -34.687   6.447   3.712  1.00 20.00     0.013 C 
HETATM    5  C4  UNL     1     -34.107   7.545   4.616  1.00 20.00     0.028 C 
HETATM    6  C5  UNL     1     -35.029   5.213   4.558  1.00 20.00     0.028 C 
HETATM    7  C6  UNL     1     -35.959   6.967   3.026  1.00 20.00     0.028 C 
ENDBRANCH   2   4
TORSDOF 1
ENDMDL
MODEL 9
REMARK VINA RESULT:      -0.5      1.278      3.620
REMARK  1 active torsions:
REMARK  status: ('A' for Active; 'I' for Inactive)
REMARK    1  A    between atoms: C2_2  and  C7_7 
ROOT
HETATM    1  C1  UNL     1     -32.517   7.832   1.810  1.00 20.00    -0.110 C 
HETATM    2  C2  UNL     1     -33.264   7.379   2.636  1.00 20.00    -0.098 C 
HETATM    3  C3  UNL     1     -31.608   8.383   0.807  1.00 20.00     0.112 C 
ENDROOT
BRANCH   2   4
HETATM    4  C7  UNL     1     -34.183   6.822   3.653  1.00 20.00     0.013 C 
HETATM    5  C4  UNL     1     -33.999   7.580   4.976  1.00 20.00     0.028 C 
HETATM    6  C5  UNL     1     -33.868   5.335   3.865  1.00 20.00     0.028 C 
HETATM    7  C6  UNL     1     -35.632   6.976   3.170  1.00 20.00     0.028 C 
ENDBRANCH   2   4
TORSDOF 1
ENDMDL
