MODEL 1
REMARK VINA RESULT:      -1.9      0.000      0.000
REMARK  2 active torsions:
REMARK  status: ('A' for Active; 'I' for Inactive)
REMARK    1  A    between atoms: C1_1  and  C2_2 
REMARK    2  A    between atoms: C1_1  and  C3_3 
ROOT
HETATM    1  C3  UNL     1     -34.535   6.410   3.640  1.00 20.00     0.256 C 
HETATM    2  F4  UNL     1     -35.788   6.720   3.203  1.00 20.00    -0.207 F 
HETATM    3 CL5  UNL     1     -33.473   6.281   2.215  1.00 20.00    -0.066 Cl
HETATM    4 CL6  UNL     1     -33.975   7.736   4.688  1.00 20.00    -0.066 Cl
ENDROOT
BRANCH   1   5
HETATM    5  C1  UNL     1     -34.624   5.084   4.401  1.00 20.00     0.089 C 
BRANCH   5   6
HETATM    6  C2  UNL     1     -33.901   3.910   3.754  1.00 20.00     0.090 C 
HETATM    7 BR7  UNL     1     -32.938   2.904   5.122  1.00 20.00    -0.096 Br
ENDBRANCH   5   6
ENDBRANCH   1   5
TORSDOF 2
ENDMDL
MODEL 2
REMARK VINA RESULT:      -1.8      3.241      3.789
REMARK  2 active torsions:
REMARK  status: ('A' for Active; 'I' for Inactive)
REMARK    1  A    between atoms: C1_1  and  C2_2 
REMARK    2  A    between atoms: C1_1  and  C3_3 
ROOT
HETATM    1  C3  UNL     1     -34.266   6.539   3.465  1.00 20.00     0.256 C 
HETATM    2  F4  UNL     1     -35.566   6.767   3.127  1.00 20.00    -0.207 F 
HETATM    3 CL5  UNL     1     -33.814   7.711   4.729  1.00 20.00    -0.066 Cl
HETATM    4 CL6  UNL     1     -34.149   4.883   4.111  1.00 20.00    -0.066 Cl
ENDROOT
BRANCH   1   5
HETATM    5  C1  UNL     1     -33.420   6.716   2.201  1.00 20.00     0.089 C 
BRANCH   5   6
HETATM    6  C2  UNL     1     -32.258   7.693   2.325  1.00 20.00     0.090 C 
HETATM    7 BR7  UNL     1     -32.304   8.951   0.834  1.00 20.00    -0.096 Br
ENDBRANCH   5   6
ENDBRANCH   1   5
TORSDOF 2
ENDMDL
MODEL 3
REMARK VINA RESULT:      -1.7      3.380      3.868
REMARK  2 active torsions:
REMARK  status: ('A' for Active; 'I' for Inactive)
REMARK    1  A    between atoms: C1_1  and  C2_2 
REMARK    2  A    between atoms: C1_1  and  C3_3 
ROOT
HETATM    1  C3  UNL     1     -32.265   7.976   1.971  1.00 20.00     0.256 C 
HETATM    2  F4  UNL     1     -31.319   8.321   2.889  1.00 20.00    -0.207 F 
HETATM    3 CL5  UNL     1     -32.110   9.082   0.583  1.00 20.00    -0.066 Cl
HETATM    4 CL6  UNL     1     -31.939   6.305   1.447  1.00 20.00    -0.066 Cl
ENDROOT
BRANCH   1   5
HETATM    5  C1  UNL     1     -33.634   8.102   2.644  1.00 20.00     0.089 C 
BRANCH   5   6
HETATM    6  C2  UNL     1     -33.753   7.440   4.011  1.00 20.00     0.090 C 
HETATM    7 BR7  UNL     1     -35.205   6.136   3.977  1.00 20.00    -0.096 Br
ENDBRANCH   5   6
ENDBRANCH   1   5
TORSDOF 2
ENDMDL
MODEL 4
REMARK VINA RESULT:      -1.7      4.279      4.893
REMARK  2 active torsions:
REMARK  status: ('A' for Active; 'I' for Inactive)
REMARK    1  A    between atoms: C1_1  and  C2_2 
REMARK    2  A    between atoms: C1_1  and  C3_3 
ROOT
HETATM    1  C3  UNL     1     -32.929   6.465   1.835  1.00 20.00     0.256 C 
HETATM    2  F4  UNL     1     -33.743   6.497   0.743  1.00 20.00    -0.207 F 
HETATM    3 CL5  UNL     1     -33.924   6.024   3.246  1.00 20.00    -0.066 Cl
HETATM    4 CL6  UNL     1     -31.690   5.216   1.560  1.00 20.00    -0.066 Cl
ENDROOT
BRANCH   1   5
HETATM    5  C1  UNL     1     -32.308   7.855   1.994  1.00 20.00     0.089 C 
BRANCH   5   6
HETATM    6  C2  UNL     1     -31.639   8.417   0.746  1.00 20.00     0.090 C 
HETATM    7 BR7  UNL     1     -32.562  10.045   0.189  1.00 20.00    -0.096 Br
ENDBRANCH   5   6
ENDBRANCH   1   5
TORSDOF 2
ENDMDL
MODEL 5
REMARK VINA RESULT:      -1.7      3.418      3.911
REMARK  2 active torsions:
REMARK  status: ('A' for Active; 'I' for Inactive)
REMARK    1  A    between atoms: C1_1  and  C2_2 
REMARK    2  A    between atoms: C1_1  and  C3_3 
ROOT
HETATM    1  C3  UNL     1     -32.088   8.000   1.968  1.00 20.00     0.256 C 
HETATM    2  F4  UNL     1     -31.157   7.129   1.485  1.00 20.00    -0.207 F 
HETATM    3 CL5  UNL     1     -31.407   8.780   3.418  1.00 20.00    -0.066 Cl
HETATM    4 CL6  UNL     1     -32.395   9.227   0.714  1.00 20.00    -0.066 Cl
ENDROOT
BRANCH   1   5
HETATM    5  C1  UNL     1     -33.349   7.197   2.297  1.00 20.00     0.089 C 
BRANCH   5   6
HETATM    6  C2  UNL     1     -33.908   7.405   3.699  1.00 20.00     0.090 C 
HETATM    7 BR7  UNL     1     -35.225   6.017   4.087  1.00 20.00    -0.096 Br
ENDBRANCH   5   6
ENDBRANCH   1   5
TORSDOF 2
ENDMDL
MODEL 6
REMARK VINA RESULT:      -1.6      3.532      3.867
REMARK  2 active torsions:
REMARK  status: ('A' for Active; 'I' for Inactive)
REMARK    1  A    between atoms: C1_1  and  C2_2 
REMARK    2  A    between atoms: C1_1  and  C3_3 
ROOT
HETATM    1  C3  UNL     1     -34.004   6.663   3.419  1.00 20.00     0.256 C 
HETATM    2  F4  UNL     1     -33.640   5.432   3.876  1.00 20.00    -0.207 F 
HETATM    3 CL5  UNL     1     -35.781   6.694   3.283  1.00 20.00    -0.066 Cl
HETATM    4 CL6  UNL     1     -33.472   7.872   4.613  1.00 20.00    -0.066 Cl
ENDROOT
BRANCH   1   5
HETATM    5  C1  UNL     1     -33.330   6.872   2.060  1.00 20.00     0.089 C 
BRANCH   5   6
HETATM    6  C2  UNL     1     -32.118   7.794   2.068  1.00 20.00     0.090 C 
HETATM    7 BR7  UNL     1     -32.354   9.192   0.726  1.00 20.00    -0.096 Br
ENDBRANCH   5   6
ENDBRANCH   1   5
TORSDOF 2
ENDMDL
MODEL 7
REMARK VINA RESULT:      -1.4      3.607      3.919
REMARK  2 active torsions:
REMARK  status: ('A' for Active; 'I' for Inactive)
REMARK    1  A    between atoms: C1_1  and  C2_2 
REMARK    2  A    between atoms: C1_1  and  C3_3 
ROOT
HETATM    1  C3  UNL     1     -33.962   6.448   3.349  1.00 20.00     0.256 C 
HETATM    2  F4  UNL     1     -33.406   7.272   4.280  1.00 20.00    -0.207 F 
HETATM    3 CL5  UNL     1     -33.674   4.766   3.863  1.00 20.00    -0.066 Cl
HETATM    4 CL6  UNL     1     -35.713   6.770   3.306  1.00 20.00    -0.066 Cl
ENDROOT
BRANCH   1   5
HETATM    5  C1  UNL     1     -33.297   6.750   2.004  1.00 20.00     0.089 C 
BRANCH   5   6
HETATM    6  C2  UNL     1     -32.118   7.713   2.061  1.00 20.00     0.090 C 
HETATM    7 BR7  UNL     1     -32.372   9.132   0.744  1.00 20.00    -0.096 Br
ENDBRANCH   5   6
ENDBRANCH   1   5
TORSDOF 2
ENDMDL
MODEL 8
REMARK VINA RESULT:      -1.4      4.325      4.765
REMARK  2 active torsions:
REMARK  status: ('A' for Active; 'I' for Inactive)
REMARK    1  A    between atoms: C1_1  and  C2_2 
REMARK    2  A    between atoms: C1_1  and  C3_3 
ROOT
HETATM    1  C3  UNL     1     -32.745   6.117   1.627  1.00 20.00     0.256 C 
HETATM    2  F4  UNL     1     -31.958   5.032   1.869  1.00 20.00    -0.207 F 
HETATM    3 CL5  UNL     1     -33.784   5.740   0.229  1.00 20.00    -0.066 Cl
HETATM    4 CL6  UNL     1     -33.754   6.395   3.068  1.00 20.00    -0.066 Cl
ENDROOT
BRANCH   1   5
HETATM    5  C1  UNL     1     -31.823   7.306   1.342  1.00 20.00     0.089 C 
BRANCH   5   6
HETATM    6  C2  UNL     1     -32.361   8.666   1.769  1.00 20.00     0.090 C 
HETATM    7 BR7  UNL     1     -32.466   9.841   0.214  1.00 20.00    -0.096 Br
ENDBRANCH   5   6
ENDBRANCH   1   5
TORSDOF 2
ENDMDL
MODEL 9
REMARK VINA RESULT:      -1.2      1.143      1.184
REMARK  2 active torsions:
REMARK  status: ('A' for Active; 'I' for Inactive)
REMARK    1  A    between atoms: C1_1  and  C2_2 
REMARK    2  A    between atoms: C1_1  and  C3_3 
ROOT
HETATM    1  C3  UNL     1     -33.984   7.392   3.771  1.00 20.00     0.256 C 
HETATM    2  F4  UNL     1     -35.012   8.220   3.431  1.00 20.00    -0.207 F 
HETATM    3 CL5  UNL     1     -32.831   7.364   2.413  1.00 20.00    -0.066 Cl
HETATM    4 CL6  UNL     1     -33.192   8.065   5.218  1.00 20.00    -0.066 Cl
ENDROOT
BRANCH   1   5
HETATM    5  C1  UNL     1     -34.574   6.005   4.041  1.00 20.00     0.089 C 
BRANCH   5   6
HETATM    6  C2  UNL     1     -33.900   4.855   3.306  1.00 20.00     0.090 C 
HETATM    7 BR7  UNL     1     -33.531   3.407   4.561  1.00 20.00    -0.096 Br
ENDBRANCH   5   6
ENDBRANCH   1   5
TORSDOF 2
ENDMDL
