MODEL 1
REMARK VINA RESULT:      -2.7      0.000      0.000
REMARK  6 active torsions:
REMARK  status: ('A' for Active; 'I' for Inactive)
REMARK    1  A    between atoms: C2_2  and  C3_3 
REMARK    2  A    between atoms: C3_3  and  C4_4 
REMARK    3  A    between atoms: C4_4  and  C5_5 
REMARK    4  A    between atoms: C5_5  and  C6_6 
REMARK    5  A    between atoms: C6_6  and  C7_7 
REMARK    6  A    between atoms: C7_7  and  C8_8 
ROOT
HETATM    1  C4  UNL     1     -33.600   7.898   3.893  1.00 20.00     0.005 C 
ENDROOT
BRANCH   1   2
HETATM    2  C3  UNL     1     -32.228   8.234   3.293  1.00 20.00     0.050 C 
BRANCH   2   3
HETATM    3  C2  UNL     1     -32.109   7.965   1.819  1.00 20.00     0.002 C 
HETATM    4  C1  UNL     1     -32.216   8.906   0.873  1.00 20.00     0.032 C 
HETATM    5 CL9  UNL     1     -31.874   6.310   1.365  1.00 20.00    -0.090 Cl
ENDBRANCH   2   3
ENDBRANCH   1   2
BRANCH   1   6
HETATM    6  C5  UNL     1     -34.265   6.685   3.235  1.00 20.00     0.000 C 
BRANCH   6   7
HETATM    7  C6  UNL     1     -35.395   6.132   4.108  1.00 20.00     0.001 C 
BRANCH   7   8
HETATM    8  C7  UNL     1     -35.047   4.749   4.661  1.00 20.00     0.015 C 
BRANCH   8   9
HETATM    9  C8  UNL     1     -33.899   4.121   3.882  1.00 20.00     0.114 C 
HETATM   10 CL10 UNL     1     -33.105   2.861   4.854  1.00 20.00    -0.130 Cl
ENDBRANCH   8   9
ENDBRANCH   7   8
ENDBRANCH   6   7
ENDBRANCH   1   6
TORSDOF 6
ENDMDL
MODEL 2
REMARK VINA RESULT:      -2.6      1.065      1.207
REMARK  6 active torsions:
REMARK  status: ('A' for Active; 'I' for Inactive)
REMARK    1  A    between atoms: C2_2  and  C3_3 
REMARK    2  A    between atoms: C3_3  and  C4_4 
REMARK    3  A    between atoms: C4_4  and  C5_5 
REMARK    4  A    between atoms: C5_5  and  C6_6 
REMARK    5  A    between atoms: C6_6  and  C7_7 
REMARK    6  A    between atoms: C7_7  and  C8_8 
ROOT
HETATM    1  C4  UNL     1     -33.541   7.909   3.936  1.00 20.00     0.005 C 
ENDROOT
BRANCH   1   2
HETATM    2  C3  UNL     1     -32.229   8.321   3.253  1.00 20.00     0.050 C 
BRANCH   2   3
HETATM    3  C2  UNL     1     -32.149   7.969   1.793  1.00 20.00     0.002 C 
HETATM    4  C1  UNL     1     -31.937   6.731   1.331  1.00 20.00     0.032 C 
HETATM    5 CL9  UNL     1     -32.292   9.290   0.683  1.00 20.00    -0.090 Cl
ENDBRANCH   2   3
ENDBRANCH   1   2
BRANCH   1   6
HETATM    6  C5  UNL     1     -34.224   6.717   3.259  1.00 20.00     0.000 C 
BRANCH   6   7
HETATM    7  C6  UNL     1     -35.373   6.179   4.116  1.00 20.00     0.001 C 
BRANCH   7   8
HETATM    8  C7  UNL     1     -35.078   4.765   4.619  1.00 20.00     0.015 C 
BRANCH   8   9
HETATM    9  C8  UNL     1     -33.884   4.163   3.891  1.00 20.00     0.114 C 
HETATM   10 CL10 UNL     1     -33.126   2.897   4.884  1.00 20.00    -0.130 Cl
ENDBRANCH   8   9
ENDBRANCH   7   8
ENDBRANCH   6   7
ENDBRANCH   1   6
TORSDOF 6
ENDMDL
MODEL 3
REMARK VINA RESULT:      -2.3      1.190      1.374
REMARK  6 active torsions:
REMARK  status: ('A' for Active; 'I' for Inactive)
REMARK    1  A    between atoms: C2_2  and  C3_3 
REMARK    2  A    between atoms: C3_3  and  C4_4 
REMARK    3  A    between atoms: C4_4  and  C5_5 
REMARK    4  A    between atoms: C5_5  and  C6_6 
REMARK    5  A    between atoms: C6_6  and  C7_7 
REMARK    6  A    between atoms: C7_7  and  C8_8 
ROOT
HETATM    1  C4  UNL     1     -33.217   7.313   2.254  1.00 20.00     0.005 C 
ENDROOT
BRANCH   1   2
HETATM    2  C3  UNL     1     -32.036   8.288   2.144  1.00 20.00     0.050 C 
BRANCH   2   3
HETATM    3  C2  UNL     1     -32.022   9.110   0.885  1.00 20.00     0.002 C 
HETATM    4  C1  UNL     1     -32.789  10.188   0.684  1.00 20.00     0.032 C 
HETATM    5 CL9  UNL     1     -30.971   8.554  -0.373  1.00 20.00    -0.090 Cl
ENDBRANCH   2   3
ENDBRANCH   1   2
BRANCH   1   6
HETATM    6  C5  UNL     1     -33.764   7.188   3.679  1.00 20.00     0.000 C 
BRANCH   6   7
HETATM    7  C6  UNL     1     -35.078   6.401   3.700  1.00 20.00     0.001 C 
BRANCH   7   8
HETATM    8  C7  UNL     1     -34.926   5.084   4.462  1.00 20.00     0.015 C 
BRANCH   8   9
HETATM    9  C8  UNL     1     -33.933   4.160   3.769  1.00 20.00     0.114 C 
HETATM   10 CL10 UNL     1     -33.218   3.028   4.939  1.00 20.00    -0.130 Cl
ENDBRANCH   8   9
ENDBRANCH   7   8
ENDBRANCH   6   7
ENDBRANCH   1   6
TORSDOF 6
ENDMDL
MODEL 4
REMARK VINA RESULT:      -2.2      1.496      4.704
REMARK  6 active torsions:
REMARK  status: ('A' for Active; 'I' for Inactive)
REMARK    1  A    between atoms: C2_2  and  C3_3 
REMARK    2  A    between atoms: C3_3  and  C4_4 
REMARK    3  A    between atoms: C4_4  and  C5_5 
REMARK    4  A    between atoms: C5_5  and  C6_6 
REMARK    5  A    between atoms: C6_6  and  C7_7 
REMARK    6  A    between atoms: C7_7  and  C8_8 
ROOT
HETATM    1  C4  UNL     1     -34.972   6.430   3.696  1.00 20.00     0.005 C 
ENDROOT
BRANCH   1   2
HETATM    2  C3  UNL     1     -34.964   5.062   4.392  1.00 20.00     0.050 C 
BRANCH   2   3
HETATM    3  C2  UNL     1     -33.850   4.150   3.959  1.00 20.00     0.002 C 
HETATM    4  C1  UNL     1     -33.425   3.097   4.668  1.00 20.00     0.032 C 
HETATM    5 CL9  UNL     1     -33.064   4.561   2.472  1.00 20.00    -0.090 Cl
ENDBRANCH   2   3
ENDBRANCH   1   2
BRANCH   1   6
HETATM    6  C5  UNL     1     -34.233   7.514   4.488  1.00 20.00     0.000 C 
BRANCH   6   7
HETATM    7  C6  UNL     1     -32.958   7.956   3.764  1.00 20.00     0.001 C 
BRANCH   7   8
HETATM    8  C7  UNL     1     -33.032   7.646   2.268  1.00 20.00     0.015 C 
BRANCH   8   9
HETATM    9  C8  UNL     1     -31.825   8.212   1.532  1.00 20.00     0.114 C 
HETATM   10 CL10 UNL     1     -32.319   9.541   0.459  1.00 20.00    -0.130 Cl
ENDBRANCH   8   9
ENDBRANCH   7   8
ENDBRANCH   6   7
ENDBRANCH   1   6
TORSDOF 6
ENDMDL
MODEL 5
REMARK VINA RESULT:      -2.2      1.876      2.444
REMARK  6 active torsions:
REMARK  status: ('A' for Active; 'I' for Inactive)
REMARK    1  A    between atoms: C2_2  and  C3_3 
REMARK    2  A    between atoms: C3_3  and  C4_4 
REMARK    3  A    between atoms: C4_4  and  C5_5 
REMARK    4  A    between atoms: C5_5  and  C6_6 
REMARK    5  A    between atoms: C6_6  and  C7_7 
REMARK    6  A    between atoms: C7_7  and  C8_8 
ROOT
HETATM    1  C4  UNL     1     -31.989   7.078   1.403  1.00 20.00     0.005 C 
ENDROOT
BRANCH   1   2
HETATM    2  C3  UNL     1     -31.994   8.573   1.747  1.00 20.00     0.050 C 
BRANCH   2   3
HETATM    3  C2  UNL     1     -32.351   9.476   0.599  1.00 20.00     0.002 C 
HETATM    4  C1  UNL     1     -32.412   9.078  -0.677  1.00 20.00     0.032 C 
HETATM    5 CL9  UNL     1     -32.640  11.136   0.998  1.00 20.00    -0.090 Cl
ENDBRANCH   2   3
ENDBRANCH   1   2
BRANCH   1   6
HETATM    6  C5  UNL     1     -33.241   6.343   1.891  1.00 20.00     0.000 C 
BRANCH   6   7
HETATM    7  C6  UNL     1     -33.516   6.638   3.368  1.00 20.00     0.001 C 
BRANCH   7   8
HETATM    8  C7  UNL     1     -35.004   6.504   3.696  1.00 20.00     0.015 C 
BRANCH   8   9
HETATM    9  C8  UNL     1     -35.280   5.226   4.476  1.00 20.00     0.114 C 
HETATM   10 CL10 UNL     1     -33.998   4.030   4.183  1.00 20.00    -0.130 Cl
ENDBRANCH   8   9
ENDBRANCH   7   8
ENDBRANCH   6   7
ENDBRANCH   1   6
TORSDOF 6
ENDMDL
MODEL 6
REMARK VINA RESULT:      -2.2      2.350      5.396
REMARK  6 active torsions:
REMARK  status: ('A' for Active; 'I' for Inactive)
REMARK    1  A    between atoms: C2_2  and  C3_3 
REMARK    2  A    between atoms: C3_3  and  C4_4 
REMARK    3  A    between atoms: C4_4  and  C5_5 
REMARK    4  A    between atoms: C5_5  and  C6_6 
REMARK    5  A    between atoms: C6_6  and  C7_7 
REMARK    6  A    between atoms: C7_7  and  C8_8 
ROOT
HETATM    1  C4  UNL     1     -33.085   6.033   1.651  1.00 20.00     0.005 C 
ENDROOT
BRANCH   1   2
HETATM    2  C3  UNL     1     -33.429   5.556   3.068  1.00 20.00     0.050 C 
BRANCH   2   3
HETATM    3  C2  UNL     1     -34.399   6.438   3.804  1.00 20.00     0.002 C 
HETATM    4  C1  UNL     1     -35.697   6.153   3.968  1.00 20.00     0.032 C 
HETATM    5 CL9  UNL     1     -33.761   7.928   4.412  1.00 20.00    -0.090 Cl
ENDBRANCH   2   3
ENDBRANCH   1   2
BRANCH   1   6
HETATM    6  C5  UNL     1     -31.747   6.775   1.573  1.00 20.00     0.000 C 
BRANCH   6   7
HETATM    7  C6  UNL     1     -31.958   8.290   1.497  1.00 20.00     0.001 C 
BRANCH   7   8
HETATM    8  C7  UNL     1     -31.594   8.835   0.115  1.00 20.00     0.015 C 
BRANCH   8   9
HETATM    9  C8  UNL     1     -32.567   9.924  -0.318  1.00 20.00     0.114 C 
HETATM   10 CL10 UNL     1     -32.813  11.095   0.998  1.00 20.00    -0.130 Cl
ENDBRANCH   8   9
ENDBRANCH   7   8
ENDBRANCH   6   7
ENDBRANCH   1   6
TORSDOF 6
ENDMDL
MODEL 7
REMARK VINA RESULT:      -2.2      0.891      1.243
REMARK  6 active torsions:
REMARK  status: ('A' for Active; 'I' for Inactive)
REMARK    1  A    between atoms: C2_2  and  C3_3 
REMARK    2  A    between atoms: C3_3  and  C4_4 
REMARK    3  A    between atoms: C4_4  and  C5_5 
REMARK    4  A    between atoms: C5_5  and  C6_6 
REMARK    5  A    between atoms: C6_6  and  C7_7 
REMARK    6  A    between atoms: C7_7  and  C8_8 
ROOT
HETATM    1  C4  UNL     1     -33.805   6.961   3.986  1.00 20.00     0.005 C 
ENDROOT
BRANCH   1   2
HETATM    2  C3  UNL     1     -33.650   7.875   2.763  1.00 20.00     0.050 C 
BRANCH   2   3
HETATM    3  C2  UNL     1     -32.514   7.506   1.849  1.00 20.00     0.002 C 
HETATM    4  C1  UNL     1     -31.651   8.388   1.331  1.00 20.00     0.032 C 
HETATM    5 CL9  UNL     1     -32.392   5.831   1.427  1.00 20.00    -0.090 Cl
ENDBRANCH   2   3
ENDBRANCH   1   2
BRANCH   1   6
HETATM    6  C5  UNL     1     -35.172   6.272   4.054  1.00 20.00     0.000 C 
BRANCH   6   7
HETATM    7  C6  UNL     1     -35.033   4.812   4.493  1.00 20.00     0.001 C 
BRANCH   7   8
HETATM    8  C7  UNL     1     -33.795   4.160   3.875  1.00 20.00     0.015 C 
BRANCH   8   9
HETATM    9  C8  UNL     1     -33.453   2.855   4.582  1.00 20.00     0.114 C 
HETATM   10 CL10 UNL     1     -32.518   3.175   6.060  1.00 20.00    -0.130 Cl
ENDBRANCH   8   9
ENDBRANCH   7   8
ENDBRANCH   6   7
ENDBRANCH   1   6
TORSDOF 6
ENDMDL
MODEL 8
REMARK VINA RESULT:      -2.1      2.237      5.376
REMARK  6 active torsions:
REMARK  status: ('A' for Active; 'I' for Inactive)
REMARK    1  A    between atoms: C2_2  and  C3_3 
REMARK    2  A    between atoms: C3_3  and  C4_4 
REMARK    3  A    between atoms: C4_4  and  C5_5 
REMARK    4  A    between atoms: C5_5  and  C6_6 
REMARK    5  A    between atoms: C6_6  and  C7_7 
REMARK    6  A    between atoms: C7_7  and  C8_8 
ROOT
HETATM    1  C4  UNL     1     -33.103   5.956   1.607  1.00 20.00     0.005 C 
ENDROOT
BRANCH   1   2
HETATM    2  C3  UNL     1     -33.326   5.444   3.036  1.00 20.00     0.050 C 
BRANCH   2   3
HETATM    3  C2  UNL     1     -34.346   6.217   3.823  1.00 20.00     0.002 C 
HETATM    4  C1  UNL     1     -34.283   7.537   4.042  1.00 20.00     0.032 C 
HETATM    5 CL9  UNL     1     -35.634   5.291   4.517  1.00 20.00    -0.090 Cl
ENDBRANCH   2   3
ENDBRANCH   1   2
BRANCH   1   6
HETATM    6  C5  UNL     1     -31.758   6.667   1.424  1.00 20.00     0.000 C 
BRANCH   6   7
HETATM    7  C6  UNL     1     -31.923   8.188   1.484  1.00 20.00     0.001 C 
BRANCH   7   8
HETATM    8  C7  UNL     1     -31.517   8.845   0.164  1.00 20.00     0.015 C 
BRANCH   8   9
HETATM    9  C8  UNL     1     -32.562   9.856  -0.289  1.00 20.00     0.114 C 
HETATM   10 CL10 UNL     1     -32.808  11.096   0.963  1.00 20.00    -0.130 Cl
ENDBRANCH   8   9
ENDBRANCH   7   8
ENDBRANCH   6   7
ENDBRANCH   1   6
TORSDOF 6
ENDMDL
MODEL 9
REMARK VINA RESULT:      -2.0      1.211      1.489
REMARK  6 active torsions:
REMARK  status: ('A' for Active; 'I' for Inactive)
REMARK    1  A    between atoms: C2_2  and  C3_3 
REMARK    2  A    between atoms: C3_3  and  C4_4 
REMARK    3  A    between atoms: C4_4  and  C5_5 
REMARK    4  A    between atoms: C5_5  and  C6_6 
REMARK    5  A    between atoms: C6_6  and  C7_7 
REMARK    6  A    between atoms: C7_7  and  C8_8 
ROOT
HETATM    1  C4  UNL     1     -33.423   6.168   2.051  1.00 20.00     0.005 C 
ENDROOT
BRANCH   1   2
HETATM    2  C3  UNL     1     -32.115   6.772   1.521  1.00 20.00     0.050 C 
BRANCH   2   3
HETATM    3  C2  UNL     1     -32.001   8.261   1.696  1.00 20.00     0.002 C 
HETATM    4  C1  UNL     1     -32.328   9.155   0.754  1.00 20.00     0.032 C 
HETATM    5 CL9  UNL     1     -31.349   8.801   3.206  1.00 20.00    -0.090 Cl
ENDBRANCH   2   3
ENDBRANCH   1   2
BRANCH   1   6
HETATM    6  C5  UNL     1     -33.868   6.772   3.386  1.00 20.00     0.000 C 
BRANCH   6   7
HETATM    7  C6  UNL     1     -35.190   6.160   3.857  1.00 20.00     0.001 C 
BRANCH   7   8
HETATM    8  C7  UNL     1     -34.960   4.849   4.611  1.00 20.00     0.015 C 
BRANCH   8   9
HETATM    9  C8  UNL     1     -33.936   3.978   3.897  1.00 20.00     0.114 C 
HETATM   10 CL10 UNL     1     -33.123   2.900   5.054  1.00 20.00    -0.130 Cl
ENDBRANCH   8   9
ENDBRANCH   7   8
ENDBRANCH   6   7
ENDBRANCH   1   6
TORSDOF 6
ENDMDL
