MODEL 1
REMARK VINA RESULT:      -3.7      0.000      0.000
REMARK  2 active torsions:
REMARK  status: ('A' for Active; 'I' for Inactive)
REMARK    1  A    between atoms: C1_1  and  C2_2 
REMARK    2  A    between atoms: C1_1  and  C3_3 
ROOT
HETATM    1  C1  UNL     1     -33.344   5.973   3.212  1.00 20.00     0.341 C 
HETATM    2  F4  UNL     1     -33.690   4.658   3.322  1.00 20.00    -0.234 F 
ENDROOT
BRANCH   1   3
HETATM    3  C2  UNL     1     -34.562   6.808   3.536  1.00 20.00     0.395 C 
HETATM    4  F5  UNL     1     -34.225   7.761   4.441  1.00 20.00    -0.211 F 
HETATM    5  F6  UNL     1     -35.515   6.038   4.115  1.00 20.00    -0.211 F 
ENDBRANCH   1   3
BRANCH   1   6
HETATM    6  C3  UNL     1     -32.828   6.203   1.812  1.00 20.00     0.423 C 
HETATM    7  F7  UNL     1     -32.408   7.480   1.664  1.00 20.00    -0.168 F 
HETATM    8  F8  UNL     1     -33.795   5.983   0.895  1.00 20.00    -0.168 F 
HETATM    9  F9  UNL     1     -31.790   5.391   1.525  1.00 20.00    -0.168 F 
ENDBRANCH   1   6
TORSDOF 2
ENDMDL
MODEL 2
REMARK VINA RESULT:      -3.7      0.009      1.259
REMARK  2 active torsions:
REMARK  status: ('A' for Active; 'I' for Inactive)
REMARK    1  A    between atoms: C1_1  and  C2_2 
REMARK    2  A    between atoms: C1_1  and  C3_3 
ROOT
HETATM    1  C1  UNL     1     -33.346   5.977   3.209  1.00 20.00     0.341 C 
HETATM    2  F4  UNL     1     -33.691   4.662   3.318  1.00 20.00    -0.234 F 
ENDROOT
BRANCH   1   3
HETATM    3  C2  UNL     1     -34.565   6.809   3.537  1.00 20.00     0.395 C 
HETATM    4  F5  UNL     1     -34.228   7.760   4.445  1.00 20.00    -0.211 F 
HETATM    5  F6  UNL     1     -35.516   6.036   4.114  1.00 20.00    -0.211 F 
ENDBRANCH   1   3
BRANCH   1   6
HETATM    6  C3  UNL     1     -32.833   6.210   1.809  1.00 20.00     0.423 C 
HETATM    7  F7  UNL     1     -31.792   5.392   1.540  1.00 20.00    -0.168 F 
HETATM    8  F8  UNL     1     -32.402   7.482   1.654  1.00 20.00    -0.168 F 
HETATM    9  F9  UNL     1     -33.789   5.980   0.884  1.00 20.00    -0.168 F 
ENDBRANCH   1   6
TORSDOF 2
ENDMDL
MODEL 3
REMARK VINA RESULT:      -3.7      1.116      3.240
REMARK  2 active torsions:
REMARK  status: ('A' for Active; 'I' for Inactive)
REMARK    1  A    between atoms: C1_1  and  C2_2 
REMARK    2  A    between atoms: C1_1  and  C3_3 
ROOT
HETATM    1  C1  UNL     1     -33.406   6.754   2.092  1.00 20.00     0.341 C 
HETATM    2  F4  UNL     1     -32.886   5.544   1.738  1.00 20.00    -0.234 F 
ENDROOT
BRANCH   1   3
HETATM    3  C2  UNL     1     -32.271   7.751   2.152  1.00 20.00     0.395 C 
HETATM    4  F5  UNL     1     -32.606   8.856   1.440  1.00 20.00    -0.211 F 
HETATM    5  F6  UNL     1     -31.162   7.233   1.572  1.00 20.00    -0.211 F 
ENDBRANCH   1   3
BRANCH   1   6
HETATM    6  C3  UNL     1     -34.116   6.589   3.413  1.00 20.00     0.423 C 
HETATM    7  F7  UNL     1     -33.659   7.486   4.314  1.00 20.00    -0.168 F 
HETATM    8  F8  UNL     1     -33.909   5.355   3.926  1.00 20.00    -0.168 F 
HETATM    9  F9  UNL     1     -35.447   6.769   3.288  1.00 20.00    -0.168 F 
ENDBRANCH   1   6
TORSDOF 2
ENDMDL
MODEL 4
REMARK VINA RESULT:      -3.6      1.117      3.243
REMARK  2 active torsions:
REMARK  status: ('A' for Active; 'I' for Inactive)
REMARK    1  A    between atoms: C1_1  and  C2_2 
REMARK    2  A    between atoms: C1_1  and  C3_3 
ROOT
HETATM    1  C1  UNL     1     -33.409   6.757   2.098  1.00 20.00     0.341 C 
HETATM    2  F4  UNL     1     -32.892   5.544   1.747  1.00 20.00    -0.234 F 
ENDROOT
BRANCH   1   3
HETATM    3  C2  UNL     1     -32.272   7.753   2.152  1.00 20.00     0.395 C 
HETATM    4  F5  UNL     1     -32.609   8.857   1.438  1.00 20.00    -0.211 F 
HETATM    5  F6  UNL     1     -31.166   7.231   1.568  1.00 20.00    -0.211 F 
ENDBRANCH   1   3
BRANCH   1   6
HETATM    6  C3  UNL     1     -34.116   6.598   3.422  1.00 20.00     0.423 C 
HETATM    7  F7  UNL     1     -33.916   5.359   3.923  1.00 20.00    -0.168 F 
HETATM    8  F8  UNL     1     -35.449   6.772   3.285  1.00 20.00    -0.168 F 
HETATM    9  F9  UNL     1     -33.671   7.489   4.332  1.00 20.00    -0.168 F 
ENDBRANCH   1   6
TORSDOF 2
ENDMDL
MODEL 5
REMARK VINA RESULT:      -3.6      0.821      1.991
REMARK  2 active torsions:
REMARK  status: ('A' for Active; 'I' for Inactive)
REMARK    1  A    between atoms: C1_1  and  C2_2 
REMARK    2  A    between atoms: C1_1  and  C3_3 
ROOT
HETATM    1  C1  UNL     1     -33.428   7.204   2.491  1.00 20.00     0.341 C 
HETATM    2  F4  UNL     1     -32.368   8.018   2.760  1.00 20.00    -0.234 F 
ENDROOT
BRANCH   1   3
HETATM    3  C2  UNL     1     -34.116   6.883   3.800  1.00 20.00     0.395 C 
HETATM    4  F5  UNL     1     -35.413   6.566   3.559  1.00 20.00    -0.211 F 
HETATM    5  F6  UNL     1     -34.121   7.974   4.604  1.00 20.00    -0.211 F 
ENDBRANCH   1   3
BRANCH   1   6
HETATM    6  C3  UNL     1     -32.908   5.977   1.783  1.00 20.00     0.423 C 
HETATM    7  F7  UNL     1     -33.581   5.771   0.630  1.00 20.00    -0.168 F 
HETATM    8  F8  UNL     1     -33.062   4.873   2.547  1.00 20.00    -0.168 F 
HETATM    9  F9  UNL     1     -31.598   6.095   1.482  1.00 20.00    -0.168 F 
ENDBRANCH   1   6
TORSDOF 2
ENDMDL
MODEL 6
REMARK VINA RESULT:      -3.5      1.262      2.126
REMARK  2 active torsions:
REMARK  status: ('A' for Active; 'I' for Inactive)
REMARK    1  A    between atoms: C1_1  and  C2_2 
REMARK    2  A    between atoms: C1_1  and  C3_3 
ROOT
HETATM    1  C1  UNL     1     -33.036   6.818   2.901  1.00 20.00     0.341 C 
HETATM    2  F4  UNL     1     -33.473   5.994   1.907  1.00 20.00    -0.234 F 
ENDROOT
BRANCH   1   3
HETATM    3  C2  UNL     1     -34.247   7.401   3.594  1.00 20.00     0.395 C 
HETATM    4  F5  UNL     1     -33.869   7.944   4.779  1.00 20.00    -0.211 F 
HETATM    5  F6  UNL     1     -35.138   6.421   3.880  1.00 20.00    -0.211 F 
ENDBRANCH   1   3
BRANCH   1   6
HETATM    6  C3  UNL     1     -32.149   7.870   2.281  1.00 20.00     0.423 C 
HETATM    7  F7  UNL     1     -31.245   7.302   1.453  1.00 20.00    -0.168 F 
HETATM    8  F8  UNL     1     -31.465   8.550   3.227  1.00 20.00    -0.168 F 
HETATM    9  F9  UNL     1     -32.864   8.761   1.563  1.00 20.00    -0.168 F 
ENDBRANCH   1   6
TORSDOF 2
ENDMDL
MODEL 7
REMARK VINA RESULT:      -3.1      1.216      2.097
REMARK  2 active torsions:
REMARK  status: ('A' for Active; 'I' for Inactive)
REMARK    1  A    between atoms: C1_1  and  C2_2 
REMARK    2  A    between atoms: C1_1  and  C3_3 
ROOT
HETATM    1  C1  UNL     1     -33.572   7.737   3.318  1.00 20.00     0.341 C 
HETATM    2  F4  UNL     1     -32.992   7.809   4.550  1.00 20.00    -0.234 F 
ENDROOT
BRANCH   1   3
HETATM    3  C2  UNL     1     -34.360   6.447   3.245  1.00 20.00     0.395 C 
HETATM    4  F5  UNL     1     -35.456   6.546   4.039  1.00 20.00    -0.211 F 
HETATM    5  F6  UNL     1     -33.619   5.420   3.726  1.00 20.00    -0.211 F 
ENDBRANCH   1   3
BRANCH   1   6
HETATM    6  C3  UNL     1     -32.478   7.817   2.282  1.00 20.00     0.423 C 
HETATM    7  F7  UNL     1     -31.299   8.139   2.859  1.00 20.00    -0.168 F 
HETATM    8  F8  UNL     1     -32.752   8.765   1.359  1.00 20.00    -0.168 F 
HETATM    9  F9  UNL     1     -32.317   6.643   1.637  1.00 20.00    -0.168 F 
ENDBRANCH   1   6
TORSDOF 2
ENDMDL
MODEL 8
REMARK VINA RESULT:      -3.1      1.456      3.025
REMARK  2 active torsions:
REMARK  status: ('A' for Active; 'I' for Inactive)
REMARK    1  A    between atoms: C1_1  and  C2_2 
REMARK    2  A    between atoms: C1_1  and  C3_3 
ROOT
HETATM    1  C1  UNL     1     -33.178   7.119   2.139  1.00 20.00     0.341 C 
HETATM    2  F4  UNL     1     -33.663   7.298   3.401  1.00 20.00    -0.234 F 
ENDROOT
BRANCH   1   3
HETATM    3  C2  UNL     1     -32.749   5.675   2.003  1.00 20.00     0.395 C 
HETATM    4  F5  UNL     1     -33.054   5.232   0.757  1.00 20.00    -0.211 F 
HETATM    5  F6  UNL     1     -33.438   4.899   2.874  1.00 20.00    -0.211 F 
ENDBRANCH   1   3
BRANCH   1   6
HETATM    6  C3  UNL     1     -32.043   8.092   1.933  1.00 20.00     0.423 C 
HETATM    7  F7  UNL     1     -31.023   7.501   1.271  1.00 20.00    -0.168 F 
HETATM    8  F8  UNL     1     -31.560   8.533   3.115  1.00 20.00    -0.168 F 
HETATM    9  F9  UNL     1     -32.434   9.166   1.216  1.00 20.00    -0.168 F 
ENDBRANCH   1   6
TORSDOF 2
ENDMDL
MODEL 9
REMARK VINA RESULT:      -3.1      2.997      4.495
REMARK  2 active torsions:
REMARK  status: ('A' for Active; 'I' for Inactive)
REMARK    1  A    between atoms: C1_1  and  C2_2 
REMARK    2  A    between atoms: C1_1  and  C3_3 
ROOT
HETATM    1  C1  UNL     1     -31.560   9.106   0.894  1.00 20.00     0.341 C 
HETATM    2  F4  UNL     1     -30.802   8.523  -0.079  1.00 20.00    -0.234 F 
ENDROOT
BRANCH   1   3
HETATM    3  C2  UNL     1     -32.267   8.008   1.657  1.00 20.00     0.395 C 
HETATM    4  F5  UNL     1     -32.153   8.241   2.988  1.00 20.00    -0.211 F 
HETATM    5  F6  UNL     1     -31.673   6.814   1.416  1.00 20.00    -0.211 F 
ENDBRANCH   1   3
BRANCH   1   6
HETATM    6  C3  UNL     1     -32.512  10.069   0.230  1.00 20.00     0.423 C 
HETATM    7  F7  UNL     1     -33.085   9.502  -0.855  1.00 20.00    -0.168 F 
HETATM    8  F8  UNL     1     -31.868  11.182  -0.185  1.00 20.00    -0.168 F 
HETATM    9  F9  UNL     1     -33.500  10.449   1.067  1.00 20.00    -0.168 F 
ENDBRANCH   1   6
TORSDOF 2
ENDMDL
