MODEL 1
REMARK VINA RESULT:      -1.2      0.000      0.000
REMARK  3 active torsions:
REMARK  status: ('A' for Active; 'I' for Inactive)
REMARK    1  A    between atoms: C5_5  and  C6_6 
REMARK    2  A    between atoms: C5_5  and  N8_8 
REMARK    3  A    between atoms: C6_6  and  N9_9 
ROOT
HETATM    1  C1  UNL     1     -34.488   4.266   4.557  1.00 20.00     0.157 C 
HETATM    2  N8  UNL     1     -35.360   5.037   4.709  1.00 20.00    -0.274 NA
HETATM    3  S10 UNL     1     -33.315   3.204   4.375  1.00 20.00    -0.055 SA
ENDROOT
BRANCH   2   4
HETATM    4  C5  UNL     1     -35.393   6.130   3.736  1.00 20.00     0.172 C 
BRANCH   4   5
HETATM    5  C6  UNL     1     -34.249   7.101   4.006  1.00 20.00     0.172 C 
BRANCH   5   6
HETATM    6  N9  UNL     1     -33.277   7.157   2.917  1.00 20.00    -0.280 N 
HETATM    7  C4  UNL     1     -33.049   6.188   1.986  1.00 20.00     0.113 A 
HETATM    8  C2  UNL     1     -32.057   6.677   1.170  1.00 20.00     0.040 A 
HETATM    9  C3  UNL     1     -31.762   7.948   1.700  1.00 20.00     0.140 A 
HETATM   10  N7  UNL     1     -32.504   8.247   2.768  1.00 20.00    -0.185 NA
ENDBRANCH   5   6
ENDBRANCH   4   5
ENDBRANCH   2   4
TORSDOF 3
ENDMDL
MODEL 2
REMARK VINA RESULT:      -1.2      0.571      1.192
REMARK  3 active torsions:
REMARK  status: ('A' for Active; 'I' for Inactive)
REMARK    1  A    between atoms: C5_5  and  C6_6 
REMARK    2  A    between atoms: C5_5  and  N8_8 
REMARK    3  A    between atoms: C6_6  and  N9_9 
ROOT
HETATM    1  C1  UNL     1     -34.483   4.274   4.543  1.00 20.00     0.157 C 
HETATM    2  N8  UNL     1     -35.366   5.035   4.683  1.00 20.00    -0.274 NA
HETATM    3  S10 UNL     1     -33.296   3.225   4.376  1.00 20.00    -0.055 SA
ENDROOT
BRANCH   2   4
HETATM    4  C5  UNL     1     -35.378   6.147   3.730  1.00 20.00     0.172 C 
BRANCH   4   5
HETATM    5  C6  UNL     1     -34.234   7.107   4.037  1.00 20.00     0.172 C 
BRANCH   5   6
HETATM    6  N9  UNL     1     -33.261   7.203   2.953  1.00 20.00    -0.280 N 
HETATM    7  C4  UNL     1     -32.429   8.254   2.703  1.00 20.00     0.113 A 
HETATM    8  C2  UNL     1     -31.699   7.900   1.594  1.00 20.00     0.040 A 
HETATM    9  C3  UNL     1     -32.172   6.617   1.257  1.00 20.00     0.140 A 
HETATM   10  N7  UNL     1     -33.127   6.186   2.084  1.00 20.00    -0.185 NA
ENDBRANCH   5   6
ENDBRANCH   4   5
ENDBRANCH   2   4
TORSDOF 3
ENDMDL
MODEL 3
REMARK VINA RESULT:      -1.2      2.981      5.010
REMARK  3 active torsions:
REMARK  status: ('A' for Active; 'I' for Inactive)
REMARK    1  A    between atoms: C5_5  and  C6_6 
REMARK    2  A    between atoms: C5_5  and  N8_8 
REMARK    3  A    between atoms: C6_6  and  N9_9 
ROOT
HETATM    1  C1  UNL     1     -32.089   9.251   0.595  1.00 20.00     0.157 C 
HETATM    2  N8  UNL     1     -31.591   8.272   1.013  1.00 20.00    -0.274 NA
HETATM    3  S10 UNL     1     -32.744  10.577   0.006  1.00 20.00    -0.055 SA
ENDROOT
BRANCH   2   4
HETATM    4  C5  UNL     1     -32.201   7.744   2.234  1.00 20.00     0.172 C 
BRANCH   4   5
HETATM    5  C6  UNL     1     -32.792   6.364   1.966  1.00 20.00     0.172 C 
BRANCH   5   6
HETATM    6  N9  UNL     1     -33.748   5.943   2.986  1.00 20.00    -0.280 N 
HETATM    7  C4  UNL     1     -34.719   6.715   3.553  1.00 20.00     0.113 A 
HETATM    8  C2  UNL     1     -35.368   5.902   4.451  1.00 20.00     0.040 A 
HETATM    9  C3  UNL     1     -34.708   4.663   4.344  1.00 20.00     0.140 A 
HETATM   10  N7  UNL     1     -33.716   4.682   3.450  1.00 20.00    -0.185 NA
ENDBRANCH   5   6
ENDBRANCH   4   5
ENDBRANCH   2   4
TORSDOF 3
ENDMDL
MODEL 4
REMARK VINA RESULT:      -1.1      3.004      4.902
REMARK  3 active torsions:
REMARK  status: ('A' for Active; 'I' for Inactive)
REMARK    1  A    between atoms: C5_5  and  C6_6 
REMARK    2  A    between atoms: C5_5  and  N8_8 
REMARK    3  A    between atoms: C6_6  and  N9_9 
ROOT
HETATM    1  C1  UNL     1     -32.116   9.241   0.548  1.00 20.00     0.157 C 
HETATM    2  N8  UNL     1     -31.639   8.248   0.954  1.00 20.00    -0.274 NA
HETATM    3  S10 UNL     1     -32.744  10.588  -0.026  1.00 20.00    -0.055 SA
ENDROOT
BRANCH   2   4
HETATM    4  C5  UNL     1     -32.235   7.738   2.190  1.00 20.00     0.172 C 
BRANCH   4   5
HETATM    5  C6  UNL     1     -32.786   6.335   1.962  1.00 20.00     0.172 C 
BRANCH   5   6
HETATM    6  N9  UNL     1     -33.750   5.926   2.980  1.00 20.00    -0.280 N 
HETATM    7  C4  UNL     1     -33.878   4.680   3.519  1.00 20.00     0.113 A 
HETATM    8  C2  UNL     1     -34.905   4.767   4.427  1.00 20.00     0.040 A 
HETATM    9  C3  UNL     1     -35.324   6.110   4.356  1.00 20.00     0.140 A 
HETATM   10  N7  UNL     1     -34.621   6.823   3.472  1.00 20.00    -0.185 NA
ENDBRANCH   5   6
ENDBRANCH   4   5
ENDBRANCH   2   4
TORSDOF 3
ENDMDL
MODEL 5
REMARK VINA RESULT:       0.0      2.287      3.218
REMARK  3 active torsions:
REMARK  status: ('A' for Active; 'I' for Inactive)
REMARK    1  A    between atoms: C5_5  and  C6_6 
REMARK    2  A    between atoms: C5_5  and  N8_8 
REMARK    3  A    between atoms: C6_6  and  N9_9 
ROOT
HETATM    1  C1  UNL     1     -33.889   5.953   3.105  1.00 20.00     0.157 C 
HETATM    2  N8  UNL     1     -33.045   5.462   2.455  1.00 20.00    -0.274 NA
HETATM    3  S10 UNL     1     -35.036   6.594   4.005  1.00 20.00    -0.055 SA
ENDROOT
BRANCH   2   4
HETATM    4  C5  UNL     1     -32.550   6.294   1.356  1.00 20.00     0.172 C 
BRANCH   4   5
HETATM    5  C6  UNL     1     -31.928   7.571   1.910  1.00 20.00     0.172 C 
BRANCH   5   6
HETATM    6  N9  UNL     1     -32.213   8.747   1.094  1.00 20.00    -0.280 N 
HETATM    7  C4  UNL     1     -31.970   8.884  -0.241  1.00 20.00     0.113 A 
HETATM    8  C2  UNL     1     -32.399  10.147  -0.573  1.00 20.00     0.040 A 
HETATM    9  C3  UNL     1     -32.881  10.684   0.636  1.00 20.00     0.140 A 
HETATM   10  N7  UNL     1     -32.770   9.833   1.659  1.00 20.00    -0.185 NA
ENDBRANCH   5   6
ENDBRANCH   4   5
ENDBRANCH   2   4
TORSDOF 3
ENDMDL
MODEL 6
REMARK VINA RESULT:       0.1      2.422      3.393
REMARK  3 active torsions:
REMARK  status: ('A' for Active; 'I' for Inactive)
REMARK    1  A    between atoms: C5_5  and  C6_6 
REMARK    2  A    between atoms: C5_5  and  N8_8 
REMARK    3  A    between atoms: C6_6  and  N9_9 
ROOT
HETATM    1  C1  UNL     1     -33.847   5.975   3.065  1.00 20.00     0.157 C 
HETATM    2  N8  UNL     1     -33.005   5.498   2.400  1.00 20.00    -0.274 NA
HETATM    3  S10 UNL     1     -34.991   6.597   3.982  1.00 20.00    -0.055 SA
ENDROOT
BRANCH   2   4
HETATM    4  C5  UNL     1     -32.494   6.363   1.336  1.00 20.00     0.172 C 
BRANCH   4   5
HETATM    5  C6  UNL     1     -31.949   7.656   1.933  1.00 20.00     0.172 C 
BRANCH   5   6
HETATM    6  N9  UNL     1     -32.242   8.831   1.118  1.00 20.00    -0.280 N 
HETATM    7  C4  UNL     1     -32.705  10.033   1.567  1.00 20.00     0.113 A 
HETATM    8  C2  UNL     1     -32.830  10.827   0.453  1.00 20.00     0.040 A 
HETATM    9  C3  UNL     1     -32.416  10.006  -0.613  1.00 20.00     0.140 A 
HETATM   10  N7  UNL     1     -32.055   8.784  -0.213  1.00 20.00    -0.185 NA
ENDBRANCH   5   6
ENDBRANCH   4   5
ENDBRANCH   2   4
TORSDOF 3
ENDMDL
MODEL 7
REMARK VINA RESULT:       0.3      1.948      2.839
REMARK  3 active torsions:
REMARK  status: ('A' for Active; 'I' for Inactive)
REMARK    1  A    between atoms: C5_5  and  C6_6 
REMARK    2  A    between atoms: C5_5  and  N8_8 
REMARK    3  A    between atoms: C6_6  and  N9_9 
ROOT
HETATM    1  C1  UNL     1     -33.838   5.364   3.436  1.00 20.00     0.157 C 
HETATM    2  N8  UNL     1     -33.805   6.390   2.867  1.00 20.00    -0.274 NA
HETATM    3  S10 UNL     1     -33.904   3.983   4.227  1.00 20.00    -0.055 SA
ENDROOT
BRANCH   2   4
HETATM    4  C5  UNL     1     -32.847   6.451   1.761  1.00 20.00     0.172 C 
BRANCH   4   5
HETATM    5  C6  UNL     1     -31.908   7.636   1.950  1.00 20.00     0.172 C 
BRANCH   5   6
HETATM    6  N9  UNL     1     -32.224   8.762   1.076  1.00 20.00    -0.280 N 
HETATM    7  C4  UNL     1     -32.227   8.752  -0.288  1.00 20.00     0.113 A 
HETATM    8  C2  UNL     1     -32.582  10.023  -0.671  1.00 20.00     0.040 A 
HETATM    9  C3  UNL     1     -32.770  10.717   0.539  1.00 20.00     0.140 A 
HETATM   10  N7  UNL     1     -32.552   9.951   1.612  1.00 20.00    -0.185 NA
ENDBRANCH   5   6
ENDBRANCH   4   5
ENDBRANCH   2   4
TORSDOF 3
ENDMDL
MODEL 8
REMARK VINA RESULT:       0.6      1.256      1.623
REMARK  3 active torsions:
REMARK  status: ('A' for Active; 'I' for Inactive)
REMARK    1  A    between atoms: C5_5  and  C6_6 
REMARK    2  A    between atoms: C5_5  and  N8_8 
REMARK    3  A    between atoms: C6_6  and  N9_9 
ROOT
HETATM    1  C1  UNL     1     -34.579   5.440   3.930  1.00 20.00     0.157 C 
HETATM    2  N8  UNL     1     -35.084   6.463   3.652  1.00 20.00    -0.274 NA
HETATM    3  S10 UNL     1     -33.918   4.038   4.296  1.00 20.00    -0.055 SA
ENDROOT
BRANCH   2   4
HETATM    4  C5  UNL     1     -34.302   7.651   3.999  1.00 20.00     0.172 C 
BRANCH   4   5
HETATM    5  C6  UNL     1     -32.837   7.435   3.634  1.00 20.00     0.172 C 
BRANCH   5   6
HETATM    6  N9  UNL     1     -32.476   8.021   2.346  1.00 20.00    -0.280 N 
HETATM    7  C4  UNL     1     -31.677   7.456   1.396  1.00 20.00     0.113 A 
HETATM    8  C2  UNL     1     -31.622   8.363   0.365  1.00 20.00     0.040 A 
HETATM    9  C3  UNL     1     -32.422   9.437   0.798  1.00 20.00     0.140 A 
HETATM   10  N7  UNL     1     -32.947   9.234   2.010  1.00 20.00    -0.185 NA
ENDBRANCH   5   6
ENDBRANCH   4   5
ENDBRANCH   2   4
TORSDOF 3
ENDMDL
MODEL 9
REMARK VINA RESULT:       1.0      2.322      3.178
REMARK  3 active torsions:
REMARK  status: ('A' for Active; 'I' for Inactive)
REMARK    1  A    between atoms: C5_5  and  C6_6 
REMARK    2  A    between atoms: C5_5  and  N8_8 
REMARK    3  A    between atoms: C6_6  and  N9_9 
ROOT
HETATM    1  C1  UNL     1     -33.059   5.802   2.098  1.00 20.00     0.157 C 
HETATM    2  N8  UNL     1     -33.625   6.348   2.971  1.00 20.00    -0.274 NA
HETATM    3  S10 UNL     1     -32.307   5.035   0.922  1.00 20.00    -0.055 SA
ENDROOT
BRANCH   2   4
HETATM    4  C5  UNL     1     -33.288   7.763   3.132  1.00 20.00     0.172 C 
BRANCH   4   5
HETATM    5  C6  UNL     1     -32.025   8.091   2.344  1.00 20.00     0.172 C 
BRANCH   5   6
HETATM    6  N9  UNL     1     -32.267   9.004   1.230  1.00 20.00    -0.280 N 
HETATM    7  C4  UNL     1     -32.007   8.761  -0.087  1.00 20.00     0.113 A 
HETATM    8  C2  UNL     1     -32.394   9.894  -0.761  1.00 20.00     0.040 A 
HETATM    9  C3  UNL     1     -32.871  10.756   0.245  1.00 20.00     0.140 A 
HETATM   10  N7  UNL     1     -32.795  10.218   1.465  1.00 20.00    -0.185 NA
ENDBRANCH   5   6
ENDBRANCH   4   5
ENDBRANCH   2   4
TORSDOF 3
ENDMDL
