MODEL 1
REMARK VINA RESULT:      -2.4      0.000      0.000
REMARK  5 active torsions:
REMARK  status: ('A' for Active; 'I' for Inactive)
REMARK    1  A    between atoms: C1_1  and  C6_6 
REMARK    2  A    between atoms: C2_2  and  C7_7 
REMARK    3  A    between atoms: C2_2  and  C8_8 
REMARK    4  A    between atoms: C7_7  and  C9_9 
REMARK    5  A    between atoms: C8_8  and  C10_10 
ROOT
HETATM    1  C1  UNL     1     -34.016   7.313   3.537  1.00 20.00    -0.024 C 
HETATM    2  C2  UNL     1     -33.152   7.205   2.508  1.00 20.00    -0.084 C 
ENDROOT
BRANCH   2   3
HETATM    3  C7  UNL     1     -32.083   8.262   2.305  1.00 20.00     0.033 C 
BRANCH   3   4
HETATM    4  C9  UNL     1     -31.927   8.657   0.834  1.00 20.00    -0.000 C 
HETATM    5  C4  UNL     1     -32.567  10.007   0.553  1.00 20.00     0.005 C 
ENDBRANCH   3   4
ENDBRANCH   2   3
BRANCH   2   6
HETATM    6  C8  UNL     1     -33.165   6.069   1.509  1.00 20.00     0.033 C 
BRANCH   6   7
HETATM    7  C10 UNL     1     -31.870   5.255   1.548  1.00 20.00    -0.000 C 
HETATM    8  C5  UNL     1     -31.699   4.425   0.285  1.00 20.00     0.005 C 
ENDBRANCH   6   7
ENDBRANCH   2   6
BRANCH   1   9
HETATM    9  C6  UNL     1     -35.154   6.392   3.871  1.00 20.00     0.023 C 
HETATM   10  C3  UNL     1     -34.651   5.015   4.272  1.00 20.00     0.009 C 
ENDBRANCH   1   9
TORSDOF 5
ENDMDL
MODEL 2
REMARK VINA RESULT:      -2.3      1.536      3.321
REMARK  5 active torsions:
REMARK  status: ('A' for Active; 'I' for Inactive)
REMARK    1  A    between atoms: C1_1  and  C6_6 
REMARK    2  A    between atoms: C2_2  and  C7_7 
REMARK    3  A    between atoms: C2_2  and  C8_8 
REMARK    4  A    between atoms: C7_7  and  C9_9 
REMARK    5  A    between atoms: C8_8  and  C10_10 
ROOT
HETATM    1  C1  UNL     1     -33.548   4.475   3.319  1.00 20.00    -0.024 C 
HETATM    2  C2  UNL     1     -33.916   5.728   2.982  1.00 20.00    -0.084 C 
ENDROOT
BRANCH   2   3
HETATM    3  C7  UNL     1     -33.397   6.349   1.700  1.00 20.00     0.033 C 
BRANCH   3   4
HETATM    4  C9  UNL     1     -31.942   6.809   1.824  1.00 20.00    -0.000 C 
HETATM    5  C4  UNL     1     -31.786   8.267   1.419  1.00 20.00     0.005 C 
ENDBRANCH   3   4
ENDBRANCH   2   3
BRANCH   2   6
HETATM    6  C8  UNL     1     -34.843   6.588   3.814  1.00 20.00     0.033 C 
BRANCH   6   7
HETATM    7  C10 UNL     1     -34.284   7.996   4.025  1.00 20.00    -0.000 C 
HETATM    8  C5  UNL     1     -33.223   8.013   5.114  1.00 20.00     0.005 C 
ENDBRANCH   6   7
ENDBRANCH   2   6
BRANCH   1   9
HETATM    9  C6  UNL     1     -33.928   3.716   4.557  1.00 20.00     0.023 C 
HETATM   10  C3  UNL     1     -32.813   2.781   4.996  1.00 20.00     0.009 C 
ENDBRANCH   1   9
TORSDOF 5
ENDMDL
MODEL 3
REMARK VINA RESULT:      -2.3      0.355      3.903
REMARK  5 active torsions:
REMARK  status: ('A' for Active; 'I' for Inactive)
REMARK    1  A    between atoms: C1_1  and  C6_6 
REMARK    2  A    between atoms: C2_2  and  C7_7 
REMARK    3  A    between atoms: C2_2  and  C8_8 
REMARK    4  A    between atoms: C7_7  and  C9_9 
REMARK    5  A    between atoms: C8_8  and  C10_10 
ROOT
HETATM    1  C1  UNL     1     -32.458   8.520   2.067  1.00 20.00    -0.024 C 
HETATM    2  C2  UNL     1     -33.047   7.361   2.427  1.00 20.00    -0.084 C 
ENDROOT
BRANCH   2   3
HETATM    3  C7  UNL     1     -33.664   7.224   3.805  1.00 20.00     0.033 C 
BRANCH   3   4
HETATM    4  C9  UNL     1     -35.067   6.614   3.756  1.00 20.00    -0.000 C 
HETATM    5  C4  UNL     1     -35.093   5.234   4.394  1.00 20.00     0.005 C 
ENDBRANCH   3   4
ENDBRANCH   2   3
BRANCH   2   6
HETATM    6  C8  UNL     1     -33.145   6.149   1.527  1.00 20.00     0.033 C 
BRANCH   6   7
HETATM    7  C10 UNL     1     -31.929   5.232   1.666  1.00 20.00    -0.000 C 
HETATM    8  C5  UNL     1     -31.639   4.495   0.367  1.00 20.00     0.005 C 
ENDBRANCH   6   7
ENDBRANCH   2   6
BRANCH   1   9
HETATM    9  C6  UNL     1     -31.767   8.826   0.770  1.00 20.00     0.023 C 
HETATM   10  C3  UNL     1     -32.499   9.909  -0.006  1.00 20.00     0.009 C 
ENDBRANCH   1   9
TORSDOF 5
ENDMDL
MODEL 4
REMARK VINA RESULT:      -2.1      0.797      3.175
REMARK  5 active torsions:
REMARK  status: ('A' for Active; 'I' for Inactive)
REMARK    1  A    between atoms: C1_1  and  C6_6 
REMARK    2  A    between atoms: C2_2  and  C7_7 
REMARK    3  A    between atoms: C2_2  and  C8_8 
REMARK    4  A    between atoms: C7_7  and  C9_9 
REMARK    5  A    between atoms: C8_8  and  C10_10 
ROOT
HETATM    1  C1  UNL     1     -32.342   6.709   1.319  1.00 20.00    -0.024 C 
HETATM    2  C2  UNL     1     -32.529   7.681   2.234  1.00 20.00    -0.084 C 
ENDROOT
BRANCH   2   3
HETATM    3  C7  UNL     1     -32.274   9.129   1.861  1.00 20.00     0.033 C 
BRANCH   3   4
HETATM    4  C9  UNL     1     -32.004   9.306   0.365  1.00 20.00    -0.000 C 
HETATM    5  C4  UNL     1     -32.824  10.447  -0.215  1.00 20.00     0.005 C 
ENDBRANCH   3   4
ENDBRANCH   2   3
BRANCH   2   6
HETATM    6  C8  UNL     1     -32.994   7.428   3.651  1.00 20.00     0.033 C 
BRANCH   6   7
HETATM    7  C10 UNL     1     -34.515   7.530   3.783  1.00 20.00    -0.000 C 
HETATM    8  C5  UNL     1     -35.146   6.162   3.996  1.00 20.00     0.005 C 
ENDBRANCH   6   7
ENDBRANCH   2   6
BRANCH   1   9
HETATM    9  C6  UNL     1     -32.505   5.230   1.515  1.00 20.00     0.023 C 
HETATM   10  C3  UNL     1     -31.736   4.444   0.465  1.00 20.00     0.009 C 
ENDBRANCH   1   9
TORSDOF 5
ENDMDL
MODEL 5
REMARK VINA RESULT:      -2.0      0.744      4.078
REMARK  5 active torsions:
REMARK  status: ('A' for Active; 'I' for Inactive)
REMARK    1  A    between atoms: C1_1  and  C6_6 
REMARK    2  A    between atoms: C2_2  and  C7_7 
REMARK    3  A    between atoms: C2_2  and  C8_8 
REMARK    4  A    between atoms: C7_7  and  C9_9 
REMARK    5  A    between atoms: C8_8  and  C10_10 
ROOT
HETATM    1  C1  UNL     1     -33.105   5.809   1.845  1.00 20.00    -0.024 C 
HETATM    2  C2  UNL     1     -32.888   7.027   2.380  1.00 20.00    -0.084 C 
ENDROOT
BRANCH   2   3
HETATM    3  C7  UNL     1     -33.603   7.430   3.656  1.00 20.00     0.033 C 
BRANCH   3   4
HETATM    4  C9  UNL     1     -35.057   6.952   3.684  1.00 20.00    -0.000 C 
HETATM    5  C4  UNL     1     -35.183   5.608   4.384  1.00 20.00     0.005 C 
ENDBRANCH   3   4
ENDBRANCH   2   3
BRANCH   2   6
HETATM    6  C8  UNL     1     -31.950   8.056   1.786  1.00 20.00     0.033 C 
BRANCH   6   7
HETATM    7  C10 UNL     1     -32.689   9.321   1.349  1.00 20.00    -0.000 C 
HETATM    8  C5  UNL     1     -32.338   9.702  -0.081  1.00 20.00     0.005 C 
ENDBRANCH   6   7
ENDBRANCH   2   6
BRANCH   1   9
HETATM    9  C6  UNL     1     -32.521   5.253   0.578  1.00 20.00     0.023 C 
HETATM   10  C3  UNL     1     -31.254   4.460   0.855  1.00 20.00     0.009 C 
ENDBRANCH   1   9
TORSDOF 5
ENDMDL
MODEL 6
REMARK VINA RESULT:      -1.9      1.519      3.069
REMARK  5 active torsions:
REMARK  status: ('A' for Active; 'I' for Inactive)
REMARK    1  A    between atoms: C1_1  and  C6_6 
REMARK    2  A    between atoms: C2_2  and  C7_7 
REMARK    3  A    between atoms: C2_2  and  C8_8 
REMARK    4  A    between atoms: C7_7  and  C9_9 
REMARK    5  A    between atoms: C8_8  and  C10_10 
ROOT
HETATM    1  C1  UNL     1     -34.094   4.836   4.005  1.00 20.00    -0.024 C 
HETATM    2  C2  UNL     1     -34.014   5.848   3.118  1.00 20.00    -0.084 C 
ENDROOT
BRANCH   2   3
HETATM    3  C7  UNL     1     -34.620   7.197   3.454  1.00 20.00     0.033 C 
BRANCH   3   4
HETATM    4  C9  UNL     1     -34.192   7.698   4.836  1.00 20.00    -0.000 C 
HETATM    5  C4  UNL     1     -32.812   8.337   4.790  1.00 20.00     0.005 C 
ENDBRANCH   3   4
ENDBRANCH   2   3
BRANCH   2   6
HETATM    6  C8  UNL     1     -33.340   5.736   1.768  1.00 20.00     0.033 C 
BRANCH   6   7
HETATM    7  C10 UNL     1     -31.918   6.298   1.788  1.00 20.00    -0.000 C 
HETATM    8  C5  UNL     1     -31.901   7.776   1.428  1.00 20.00     0.005 C 
ENDBRANCH   6   7
ENDBRANCH   2   6
BRANCH   1   9
HETATM    9  C6  UNL     1     -33.591   3.431   3.833  1.00 20.00     0.023 C 
HETATM   10  C3  UNL     1     -32.990   2.898   5.123  1.00 20.00     0.009 C 
ENDBRANCH   1   9
TORSDOF 5
ENDMDL
MODEL 7
REMARK VINA RESULT:      -1.9      0.904      1.079
REMARK  5 active torsions:
REMARK  status: ('A' for Active; 'I' for Inactive)
REMARK    1  A    between atoms: C1_1  and  C6_6 
REMARK    2  A    between atoms: C2_2  and  C7_7 
REMARK    3  A    between atoms: C2_2  and  C8_8 
REMARK    4  A    between atoms: C7_7  and  C9_9 
REMARK    5  A    between atoms: C8_8  and  C10_10 
ROOT
HETATM    1  C1  UNL     1     -33.328   7.934   3.194  1.00 20.00    -0.024 C 
HETATM    2  C2  UNL     1     -32.648   7.268   2.238  1.00 20.00    -0.084 C 
ENDROOT
BRANCH   2   3
HETATM    3  C7  UNL     1     -31.904   8.040   1.165  1.00 20.00     0.033 C 
BRANCH   3   4
HETATM    4  C9  UNL     1     -32.345   9.504   1.089  1.00 20.00    -0.000 C 
HETATM    5  C4  UNL     1     -32.651   9.915  -0.342  1.00 20.00     0.005 C 
ENDBRANCH   3   4
ENDBRANCH   2   3
BRANCH   2   6
HETATM    6  C8  UNL     1     -32.566   5.760   2.155  1.00 20.00     0.033 C 
BRANCH   6   7
HETATM    7  C10 UNL     1     -32.693   5.256   0.717  1.00 20.00    -0.000 C 
HETATM    8  C5  UNL     1     -31.524   4.359   0.338  1.00 20.00     0.005 C 
ENDBRANCH   6   7
ENDBRANCH   2   6
BRANCH   1   9
HETATM    9  C6  UNL     1     -34.148   7.345   4.306  1.00 20.00     0.023 C 
HETATM   10  C3  UNL     1     -35.273   6.479   3.764  1.00 20.00     0.009 C 
ENDBRANCH   1   9
TORSDOF 5
ENDMDL
MODEL 8
REMARK VINA RESULT:      -1.9      1.628      4.978
REMARK  5 active torsions:
REMARK  status: ('A' for Active; 'I' for Inactive)
REMARK    1  A    between atoms: C1_1  and  C6_6 
REMARK    2  A    between atoms: C2_2  and  C7_7 
REMARK    3  A    between atoms: C2_2  and  C8_8 
REMARK    4  A    between atoms: C7_7  and  C9_9 
REMARK    5  A    between atoms: C8_8  and  C10_10 
ROOT
HETATM    1  C1  UNL     1     -33.309   5.536   2.467  1.00 20.00    -0.024 C 
HETATM    2  C2  UNL     1     -34.209   5.653   3.465  1.00 20.00    -0.084 C 
ENDROOT
BRANCH   2   3
HETATM    3  C7  UNL     1     -34.415   4.504   4.433  1.00 20.00     0.033 C 
BRANCH   3   4
HETATM    4  C9  UNL     1     -33.529   3.299   4.105  1.00 20.00    -0.000 C 
HETATM    5  C4  UNL     1     -32.759   2.829   5.329  1.00 20.00     0.005 C 
ENDBRANCH   3   4
ENDBRANCH   2   3
BRANCH   2   6
HETATM    6  C8  UNL     1     -35.052   6.886   3.702  1.00 20.00     0.033 C 
BRANCH   6   7
HETATM    7  C10 UNL     1     -34.195   8.124   3.973  1.00 20.00    -0.000 C 
HETATM    8  C5  UNL     1     -33.288   7.918   5.177  1.00 20.00     0.005 C 
ENDBRANCH   6   7
ENDBRANCH   2   6
BRANCH   1   9
HETATM    9  C6  UNL     1     -32.998   6.545   1.399  1.00 20.00     0.023 C 
HETATM   10  C3  UNL     1     -31.783   7.381   1.766  1.00 20.00     0.009 C 
ENDBRANCH   1   9
TORSDOF 5
ENDMDL
MODEL 9
REMARK VINA RESULT:      -1.8      1.588      4.183
REMARK  5 active torsions:
REMARK  status: ('A' for Active; 'I' for Inactive)
REMARK    1  A    between atoms: C1_1  and  C6_6 
REMARK    2  A    between atoms: C2_2  and  C7_7 
REMARK    3  A    between atoms: C2_2  and  C8_8 
REMARK    4  A    between atoms: C7_7  and  C9_9 
REMARK    5  A    between atoms: C8_8  and  C10_10 
ROOT
HETATM    1  C1  UNL     1     -34.250   6.309   3.933  1.00 20.00    -0.024 C 
HETATM    2  C2  UNL     1     -33.716   5.601   2.917  1.00 20.00    -0.084 C 
ENDROOT
BRANCH   2   3
HETATM    3  C7  UNL     1     -33.601   4.093   3.026  1.00 20.00     0.033 C 
BRANCH   3   4
HETATM    4  C9  UNL     1     -33.927   3.585   4.433  1.00 20.00    -0.000 C 
HETATM    5  C4  UNL     1     -32.766   2.798   5.020  1.00 20.00     0.005 C 
ENDBRANCH   3   4
ENDBRANCH   2   3
BRANCH   2   6
HETATM    6  C8  UNL     1     -33.211   6.219   1.631  1.00 20.00     0.033 C 
BRANCH   6   7
HETATM    7  C10 UNL     1     -31.854   6.900   1.816  1.00 20.00    -0.000 C 
HETATM    8  C5  UNL     1     -31.906   8.362   1.399  1.00 20.00     0.005 C 
ENDBRANCH   6   7
ENDBRANCH   2   6
BRANCH   1   9
HETATM    9  C6  UNL     1     -34.409   7.800   4.019  1.00 20.00     0.023 C 
HETATM   10  C3  UNL     1     -33.334   8.422   4.895  1.00 20.00     0.009 C 
ENDBRANCH   1   9
TORSDOF 5
ENDMDL
