MODEL 1
REMARK VINA RESULT:      -3.0      0.000      0.000
REMARK  1 active torsions:
REMARK  status: ('A' for Active; 'I' for Inactive)
REMARK    1  A    between atoms: C1_1  and  C4_4 
ROOT
HETATM    1  C1  UNL     1     -34.447   5.015   4.138  1.00 20.00    -0.080 C 
HETATM    2  C2  UNL     1     -33.915   3.958   4.344  1.00 20.00    -0.106 C 
HETATM    3  C5  UNL     1     -33.269   2.671   4.596  1.00 20.00     0.112 C 
ENDROOT
BRANCH   1   4
HETATM    4  C4  UNL     1     -35.071   6.268   3.899  1.00 20.00     0.054 C 
HETATM    5  C3  UNL     1     -34.392   7.417   3.958  1.00 20.00     0.020 C 
ENDBRANCH   1   4
TORSDOF 1
ENDMDL
MODEL 2
REMARK VINA RESULT:      -2.6      2.489      3.727
REMARK  1 active torsions:
REMARK  status: ('A' for Active; 'I' for Inactive)
REMARK    1  A    between atoms: C1_1  and  C4_4 
ROOT
HETATM    1  C1  UNL     1     -33.052   7.373   2.628  1.00 20.00    -0.080 C 
HETATM    2  C2  UNL     1     -33.969   6.920   3.257  1.00 20.00    -0.106 C 
HETATM    3  C5  UNL     1     -35.085   6.367   4.023  1.00 20.00     0.112 C 
ENDROOT
BRANCH   1   4
HETATM    4  C4  UNL     1     -31.972   7.911   1.878  1.00 20.00     0.054 C 
HETATM    5  C3  UNL     1     -32.152   8.882   0.979  1.00 20.00     0.020 C 
ENDBRANCH   1   4
TORSDOF 1
ENDMDL
MODEL 3
REMARK VINA RESULT:      -2.5      2.193      3.752
REMARK  1 active torsions:
REMARK  status: ('A' for Active; 'I' for Inactive)
REMARK    1  A    between atoms: C1_1  and  C4_4 
ROOT
HETATM    1  C1  UNL     1     -33.571   7.410   3.238  1.00 20.00    -0.080 C 
HETATM    2  C2  UNL     1     -32.712   7.659   2.436  1.00 20.00    -0.106 C 
HETATM    3  C5  UNL     1     -31.667   7.961   1.459  1.00 20.00     0.112 C 
ENDROOT
BRANCH   1   4
HETATM    4  C4  UNL     1     -34.591   7.116   4.181  1.00 20.00     0.054 C 
HETATM    5  C3  UNL     1     -35.332   6.008   4.095  1.00 20.00     0.020 C 
ENDBRANCH   1   4
TORSDOF 1
ENDMDL
MODEL 4
REMARK VINA RESULT:      -2.3      3.998      5.933
REMARK  1 active torsions:
REMARK  status: ('A' for Active; 'I' for Inactive)
REMARK    1  A    between atoms: C1_1  and  C4_4 
ROOT
HETATM    1  C1  UNL     1     -32.180   8.222   1.259  1.00 20.00    -0.080 C 
HETATM    2  C2  UNL     1     -32.350   9.290   0.736  1.00 20.00    -0.106 C 
HETATM    3  C5  UNL     1     -32.556  10.591   0.101  1.00 20.00     0.112 C 
ENDROOT
BRANCH   1   4
HETATM    4  C4  UNL     1     -31.985   6.956   1.872  1.00 20.00     0.054 C 
HETATM    5  C3  UNL     1     -32.734   5.896   1.556  1.00 20.00     0.020 C 
ENDBRANCH   1   4
TORSDOF 1
ENDMDL
MODEL 5
REMARK VINA RESULT:      -2.1      0.704      3.545
REMARK  1 active torsions:
REMARK  status: ('A' for Active; 'I' for Inactive)
REMARK    1  A    between atoms: C1_1  and  C4_4 
ROOT
HETATM    1  C1  UNL     1     -34.114   4.485   4.068  1.00 20.00    -0.080 C 
HETATM    2  C2  UNL     1     -34.550   5.597   3.940  1.00 20.00    -0.106 C 
HETATM    3  C5  UNL     1     -35.080   6.951   3.784  1.00 20.00     0.112 C 
ENDROOT
BRANCH   1   4
HETATM    4  C4  UNL     1     -33.597   3.172   4.226  1.00 20.00     0.054 C 
HETATM    5  C3  UNL     1     -32.785   2.851   5.237  1.00 20.00     0.020 C 
ENDBRANCH   1   4
TORSDOF 1
ENDMDL
MODEL 6
REMARK VINA RESULT:      -2.1      3.975      4.819
REMARK  1 active torsions:
REMARK  status: ('A' for Active; 'I' for Inactive)
REMARK    1  A    between atoms: C1_1  and  C4_4 
ROOT
HETATM    1  C1  UNL     1     -32.231   8.174   1.228  1.00 20.00    -0.080 C 
HETATM    2  C2  UNL     1     -32.372   7.014   1.507  1.00 20.00    -0.106 C 
HETATM    3  C5  UNL     1     -32.543   5.602   1.847  1.00 20.00     0.112 C 
ENDROOT
BRANCH   1   4
HETATM    4  C4  UNL     1     -32.066   9.543   0.891  1.00 20.00     0.054 C 
HETATM    5  C3  UNL     1     -32.622  10.073  -0.202  1.00 20.00     0.020 C 
ENDBRANCH   1   4
TORSDOF 1
ENDMDL
MODEL 7
REMARK VINA RESULT:      -2.1      2.457      2.914
REMARK  1 active torsions:
REMARK  status: ('A' for Active; 'I' for Inactive)
REMARK    1  A    between atoms: C1_1  and  C4_4 
ROOT
HETATM    1  C1  UNL     1     -33.507   6.365   2.696  1.00 20.00    -0.080 C 
HETATM    2  C2  UNL     1     -32.782   5.898   1.861  1.00 20.00    -0.106 C 
HETATM    3  C5  UNL     1     -31.898   5.329   0.844  1.00 20.00     0.112 C 
ENDROOT
BRANCH   1   4
HETATM    4  C4  UNL     1     -34.366   6.911   3.686  1.00 20.00     0.054 C 
HETATM    5  C3  UNL     1     -35.406   6.228   4.173  1.00 20.00     0.020 C 
ENDBRANCH   1   4
TORSDOF 1
ENDMDL
MODEL 8
REMARK VINA RESULT:      -1.7      2.545      3.504
REMARK  1 active torsions:
REMARK  status: ('A' for Active; 'I' for Inactive)
REMARK    1  A    between atoms: C1_1  and  C4_4 
ROOT
HETATM    1  C1  UNL     1     -33.403   6.400   2.558  1.00 20.00    -0.080 C 
HETATM    2  C2  UNL     1     -34.301   6.322   3.352  1.00 20.00    -0.106 C 
HETATM    3  C5  UNL     1     -35.393   6.228   4.319  1.00 20.00     0.112 C 
ENDROOT
BRANCH   1   4
HETATM    4  C4  UNL     1     -32.338   6.487   1.622  1.00 20.00     0.054 C 
HETATM    5  C3  UNL     1     -31.857   5.408   0.999  1.00 20.00     0.020 C 
ENDBRANCH   1   4
TORSDOF 1
ENDMDL
