MODEL 1
REMARK VINA RESULT:      -2.0      0.000      0.000
REMARK  3 active torsions:
REMARK  status: ('A' for Active; 'I' for Inactive)
REMARK    1  A    between atoms: C3_3  and  C4_4 
REMARK    2  A    between atoms: C4_4  and  O10_10 
REMARK    3  A    between atoms: C7_7  and  O10_10 
ROOT
HETATM    1  C1  UNL     1     -33.930   4.367   3.973  1.00 20.00     0.105 C 
HETATM    2  C2  UNL     1     -35.016   6.502   3.893  1.00 20.00     0.042 C 
HETATM    3  C3  UNL     1     -34.088   5.666   3.407  1.00 20.00     0.110 C 
HETATM    4  N8  UNL     1     -33.800   3.309   4.434  1.00 20.00    -0.191 NA
ENDROOT
BRANCH   3   5
HETATM    5  C4  UNL     1     -33.245   6.143   2.276  1.00 20.00     0.303 C 
HETATM    6  O9  UNL     1     -32.698   5.413   1.463  1.00 20.00    -0.258 OA
BRANCH   5   7
HETATM    7  O10 UNL     1     -33.187   7.504   2.295  1.00 20.00    -0.312 OA
BRANCH   7   8
HETATM    8  C7  UNL     1     -31.981   8.079   1.778  1.00 20.00     0.124 C 
HETATM    9  C5  UNL     1     -32.337   9.148   0.755  1.00 20.00     0.040 C 
HETATM   10  C6  UNL     1     -31.161   8.645   2.927  1.00 20.00     0.040 C 
ENDBRANCH   7   8
ENDBRANCH   5   7
ENDBRANCH   3   5
TORSDOF 3
ENDMDL
MODEL 2
REMARK VINA RESULT:      -1.6      1.231      1.936
REMARK  3 active torsions:
REMARK  status: ('A' for Active; 'I' for Inactive)
REMARK    1  A    between atoms: C3_3  and  C4_4 
REMARK    2  A    between atoms: C4_4  and  O10_10 
REMARK    3  A    between atoms: C7_7  and  O10_10 
ROOT
HETATM    1  C1  UNL     1     -34.253   4.863   4.067  1.00 20.00     0.105 C 
HETATM    2  C2  UNL     1     -35.953   6.485   3.599  1.00 20.00     0.042 C 
HETATM    3  C3  UNL     1     -34.662   6.206   3.823  1.00 20.00     0.110 C 
HETATM    4  N8  UNL     1     -33.918   3.769   4.266  1.00 20.00    -0.191 NA
ENDROOT
BRANCH   3   5
HETATM    5  C4  UNL     1     -33.693   7.337   3.808  1.00 20.00     0.303 C 
HETATM    6  O9  UNL     1     -33.173   7.818   4.804  1.00 20.00    -0.258 OA
BRANCH   5   7
HETATM    7  O10 UNL     1     -33.485   7.741   2.523  1.00 20.00    -0.312 OA
BRANCH   7   8
HETATM    8  C7  UNL     1     -32.158   7.548   2.021  1.00 20.00     0.124 C 
HETATM    9  C5  UNL     1     -32.061   6.170   1.383  1.00 20.00     0.040 C 
HETATM   10  C6  UNL     1     -31.830   8.656   1.031  1.00 20.00     0.040 C 
ENDBRANCH   7   8
ENDBRANCH   5   7
ENDBRANCH   3   5
TORSDOF 3
ENDMDL
MODEL 3
REMARK VINA RESULT:      -1.6      2.719      4.394
REMARK  3 active torsions:
REMARK  status: ('A' for Active; 'I' for Inactive)
REMARK    1  A    between atoms: C3_3  and  C4_4 
REMARK    2  A    between atoms: C4_4  and  O10_10 
REMARK    3  A    between atoms: C7_7  and  O10_10 
ROOT
HETATM    1  C1  UNL     1     -32.337   9.075   0.663  1.00 20.00     0.105 C 
HETATM    2  C2  UNL     1     -31.019   8.379   2.539  1.00 20.00     0.042 C 
HETATM    3  C3  UNL     1     -32.010   8.125   1.674  1.00 20.00     0.110 C 
HETATM    4  N8  UNL     1     -32.605   9.848  -0.161  1.00 20.00    -0.191 NA
ENDROOT
BRANCH   3   5
HETATM    5  C4  UNL     1     -32.741   6.835   1.813  1.00 20.00     0.303 C 
HETATM    6  O9  UNL     1     -32.308   5.751   1.452  1.00 20.00    -0.258 OA
BRANCH   5   7
HETATM    7  O10 UNL     1     -33.950   7.058   2.400  1.00 20.00    -0.312 OA
BRANCH   7   8
HETATM    8  C7  UNL     1     -34.050   6.675   3.777  1.00 20.00     0.124 C 
HETATM    9  C5  UNL     1     -33.874   7.906   4.652  1.00 20.00     0.040 C 
HETATM   10  C6  UNL     1     -35.392   5.999   4.013  1.00 20.00     0.040 C 
ENDBRANCH   7   8
ENDBRANCH   5   7
ENDBRANCH   3   5
TORSDOF 3
ENDMDL
MODEL 4
REMARK VINA RESULT:      -1.5      2.752      4.299
REMARK  3 active torsions:
REMARK  status: ('A' for Active; 'I' for Inactive)
REMARK    1  A    between atoms: C3_3  and  C4_4 
REMARK    2  A    between atoms: C4_4  and  O10_10 
REMARK    3  A    between atoms: C7_7  and  O10_10 
ROOT
HETATM    1  C1  UNL     1     -32.376   9.037   0.690  1.00 20.00     0.105 C 
HETATM    2  C2  UNL     1     -31.082   8.334   2.581  1.00 20.00     0.042 C 
HETATM    3  C3  UNL     1     -32.063   8.084   1.703  1.00 20.00     0.110 C 
HETATM    4  N8  UNL     1     -32.632   9.813  -0.134  1.00 20.00    -0.191 NA
ENDROOT
BRANCH   3   5
HETATM    5  C4  UNL     1     -32.797   6.795   1.830  1.00 20.00     0.303 C 
HETATM    6  O9  UNL     1     -33.090   6.069   0.891  1.00 20.00    -0.258 OA
BRANCH   5   7
HETATM    7  O10 UNL     1     -33.083   6.561   3.141  1.00 20.00    -0.312 OA
BRANCH   7   8
HETATM    8  C7  UNL     1     -34.239   7.235   3.653  1.00 20.00     0.124 C 
HETATM    9  C5  UNL     1     -35.321   6.210   3.955  1.00 20.00     0.040 C 
HETATM   10  C6  UNL     1     -33.849   8.029   4.890  1.00 20.00     0.040 C 
ENDBRANCH   7   8
ENDBRANCH   5   7
ENDBRANCH   3   5
TORSDOF 3
ENDMDL
MODEL 5
REMARK VINA RESULT:      -1.5      1.663      2.071
REMARK  3 active torsions:
REMARK  status: ('A' for Active; 'I' for Inactive)
REMARK    1  A    between atoms: C3_3  and  C4_4 
REMARK    2  A    between atoms: C4_4  and  O10_10 
REMARK    3  A    between atoms: C7_7  and  O10_10 
ROOT
HETATM    1  C1  UNL     1     -34.664   6.544   3.890  1.00 20.00     0.105 C 
HETATM    2  C2  UNL     1     -33.102   8.265   4.475  1.00 20.00     0.042 C 
HETATM    3  C3  UNL     1     -33.538   7.363   3.585  1.00 20.00     0.110 C 
HETATM    4  N8  UNL     1     -35.580   5.875   4.138  1.00 20.00    -0.191 NA
ENDROOT
BRANCH   3   5
HETATM    5  C4  UNL     1     -32.810   7.256   2.291  1.00 20.00     0.303 C 
HETATM    6  O9  UNL     1     -32.796   6.259   1.584  1.00 20.00    -0.258 OA
BRANCH   5   7
HETATM    7  O10 UNL     1     -32.174   8.432   2.028  1.00 20.00    -0.312 OA
BRANCH   7   8
HETATM    8  C7  UNL     1     -32.398   8.979   0.723  1.00 20.00     0.124 C 
HETATM    9  C5  UNL     1     -32.776  10.446   0.854  1.00 20.00     0.040 C 
HETATM   10  C6  UNL     1     -31.146   8.789  -0.122  1.00 20.00     0.040 C 
ENDBRANCH   7   8
ENDBRANCH   5   7
ENDBRANCH   3   5
TORSDOF 3
ENDMDL
MODEL 6
REMARK VINA RESULT:      -1.2      2.723      4.670
REMARK  3 active torsions:
REMARK  status: ('A' for Active; 'I' for Inactive)
REMARK    1  A    between atoms: C3_3  and  C4_4 
REMARK    2  A    between atoms: C4_4  and  O10_10 
REMARK    3  A    between atoms: C7_7  and  O10_10 
ROOT
HETATM    1  C1  UNL     1     -32.354   8.708   1.112  1.00 20.00     0.105 C 
HETATM    2  C2  UNL     1     -31.712   6.405   1.278  1.00 20.00     0.042 C 
HETATM    3  C3  UNL     1     -32.429   7.435   1.749  1.00 20.00     0.110 C 
HETATM    4  N8  UNL     1     -32.294   9.745   0.595  1.00 20.00    -0.191 NA
ENDROOT
BRANCH   3   5
HETATM    5  C4  UNL     1     -33.287   7.196   2.942  1.00 20.00     0.303 C 
HETATM    6  O9  UNL     1     -33.453   7.999   3.848  1.00 20.00    -0.258 OA
BRANCH   5   7
HETATM    7  O10 UNL     1     -33.849   5.958   2.859  1.00 20.00    -0.312 OA
BRANCH   7   8
HETATM    8  C7  UNL     1     -34.168   5.337   4.110  1.00 20.00     0.124 C 
HETATM    9  C5  UNL     1     -35.649   5.527   4.398  1.00 20.00     0.040 C 
HETATM   10  C6  UNL     1     -33.785   3.865   4.051  1.00 20.00     0.040 C 
ENDBRANCH   7   8
ENDBRANCH   5   7
ENDBRANCH   3   5
TORSDOF 3
ENDMDL
MODEL 7
REMARK VINA RESULT:      -1.0      1.827      2.655
REMARK  3 active torsions:
REMARK  status: ('A' for Active; 'I' for Inactive)
REMARK    1  A    between atoms: C3_3  and  C4_4 
REMARK    2  A    between atoms: C4_4  and  O10_10 
REMARK    3  A    between atoms: C7_7  and  O10_10 
ROOT
HETATM    1  C1  UNL     1     -34.212   6.454   3.324  1.00 20.00     0.105 C 
HETATM    2  C2  UNL     1     -32.771   5.572   1.624  1.00 20.00     0.042 C 
HETATM    3  C3  UNL     1     -33.149   6.607   2.386  1.00 20.00     0.110 C 
HETATM    4  N8  UNL     1     -35.077   6.331   4.087  1.00 20.00    -0.191 NA
ENDROOT
BRANCH   3   5
HETATM    5  C4  UNL     1     -32.427   7.898   2.212  1.00 20.00     0.303 C 
HETATM    6  O9  UNL     1     -31.581   8.328   2.982  1.00 20.00    -0.258 OA
BRANCH   5   7
HETATM    7  O10 UNL     1     -32.857   8.510   1.073  1.00 20.00    -0.312 OA
BRANCH   7   8
HETATM    8  C7  UNL     1     -31.995   9.530   0.556  1.00 20.00     0.124 C 
HETATM    9  C5  UNL     1     -31.050   8.915  -0.465  1.00 20.00     0.040 C 
HETATM   10  C6  UNL     1     -32.840  10.640  -0.051  1.00 20.00     0.040 C 
ENDBRANCH   7   8
ENDBRANCH   5   7
ENDBRANCH   3   5
TORSDOF 3
ENDMDL
MODEL 8
REMARK VINA RESULT:      -0.7      1.957      4.147
REMARK  3 active torsions:
REMARK  status: ('A' for Active; 'I' for Inactive)
REMARK    1  A    between atoms: C3_3  and  C4_4 
REMARK    2  A    between atoms: C4_4  and  O10_10 
REMARK    3  A    between atoms: C7_7  and  O10_10 
ROOT
HETATM    1  C1  UNL     1     -32.090   5.876   1.326  1.00 20.00     0.105 C 
HETATM    2  C2  UNL     1     -32.034   8.249   1.651  1.00 20.00     0.042 C 
HETATM    3  C3  UNL     1     -32.530   7.054   1.997  1.00 20.00     0.110 C 
HETATM    4  N8  UNL     1     -31.733   4.916   0.779  1.00 20.00    -0.191 NA
ENDROOT
BRANCH   3   5
HETATM    5  C4  UNL     1     -33.541   7.010   3.090  1.00 20.00     0.303 C 
HETATM    6  O9  UNL     1     -33.732   7.911   3.893  1.00 20.00    -0.258 OA
BRANCH   5   7
HETATM    7  O10 UNL     1     -34.208   5.823   3.046  1.00 20.00    -0.312 OA
BRANCH   7   8
HETATM    8  C7  UNL     1     -34.233   5.082   4.272  1.00 20.00     0.124 C 
HETATM    9  C5  UNL     1     -35.660   5.036   4.798  1.00 20.00     0.040 C 
HETATM   10  C6  UNL     1     -33.673   3.689   4.027  1.00 20.00     0.040 C 
ENDBRANCH   7   8
ENDBRANCH   5   7
ENDBRANCH   3   5
TORSDOF 3
ENDMDL
MODEL 9
REMARK VINA RESULT:      -0.7      1.385      1.750
REMARK  3 active torsions:
REMARK  status: ('A' for Active; 'I' for Inactive)
REMARK    1  A    between atoms: C3_3  and  C4_4 
REMARK    2  A    between atoms: C4_4  and  O10_10 
REMARK    3  A    between atoms: C7_7  and  O10_10 
ROOT
HETATM    1  C1  UNL     1     -34.522   6.214   3.661  1.00 20.00     0.105 C 
HETATM    2  C2  UNL     1     -33.410   4.097   3.495  1.00 20.00     0.042 C 
HETATM    3  C3  UNL     1     -33.575   5.347   3.041  1.00 20.00     0.110 C 
HETATM    4  N8  UNL     1     -35.294   6.920   4.164  1.00 20.00    -0.191 NA
ENDROOT
BRANCH   3   5
HETATM    5  C4  UNL     1     -32.743   5.782   1.885  1.00 20.00     0.303 C 
HETATM    6  O9  UNL     1     -31.935   5.071   1.306  1.00 20.00    -0.258 OA
BRANCH   5   7
HETATM    7  O10 UNL     1     -33.028   7.079   1.582  1.00 20.00    -0.312 OA
BRANCH   7   8
HETATM    8  C7  UNL     1     -31.915   7.981   1.612  1.00 20.00     0.124 C 
HETATM    9  C5  UNL     1     -32.168   9.119   0.635  1.00 20.00     0.040 C 
HETATM   10  C6  UNL     1     -31.717   8.485   3.033  1.00 20.00     0.040 C 
ENDBRANCH   7   8
ENDBRANCH   5   7
ENDBRANCH   3   5
TORSDOF 3
ENDMDL
