MODEL 1
REMARK VINA RESULT:      -1.4      0.000      0.000
REMARK  0 active torsions:
REMARK  status: ('A' for Active; 'I' for Inactive)
ROOT
HETATM    1  C1  UNL     1     -33.573   5.653   2.295  1.00 20.00     0.027 A 
HETATM    2  C2  UNL     1     -33.279   5.093   3.664  1.00 20.00     0.027 A 
HETATM    3  C3  UNL     1     -34.098   6.361   3.529  1.00 20.00     0.120 A 
HETATM    4  C4  UNL     1     -32.463   6.198   1.463  1.00 20.00     0.014 C 
HETATM    5  C5  UNL     1     -33.872   3.788   4.073  1.00 20.00     0.014 C 
HETATM    6 CL6  UNL     1     -33.357   7.868   4.066  1.00 20.00    -0.101 Cl
HETATM    7 CL7  UNL     1     -35.840   6.324   3.806  1.00 20.00    -0.101 Cl
ENDROOT
TORSDOF 0
ENDMDL
MODEL 2
REMARK VINA RESULT:      -1.4      0.050      2.699
REMARK  0 active torsions:
REMARK  status: ('A' for Active; 'I' for Inactive)
ROOT
HETATM    1  C1  UNL     1     -33.272   5.063   3.670  1.00 20.00     0.027 A 
HETATM    2  C2  UNL     1     -33.582   5.596   2.294  1.00 20.00     0.027 A 
HETATM    3  C3  UNL     1     -34.095   6.328   3.518  1.00 20.00     0.120 A 
HETATM    4  C4  UNL     1     -33.860   3.767   4.113  1.00 20.00     0.014 C 
HETATM    5  C5  UNL     1     -32.481   6.125   1.439  1.00 20.00     0.014 C 
HETATM    6 CL6  UNL     1     -35.832   6.295   3.817  1.00 20.00    -0.101 Cl
HETATM    7 CL7  UNL     1     -33.349   7.847   4.019  1.00 20.00    -0.101 Cl
ENDROOT
TORSDOF 0
ENDMDL
MODEL 3
REMARK VINA RESULT:      -1.4      2.135      3.764
REMARK  0 active torsions:
REMARK  status: ('A' for Active; 'I' for Inactive)
ROOT
HETATM    1  C1  UNL     1     -32.012   7.056   1.669  1.00 20.00     0.027 A 
HETATM    2  C2  UNL     1     -32.824   8.270   1.294  1.00 20.00     0.027 A 
HETATM    3  C3  UNL     1     -32.607   7.930   2.755  1.00 20.00     0.120 A 
HETATM    4  C4  UNL     1     -32.529   5.693   1.356  1.00 20.00     0.014 C 
HETATM    5  C5  UNL     1     -32.162   9.427   0.627  1.00 20.00     0.014 C 
HETATM    6 CL6  UNL     1     -34.004   7.371   3.675  1.00 20.00    -0.101 Cl
HETATM    7 CL7  UNL     1     -31.491   8.886   3.731  1.00 20.00    -0.101 Cl
ENDROOT
TORSDOF 0
ENDMDL
MODEL 4
REMARK VINA RESULT:      -1.3      2.141      2.831
REMARK  0 active torsions:
REMARK  status: ('A' for Active; 'I' for Inactive)
ROOT
HETATM    1  C1  UNL     1     -32.822   8.257   1.282  1.00 20.00     0.027 A 
HETATM    2  C2  UNL     1     -32.007   7.044   1.657  1.00 20.00     0.027 A 
HETATM    3  C3  UNL     1     -32.609   7.913   2.744  1.00 20.00     0.120 A 
HETATM    4  C4  UNL     1     -32.161   9.418   0.623  1.00 20.00     0.014 C 
HETATM    5  C5  UNL     1     -32.518   5.681   1.337  1.00 20.00     0.014 C 
HETATM    6 CL6  UNL     1     -31.501   8.870   3.726  1.00 20.00    -0.101 Cl
HETATM    7 CL7  UNL     1     -34.009   7.346   3.656  1.00 20.00    -0.101 Cl
ENDROOT
TORSDOF 0
ENDMDL
MODEL 5
REMARK VINA RESULT:      -0.7      2.292      3.327
REMARK  0 active torsions:
REMARK  status: ('A' for Active; 'I' for Inactive)
ROOT
HETATM    1  C1  UNL     1     -34.433   6.691   2.869  1.00 20.00     0.027 A 
HETATM    2  C2  UNL     1     -32.999   7.018   3.201  1.00 20.00     0.027 A 
HETATM    3  C3  UNL     1     -33.350   5.657   2.634  1.00 20.00     0.120 A 
HETATM    4  C4  UNL     1     -35.439   6.573   3.963  1.00 20.00     0.014 C 
HETATM    5  C5  UNL     1     -32.275   8.058   2.416  1.00 20.00     0.014 C 
HETATM    6 CL6  UNL     1     -33.206   4.267   3.709  1.00 20.00    -0.101 Cl
HETATM    7 CL7  UNL     1     -32.950   5.265   0.961  1.00 20.00    -0.101 Cl
ENDROOT
TORSDOF 0
ENDMDL
MODEL 6
REMARK VINA RESULT:      -0.7      2.278      2.701
REMARK  0 active torsions:
REMARK  status: ('A' for Active; 'I' for Inactive)
ROOT
HETATM    1  C1  UNL     1     -33.057   7.004   3.334  1.00 20.00     0.027 A 
HETATM    2  C2  UNL     1     -34.481   6.673   2.965  1.00 20.00     0.027 A 
HETATM    3  C3  UNL     1     -33.383   5.660   2.712  1.00 20.00     0.120 A 
HETATM    4  C4  UNL     1     -32.331   8.078   2.598  1.00 20.00     0.014 C 
HETATM    5  C5  UNL     1     -35.504   6.505   4.036  1.00 20.00     0.014 C 
HETATM    6 CL6  UNL     1     -32.949   5.332   1.034  1.00 20.00    -0.101 Cl
HETATM    7 CL7  UNL     1     -33.240   4.233   3.740  1.00 20.00    -0.101 Cl
ENDROOT
TORSDOF 0
ENDMDL
MODEL 7
REMARK VINA RESULT:      -0.5      2.417      3.408
REMARK  0 active torsions:
REMARK  status: ('A' for Active; 'I' for Inactive)
ROOT
HETATM    1  C1  UNL     1     -34.426   7.386   3.519  1.00 20.00     0.027 A 
HETATM    2  C2  UNL     1     -33.073   7.354   4.185  1.00 20.00     0.027 A 
HETATM    3  C3  UNL     1     -33.176   7.211   2.679  1.00 20.00     0.120 A 
HETATM    4  C4  UNL     1     -35.397   6.281   3.761  1.00 20.00     0.014 C 
HETATM    5  C5  UNL     1     -32.543   8.581   4.845  1.00 20.00     0.014 C 
HETATM    6 CL6  UNL     1     -32.790   5.637   1.985  1.00 20.00    -0.101 Cl
HETATM    7 CL7  UNL     1     -32.709   8.549   1.628  1.00 20.00    -0.101 Cl
ENDROOT
TORSDOF 0
ENDMDL
MODEL 8
REMARK VINA RESULT:      -0.5      2.412      2.957
REMARK  0 active torsions:
REMARK  status: ('A' for Active; 'I' for Inactive)
ROOT
HETATM    1  C1  UNL     1     -33.081   7.344   4.197  1.00 20.00     0.027 A 
HETATM    2  C2  UNL     1     -34.427   7.380   3.517  1.00 20.00     0.027 A 
HETATM    3  C3  UNL     1     -33.170   7.192   2.691  1.00 20.00     0.120 A 
HETATM    4  C4  UNL     1     -32.550   8.572   4.854  1.00 20.00     0.014 C 
HETATM    5  C5  UNL     1     -35.408   6.283   3.756  1.00 20.00     0.014 C 
HETATM    6 CL6  UNL     1     -32.684   8.520   1.637  1.00 20.00    -0.101 Cl
HETATM    7 CL7  UNL     1     -32.786   5.610   2.010  1.00 20.00    -0.101 Cl
ENDROOT
TORSDOF 0
ENDMDL
MODEL 9
REMARK VINA RESULT:      -0.2      2.385      3.463
REMARK  0 active torsions:
REMARK  status: ('A' for Active; 'I' for Inactive)
ROOT
HETATM    1  C1  UNL     1     -33.860   7.306   2.826  1.00 20.00     0.027 A 
HETATM    2  C2  UNL     1     -32.400   7.291   2.450  1.00 20.00     0.027 A 
HETATM    3  C3  UNL     1     -33.283   6.113   2.090  1.00 20.00     0.120 A 
HETATM    4  C4  UNL     1     -34.256   7.254   4.262  1.00 20.00     0.014 C 
HETATM    5  C5  UNL     1     -31.886   8.254   1.435  1.00 20.00     0.014 C 
HETATM    6 CL6  UNL     1     -33.004   4.596   2.945  1.00 20.00    -0.101 Cl
HETATM    7 CL7  UNL     1     -33.792   5.865   0.419  1.00 20.00    -0.101 Cl
ENDROOT
TORSDOF 0
ENDMDL
