MODEL 1
REMARK VINA RESULT:      -3.6      0.000      0.000
REMARK  2 active torsions:
REMARK  status: ('A' for Active; 'I' for Inactive)
REMARK    1  A    between atoms: C1_1  and  C4_4 
REMARK    2  A    between atoms: C3_3  and  C4_4 
ROOT
HETATM    1  C4  UNL     1     -32.058   7.881   1.993  1.00 20.00     0.359 C 
HETATM    2  F10 UNL     1     -30.973   7.190   1.545  1.00 20.00    -0.192 F 
HETATM    3  F11 UNL     1     -31.625   8.606   3.061  1.00 20.00    -0.192 F 
ENDROOT
BRANCH   1   4
HETATM    4  C1  UNL     1     -33.149   6.925   2.363  1.00 20.00     0.238 C 
HETATM    5  C2  UNL     1     -33.933   7.030   3.440  1.00 20.00     0.307 C 
HETATM    6  F6  UNL     1     -34.893   6.117   3.691  1.00 20.00    -0.170 F 
HETATM    7  F7  UNL     1     -33.757   8.061   4.293  1.00 20.00    -0.170 F 
HETATM    8  F5  UNL     1     -33.349   5.862   1.548  1.00 20.00    -0.198 F 
ENDBRANCH   1   4
BRANCH   1   9
HETATM    9  C3  UNL     1     -32.489   8.843   0.907  1.00 20.00     0.432 C 
HETATM   10  F8  UNL     1     -32.765  10.058   1.442  1.00 20.00    -0.207 F 
HETATM   11  F9  UNL     1     -31.460   9.026   0.041  1.00 20.00    -0.207 F 
ENDBRANCH   1   9
TORSDOF 2
ENDMDL
MODEL 2
REMARK VINA RESULT:      -3.6      1.225      3.783
REMARK  2 active torsions:
REMARK  status: ('A' for Active; 'I' for Inactive)
REMARK    1  A    between atoms: C1_1  and  C4_4 
REMARK    2  A    between atoms: C3_3  and  C4_4 
ROOT
HETATM    1  C4  UNL     1     -33.999   7.466   3.830  1.00 20.00     0.359 C 
HETATM    2  F10 UNL     1     -34.759   8.563   3.557  1.00 20.00    -0.192 F 
HETATM    3  F11 UNL     1     -33.250   7.791   4.919  1.00 20.00    -0.192 F 
ENDROOT
BRANCH   1   4
HETATM    4  C1  UNL     1     -33.153   7.127   2.642  1.00 20.00     0.238 C 
HETATM    5  C2  UNL     1     -32.014   7.741   2.307  1.00 20.00     0.307 C 
HETATM    6  F6  UNL     1     -31.320   7.364   1.214  1.00 20.00    -0.170 F 
HETATM    7  F7  UNL     1     -31.556   8.756   3.069  1.00 20.00    -0.170 F 
HETATM    8  F5  UNL     1     -33.585   6.129   1.834  1.00 20.00    -0.198 F 
ENDBRANCH   1   4
BRANCH   1   9
HETATM    9  C3  UNL     1     -34.924   6.330   4.211  1.00 20.00     0.432 C 
HETATM   10  F8  UNL     1     -36.046   6.366   3.451  1.00 20.00    -0.207 F 
HETATM   11  F9  UNL     1     -34.312   5.148   3.942  1.00 20.00    -0.207 F 
ENDBRANCH   1   9
TORSDOF 2
ENDMDL
MODEL 3
REMARK VINA RESULT:      -3.4      1.224      2.124
REMARK  2 active torsions:
REMARK  status: ('A' for Active; 'I' for Inactive)
REMARK    1  A    between atoms: C1_1  and  C4_4 
REMARK    2  A    between atoms: C3_3  and  C4_4 
ROOT
HETATM    1  C4  UNL     1     -32.855   6.316   1.811  1.00 20.00     0.359 C 
HETATM    2  F10 UNL     1     -33.615   6.415   0.685  1.00 20.00    -0.192 F 
HETATM    3  F11 UNL     1     -31.879   5.411   1.525  1.00 20.00    -0.192 F 
ENDROOT
BRANCH   1   4
HETATM    4  C1  UNL     1     -33.709   5.885   2.962  1.00 20.00     0.238 C 
HETATM    5  C2  UNL     1     -34.509   6.687   3.670  1.00 20.00     0.307 C 
HETATM    6  F6  UNL     1     -35.243   6.206   4.694  1.00 20.00    -0.170 F 
HETATM    7  F7  UNL     1     -34.580   7.999   3.361  1.00 20.00    -0.170 F 
HETATM    8  F5  UNL     1     -33.655   4.581   3.323  1.00 20.00    -0.198 F 
ENDBRANCH   1   4
BRANCH   1   9
HETATM    9  C3  UNL     1     -32.200   7.658   2.060  1.00 20.00     0.432 C 
HETATM   10  F8  UNL     1     -30.858   7.562   1.895  1.00 20.00    -0.207 F 
HETATM   11  F9  UNL     1     -32.642   8.548   1.134  1.00 20.00    -0.207 F 
ENDBRANCH   1   9
TORSDOF 2
ENDMDL
MODEL 4
REMARK VINA RESULT:      -3.2      1.208      2.354
REMARK  2 active torsions:
REMARK  status: ('A' for Active; 'I' for Inactive)
REMARK    1  A    between atoms: C1_1  and  C4_4 
REMARK    2  A    between atoms: C3_3  and  C4_4 
ROOT
HETATM    1  C4  UNL     1     -32.934   6.557   2.061  1.00 20.00     0.359 C 
HETATM    2  F10 UNL     1     -33.515   6.214   0.878  1.00 20.00    -0.192 F 
HETATM    3  F11 UNL     1     -31.953   5.639   2.277  1.00 20.00    -0.192 F 
ENDROOT
BRANCH   1   4
HETATM    4  C1  UNL     1     -33.962   6.554   3.149  1.00 20.00     0.238 C 
HETATM    5  C2  UNL     1     -34.433   5.463   3.760  1.00 20.00     0.307 C 
HETATM    6  F6  UNL     1     -35.362   5.560   4.733  1.00 20.00    -0.170 F 
HETATM    7  F7  UNL     1     -33.979   4.246   3.394  1.00 20.00    -0.170 F 
HETATM    8  F5  UNL     1     -34.464   7.751   3.536  1.00 20.00    -0.198 F 
ENDBRANCH   1   4
BRANCH   1   9
HETATM    9  C3  UNL     1     -32.286   7.916   1.895  1.00 20.00     0.432 C 
HETATM   10  F8  UNL     1     -31.681   8.289   3.049  1.00 20.00    -0.207 F 
HETATM   11  F9  UNL     1     -31.311   7.831   0.954  1.00 20.00    -0.207 F 
ENDBRANCH   1   9
TORSDOF 2
ENDMDL
MODEL 5
REMARK VINA RESULT:      -3.2      1.215      2.684
REMARK  2 active torsions:
REMARK  status: ('A' for Active; 'I' for Inactive)
REMARK    1  A    between atoms: C1_1  and  C4_4 
REMARK    2  A    between atoms: C3_3  and  C4_4 
ROOT
HETATM    1  C4  UNL     1     -32.336   7.355   1.869  1.00 20.00     0.359 C 
HETATM    2  F10 UNL     1     -30.995   7.520   1.696  1.00 20.00    -0.192 F 
HETATM    3  F11 UNL     1     -32.933   8.091   0.892  1.00 20.00    -0.192 F 
ENDROOT
BRANCH   1   4
HETATM    4  C1  UNL     1     -32.729   7.809   3.240  1.00 20.00     0.238 C 
HETATM    5  C2  UNL     1     -33.880   7.509   3.851  1.00 20.00     0.307 C 
HETATM    6  F6  UNL     1     -34.146   7.967   5.091  1.00 20.00    -0.170 F 
HETATM    7  F7  UNL     1     -34.791   6.743   3.215  1.00 20.00    -0.170 F 
HETATM    8  F5  UNL     1     -31.856   8.598   3.909  1.00 20.00    -0.198 F 
ENDBRANCH   1   4
BRANCH   1   9
HETATM    9  C3  UNL     1     -32.669   5.896   1.637  1.00 20.00     0.432 C 
HETATM   10  F8  UNL     1     -33.556   5.775   0.619  1.00 20.00    -0.207 F 
HETATM   11  F9  UNL     1     -31.544   5.240   1.252  1.00 20.00    -0.207 F 
ENDBRANCH   1   9
TORSDOF 2
ENDMDL
MODEL 6
REMARK VINA RESULT:      -3.0      1.598      4.484
REMARK  2 active torsions:
REMARK  status: ('A' for Active; 'I' for Inactive)
REMARK    1  A    between atoms: C1_1  and  C4_4 
REMARK    2  A    between atoms: C3_3  and  C4_4 
ROOT
HETATM    1  C4  UNL     1     -34.632   6.494   3.700  1.00 20.00     0.359 C 
HETATM    2  F10 UNL     1     -35.663   6.827   2.874  1.00 20.00    -0.192 F 
HETATM    3  F11 UNL     1     -34.956   6.993   4.924  1.00 20.00    -0.192 F 
ENDROOT
BRANCH   1   4
HETATM    4  C1  UNL     1     -33.355   7.069   3.173  1.00 20.00     0.238 C 
HETATM    5  C2  UNL     1     -32.801   6.767   1.995  1.00 20.00     0.307 C 
HETATM    6  F6  UNL     1     -31.644   7.339   1.605  1.00 20.00    -0.170 F 
HETATM    7  F7  UNL     1     -33.405   5.871   1.186  1.00 20.00    -0.170 F 
HETATM    8  F5  UNL     1     -32.701   7.957   3.959  1.00 20.00    -0.198 F 
ENDBRANCH   1   4
BRANCH   1   9
HETATM    9  C3  UNL     1     -34.575   4.984   3.801  1.00 20.00     0.432 C 
HETATM   10  F8  UNL     1     -33.315   4.582   4.097  1.00 20.00    -0.207 F 
HETATM   11  F9  UNL     1     -35.364   4.578   4.830  1.00 20.00    -0.207 F 
ENDBRANCH   1   9
TORSDOF 2
ENDMDL
MODEL 7
REMARK VINA RESULT:      -3.0      1.476      4.244
REMARK  2 active torsions:
REMARK  status: ('A' for Active; 'I' for Inactive)
REMARK    1  A    between atoms: C1_1  and  C4_4 
REMARK    2  A    between atoms: C3_3  and  C4_4 
ROOT
HETATM    1  C4  UNL     1     -34.082   6.163   3.211  1.00 20.00     0.359 C 
HETATM    2  F10 UNL     1     -33.431   4.998   3.481  1.00 20.00    -0.192 F 
HETATM    3  F11 UNL     1     -34.466   6.083   1.908  1.00 20.00    -0.192 F 
ENDROOT
BRANCH   1   4
HETATM    4  C1  UNL     1     -33.169   7.322   3.462  1.00 20.00     0.238 C 
HETATM    5  C2  UNL     1     -32.203   7.735   2.636  1.00 20.00     0.307 C 
HETATM    6  F6  UNL     1     -31.428   8.794   2.950  1.00 20.00    -0.170 F 
HETATM    7  F7  UNL     1     -31.995   7.080   1.475  1.00 20.00    -0.170 F 
HETATM    8  F5  UNL     1     -33.326   7.998   4.625  1.00 20.00    -0.198 F 
ENDBRANCH   1   4
BRANCH   1   9
HETATM    9  C3  UNL     1     -35.326   6.222   4.071  1.00 20.00     0.432 C 
HETATM   10  F8  UNL     1     -36.404   6.537   3.313  1.00 20.00    -0.207 F 
HETATM   11  F9  UNL     1     -35.564   4.992   4.594  1.00 20.00    -0.207 F 
ENDBRANCH   1   9
TORSDOF 2
ENDMDL
MODEL 8
REMARK VINA RESULT:      -3.0      1.163      1.844
REMARK  2 active torsions:
REMARK  status: ('A' for Active; 'I' for Inactive)
REMARK    1  A    between atoms: C1_1  and  C4_4 
REMARK    2  A    between atoms: C3_3  and  C4_4 
ROOT
HETATM    1  C4  UNL     1     -33.187   7.694   2.964  1.00 20.00     0.359 C 
HETATM    2  F10 UNL     1     -32.429   8.054   4.037  1.00 20.00    -0.192 F 
HETATM    3  F11 UNL     1     -34.209   8.591   2.909  1.00 20.00    -0.192 F 
ENDROOT
BRANCH   1   4
HETATM    4  C1  UNL     1     -33.675   6.290   3.138  1.00 20.00     0.238 C 
HETATM    5  C2  UNL     1     -34.632   5.907   3.988  1.00 20.00     0.307 C 
HETATM    6  F6  UNL     1     -35.006   4.613   4.075  1.00 20.00    -0.170 F 
HETATM    7  F7  UNL     1     -35.229   6.825   4.777  1.00 20.00    -0.170 F 
HETATM    8  F5  UNL     1     -33.091   5.329   2.382  1.00 20.00    -0.198 F 
ENDBRANCH   1   4
BRANCH   1   9
HETATM    9  C3  UNL     1     -32.346   7.852   1.715  1.00 20.00     0.432 C 
HETATM   10  F8  UNL     1     -32.466   9.111   1.227  1.00 20.00    -0.207 F 
HETATM   11  F9  UNL     1     -31.038   7.684   2.035  1.00 20.00    -0.207 F 
ENDBRANCH   1   9
TORSDOF 2
ENDMDL
MODEL 9
REMARK VINA RESULT:      -3.0      0.587      1.534
REMARK  2 active torsions:
REMARK  status: ('A' for Active; 'I' for Inactive)
REMARK    1  A    between atoms: C1_1  and  C4_4 
REMARK    2  A    between atoms: C3_3  and  C4_4 
ROOT
HETATM    1  C4  UNL     1     -32.106   7.891   2.094  1.00 20.00     0.359 C 
HETATM    2  F10 UNL     1     -31.471   6.799   1.587  1.00 20.00    -0.192 F 
HETATM    3  F11 UNL     1     -31.179   8.549   2.844  1.00 20.00    -0.192 F 
ENDROOT
BRANCH   1   4
HETATM    4  C1  UNL     1     -33.287   7.459   2.906  1.00 20.00     0.238 C 
HETATM    5  C2  UNL     1     -33.762   6.211   2.970  1.00 20.00     0.307 C 
HETATM    6  F6  UNL     1     -34.836   5.917   3.731  1.00 20.00    -0.170 F 
HETATM    7  F7  UNL     1     -33.165   5.233   2.257  1.00 20.00    -0.170 F 
HETATM    8  F5  UNL     1     -33.933   8.410   3.622  1.00 20.00    -0.198 F 
ENDBRANCH   1   4
BRANCH   1   9
HETATM    9  C3  UNL     1     -32.507   8.786   0.941  1.00 20.00     0.432 C 
HETATM   10  F8  UNL     1     -32.804  10.028   1.394  1.00 20.00    -0.207 F 
HETATM   11  F9  UNL     1     -31.451   8.923   0.097  1.00 20.00    -0.207 F 
ENDBRANCH   1   9
TORSDOF 2
ENDMDL
