MODEL 1
REMARK VINA RESULT:       2.2      0.000      0.000
REMARK  1 active torsions:
REMARK  status: ('A' for Active; 'I' for Inactive)
REMARK    1  A    between atoms: C1_1  and  C5_5 
ROOT
HETATM    1  C2  UNL     1     -35.223   6.976   3.684  1.00 20.00     0.006 C 
HETATM    2  C3  UNL     1     -34.990   5.463   3.563  1.00 20.00     0.006 C 
HETATM    3  C4  UNL     1     -32.973   6.468   4.245  1.00 20.00     0.011 C 
HETATM    4  C5  UNL     1     -33.356   7.446   2.079  1.00 20.00     0.067 C 
HETATM    5  C6  UNL     1     -33.802   7.554   3.557  1.00 20.00    -0.002 C 
HETATM    6  C7  UNL     1     -33.473   5.364   3.307  1.00 20.00    -0.006 C 
HETATM    7  C8  UNL     1     -33.072   5.921   1.900  1.00 20.00    -0.033 C 
HETATM    8  C10 UNL     1     -31.598   5.578   1.601  1.00 20.00     0.016 C 
HETATM    9  C11 UNL     1     -33.912   5.338   0.751  1.00 20.00     0.016 C 
ENDROOT
BRANCH   4  10
HETATM   10  C1  UNL     1     -32.185   8.346   1.811  1.00 20.00     0.128 C 
HETATM   11  C9  UNL     1     -32.220   9.138   0.532  1.00 20.00     0.091 C 
HETATM   12  O12 UNL     1     -31.245   8.433   2.599  1.00 20.00    -0.298 OA
ENDBRANCH   4  10
TORSDOF 1
ENDMDL
MODEL 2
REMARK VINA RESULT:       2.4      1.680      3.570
REMARK  1 active torsions:
REMARK  status: ('A' for Active; 'I' for Inactive)
REMARK    1  A    between atoms: C1_1  and  C5_5 
ROOT
HETATM    1  C2  UNL     1     -31.730   8.397   3.424  1.00 20.00     0.006 C 
HETATM    2  C3  UNL     1     -31.393   8.312   1.928  1.00 20.00     0.006 C 
HETATM    3  C4  UNL     1     -33.737   8.333   2.158  1.00 20.00     0.011 C 
HETATM    4  C5  UNL     1     -33.102   6.304   3.287  1.00 20.00     0.067 C 
HETATM    5  C6  UNL     1     -33.162   7.837   3.487  1.00 20.00    -0.002 C 
HETATM    6  C7  UNL     1     -32.646   7.646   1.326  1.00 20.00    -0.006 C 
HETATM    7  C8  UNL     1     -32.791   6.151   1.765  1.00 20.00    -0.033 C 
HETATM    8  C10 UNL     1     -33.911   5.472   0.950  1.00 20.00     0.016 C 
HETATM    9  C11 UNL     1     -31.512   5.325   1.547  1.00 20.00     0.016 C 
ENDROOT
BRANCH   4  10
HETATM   10  C1  UNL     1     -34.379   5.659   3.742  1.00 20.00     0.128 C 
HETATM   11  C9  UNL     1     -34.298   4.213   4.150  1.00 20.00     0.091 C 
HETATM   12  O12 UNL     1     -35.438   6.283   3.783  1.00 20.00    -0.298 OA
ENDBRANCH   4  10
TORSDOF 1
ENDMDL
MODEL 3
REMARK VINA RESULT:       3.1      1.363      3.371
REMARK  1 active torsions:
REMARK  status: ('A' for Active; 'I' for Inactive)
REMARK    1  A    between atoms: C1_1  and  C5_5 
ROOT
HETATM    1  C2  UNL     1     -33.376   5.243   0.603  1.00 20.00     0.006 C 
HETATM    2  C3  UNL     1     -31.983   5.829   0.329  1.00 20.00     0.006 C 
HETATM    3  C4  UNL     1     -32.105   5.248   2.608  1.00 20.00     0.011 C 
HETATM    4  C5  UNL     1     -33.798   6.946   2.394  1.00 20.00     0.067 C 
HETATM    5  C6  UNL     1     -33.542   5.444   2.120  1.00 20.00    -0.002 C 
HETATM    6  C7  UNL     1     -31.552   6.361   1.710  1.00 20.00    -0.006 C 
HETATM    7  C8  UNL     1     -32.399   7.598   2.160  1.00 20.00    -0.033 C 
HETATM    8  C10 UNL     1     -31.773   8.232   3.419  1.00 20.00     0.016 C 
HETATM    9  C11 UNL     1     -32.480   8.702   1.093  1.00 20.00     0.016 C 
ENDROOT
BRANCH   4  10
HETATM   10  C1  UNL     1     -34.370   7.145   3.767  1.00 20.00     0.128 C 
HETATM   11  C9  UNL     1     -35.336   6.100   4.255  1.00 20.00     0.091 C 
HETATM   12  O12 UNL     1     -34.061   8.114   4.460  1.00 20.00    -0.298 OA
ENDBRANCH   4  10
TORSDOF 1
ENDMDL
MODEL 4
REMARK VINA RESULT:       3.4      1.731      3.883
REMARK  1 active torsions:
REMARK  status: ('A' for Active; 'I' for Inactive)
REMARK    1  A    between atoms: C1_1  and  C5_5 
ROOT
HETATM    1  C2  UNL     1     -33.030   7.126   0.462  1.00 20.00     0.006 C 
HETATM    2  C3  UNL     1     -32.455   8.425   1.048  1.00 20.00     0.006 C 
HETATM    3  C4  UNL     1     -31.625   6.615   2.306  1.00 20.00     0.011 C 
HETATM    4  C5  UNL     1     -34.000   6.491   2.684  1.00 20.00     0.067 C 
HETATM    5  C6  UNL     1     -32.916   6.138   1.637  1.00 20.00    -0.002 C 
HETATM    6  C7  UNL     1     -32.150   8.041   2.510  1.00 20.00    -0.006 C 
HETATM    7  C8  UNL     1     -33.453   7.797   3.342  1.00 20.00    -0.033 C 
HETATM    8  C10 UNL     1     -33.101   7.659   4.838  1.00 20.00     0.016 C 
HETATM    9  C11 UNL     1     -34.475   8.940   3.224  1.00 20.00     0.016 C 
ENDROOT
BRANCH   4  10
HETATM   10  C1  UNL     1     -34.216   5.346   3.631  1.00 20.00     0.128 C 
HETATM   11  C9  UNL     1     -35.435   5.415   4.509  1.00 20.00     0.091 C 
HETATM   12  O12 UNL     1     -33.435   4.396   3.683  1.00 20.00    -0.298 OA
ENDBRANCH   4  10
TORSDOF 1
ENDMDL
MODEL 5
REMARK VINA RESULT:       3.5      1.342      2.839
REMARK  1 active torsions:
REMARK  status: ('A' for Active; 'I' for Inactive)
REMARK    1  A    between atoms: C1_1  and  C5_5 
ROOT
HETATM    1  C2  UNL     1     -34.321   4.549   4.203  1.00 20.00     0.006 C 
HETATM    2  C3  UNL     1     -35.291   5.567   4.822  1.00 20.00     0.006 C 
HETATM    3  C4  UNL     1     -35.227   5.928   2.495  1.00 20.00     0.011 C 
HETATM    4  C5  UNL     1     -32.964   6.388   3.175  1.00 20.00     0.067 C 
HETATM    5  C6  UNL     1     -33.926   5.215   2.872  1.00 20.00    -0.002 C 
HETATM    6  C7  UNL     1     -35.276   6.725   3.804  1.00 20.00    -0.006 C 
HETATM    7  C8  UNL     1     -33.903   7.476   3.784  1.00 20.00    -0.033 C 
HETATM    8  C10 UNL     1     -34.022   8.761   2.938  1.00 20.00     0.016 C 
HETATM    9  C11 UNL     1     -33.419   7.901   5.180  1.00 20.00     0.016 C 
ENDROOT
BRANCH   4  10
HETATM   10  C1  UNL     1     -32.228   6.805   1.935  1.00 20.00     0.128 C 
HETATM   11  C9  UNL     1     -32.093   5.772   0.850  1.00 20.00     0.091 C 
HETATM   12  O12 UNL     1     -31.762   7.937   1.811  1.00 20.00    -0.298 OA
ENDBRANCH   4  10
TORSDOF 1
ENDMDL
MODEL 6
REMARK VINA RESULT:       4.0      1.463      3.293
REMARK  1 active torsions:
REMARK  status: ('A' for Active; 'I' for Inactive)
REMARK    1  A    between atoms: C1_1  and  C5_5 
ROOT
HETATM    1  C2  UNL     1     -31.529   6.244   1.617  1.00 20.00     0.006 C 
HETATM    2  C3  UNL     1     -32.438   5.054   1.275  1.00 20.00     0.006 C 
HETATM    3  C4  UNL     1     -33.744   7.014   1.245  1.00 20.00     0.011 C 
HETATM    4  C5  UNL     1     -33.009   6.890   3.534  1.00 20.00     0.067 C 
HETATM    5  C6  UNL     1     -32.525   7.303   2.123  1.00 20.00    -0.002 C 
HETATM    6  C7  UNL     1     -33.835   5.551   1.696  1.00 20.00    -0.006 C 
HETATM    7  C8  UNL     1     -33.970   5.693   3.249  1.00 20.00    -0.033 C 
HETATM    8  C10 UNL     1     -35.443   5.954   3.625  1.00 20.00     0.016 C 
HETATM    9  C11 UNL     1     -33.525   4.438   4.017  1.00 20.00     0.016 C 
ENDROOT
BRANCH   4  10
HETATM   10  C1  UNL     1     -33.638   8.055   4.241  1.00 20.00     0.128 C 
HETATM   11  C9  UNL     1     -33.112   8.378   5.613  1.00 20.00     0.091 C 
HETATM   12  O12 UNL     1     -34.538   8.715   3.723  1.00 20.00    -0.298 OA
ENDBRANCH   4  10
TORSDOF 1
ENDMDL
MODEL 7
REMARK VINA RESULT:       4.0      1.605      3.065
REMARK  1 active torsions:
REMARK  status: ('A' for Active; 'I' for Inactive)
REMARK    1  A    between atoms: C1_1  and  C5_5 
ROOT
HETATM    1  C2  UNL     1     -33.952   6.460   4.689  1.00 20.00     0.006 C 
HETATM    2  C3  UNL     1     -33.861   7.993   4.655  1.00 20.00     0.006 C 
HETATM    3  C4  UNL     1     -34.925   7.272   2.681  1.00 20.00     0.011 C 
HETATM    4  C5  UNL     1     -32.736   6.287   2.504  1.00 20.00     0.067 C 
HETATM    5  C6  UNL     1     -34.104   6.091   3.202  1.00 20.00    -0.002 C 
HETATM    6  C7  UNL     1     -33.897   8.310   3.147  1.00 20.00    -0.006 C 
HETATM    7  C8  UNL     1     -32.598   7.839   2.412  1.00 20.00    -0.033 C 
HETATM    8  C10 UNL     1     -32.581   8.393   0.972  1.00 20.00     0.016 C 
HETATM    9  C11 UNL     1     -31.304   8.316   3.092  1.00 20.00     0.016 C 
ENDROOT
BRANCH   4  10
HETATM   10  C1  UNL     1     -32.705   5.567   1.188  1.00 20.00     0.128 C 
HETATM   11  C9  UNL     1     -31.425   4.859   0.835  1.00 20.00     0.091 C 
HETATM   12  O12 UNL     1     -33.679   5.554   0.436  1.00 20.00    -0.298 OA
ENDBRANCH   4  10
TORSDOF 1
ENDMDL
MODEL 8
REMARK VINA RESULT:       4.2      2.057      3.986
REMARK  1 active torsions:
REMARK  status: ('A' for Active; 'I' for Inactive)
REMARK    1  A    between atoms: C1_1  and  C5_5 
ROOT
HETATM    1  C2  UNL     1     -33.229   5.841   0.635  1.00 20.00     0.006 C 
HETATM    2  C3  UNL     1     -32.606   7.210   0.948  1.00 20.00     0.006 C 
HETATM    3  C4  UNL     1     -31.884   5.678   2.584  1.00 20.00     0.011 C 
HETATM    4  C5  UNL     1     -34.268   5.735   2.914  1.00 20.00     0.067 C 
HETATM    5  C6  UNL     1     -33.183   5.123   1.996  1.00 20.00    -0.002 C 
HETATM    6  C7  UNL     1     -32.346   7.135   2.465  1.00 20.00    -0.006 C 
HETATM    7  C8  UNL     1     -33.674   7.128   3.294  1.00 20.00    -0.033 C 
HETATM    8  C10 UNL     1     -33.356   7.298   4.794  1.00 20.00     0.016 C 
HETATM    9  C11 UNL     1     -34.640   8.261   2.907  1.00 20.00     0.016 C 
ENDROOT
BRANCH   4  10
HETATM   10  C1  UNL     1     -34.554   4.829   4.075  1.00 20.00     0.128 C 
HETATM   11  C9  UNL     1     -33.551   3.741   4.347  1.00 20.00     0.091 C 
HETATM   12  O12 UNL     1     -35.558   4.970   4.772  1.00 20.00    -0.298 OA
ENDBRANCH   4  10
TORSDOF 1
ENDMDL
MODEL 9
REMARK VINA RESULT:       4.5      1.277      2.890
REMARK  1 active torsions:
REMARK  status: ('A' for Active; 'I' for Inactive)
REMARK    1  A    between atoms: C1_1  and  C5_5 
ROOT
HETATM    1  C2  UNL     1     -31.730   5.483   1.844  1.00 20.00     0.006 C 
HETATM    2  C3  UNL     1     -32.806   5.211   2.906  1.00 20.00     0.006 C 
HETATM    3  C4  UNL     1     -33.817   6.337   1.100  1.00 20.00     0.011 C 
HETATM    4  C5  UNL     1     -32.214   7.942   1.907  1.00 20.00     0.067 C 
HETATM    5  C6  UNL     1     -32.322   6.660   1.047  1.00 20.00    -0.002 C 
HETATM    6  C7  UNL     1     -33.850   6.313   2.633  1.00 20.00    -0.006 C 
HETATM    7  C8  UNL     1     -33.314   7.738   2.996  1.00 20.00    -0.033 C 
HETATM    8  C10 UNL     1     -34.467   8.761   2.937  1.00 20.00     0.016 C 
HETATM    9  C11 UNL     1     -32.711   7.822   4.408  1.00 20.00     0.016 C 
ENDROOT
BRANCH   4  10
HETATM   10  C1  UNL     1     -32.381   9.167   1.057  1.00 20.00     0.128 C 
HETATM   11  C9  UNL     1     -32.348   8.965  -0.434  1.00 20.00     0.091 C 
HETATM   12  O12 UNL     1     -32.541  10.281   1.555  1.00 20.00    -0.298 OA
ENDBRANCH   4  10
TORSDOF 1
ENDMDL
