MODEL 1
REMARK VINA RESULT:      -1.8      0.000      0.000
REMARK  1 active torsions:
REMARK  status: ('A' for Active; 'I' for Inactive)
REMARK    1  A    between atoms: C9_9  and  O10_10 
ROOT
HETATM    1  C1  UNL     1     -31.424   7.249   1.083  1.00 20.00     0.001 C 
HETATM    2  C2  UNL     1     -32.115   8.276   1.994  1.00 20.00     0.005 C 
HETATM    3  C3  UNL     1     -32.072   5.888   1.386  1.00 20.00     0.005 C 
HETATM    4  C4  UNL     1     -34.015   8.065   3.751  1.00 20.00     0.007 C 
HETATM    5  C5  UNL     1     -34.706   7.016   4.630  1.00 20.00     0.032 C 
HETATM    6  C6  UNL     1     -33.932   5.165   3.046  1.00 20.00     0.036 C 
HETATM    7  C7  UNL     1     -32.849   7.422   3.018  1.00 20.00    -0.010 C 
HETATM    8  C8  UNL     1     -33.327   6.248   2.167  1.00 20.00    -0.008 C 
HETATM    9  C9  UNL     1     -35.100   5.751   3.852  1.00 20.00     0.118 C 
ENDROOT
BRANCH   9  10
HETATM   10  O10 UNL     1     -35.569   4.759   4.758  1.00 20.00    -0.396 OA
HETATM   11  H26 UNL     1     -36.535   4.733   4.667  1.00 20.00     0.210 HD
ENDBRANCH   9  10
TORSDOF 1
ENDMDL
MODEL 2
REMARK VINA RESULT:      -0.5      0.901      1.005
REMARK  1 active torsions:
REMARK  status: ('A' for Active; 'I' for Inactive)
REMARK    1  A    between atoms: C9_9  and  O10_10 
ROOT
HETATM    1  C1  UNL     1     -31.841   8.303   1.123  1.00 20.00     0.001 C 
HETATM    2  C2  UNL     1     -32.941   8.762   2.093  1.00 20.00     0.005 C 
HETATM    3  C3  UNL     1     -31.746   6.774   1.259  1.00 20.00     0.005 C 
HETATM    4  C4  UNL     1     -34.496   7.469   3.721  1.00 20.00     0.007 C 
HETATM    5  C5  UNL     1     -34.589   6.128   4.457  1.00 20.00     0.032 C 
HETATM    6  C6  UNL     1     -33.019   5.067   2.743  1.00 20.00     0.036 C 
HETATM    7  C7  UNL     1     -33.166   7.554   2.990  1.00 20.00    -0.010 C 
HETATM    8  C8  UNL     1     -33.016   6.396   2.006  1.00 20.00    -0.008 C 
HETATM    9  C9  UNL     1     -34.322   4.924   3.541  1.00 20.00     0.118 C 
ENDROOT
BRANCH   9  10
HETATM   10  O10 UNL     1     -34.248   3.736   4.321  1.00 20.00    -0.396 OA
HETATM   11  H26 UNL     1     -33.631   3.918   5.048  1.00 20.00     0.210 HD
ENDBRANCH   9  10
TORSDOF 1
ENDMDL
MODEL 3
REMARK VINA RESULT:      -0.5      2.256      4.196
REMARK  1 active torsions:
REMARK  status: ('A' for Active; 'I' for Inactive)
REMARK    1  A    between atoms: C9_9  and  O10_10 
ROOT
HETATM    1  C1  UNL     1     -35.105   5.026   4.572  1.00 20.00     0.001 C 
HETATM    2  C2  UNL     1     -34.174   4.367   3.543  1.00 20.00     0.005 C 
HETATM    3  C3  UNL     1     -34.927   6.545   4.415  1.00 20.00     0.005 C 
HETATM    4  C4  UNL     1     -32.549   5.342   1.769  1.00 20.00     0.007 C 
HETATM    5  C5  UNL     1     -31.780   6.628   1.445  1.00 20.00     0.032 C 
HETATM    6  C6  UNL     1     -33.429   7.980   2.854  1.00 20.00     0.036 C 
HETATM    7  C7  UNL     1     -33.251   5.495   3.108  1.00 20.00    -0.010 C 
HETATM    8  C8  UNL     1     -34.201   6.691   3.086  1.00 20.00    -0.008 C 
HETATM    9  C9  UNL     1     -32.658   7.886   1.531  1.00 20.00     0.118 C 
ENDROOT
BRANCH   9  10
HETATM   10  O10 UNL     1     -31.846   9.047   1.395  1.00 20.00    -0.396 OA
HETATM   11  H26 UNL     1     -31.092   8.931   1.996  1.00 20.00     0.210 HD
ENDBRANCH   9  10
TORSDOF 1
ENDMDL
MODEL 4
REMARK VINA RESULT:      -0.4      0.814      2.138
REMARK  1 active torsions:
REMARK  status: ('A' for Active; 'I' for Inactive)
REMARK    1  A    between atoms: C9_9  and  O10_10 
ROOT
HETATM    1  C1  UNL     1     -32.006   8.463   1.434  1.00 20.00     0.001 C 
HETATM    2  C2  UNL     1     -31.676   6.966   1.332  1.00 20.00     0.005 C 
HETATM    3  C3  UNL     1     -33.186   8.587   2.412  1.00 20.00     0.005 C 
HETATM    4  C4  UNL     1     -32.696   4.864   2.464  1.00 20.00     0.007 C 
HETATM    5  C5  UNL     1     -33.977   4.400   3.168  1.00 20.00     0.032 C 
HETATM    6  C6  UNL     1     -34.553   6.824   3.738  1.00 20.00     0.036 C 
HETATM    7  C7  UNL     1     -32.887   6.282   1.950  1.00 20.00    -0.010 C 
HETATM    8  C8  UNL     1     -33.237   7.229   3.095  1.00 20.00    -0.008 C 
HETATM    9  C9  UNL     1     -34.452   5.381   4.251  1.00 20.00     0.118 C 
ENDROOT
BRANCH   9  10
HETATM   10  O10 UNL     1     -35.729   4.980   4.733  1.00 20.00    -0.396 OA
HETATM   11  H26 UNL     1     -36.044   5.692   5.312  1.00 20.00     0.210 HD
ENDBRANCH   9  10
TORSDOF 1
ENDMDL
MODEL 5
REMARK VINA RESULT:       0.3      2.018      3.635
REMARK  1 active torsions:
REMARK  status: ('A' for Active; 'I' for Inactive)
REMARK    1  A    between atoms: C9_9  and  O10_10 
ROOT
HETATM    1  C1  UNL     1     -35.120   6.966   4.627  1.00 20.00     0.001 C 
HETATM    2  C2  UNL     1     -34.077   7.989   4.150  1.00 20.00     0.005 C 
HETATM    3  C3  UNL     1     -34.878   5.682   3.816  1.00 20.00     0.005 C 
HETATM    4  C4  UNL     1     -32.172   7.863   2.390  1.00 20.00     0.007 C 
HETATM    5  C5  UNL     1     -31.745   7.051   1.163  1.00 20.00     0.032 C 
HETATM    6  C6  UNL     1     -33.171   5.083   1.955  1.00 20.00     0.036 C 
HETATM    7  C7  UNL     1     -33.538   7.389   2.861  1.00 20.00    -0.010 C 
HETATM    8  C8  UNL     1     -33.507   5.899   3.193  1.00 20.00    -0.008 C 
HETATM    9  C9  UNL     1     -31.814   5.534   1.396  1.00 20.00     0.118 C 
ENDROOT
BRANCH   9  10
HETATM   10  O10 UNL     1     -31.578   4.850   0.171  1.00 20.00    -0.396 OA
HETATM   11  H26 UNL     1     -30.692   5.111  -0.128  1.00 20.00     0.210 HD
ENDBRANCH   9  10
TORSDOF 1
ENDMDL
MODEL 6
REMARK VINA RESULT:       0.4      2.270      3.722
REMARK  1 active torsions:
REMARK  status: ('A' for Active; 'I' for Inactive)
REMARK    1  A    between atoms: C9_9  and  O10_10 
ROOT
HETATM    1  C1  UNL     1     -34.956   4.641   4.330  1.00 20.00     0.001 C 
HETATM    2  C2  UNL     1     -35.041   6.145   4.632  1.00 20.00     0.005 C 
HETATM    3  C3  UNL     1     -33.932   4.478   3.195  1.00 20.00     0.005 C 
HETATM    4  C4  UNL     1     -33.825   8.207   3.627  1.00 20.00     0.007 C 
HETATM    5  C5  UNL     1     -33.059   8.636   2.370  1.00 20.00     0.032 C 
HETATM    6  C6  UNL     1     -32.515   6.192   1.857  1.00 20.00     0.036 C 
HETATM    7  C7  UNL     1     -34.360   6.797   3.438  1.00 20.00    -0.010 C 
HETATM    8  C8  UNL     1     -33.220   5.821   3.151  1.00 20.00    -0.008 C 
HETATM    9  C9  UNL     1     -31.978   7.626   1.956  1.00 20.00     0.118 C 
ENDROOT
BRANCH   9  10
HETATM   10  O10 UNL     1     -31.435   7.996   0.694  1.00 20.00    -0.396 OA
HETATM   11  H26 UNL     1     -31.345   8.963   0.702  1.00 20.00     0.210 HD
ENDBRANCH   9  10
TORSDOF 1
ENDMDL
MODEL 7
REMARK VINA RESULT:       1.1      2.297      3.566
REMARK  1 active torsions:
REMARK  status: ('A' for Active; 'I' for Inactive)
REMARK    1  A    between atoms: C9_9  and  O10_10 
ROOT
HETATM    1  C1  UNL     1     -33.961   3.676   3.439  1.00 20.00     0.001 C 
HETATM    2  C2  UNL     1     -34.424   4.884   4.268  1.00 20.00     0.005 C 
HETATM    3  C3  UNL     1     -33.129   4.237   2.273  1.00 20.00     0.005 C 
HETATM    4  C4  UNL     1     -34.028   7.438   4.021  1.00 20.00     0.007 C 
HETATM    5  C5  UNL     1     -33.629   8.479   2.969  1.00 20.00     0.032 C 
HETATM    6  C6  UNL     1     -32.496   6.657   1.580  1.00 20.00     0.036 C 
HETATM    7  C7  UNL     1     -34.159   6.075   3.359  1.00 20.00    -0.010 C 
HETATM    8  C8  UNL     1     -32.849   5.674   2.685  1.00 20.00    -0.008 C 
HETATM    9  C9  UNL     1     -32.384   8.071   2.167  1.00 20.00     0.118 C 
ENDROOT
BRANCH   9  10
HETATM   10  O10 UNL     1     -32.179   8.990   1.100  1.00 20.00    -0.396 OA
HETATM   11  H26 UNL     1     -31.749   8.495   0.384  1.00 20.00     0.210 HD
ENDBRANCH   9  10
TORSDOF 1
ENDMDL
