MODEL 1
REMARK VINA RESULT:      -3.1      0.000      0.000
REMARK  2 active torsions:
REMARK  status: ('A' for Active; 'I' for Inactive)
REMARK    1  A    between atoms: C2_2  and  C3_3 
REMARK    2  A    between atoms: C3_3  and  C4_4 
ROOT
HETATM    1  C1  UNL     1     -32.187   9.262   0.689  1.00 20.00     0.059 C 
HETATM    2  C2  UNL     1     -31.650   8.146   1.479  1.00 20.00     0.132 C 
HETATM    3  N5  UNL     1     -32.609  10.143   0.065  1.00 20.00    -0.197 NA
ENDROOT
BRANCH   2   4
HETATM    4  C3  UNL     1     -32.772   7.362   2.156  1.00 20.00     0.131 C 
BRANCH   4   5
HETATM    5  C4  UNL     1     -32.819   5.924   1.686  1.00 20.00     0.388 C 
HETATM    6  F6  UNL     1     -31.588   5.469   1.372  1.00 20.00    -0.171 F 
HETATM    7  F7  UNL     1     -33.334   5.113   2.635  1.00 20.00    -0.171 F 
HETATM    8  F8  UNL     1     -33.593   5.810   0.584  1.00 20.00    -0.171 F 
ENDBRANCH   4   5
ENDBRANCH   2   4
TORSDOF 2
ENDMDL
MODEL 2
REMARK VINA RESULT:      -3.0      1.900      2.346
REMARK  2 active torsions:
REMARK  status: ('A' for Active; 'I' for Inactive)
REMARK    1  A    between atoms: C2_2  and  C3_3 
REMARK    2  A    between atoms: C3_3  and  C4_4 
ROOT
HETATM    1  C1  UNL     1     -32.270   8.769   1.155  1.00 20.00     0.059 C 
HETATM    2  C2  UNL     1     -32.199   7.757   2.217  1.00 20.00     0.132 C 
HETATM    3  N5  UNL     1     -32.325   9.570   0.317  1.00 20.00    -0.197 NA
ENDROOT
BRANCH   2   4
HETATM    4  C3  UNL     1     -33.353   6.763   2.106  1.00 20.00     0.131 C 
BRANCH   4   5
HETATM    5  C4  UNL     1     -34.098   6.614   3.415  1.00 20.00     0.388 C 
HETATM    6  F6  UNL     1     -33.673   7.514   4.327  1.00 20.00    -0.171 F 
HETATM    7  F7  UNL     1     -35.426   6.785   3.247  1.00 20.00    -0.171 F 
HETATM    8  F8  UNL     1     -33.905   5.381   3.933  1.00 20.00    -0.171 F 
ENDBRANCH   4   5
ENDBRANCH   2   4
TORSDOF 2
ENDMDL
MODEL 3
REMARK VINA RESULT:      -3.0      3.383      4.034
REMARK  2 active torsions:
REMARK  status: ('A' for Active; 'I' for Inactive)
REMARK    1  A    between atoms: C2_2  and  C3_3 
REMARK    2  A    between atoms: C3_3  and  C4_4 
ROOT
HETATM    1  C1  UNL     1     -34.867   6.168   4.062  1.00 20.00     0.059 C 
HETATM    2  C2  UNL     1     -34.037   7.292   3.607  1.00 20.00     0.132 C 
HETATM    3  N5  UNL     1     -35.522   5.281   4.423  1.00 20.00    -0.197 NA
ENDROOT
BRANCH   2   4
HETATM    4  C3  UNL     1     -33.342   6.962   2.288  1.00 20.00     0.131 C 
BRANCH   4   5
HETATM    5  C4  UNL     1     -32.165   7.877   2.026  1.00 20.00     0.388 C 
HETATM    6  F6  UNL     1     -32.498   8.875   1.180  1.00 20.00    -0.171 F 
HETATM    7  F7  UNL     1     -31.710   8.434   3.169  1.00 20.00    -0.171 F 
HETATM    8  F8  UNL     1     -31.144   7.189   1.469  1.00 20.00    -0.171 F 
ENDBRANCH   4   5
ENDBRANCH   2   4
TORSDOF 2
ENDMDL
MODEL 4
REMARK VINA RESULT:      -3.0      3.384      4.068
REMARK  2 active torsions:
REMARK  status: ('A' for Active; 'I' for Inactive)
REMARK    1  A    between atoms: C2_2  and  C3_3 
REMARK    2  A    between atoms: C3_3  and  C4_4 
ROOT
HETATM    1  C1  UNL     1     -34.831   6.144   4.062  1.00 20.00     0.059 C 
HETATM    2  C2  UNL     1     -34.014   7.280   3.615  1.00 20.00     0.132 C 
HETATM    3  N5  UNL     1     -35.477   5.248   4.417  1.00 20.00    -0.197 NA
ENDROOT
BRANCH   2   4
HETATM    4  C3  UNL     1     -33.346   6.982   2.275  1.00 20.00     0.131 C 
BRANCH   4   5
HETATM    5  C4  UNL     1     -32.151   7.878   2.027  1.00 20.00     0.388 C 
HETATM    6  F6  UNL     1     -31.130   7.193   1.472  1.00 20.00    -0.171 F 
HETATM    7  F7  UNL     1     -32.465   8.900   1.204  1.00 20.00    -0.171 F 
HETATM    8  F8  UNL     1     -31.708   8.408   3.189  1.00 20.00    -0.171 F 
ENDBRANCH   4   5
ENDBRANCH   2   4
TORSDOF 2
ENDMDL
MODEL 5
REMARK VINA RESULT:      -3.0      3.384      4.010
REMARK  2 active torsions:
REMARK  status: ('A' for Active; 'I' for Inactive)
REMARK    1  A    between atoms: C2_2  and  C3_3 
REMARK    2  A    between atoms: C3_3  and  C4_4 
ROOT
HETATM    1  C1  UNL     1     -34.831   6.139   4.064  1.00 20.00     0.059 C 
HETATM    2  C2  UNL     1     -34.017   7.279   3.624  1.00 20.00     0.132 C 
HETATM    3  N5  UNL     1     -35.475   5.239   4.414  1.00 20.00    -0.197 NA
ENDROOT
BRANCH   2   4
HETATM    4  C3  UNL     1     -33.364   6.997   2.272  1.00 20.00     0.131 C 
BRANCH   4   5
HETATM    5  C4  UNL     1     -32.150   7.870   2.039  1.00 20.00     0.388 C 
HETATM    6  F6  UNL     1     -31.694   8.398   3.194  1.00 20.00    -0.171 F 
HETATM    7  F7  UNL     1     -31.142   7.170   1.473  1.00 20.00    -0.171 F 
HETATM    8  F8  UNL     1     -32.454   8.893   1.210  1.00 20.00    -0.171 F 
ENDBRANCH   4   5
ENDBRANCH   2   4
TORSDOF 2
ENDMDL
MODEL 6
REMARK VINA RESULT:      -2.9      2.686      3.101
REMARK  2 active torsions:
REMARK  status: ('A' for Active; 'I' for Inactive)
REMARK    1  A    between atoms: C2_2  and  C3_3 
REMARK    2  A    between atoms: C3_3  and  C4_4 
ROOT
HETATM    1  C1  UNL     1     -32.270   7.926   2.002  1.00 20.00     0.059 C 
HETATM    2  C2  UNL     1     -32.997   7.545   3.221  1.00 20.00     0.132 C 
HETATM    3  N5  UNL     1     -31.696   8.229   1.041  1.00 20.00    -0.197 NA
ENDROOT
BRANCH   2   4
HETATM    4  C3  UNL     1     -33.886   6.329   2.972  1.00 20.00     0.131 C 
BRANCH   4   5
HETATM    5  C4  UNL     1     -35.070   6.293   3.915  1.00 20.00     0.388 C 
HETATM    6  F6  UNL     1     -35.238   5.064   4.446  1.00 20.00    -0.171 F 
HETATM    7  F7  UNL     1     -34.917   7.170   4.930  1.00 20.00    -0.171 F 
HETATM    8  F8  UNL     1     -36.207   6.617   3.260  1.00 20.00    -0.171 F 
ENDBRANCH   4   5
ENDBRANCH   2   4
TORSDOF 2
ENDMDL
MODEL 7
REMARK VINA RESULT:      -2.9      2.673      3.210
REMARK  2 active torsions:
REMARK  status: ('A' for Active; 'I' for Inactive)
REMARK    1  A    between atoms: C2_2  and  C3_3 
REMARK    2  A    between atoms: C3_3  and  C4_4 
ROOT
HETATM    1  C1  UNL     1     -32.273   7.944   1.995  1.00 20.00     0.059 C 
HETATM    2  C2  UNL     1     -32.986   7.552   3.218  1.00 20.00     0.132 C 
HETATM    3  N5  UNL     1     -31.709   8.255   1.029  1.00 20.00    -0.197 NA
ENDROOT
BRANCH   2   4
HETATM    4  C3  UNL     1     -33.874   6.336   2.970  1.00 20.00     0.131 C 
BRANCH   4   5
HETATM    5  C4  UNL     1     -35.064   6.305   3.905  1.00 20.00     0.388 C 
HETATM    6  F6  UNL     1     -34.907   7.171   4.929  1.00 20.00    -0.171 F 
HETATM    7  F7  UNL     1     -36.206   6.624   3.259  1.00 20.00    -0.171 F 
HETATM    8  F8  UNL     1     -35.222   5.070   4.431  1.00 20.00    -0.171 F 
ENDBRANCH   4   5
ENDBRANCH   2   4
TORSDOF 2
ENDMDL
MODEL 8
REMARK VINA RESULT:      -2.9      2.699      3.315
REMARK  2 active torsions:
REMARK  status: ('A' for Active; 'I' for Inactive)
REMARK    1  A    between atoms: C2_2  and  C3_3 
REMARK    2  A    between atoms: C3_3  and  C4_4 
ROOT
HETATM    1  C1  UNL     1     -32.482   7.152   1.859  1.00 20.00     0.059 C 
HETATM    2  C2  UNL     1     -33.433   6.033   1.895  1.00 20.00     0.132 C 
HETATM    3  N5  UNL     1     -31.731   8.036   1.828  1.00 20.00    -0.197 NA
ENDROOT
BRANCH   2   4
HETATM    4  C3  UNL     1     -33.744   5.624   3.333  1.00 20.00     0.131 C 
BRANCH   4   5
HETATM    5  C4  UNL     1     -34.919   6.393   3.897  1.00 20.00     0.388 C 
HETATM    6  F6  UNL     1     -35.779   6.761   2.924  1.00 20.00    -0.171 F 
HETATM    7  F7  UNL     1     -35.601   5.656   4.801  1.00 20.00    -0.171 F 
HETATM    8  F8  UNL     1     -34.496   7.516   4.519  1.00 20.00    -0.171 F 
ENDBRANCH   4   5
ENDBRANCH   2   4
TORSDOF 2
ENDMDL
MODEL 9
REMARK VINA RESULT:      -2.9      3.462      4.248
REMARK  2 active torsions:
REMARK  status: ('A' for Active; 'I' for Inactive)
REMARK    1  A    between atoms: C2_2  and  C3_3 
REMARK    2  A    between atoms: C3_3  and  C4_4 
ROOT
HETATM    1  C1  UNL     1     -32.492   6.798   1.685  1.00 20.00     0.059 C 
HETATM    2  C2  UNL     1     -32.205   8.215   1.946  1.00 20.00     0.132 C 
HETATM    3  N5  UNL     1     -32.719   5.679   1.481  1.00 20.00    -0.197 NA
ENDROOT
BRANCH   2   4
HETATM    4  C3  UNL     1     -31.608   8.890   0.713  1.00 20.00     0.131 C 
BRANCH   4   5
HETATM    5  C4  UNL     1     -32.496   9.999   0.191  1.00 20.00     0.388 C 
HETATM    6  F6  UNL     1     -33.419  10.362   1.106  1.00 20.00    -0.171 F 
HETATM    7  F7  UNL     1     -31.776  11.095  -0.133  1.00 20.00    -0.171 F 
HETATM    8  F8  UNL     1     -33.153   9.598  -0.920  1.00 20.00    -0.171 F 
ENDBRANCH   4   5
ENDBRANCH   2   4
TORSDOF 2
ENDMDL
