MODEL 1
REMARK VINA RESULT:      -2.5      0.000      0.000
REMARK  2 active torsions:
REMARK  status: ('A' for Active; 'I' for Inactive)
REMARK    1  A    between atoms: C5_5  and  C6_6 
REMARK    2  A    between atoms: C6_6  and  N7_7 
ROOT
HETATM    1  C1  UNL     1     -32.308   8.785   1.244  1.00 20.00     0.158 C 
HETATM    2  N7  UNL     1     -32.190   8.005   2.111  1.00 20.00    -0.270 NA
HETATM    3  S8  UNL     1     -32.437   9.861   0.076  1.00 20.00    -0.055 SA
ENDROOT
BRANCH   2   4
HETATM    4  C6  UNL     1     -33.276   7.020   2.203  1.00 20.00     0.109 C 
HETATM    5  C4  UNL     1     -32.799   5.723   1.560  1.00 20.00     0.035 C 
BRANCH   4   6
HETATM    6  C5  UNL     1     -33.717   6.848   3.672  1.00 20.00     0.002 C 
HETATM    7  C2  UNL     1     -35.160   6.339   3.756  1.00 20.00     0.011 C 
HETATM    8  C3  UNL     1     -33.566   8.117   4.516  1.00 20.00     0.011 C 
ENDBRANCH   4   6
ENDBRANCH   2   4
TORSDOF 2
ENDMDL
MODEL 2
REMARK VINA RESULT:      -2.1      0.381      1.305
REMARK  2 active torsions:
REMARK  status: ('A' for Active; 'I' for Inactive)
REMARK    1  A    between atoms: C5_5  and  C6_6 
REMARK    2  A    between atoms: C6_6  and  N7_7 
ROOT
HETATM    1  C1  UNL     1     -32.281   8.834   1.177  1.00 20.00     0.158 C 
HETATM    2  N7  UNL     1     -32.175   8.025   2.020  1.00 20.00    -0.270 NA
HETATM    3  S8  UNL     1     -32.391   9.946   0.042  1.00 20.00    -0.055 SA
ENDROOT
BRANCH   2   4
HETATM    4  C6  UNL     1     -33.327   7.122   2.151  1.00 20.00     0.109 C 
HETATM    5  C4  UNL     1     -32.819   5.688   2.080  1.00 20.00     0.035 C 
BRANCH   4   6
HETATM    6  C5  UNL     1     -34.101   7.432   3.450  1.00 20.00     0.002 C 
HETATM    7  C2  UNL     1     -33.149   7.883   4.563  1.00 20.00     0.011 C 
HETATM    8  C3  UNL     1     -34.966   6.269   3.947  1.00 20.00     0.011 C 
ENDBRANCH   4   6
ENDBRANCH   2   4
TORSDOF 2
ENDMDL
MODEL 3
REMARK VINA RESULT:      -1.3      1.819      2.548
REMARK  2 active torsions:
REMARK  status: ('A' for Active; 'I' for Inactive)
REMARK    1  A    between atoms: C5_5  and  C6_6 
REMARK    2  A    between atoms: C6_6  and  N7_7 
ROOT
HETATM    1  C1  UNL     1     -32.564   7.087   1.748  1.00 20.00     0.158 C 
HETATM    2  N7  UNL     1     -33.129   6.106   2.054  1.00 20.00    -0.270 NA
HETATM    3  S8  UNL     1     -31.794   8.407   1.298  1.00 20.00    -0.055 SA
ENDROOT
BRANCH   2   4
HETATM    4  C6  UNL     1     -33.497   6.027   3.475  1.00 20.00     0.109 C 
HETATM    5  C4  UNL     1     -34.192   7.327   3.859  1.00 20.00     0.035 C 
BRANCH   4   6
HETATM    6  C5  UNL     1     -34.357   4.773   3.734  1.00 20.00     0.002 C 
HETATM    7  C2  UNL     1     -35.537   5.097   4.656  1.00 20.00     0.011 C 
HETATM    8  C3  UNL     1     -33.568   3.587   4.300  1.00 20.00     0.011 C 
ENDBRANCH   4   6
ENDBRANCH   2   4
TORSDOF 2
ENDMDL
MODEL 4
REMARK VINA RESULT:      -1.0      3.477      4.100
REMARK  2 active torsions:
REMARK  status: ('A' for Active; 'I' for Inactive)
REMARK    1  A    between atoms: C5_5  and  C6_6 
REMARK    2  A    between atoms: C6_6  and  N7_7 
ROOT
HETATM    1  C1  UNL     1     -33.744   4.123   3.954  1.00 20.00     0.158 C 
HETATM    2  N7  UNL     1     -34.131   5.082   3.399  1.00 20.00    -0.270 NA
HETATM    3  S8  UNL     1     -33.253   2.815   4.717  1.00 20.00    -0.055 SA
ENDROOT
BRANCH   2   4
HETATM    4  C6  UNL     1     -33.087   5.863   2.723  1.00 20.00     0.109 C 
HETATM    5  C4  UNL     1     -32.938   5.330   1.303  1.00 20.00     0.035 C 
BRANCH   4   6
HETATM    6  C5  UNL     1     -33.426   7.367   2.779  1.00 20.00     0.002 C 
HETATM    7  C2  UNL     1     -32.241   8.216   2.303  1.00 20.00     0.011 C 
HETATM    8  C3  UNL     1     -33.885   7.847   4.159  1.00 20.00     0.011 C 
ENDBRANCH   4   6
ENDBRANCH   2   4
TORSDOF 2
ENDMDL
MODEL 5
REMARK VINA RESULT:      -0.9      3.208      4.368
REMARK  2 active torsions:
REMARK  status: ('A' for Active; 'I' for Inactive)
REMARK    1  A    between atoms: C5_5  and  C6_6 
REMARK    2  A    between atoms: C6_6  and  N7_7 
ROOT
HETATM    1  C1  UNL     1     -34.324   4.817   4.043  1.00 20.00     0.158 C 
HETATM    2  N7  UNL     1     -34.969   5.736   3.704  1.00 20.00    -0.270 NA
HETATM    3  S8  UNL     1     -33.478   3.552   4.511  1.00 20.00    -0.055 SA
ENDROOT
BRANCH   2   4
HETATM    4  C6  UNL     1     -34.193   6.909   3.280  1.00 20.00     0.109 C 
HETATM    5  C4  UNL     1     -33.851   7.727   4.519  1.00 20.00     0.035 C 
BRANCH   4   6
HETATM    6  C5  UNL     1     -32.951   6.465   2.478  1.00 20.00     0.002 C 
HETATM    7  C2  UNL     1     -32.091   7.671   2.084  1.00 20.00     0.011 C 
HETATM    8  C3  UNL     1     -33.282   5.636   1.233  1.00 20.00     0.011 C 
ENDBRANCH   4   6
ENDBRANCH   2   4
TORSDOF 2
ENDMDL
MODEL 6
REMARK VINA RESULT:      -0.7      1.174      2.302
REMARK  2 active torsions:
REMARK  status: ('A' for Active; 'I' for Inactive)
REMARK    1  A    between atoms: C5_5  and  C6_6 
REMARK    2  A    between atoms: C6_6  and  N7_7 
ROOT
HETATM    1  C1  UNL     1     -32.046   9.200   0.566  1.00 20.00     0.158 C 
HETATM    2  N7  UNL     1     -31.470   8.208   0.810  1.00 20.00    -0.270 NA
HETATM    3  S8  UNL     1     -32.808  10.551   0.205  1.00 20.00    -0.055 SA
ENDROOT
BRANCH   2   4
HETATM    4  C6  UNL     1     -31.861   7.565   2.072  1.00 20.00     0.109 C 
HETATM    5  C4  UNL     1     -32.107   8.657   3.106  1.00 20.00     0.035 C 
BRANCH   4   6
HETATM    6  C5  UNL     1     -33.082   6.649   1.848  1.00 20.00     0.002 C 
HETATM    7  C2  UNL     1     -33.895   6.492   3.137  1.00 20.00     0.011 C 
HETATM    8  C3  UNL     1     -32.725   5.268   1.290  1.00 20.00     0.011 C 
ENDBRANCH   4   6
ENDBRANCH   2   4
TORSDOF 2
ENDMDL
MODEL 7
REMARK VINA RESULT:      -0.7      2.183      2.900
REMARK  2 active torsions:
REMARK  status: ('A' for Active; 'I' for Inactive)
REMARK    1  A    between atoms: C5_5  and  C6_6 
REMARK    2  A    between atoms: C6_6  and  N7_7 
ROOT
HETATM    1  C1  UNL     1     -32.568   5.382   1.269  1.00 20.00     0.158 C 
HETATM    2  N7  UNL     1     -33.396   6.030   1.790  1.00 20.00    -0.270 NA
HETATM    3  S8  UNL     1     -31.470   4.485   0.544  1.00 20.00    -0.055 SA
ENDROOT
BRANCH   2   4
HETATM    4  C6  UNL     1     -32.891   6.994   2.777  1.00 20.00     0.109 C 
HETATM    5  C4  UNL     1     -32.177   8.112   2.028  1.00 20.00     0.035 C 
BRANCH   4   6
HETATM    6  C5  UNL     1     -34.044   7.495   3.672  1.00 20.00     0.002 C 
HETATM    7  C2  UNL     1     -33.506   8.106   4.970  1.00 20.00     0.011 C 
HETATM    8  C3  UNL     1     -35.086   6.421   3.998  1.00 20.00     0.011 C 
ENDBRANCH   4   6
ENDBRANCH   2   4
TORSDOF 2
ENDMDL
MODEL 8
REMARK VINA RESULT:      -0.5      3.483      4.044
REMARK  2 active torsions:
REMARK  status: ('A' for Active; 'I' for Inactive)
REMARK    1  A    between atoms: C5_5  and  C6_6 
REMARK    2  A    between atoms: C6_6  and  N7_7 
ROOT
HETATM    1  C1  UNL     1     -33.677   4.119   3.938  1.00 20.00     0.158 C 
HETATM    2  N7  UNL     1     -34.002   5.086   3.358  1.00 20.00    -0.270 NA
HETATM    3  S8  UNL     1     -33.270   2.803   4.736  1.00 20.00    -0.055 SA
ENDROOT
BRANCH   2   4
HETATM    4  C6  UNL     1     -32.916   5.762   2.635  1.00 20.00     0.109 C 
HETATM    5  C4  UNL     1     -33.170   5.606   1.140  1.00 20.00     0.035 C 
BRANCH   4   6
HETATM    6  C5  UNL     1     -32.810   7.233   3.087  1.00 20.00     0.002 C 
HETATM    7  C2  UNL     1     -34.119   7.707   3.728  1.00 20.00     0.011 C 
HETATM    8  C3  UNL     1     -32.403   8.197   1.968  1.00 20.00     0.011 C 
ENDBRANCH   4   6
ENDBRANCH   2   4
TORSDOF 2
ENDMDL
MODEL 9
REMARK VINA RESULT:      -0.4      2.264      3.767
REMARK  2 active torsions:
REMARK  status: ('A' for Active; 'I' for Inactive)
REMARK    1  A    between atoms: C5_5  and  C6_6 
REMARK    2  A    between atoms: C6_6  and  N7_7 
ROOT
HETATM    1  C1  UNL     1     -33.584   7.488   3.373  1.00 20.00     0.158 C 
HETATM    2  N7  UNL     1     -32.755   8.245   3.034  1.00 20.00    -0.270 NA
HETATM    3  S8  UNL     1     -34.717   6.480   3.861  1.00 20.00    -0.055 SA
ENDROOT
BRANCH   2   4
HETATM    4  C6  UNL     1     -32.023   7.853   1.822  1.00 20.00     0.109 C 
HETATM    5  C4  UNL     1     -32.362   6.400   1.511  1.00 20.00     0.035 C 
BRANCH   4   6
HETATM    6  C5  UNL     1     -32.351   8.819   0.665  1.00 20.00     0.002 C 
HETATM    7  C2  UNL     1     -31.191   8.895  -0.334  1.00 20.00     0.011 C 
HETATM    8  C3  UNL     1     -32.730  10.230   1.126  1.00 20.00     0.011 C 
ENDBRANCH   4   6
ENDBRANCH   2   4
TORSDOF 2
ENDMDL
