MODEL 1
REMARK VINA RESULT:      -1.5      0.000      0.000
REMARK  1 active torsions:
REMARK  status: ('A' for Active; 'I' for Inactive)
REMARK    1  A    between atoms: C4_4  and  N7_7 
ROOT
HETATM    1  C1  UNL     1     -32.005   9.033   0.880  1.00 20.00     0.163 C 
HETATM    2  N7  UNL     1     -31.536   8.155   1.525  1.00 20.00    -0.231 NA
HETATM    3  S9  UNL     1     -32.624  10.218   0.012  1.00 20.00    -0.055 SA
ENDROOT
BRANCH   2   4
HETATM    4  C4  UNL     1     -32.476   7.295   2.068  1.00 20.00     0.094 A 
HETATM    5  C2  UNL     1     -32.694   5.944   1.737  1.00 20.00     0.171 A 
HETATM    6  N6  UNL     1     -33.682   5.391   2.447  1.00 20.00    -0.183 NA
HETATM    7  N8  UNL     1     -34.091   6.399   3.235  1.00 20.00    -0.283 N 
HETATM    8  C3  UNL     1     -33.402   7.562   3.047  1.00 20.00     0.145 A 
HETATM    9  C5  UNL     1     -35.171   6.186   4.169  1.00 20.00     0.179 C 
ENDBRANCH   2   4
TORSDOF 1
ENDMDL
MODEL 2
REMARK VINA RESULT:      -1.4      0.876      1.537
REMARK  1 active torsions:
REMARK  status: ('A' for Active; 'I' for Inactive)
REMARK    1  A    between atoms: C4_4  and  N7_7 
ROOT
HETATM    1  C1  UNL     1     -32.120   8.757   0.977  1.00 20.00     0.163 C 
HETATM    2  N7  UNL     1     -31.828   7.809   1.627  1.00 20.00    -0.231 NA
HETATM    3  S9  UNL     1     -32.503  10.030   0.098  1.00 20.00    -0.055 SA
ENDROOT
BRANCH   2   4
HETATM    4  C4  UNL     1     -32.784   7.456   2.565  1.00 20.00     0.094 A 
HETATM    5  C2  UNL     1     -33.204   8.200   3.683  1.00 20.00     0.171 A 
HETATM    6  N6  UNL     1     -34.148   7.577   4.394  1.00 20.00    -0.183 NA
HETATM    7  N8  UNL     1     -34.329   6.429   3.718  1.00 20.00    -0.283 N 
HETATM    8  C3  UNL     1     -33.535   6.307   2.615  1.00 20.00     0.145 A 
HETATM    9  C5  UNL     1     -35.297   5.466   4.188  1.00 20.00     0.179 C 
ENDBRANCH   2   4
TORSDOF 1
ENDMDL
MODEL 3
REMARK VINA RESULT:      -1.1      3.332      4.712
REMARK  1 active torsions:
REMARK  status: ('A' for Active; 'I' for Inactive)
REMARK    1  A    between atoms: C4_4  and  N7_7 
ROOT
HETATM    1  C1  UNL     1     -34.075   3.944   4.348  1.00 20.00     0.163 C 
HETATM    2  N7  UNL     1     -34.813   4.827   4.061  1.00 20.00    -0.231 NA
HETATM    3  S9  UNL     1     -33.092   2.751   4.738  1.00 20.00    -0.055 SA
ENDROOT
BRANCH   2   4
HETATM    4  C4  UNL     1     -34.172   5.975   3.625  1.00 20.00     0.094 A 
HETATM    5  C2  UNL     1     -34.290   7.275   4.152  1.00 20.00     0.171 A 
HETATM    6  N6  UNL     1     -33.535   8.166   3.503  1.00 20.00    -0.183 NA
HETATM    7  N8  UNL     1     -32.932   7.423   2.560  1.00 20.00    -0.283 N 
HETATM    8  C3  UNL     1     -33.279   6.104   2.589  1.00 20.00     0.145 A 
HETATM    9  C5  UNL     1     -32.012   8.046   1.637  1.00 20.00     0.179 C 
ENDBRANCH   2   4
TORSDOF 1
ENDMDL
MODEL 4
REMARK VINA RESULT:      -0.5      3.199      4.409
REMARK  1 active torsions:
REMARK  status: ('A' for Active; 'I' for Inactive)
REMARK    1  A    between atoms: C4_4  and  N7_7 
ROOT
HETATM    1  C1  UNL     1     -33.948   4.219   4.196  1.00 20.00     0.163 C 
HETATM    2  N7  UNL     1     -34.435   5.245   3.852  1.00 20.00    -0.231 NA
HETATM    3  S9  UNL     1     -33.303   2.839   4.666  1.00 20.00    -0.055 SA
ENDROOT
BRANCH   2   4
HETATM    4  C4  UNL     1     -33.648   5.973   2.977  1.00 20.00     0.094 A 
HETATM    5  C2  UNL     1     -32.942   5.493   1.858  1.00 20.00     0.171 A 
HETATM    6  N6  UNL     1     -32.274   6.457   1.217  1.00 20.00    -0.183 NA
HETATM    7  N8  UNL     1     -32.561   7.556   1.934  1.00 20.00    -0.283 N 
HETATM    8  C3  UNL     1     -33.380   7.320   3.000  1.00 20.00     0.145 A 
HETATM    9  C5  UNL     1     -32.010   8.832   1.544  1.00 20.00     0.179 C 
ENDBRANCH   2   4
TORSDOF 1
ENDMDL
MODEL 5
REMARK VINA RESULT:      -0.3      2.117      2.862
REMARK  1 active torsions:
REMARK  status: ('A' for Active; 'I' for Inactive)
REMARK    1  A    between atoms: C4_4  and  N7_7 
ROOT
HETATM    1  C1  UNL     1     -33.025   7.764   2.452  1.00 20.00     0.163 C 
HETATM    2  N7  UNL     1     -33.976   7.664   3.153  1.00 20.00    -0.231 NA
HETATM    3  S9  UNL     1     -31.748   7.910   1.508  1.00 20.00    -0.055 SA
ENDROOT
BRANCH   2   4
HETATM    4  C4  UNL     1     -34.189   6.382   3.629  1.00 20.00     0.094 A 
HETATM    5  C2  UNL     1     -35.345   5.882   4.258  1.00 20.00     0.171 A 
HETATM    6  N6  UNL     1     -35.231   4.595   4.601  1.00 20.00    -0.183 NA
HETATM    7  N8  UNL     1     -33.994   4.278   4.184  1.00 20.00    -0.283 N 
HETATM    8  C3  UNL     1     -33.327   5.313   3.596  1.00 20.00     0.145 A 
HETATM    9  C5  UNL     1     -33.493   2.938   4.381  1.00 20.00     0.179 C 
ENDBRANCH   2   4
TORSDOF 1
ENDMDL
MODEL 6
REMARK VINA RESULT:       0.5      2.611      4.075
REMARK  1 active torsions:
REMARK  status: ('A' for Active; 'I' for Inactive)
REMARK    1  A    between atoms: C4_4  and  N7_7 
ROOT
HETATM    1  C1  UNL     1     -34.054   7.102   3.941  1.00 20.00     0.163 C 
HETATM    2  N7  UNL     1     -33.120   7.833   3.939  1.00 20.00    -0.231 NA
HETATM    3  S9  UNL     1     -35.308   6.118   3.956  1.00 20.00    -0.055 SA
ENDROOT
BRANCH   2   4
HETATM    4  C4  UNL     1     -32.685   8.183   2.671  1.00 20.00     0.094 A 
HETATM    5  C2  UNL     1     -31.808   7.464   1.838  1.00 20.00     0.171 A 
HETATM    6  N6  UNL     1     -31.588   8.076   0.670  1.00 20.00    -0.183 NA
HETATM    7  N8  UNL     1     -32.334   9.189   0.764  1.00 20.00    -0.283 N 
HETATM    8  C3  UNL     1     -33.011   9.302   1.943  1.00 20.00     0.145 A 
HETATM    9  C5  UNL     1     -32.360  10.130  -0.331  1.00 20.00     0.179 C 
ENDBRANCH   2   4
TORSDOF 1
ENDMDL
MODEL 7
REMARK VINA RESULT:       1.1      1.069      1.096
REMARK  1 active torsions:
REMARK  status: ('A' for Active; 'I' for Inactive)
REMARK    1  A    between atoms: C4_4  and  N7_7 
ROOT
HETATM    1  C1  UNL     1     -32.488   9.613   1.161  1.00 20.00     0.163 C 
HETATM    2  N7  UNL     1     -32.539   9.171   2.260  1.00 20.00    -0.231 NA
HETATM    3  S9  UNL     1     -32.417  10.219  -0.311  1.00 20.00    -0.055 SA
ENDROOT
BRANCH   2   4
HETATM    4  C4  UNL     1     -32.855   7.823   2.308  1.00 20.00     0.094 A 
HETATM    5  C2  UNL     1     -32.715   6.874   1.278  1.00 20.00     0.171 A 
HETATM    6  N6  UNL     1     -33.112   5.651   1.646  1.00 20.00    -0.183 NA
HETATM    7  N8  UNL     1     -33.504   5.829   2.919  1.00 20.00    -0.283 N 
HETATM    8  C3  UNL     1     -33.371   7.112   3.364  1.00 20.00     0.145 A 
HETATM    9  C5  UNL     1     -34.009   4.708   3.676  1.00 20.00     0.179 C 
ENDBRANCH   2   4
TORSDOF 1
ENDMDL
MODEL 8
REMARK VINA RESULT:       1.2      2.365      3.994
REMARK  1 active torsions:
REMARK  status: ('A' for Active; 'I' for Inactive)
REMARK    1  A    between atoms: C4_4  and  N7_7 
ROOT
HETATM    1  C1  UNL     1     -33.900   6.259   3.151  1.00 20.00     0.163 C 
HETATM    2  N7  UNL     1     -32.912   6.101   2.515  1.00 20.00    -0.231 NA
HETATM    3  S9  UNL     1     -35.228   6.459   4.010  1.00 20.00    -0.055 SA
ENDROOT
BRANCH   2   4
HETATM    4  C4  UNL     1     -32.489   7.237   1.845  1.00 20.00     0.094 A 
HETATM    5  C2  UNL     1     -31.251   7.445   1.208  1.00 20.00     0.171 A 
HETATM    6  N6  UNL     1     -31.155   8.656   0.650  1.00 20.00    -0.183 NA
HETATM    7  N8  UNL     1     -32.342   9.217   0.935  1.00 20.00    -0.283 N 
HETATM    8  C3  UNL     1     -33.177   8.409   1.649  1.00 20.00     0.145 A 
HETATM    9  C5  UNL     1     -32.625  10.560   0.487  1.00 20.00     0.179 C 
ENDBRANCH   2   4
TORSDOF 1
ENDMDL
MODEL 9
REMARK VINA RESULT:       1.3      2.753      4.078
REMARK  1 active torsions:
REMARK  status: ('A' for Active; 'I' for Inactive)
REMARK    1  A    between atoms: C4_4  and  N7_7 
ROOT
HETATM    1  C1  UNL     1     -34.807   6.482   4.141  1.00 20.00     0.163 C 
HETATM    2  N7  UNL     1     -34.227   7.408   3.680  1.00 20.00    -0.231 NA
HETATM    3  S9  UNL     1     -35.593   5.245   4.767  1.00 20.00    -0.055 SA
ENDROOT
BRANCH   2   4
HETATM    4  C4  UNL     1     -33.270   7.059   2.741  1.00 20.00     0.094 A 
HETATM    5  C2  UNL     1     -32.281   7.887   2.177  1.00 20.00     0.171 A 
HETATM    6  N6  UNL     1     -31.509   7.243   1.297  1.00 20.00    -0.183 NA
HETATM    7  N8  UNL     1     -32.014   5.997   1.304  1.00 20.00    -0.283 N 
HETATM    8  C3  UNL     1     -33.070   5.834   2.152  1.00 20.00     0.145 A 
HETATM    9  C5  UNL     1     -31.430   4.982   0.459  1.00 20.00     0.179 C 
ENDBRANCH   2   4
TORSDOF 1
ENDMDL
