MODEL 1
REMARK VINA RESULT:      -0.9      0.000      0.000
REMARK  2 active torsions:
REMARK  status: ('A' for Active; 'I' for Inactive)
REMARK    1  A    between atoms: C5_5  and  C6_6 
REMARK    2  A    between atoms: C5_5  and  N7_7 
ROOT
HETATM    1  C1  UNL     1     -32.371   8.531   1.468  1.00 20.00     0.157 C 
HETATM    2  N7  UNL     1     -32.375   7.724   2.320  1.00 20.00    -0.275 NA
HETATM    3  S8  UNL     1     -32.341   9.642   0.327  1.00 20.00    -0.055 SA
ENDROOT
BRANCH   2   4
HETATM    4  C5  UNL     1     -33.415   6.700   2.191  1.00 20.00     0.158 C 
BRANCH   4   5
HETATM    5  C6  UNL     1     -34.211   6.547   3.504  1.00 20.00    -0.033 C 
HETATM    6  C2  UNL     1     -34.071   5.121   4.064  1.00 20.00     0.016 C 
HETATM    7  C3  UNL     1     -35.697   6.818   3.209  1.00 20.00     0.016 C 
HETATM    8  C4  UNL     1     -33.724   7.558   4.556  1.00 20.00     0.016 C 
ENDBRANCH   4   5
ENDBRANCH   2   4
TORSDOF 2
ENDMDL
MODEL 2
REMARK VINA RESULT:      -0.9      0.064      1.546
REMARK  2 active torsions:
REMARK  status: ('A' for Active; 'I' for Inactive)
REMARK    1  A    between atoms: C5_5  and  C6_6 
REMARK    2  A    between atoms: C5_5  and  N7_7 
ROOT
HETATM    1  C1  UNL     1     -32.344   8.502   1.428  1.00 20.00     0.157 C 
HETATM    2  N7  UNL     1     -32.327   7.671   2.256  1.00 20.00    -0.275 NA
HETATM    3  S8  UNL     1     -32.341   9.643   0.316  1.00 20.00    -0.055 SA
ENDROOT
BRANCH   2   4
HETATM    4  C5  UNL     1     -33.398   6.676   2.151  1.00 20.00     0.158 C 
BRANCH   4   5
HETATM    5  C6  UNL     1     -34.196   6.577   3.467  1.00 20.00    -0.033 C 
HETATM    6  C2  UNL     1     -33.692   7.610   4.490  1.00 20.00     0.016 C 
HETATM    7  C3  UNL     1     -34.001   5.167   4.053  1.00 20.00     0.016 C 
HETATM    8  C4  UNL     1     -35.696   6.802   3.212  1.00 20.00     0.016 C 
ENDBRANCH   4   5
ENDBRANCH   2   4
TORSDOF 2
ENDMDL
MODEL 3
REMARK VINA RESULT:      -0.1      1.585      2.397
REMARK  2 active torsions:
REMARK  status: ('A' for Active; 'I' for Inactive)
REMARK    1  A    between atoms: C5_5  and  C6_6 
REMARK    2  A    between atoms: C5_5  and  N7_7 
ROOT
HETATM    1  C1  UNL     1     -32.105   8.985   0.858  1.00 20.00     0.157 C 
HETATM    2  N7  UNL     1     -31.755   8.068   1.501  1.00 20.00    -0.275 NA
HETATM    3  S8  UNL     1     -32.550  10.234  -0.024  1.00 20.00    -0.055 SA
ENDROOT
BRANCH   2   4
HETATM    4  C5  UNL     1     -32.820   7.409   2.263  1.00 20.00     0.158 C 
BRANCH   4   5
HETATM    5  C6  UNL     1     -32.969   5.931   1.847  1.00 20.00    -0.033 C 
HETATM    6  C2  UNL     1     -33.848   5.805   0.590  1.00 20.00     0.016 C 
HETATM    7  C3  UNL     1     -33.643   5.165   2.999  1.00 20.00     0.016 C 
HETATM    8  C4  UNL     1     -31.593   5.301   1.572  1.00 20.00     0.016 C 
ENDBRANCH   4   5
ENDBRANCH   2   4
TORSDOF 2
ENDMDL
MODEL 4
REMARK VINA RESULT:      -0.1      1.591      2.222
REMARK  2 active torsions:
REMARK  status: ('A' for Active; 'I' for Inactive)
REMARK    1  A    between atoms: C5_5  and  C6_6 
REMARK    2  A    between atoms: C5_5  and  N7_7 
ROOT
HETATM    1  C1  UNL     1     -32.114   8.990   0.863  1.00 20.00     0.157 C 
HETATM    2  N7  UNL     1     -31.770   8.067   1.501  1.00 20.00    -0.275 NA
HETATM    3  S8  UNL     1     -32.550  10.247  -0.013  1.00 20.00    -0.055 SA
ENDROOT
BRANCH   2   4
HETATM    4  C5  UNL     1     -32.838   7.416   2.266  1.00 20.00     0.158 C 
BRANCH   4   5
HETATM    5  C6  UNL     1     -32.967   5.927   1.883  1.00 20.00    -0.033 C 
HETATM    6  C2  UNL     1     -31.587   5.322   1.572  1.00 20.00     0.016 C 
HETATM    7  C3  UNL     1     -33.847   5.821   0.625  1.00 20.00     0.016 C 
HETATM    8  C4  UNL     1     -33.630   5.129   3.019  1.00 20.00     0.016 C 
ENDBRANCH   4   5
ENDBRANCH   2   4
TORSDOF 2
ENDMDL
MODEL 5
REMARK VINA RESULT:      -0.1      1.588      2.482
REMARK  2 active torsions:
REMARK  status: ('A' for Active; 'I' for Inactive)
REMARK    1  A    between atoms: C5_5  and  C6_6 
REMARK    2  A    between atoms: C5_5  and  N7_7 
ROOT
HETATM    1  C1  UNL     1     -32.115   8.980   0.869  1.00 20.00     0.157 C 
HETATM    2  N7  UNL     1     -31.773   8.060   1.512  1.00 20.00    -0.275 NA
HETATM    3  S8  UNL     1     -32.548  10.233  -0.014  1.00 20.00    -0.055 SA
ENDROOT
BRANCH   2   4
HETATM    4  C5  UNL     1     -32.844   7.411   2.275  1.00 20.00     0.158 C 
BRANCH   4   5
HETATM    5  C6  UNL     1     -32.990   5.928   1.877  1.00 20.00    -0.033 C 
HETATM    6  C2  UNL     1     -33.635   5.119   3.015  1.00 20.00     0.016 C 
HETATM    7  C3  UNL     1     -31.588   5.357   1.598  1.00 20.00     0.016 C 
HETATM    8  C4  UNL     1     -33.842   5.788   0.604  1.00 20.00     0.016 C 
ENDBRANCH   4   5
ENDBRANCH   2   4
TORSDOF 2
ENDMDL
MODEL 6
REMARK VINA RESULT:       0.3      2.640      3.997
REMARK  2 active torsions:
REMARK  status: ('A' for Active; 'I' for Inactive)
REMARK    1  A    between atoms: C5_5  and  C6_6 
REMARK    2  A    between atoms: C5_5  and  N7_7 
ROOT
HETATM    1  C1  UNL     1     -34.363   6.724   3.998  1.00 20.00     0.157 C 
HETATM    2  N7  UNL     1     -33.632   7.623   3.815  1.00 20.00    -0.275 NA
HETATM    3  S8  UNL     1     -35.346   5.502   4.276  1.00 20.00    -0.055 SA
ENDROOT
BRANCH   2   4
HETATM    4  C5  UNL     1     -33.628   8.144   2.445  1.00 20.00     0.158 C 
BRANCH   4   5
HETATM    5  C6  UNL     1     -32.226   8.029   1.811  1.00 20.00    -0.033 C 
HETATM    6  C2  UNL     1     -31.950   6.586   1.354  1.00 20.00     0.016 C 
HETATM    7  C3  UNL     1     -31.178   8.420   2.869  1.00 20.00     0.016 C 
HETATM    8  C4  UNL     1     -32.093   8.980   0.609  1.00 20.00     0.016 C 
ENDBRANCH   4   5
ENDBRANCH   2   4
TORSDOF 2
ENDMDL
MODEL 7
REMARK VINA RESULT:       0.3      2.648      4.018
REMARK  2 active torsions:
REMARK  status: ('A' for Active; 'I' for Inactive)
REMARK    1  A    between atoms: C5_5  and  C6_6 
REMARK    2  A    between atoms: C5_5  and  N7_7 
ROOT
HETATM    1  C1  UNL     1     -34.375   6.700   3.996  1.00 20.00     0.157 C 
HETATM    2  N7  UNL     1     -33.662   7.610   3.800  1.00 20.00    -0.275 NA
HETATM    3  S8  UNL     1     -35.334   5.463   4.293  1.00 20.00    -0.055 SA
ENDROOT
BRANCH   2   4
HETATM    4  C5  UNL     1     -33.646   8.092   2.416  1.00 20.00     0.158 C 
BRANCH   4   5
HETATM    5  C6  UNL     1     -32.222   8.040   1.825  1.00 20.00    -0.033 C 
HETATM    6  C2  UNL     1     -32.096   8.987   0.619  1.00 20.00     0.016 C 
HETATM    7  C3  UNL     1     -31.941   6.602   1.354  1.00 20.00     0.016 C 
HETATM    8  C4  UNL     1     -31.178   8.425   2.887  1.00 20.00     0.016 C 
ENDBRANCH   4   5
ENDBRANCH   2   4
TORSDOF 2
ENDMDL
MODEL 8
REMARK VINA RESULT:       0.3      2.646      4.027
REMARK  2 active torsions:
REMARK  status: ('A' for Active; 'I' for Inactive)
REMARK    1  A    between atoms: C5_5  and  C6_6 
REMARK    2  A    between atoms: C5_5  and  N7_7 
ROOT
HETATM    1  C1  UNL     1     -34.379   6.704   3.982  1.00 20.00     0.157 C 
HETATM    2  N7  UNL     1     -33.678   7.625   3.794  1.00 20.00    -0.275 NA
HETATM    3  S8  UNL     1     -35.323   5.454   4.269  1.00 20.00    -0.055 SA
ENDROOT
BRANCH   2   4
HETATM    4  C5  UNL     1     -33.637   8.094   2.405  1.00 20.00     0.158 C 
BRANCH   4   5
HETATM    5  C6  UNL     1     -32.212   7.987   1.824  1.00 20.00    -0.033 C 
HETATM    6  C2  UNL     1     -31.163   8.387   2.876  1.00 20.00     0.016 C 
HETATM    7  C3  UNL     1     -32.100   8.948   0.626  1.00 20.00     0.016 C 
HETATM    8  C4  UNL     1     -31.928   6.556   1.337  1.00 20.00     0.016 C 
ENDBRANCH   4   5
ENDBRANCH   2   4
TORSDOF 2
ENDMDL
MODEL 9
REMARK VINA RESULT:       0.5      3.294      4.349
REMARK  2 active torsions:
REMARK  status: ('A' for Active; 'I' for Inactive)
REMARK    1  A    between atoms: C5_5  and  C6_6 
REMARK    2  A    between atoms: C5_5  and  N7_7 
ROOT
HETATM    1  C1  UNL     1     -33.851   4.281   3.940  1.00 20.00     0.157 C 
HETATM    2  N7  UNL     1     -34.301   5.212   3.386  1.00 20.00    -0.275 NA
HETATM    3  S8  UNL     1     -33.268   3.002   4.690  1.00 20.00    -0.055 SA
ENDROOT
BRANCH   2   4
HETATM    4  C5  UNL     1     -33.387   6.350   3.253  1.00 20.00     0.158 C 
BRANCH   4   5
HETATM    5  C6  UNL     1     -32.781   6.414   1.836  1.00 20.00    -0.033 C 
HETATM    6  C2  UNL     1     -31.708   5.326   1.652  1.00 20.00     0.016 C 
HETATM    7  C3  UNL     1     -32.122   7.793   1.649  1.00 20.00     0.016 C 
HETATM    8  C4  UNL     1     -33.874   6.239   0.768  1.00 20.00     0.016 C 
ENDBRANCH   4   5
ENDBRANCH   2   4
TORSDOF 2
ENDMDL
