MODEL 1
REMARK VINA RESULT:      -2.2      0.000      0.000
REMARK  0 active torsions:
REMARK  status: ('A' for Active; 'I' for Inactive)
ROOT
HETATM    1  C1  UNL     1     -32.238   8.983   0.945  1.00 20.00     0.071 C 
HETATM    2  C2  UNL     1     -34.175   6.206   2.815  1.00 20.00    -0.000 C 
HETATM    3  C3  UNL     1     -34.176   7.160   3.753  1.00 20.00    -0.000 C 
HETATM    4  C4  UNL     1     -33.108   5.854   1.915  1.00 20.00    -0.002 C 
HETATM    5  C5  UNL     1     -33.110   8.068   4.090  1.00 20.00    -0.002 C 
HETATM    6  C6  UNL     1     -32.090   6.625   1.511  1.00 20.00    -0.004 C 
HETATM    7  C7  UNL     1     -32.093   8.461   3.312  1.00 20.00    -0.004 C 
HETATM    8  C8  UNL     1     -31.714   8.020   1.926  1.00 20.00     0.138 C 
HETATM    9  N9  UNL     1     -32.652   9.741   0.170  1.00 20.00    -0.196 NA
ENDROOT
TORSDOF 0
ENDMDL
MODEL 2
REMARK VINA RESULT:      -1.6      2.821      3.925
REMARK  0 active torsions:
REMARK  status: ('A' for Active; 'I' for Inactive)
ROOT
HETATM    1  C1  UNL     1     -33.749   4.187   4.020  1.00 20.00     0.071 C 
HETATM    2  C2  UNL     1     -32.333   7.530   2.687  1.00 20.00    -0.000 C 
HETATM    3  C3  UNL     1     -33.062   7.981   3.714  1.00 20.00    -0.000 C 
HETATM    4  C4  UNL     1     -32.663   6.474   1.767  1.00 20.00    -0.002 C 
HETATM    5  C5  UNL     1     -34.354   7.519   4.150  1.00 20.00    -0.002 C 
HETATM    6  C6  UNL     1     -33.508   5.453   1.961  1.00 20.00    -0.004 C 
HETATM    7  C7  UNL     1     -34.909   6.319   3.937  1.00 20.00    -0.004 C 
HETATM    8  C8  UNL     1     -34.406   5.155   3.129  1.00 20.00     0.138 C 
HETATM    9  N9  UNL     1     -33.229   3.423   4.722  1.00 20.00    -0.196 NA
ENDROOT
TORSDOF 0
ENDMDL
MODEL 3
REMARK VINA RESULT:      -0.5      2.359      3.558
REMARK  0 active torsions:
REMARK  status: ('A' for Active; 'I' for Inactive)
ROOT
HETATM    1  C1  UNL     1     -33.557   7.926   4.482  1.00 20.00     0.071 C 
HETATM    2  C2  UNL     1     -34.020   4.105   4.094  1.00 20.00    -0.000 C 
HETATM    3  C3  UNL     1     -33.079   4.319   3.168  1.00 20.00    -0.000 C 
HETATM    4  C4  UNL     1     -35.152   4.935   4.410  1.00 20.00    -0.002 C 
HETATM    5  C5  UNL     1     -32.968   5.433   2.262  1.00 20.00    -0.002 C 
HETATM    6  C6  UNL     1     -35.291   6.250   4.189  1.00 20.00    -0.004 C 
HETATM    7  C7  UNL     1     -33.480   6.662   2.409  1.00 20.00    -0.004 C 
HETATM    8  C8  UNL     1     -34.372   7.211   3.488  1.00 20.00     0.138 C 
HETATM    9  N9  UNL     1     -32.915   8.489   5.268  1.00 20.00    -0.196 NA
ENDROOT
TORSDOF 0
ENDMDL
MODEL 4
REMARK VINA RESULT:      -0.0      2.051      3.734
REMARK  0 active torsions:
REMARK  status: ('A' for Active; 'I' for Inactive)
ROOT
HETATM    1  C1  UNL     1     -35.529   6.606   3.368  1.00 20.00     0.071 C 
HETATM    2  C2  UNL     1     -32.252   7.986   1.847  1.00 20.00    -0.000 C 
HETATM    3  C3  UNL     1     -32.293   6.786   1.258  1.00 20.00    -0.000 C 
HETATM    4  C4  UNL     1     -32.608   8.317   3.202  1.00 20.00    -0.002 C 
HETATM    5  C5  UNL     1     -32.704   5.532   1.835  1.00 20.00    -0.002 C 
HETATM    6  C6  UNL     1     -33.434   7.648   4.018  1.00 20.00    -0.004 C 
HETATM    7  C7  UNL     1     -33.514   5.341   2.884  1.00 20.00    -0.004 C 
HETATM    8  C8  UNL     1     -34.150   6.344   3.806  1.00 20.00     0.138 C 
HETATM    9  N9  UNL     1     -36.618   6.814   3.023  1.00 20.00    -0.196 NA
ENDROOT
TORSDOF 0
ENDMDL
MODEL 5
REMARK VINA RESULT:       0.0      2.218      2.821
REMARK  0 active torsions:
REMARK  status: ('A' for Active; 'I' for Inactive)
ROOT
HETATM    1  C1  UNL     1     -33.183   5.418   1.157  1.00 20.00     0.071 C 
HETATM    2  C2  UNL     1     -35.310   5.237   4.382  1.00 20.00    -0.000 C 
HETATM    3  C3  UNL     1     -35.317   6.558   4.174  1.00 20.00    -0.000 C 
HETATM    4  C4  UNL     1     -34.218   4.319   4.192  1.00 20.00    -0.002 C 
HETATM    5  C5  UNL     1     -34.234   7.385   3.709  1.00 20.00    -0.002 C 
HETATM    6  C6  UNL     1     -33.153   4.468   3.393  1.00 20.00    -0.004 C 
HETATM    7  C7  UNL     1     -33.167   7.009   2.991  1.00 20.00    -0.004 C 
HETATM    8  C8  UNL     1     -32.743   5.638   2.543  1.00 20.00     0.138 C 
HETATM    9  N9  UNL     1     -33.531   5.242   0.064  1.00 20.00    -0.196 NA
ENDROOT
TORSDOF 0
ENDMDL
MODEL 6
REMARK VINA RESULT:       0.7      1.965      3.001
REMARK  0 active torsions:
REMARK  status: ('A' for Active; 'I' for Inactive)
ROOT
HETATM    1  C1  UNL     1     -32.117   5.537   1.610  1.00 20.00     0.071 C 
HETATM    2  C2  UNL     1     -32.662   8.259   4.304  1.00 20.00    -0.000 C 
HETATM    3  C3  UNL     1     -33.686   7.446   4.585  1.00 20.00    -0.000 C 
HETATM    4  C4  UNL     1     -32.156   8.625   3.007  1.00 20.00    -0.002 C 
HETATM    5  C5  UNL     1     -34.533   6.740   3.660  1.00 20.00    -0.002 C 
HETATM    6  C6  UNL     1     -32.282   7.948   1.858  1.00 20.00    -0.004 C 
HETATM    7  C7  UNL     1     -34.252   6.385   2.399  1.00 20.00    -0.004 C 
HETATM    8  C8  UNL     1     -33.038   6.683   1.563  1.00 20.00     0.138 C 
HETATM    9  N9  UNL     1     -31.389   4.634   1.647  1.00 20.00    -0.196 NA
ENDROOT
TORSDOF 0
ENDMDL
