MODEL 1
REMARK VINA RESULT:       0.9      0.000      0.000
REMARK  1 active torsions:
REMARK  status: ('A' for Active; 'I' for Inactive)
REMARK    1  A    between atoms: C7_7  and  O8_8 
ROOT
HETATM    1  C1  UNL     1     -33.511   5.068   3.345  1.00 20.00    -0.025 C 
HETATM    2  C2  UNL     1     -34.403   5.418   4.282  1.00 20.00    -0.023 C 
HETATM    3  C3  UNL     1     -34.990   6.546   2.351  1.00 20.00     0.019 C 
HETATM    4  C4  UNL     1     -32.845   7.408   2.951  1.00 20.00     0.041 C 
HETATM    5  C5  UNL     1     -33.503   6.165   2.307  1.00 20.00     0.011 C 
HETATM    6  C6  UNL     1     -34.990   6.749   3.870  1.00 20.00     0.037 C 
HETATM    7  C7  UNL     1     -33.905   7.842   4.000  1.00 20.00     0.126 C 
ENDROOT
BRANCH   7   8
HETATM    8  O8  UNL     1     -33.358   7.916   5.303  1.00 20.00    -0.395 OA
HETATM    9  H18 UNL     1     -33.550   8.805   5.646  1.00 20.00     0.210 HD
ENDBRANCH   7   8
TORSDOF 1
ENDMDL
MODEL 2
REMARK VINA RESULT:       0.9      1.708      2.461
REMARK  1 active torsions:
REMARK  status: ('A' for Active; 'I' for Inactive)
REMARK    1  A    between atoms: C7_7  and  O8_8 
ROOT
HETATM    1  C1  UNL     1     -31.524   6.413   1.808  1.00 20.00    -0.025 C 
HETATM    2  C2  UNL     1     -32.695   5.877   1.436  1.00 20.00    -0.023 C 
HETATM    3  C3  UNL     1     -32.902   8.167   1.188  1.00 20.00     0.019 C 
HETATM    4  C4  UNL     1     -32.590   7.818   3.530  1.00 20.00     0.041 C 
HETATM    5  C5  UNL     1     -31.796   7.845   2.203  1.00 20.00     0.011 C 
HETATM    6  C6  UNL     1     -33.748   6.953   1.584  1.00 20.00     0.037 C 
HETATM    7  C7  UNL     1     -33.964   7.246   3.085  1.00 20.00     0.126 C 
ENDROOT
BRANCH   7   8
HETATM    8  O8  UNL     1     -34.317   6.091   3.822  1.00 20.00    -0.395 OA
HETATM    9  H18 UNL     1     -34.214   6.308   4.765  1.00 20.00     0.210 HD
ENDBRANCH   7   8
TORSDOF 1
ENDMDL
MODEL 3
REMARK VINA RESULT:       1.0      1.510      2.741
REMARK  1 active torsions:
REMARK  status: ('A' for Active; 'I' for Inactive)
REMARK    1  A    between atoms: C7_7  and  O8_8 
ROOT
HETATM    1  C1  UNL     1     -34.046   7.454   4.450  1.00 20.00    -0.025 C 
HETATM    2  C2  UNL     1     -33.093   7.000   3.624  1.00 20.00    -0.023 C 
HETATM    3  C3  UNL     1     -35.115   6.671   2.551  1.00 20.00     0.019 C 
HETATM    4  C4  UNL     1     -35.201   5.277   4.487  1.00 20.00     0.041 C 
HETATM    5  C5  UNL     1     -35.332   6.760   4.067  1.00 20.00     0.011 C 
HETATM    6  C6  UNL     1     -33.743   6.003   2.691  1.00 20.00     0.037 C 
HETATM    7  C7  UNL     1     -34.134   4.741   3.493  1.00 20.00     0.126 C 
ENDROOT
BRANCH   7   8
HETATM    8  O8  UNL     1     -33.034   4.159   4.166  1.00 20.00    -0.395 OA
HETATM    9  H18 UNL     1     -32.968   3.236   3.865  1.00 20.00     0.210 HD
ENDBRANCH   7   8
TORSDOF 1
ENDMDL
MODEL 4
REMARK VINA RESULT:       1.0      1.672      2.664
REMARK  1 active torsions:
REMARK  status: ('A' for Active; 'I' for Inactive)
REMARK    1  A    between atoms: C7_7  and  O8_8 
ROOT
HETATM    1  C1  UNL     1     -33.628   7.298   4.555  1.00 20.00    -0.025 C 
HETATM    2  C2  UNL     1     -33.318   7.865   3.381  1.00 20.00    -0.023 C 
HETATM    3  C3  UNL     1     -35.373   6.842   3.103  1.00 20.00     0.019 C 
HETATM    4  C4  UNL     1     -33.842   5.062   3.540  1.00 20.00     0.041 C 
HETATM    5  C5  UNL     1     -34.613   6.190   4.266  1.00 20.00     0.011 C 
HETATM    6  C6  UNL     1     -34.096   7.135   2.309  1.00 20.00     0.037 C 
HETATM    7  C7  UNL     1     -33.531   5.704   2.161  1.00 20.00     0.126 C 
ENDROOT
BRANCH   7   8
HETATM    8  O8  UNL     1     -32.145   5.691   1.875  1.00 20.00    -0.395 OA
HETATM    9  H18 UNL     1     -31.821   6.602   1.978  1.00 20.00     0.210 HD
ENDBRANCH   7   8
TORSDOF 1
ENDMDL
MODEL 5
REMARK VINA RESULT:       1.3      1.638      2.135
REMARK  1 active torsions:
REMARK  status: ('A' for Active; 'I' for Inactive)
REMARK    1  A    between atoms: C7_7  and  O8_8 
ROOT
HETATM    1  C1  UNL     1     -33.495   5.734   3.206  1.00 20.00    -0.025 C 
HETATM    2  C2  UNL     1     -33.820   7.022   3.384  1.00 20.00    -0.023 C 
HETATM    3  C3  UNL     1     -33.907   6.621   1.108  1.00 20.00     0.019 C 
HETATM    4  C4  UNL     1     -31.619   6.301   1.711  1.00 20.00     0.041 C 
HETATM    5  C5  UNL     1     -32.992   5.594   1.789  1.00 20.00     0.011 C 
HETATM    6  C6  UNL     1     -33.533   7.741   2.084  1.00 20.00     0.037 C 
HETATM    7  C7  UNL     1     -32.005   7.798   1.864  1.00 20.00     0.126 C 
ENDROOT
BRANCH   7   8
HETATM    8  O8  UNL     1     -31.320   8.410   2.940  1.00 20.00    -0.395 OA
HETATM    9  H18 UNL     1     -31.887   8.328   3.726  1.00 20.00     0.210 HD
ENDBRANCH   7   8
TORSDOF 1
ENDMDL
MODEL 6
REMARK VINA RESULT:       1.3      1.808      3.270
REMARK  1 active torsions:
REMARK  status: ('A' for Active; 'I' for Inactive)
REMARK    1  A    between atoms: C7_7  and  O8_8 
ROOT
HETATM    1  C1  UNL     1     -32.632   8.497   0.657  1.00 20.00    -0.025 C 
HETATM    2  C2  UNL     1     -32.697   9.234   1.775  1.00 20.00    -0.023 C 
HETATM    3  C3  UNL     1     -31.027   7.670   2.106  1.00 20.00     0.019 C 
HETATM    4  C4  UNL     1     -33.037   6.400   1.887  1.00 20.00     0.041 C 
HETATM    5  C5  UNL     1     -32.007   7.175   1.033  1.00 20.00     0.011 C 
HETATM    6  C6  UNL     1     -32.116   8.403   2.896  1.00 20.00     0.037 C 
HETATM    7  C7  UNL     1     -33.070   7.227   3.202  1.00 20.00     0.126 C 
ENDROOT
BRANCH   7   8
HETATM    8  O8  UNL     1     -34.381   7.656   3.521  1.00 20.00    -0.395 OA
HETATM    9  H18 UNL     1     -34.598   7.292   4.396  1.00 20.00     0.210 HD
ENDBRANCH   7   8
TORSDOF 1
ENDMDL
MODEL 7
REMARK VINA RESULT:       1.4      1.834      2.569
REMARK  1 active torsions:
REMARK  status: ('A' for Active; 'I' for Inactive)
REMARK    1  A    between atoms: C7_7  and  O8_8 
ROOT
HETATM    1  C1  UNL     1     -35.358   6.850   3.632  1.00 20.00    -0.025 C 
HETATM    2  C2  UNL     1     -34.744   5.660   3.706  1.00 20.00    -0.023 C 
HETATM    3  C3  UNL     1     -33.273   7.223   4.566  1.00 20.00     0.019 C 
HETATM    4  C4  UNL     1     -33.547   7.820   2.270  1.00 20.00     0.041 C 
HETATM    5  C5  UNL     1     -34.279   7.906   3.630  1.00 20.00     0.011 C 
HETATM    6  C6  UNL     1     -33.256   5.924   3.753  1.00 20.00     0.037 C 
HETATM    7  C7  UNL     1     -32.795   6.465   2.381  1.00 20.00     0.126 C 
ENDROOT
BRANCH   7   8
HETATM    8  O8  UNL     1     -33.118   5.594   1.314  1.00 20.00    -0.395 OA
HETATM    9  H18 UNL     1     -33.315   4.725   1.702  1.00 20.00     0.210 HD
ENDBRANCH   7   8
TORSDOF 1
ENDMDL
MODEL 8
REMARK VINA RESULT:       1.6      2.897      3.987
REMARK  1 active torsions:
REMARK  status: ('A' for Active; 'I' for Inactive)
REMARK    1  A    between atoms: C7_7  and  O8_8 
ROOT
HETATM    1  C1  UNL     1     -33.111   7.007   2.089  1.00 20.00    -0.025 C 
HETATM    2  C2  UNL     1     -32.287   6.836   1.044  1.00 20.00    -0.023 C 
HETATM    3  C3  UNL     1     -31.207   8.252   2.520  1.00 20.00     0.019 C 
HETATM    4  C4  UNL     1     -33.140   9.455   1.803  1.00 20.00     0.041 C 
HETATM    5  C5  UNL     1     -32.723   8.308   2.752  1.00 20.00     0.011 C 
HETATM    6  C6  UNL     1     -31.351   8.024   1.011  1.00 20.00     0.037 C 
HETATM    7  C7  UNL     1     -32.149   9.287   0.618  1.00 20.00     0.126 C 
ENDROOT
BRANCH   7   8
HETATM    8  O8  UNL     1     -32.825   9.144  -0.617  1.00 20.00    -0.395 OA
HETATM    9  H18 UNL     1     -32.975  10.038  -0.968  1.00 20.00     0.210 HD
ENDBRANCH   7   8
TORSDOF 1
ENDMDL
MODEL 9
REMARK VINA RESULT:       1.6      1.701      2.458
REMARK  1 active torsions:
REMARK  status: ('A' for Active; 'I' for Inactive)
REMARK    1  A    between atoms: C7_7  and  O8_8 
ROOT
HETATM    1  C1  UNL     1     -35.435   6.844   2.753  1.00 20.00    -0.025 C 
HETATM    2  C2  UNL     1     -35.551   6.369   4.001  1.00 20.00    -0.023 C 
HETATM    3  C3  UNL     1     -33.496   7.423   3.876  1.00 20.00     0.019 C 
HETATM    4  C4  UNL     1     -33.351   5.590   2.353  1.00 20.00     0.041 C 
HETATM    5  C5  UNL     1     -33.960   7.007   2.474  1.00 20.00     0.011 C 
HETATM    6  C6  UNL     1     -34.151   6.215   4.554  1.00 20.00     0.037 C 
HETATM    7  C7  UNL     1     -33.438   5.064   3.812  1.00 20.00     0.126 C 
ENDROOT
BRANCH   7   8
HETATM    8  O8  UNL     1     -34.147   3.842   3.889  1.00 20.00    -0.395 OA
HETATM    9  H18 UNL     1     -33.831   3.375   4.681  1.00 20.00     0.210 HD
ENDBRANCH   7   8
TORSDOF 1
ENDMDL
