MODEL 1
REMARK VINA RESULT:      -0.5      0.000      0.000
REMARK  4 active torsions:
REMARK  status: ('A' for Active; 'I' for Inactive)
REMARK    1  A    between atoms: C1_1  and  C6_6 
REMARK    2  A    between atoms: C6_6  and  C8_8 
REMARK    3  A    between atoms: C7_7  and  C8_8 
REMARK    4  A    between atoms: C7_7  and  C9_9 
ROOT
HETATM    1  C2  UNL     1     -33.160   4.976   0.568  1.00 20.00     0.010 C 
HETATM    2  C8  UNL     1     -33.164   6.162   1.542  1.00 20.00    -0.010 C 
ENDROOT
BRANCH   2   3
HETATM    3  C6  UNL     1     -31.795   6.867   1.444  1.00 20.00     0.100 C 
BRANCH   3   4
HETATM    4  C1  UNL     1     -31.829   8.323   1.883  1.00 20.00     0.219 C 
HETATM    5  O10 UNL     1     -31.531   8.686   3.016  1.00 20.00    -0.280 OA
HETATM    6 CL11 UNL     1     -32.387   9.367   0.605  1.00 20.00    -0.044 Cl
ENDBRANCH   3   4
ENDBRANCH   2   3
BRANCH   2   7
HETATM    7  C7  UNL     1     -33.433   5.692   2.996  1.00 20.00     0.013 C 
BRANCH   7   8
HETATM    8  C9  UNL     1     -34.614   6.366   3.755  1.00 20.00    -0.051 C 
HETATM    9  C3  UNL     1     -35.280   5.294   4.643  1.00 20.00     0.014 C 
HETATM   10  C4  UNL     1     -35.679   6.932   2.805  1.00 20.00     0.014 C 
HETATM   11  C5  UNL     1     -34.105   7.495   4.669  1.00 20.00     0.014 C 
ENDBRANCH   7   8
ENDBRANCH   2   7
TORSDOF 4
ENDMDL
MODEL 2
REMARK VINA RESULT:      -0.4      0.060      1.311
REMARK  4 active torsions:
REMARK  status: ('A' for Active; 'I' for Inactive)
REMARK    1  A    between atoms: C1_1  and  C6_6 
REMARK    2  A    between atoms: C6_6  and  C8_8 
REMARK    3  A    between atoms: C7_7  and  C8_8 
REMARK    4  A    between atoms: C7_7  and  C9_9 
ROOT
HETATM    1  C2  UNL     1     -33.118   4.939   0.581  1.00 20.00     0.010 C 
HETATM    2  C8  UNL     1     -33.135   6.135   1.543  1.00 20.00    -0.010 C 
ENDROOT
BRANCH   2   3
HETATM    3  C6  UNL     1     -31.776   6.857   1.434  1.00 20.00     0.100 C 
BRANCH   3   4
HETATM    4  C1  UNL     1     -31.822   8.309   1.883  1.00 20.00     0.219 C 
HETATM    5  O10 UNL     1     -31.519   8.668   3.016  1.00 20.00    -0.280 OA
HETATM    6 CL11 UNL     1     -32.403   9.356   0.618  1.00 20.00    -0.044 Cl
ENDBRANCH   3   4
ENDBRANCH   2   3
BRANCH   2   7
HETATM    7  C7  UNL     1     -33.394   5.676   3.002  1.00 20.00     0.013 C 
BRANCH   7   8
HETATM    8  C9  UNL     1     -34.569   6.356   3.765  1.00 20.00    -0.051 C 
HETATM    9  C3  UNL     1     -35.550   6.922   2.717  1.00 20.00     0.014 C 
HETATM   10  C4  UNL     1     -34.101   7.511   4.660  1.00 20.00     0.014 C 
HETATM   11  C5  UNL     1     -35.329   5.331   4.625  1.00 20.00     0.014 C 
ENDBRANCH   7   8
ENDBRANCH   2   7
TORSDOF 4
ENDMDL
MODEL 3
REMARK VINA RESULT:      -0.4      0.053      1.301
REMARK  4 active torsions:
REMARK  status: ('A' for Active; 'I' for Inactive)
REMARK    1  A    between atoms: C1_1  and  C6_6 
REMARK    2  A    between atoms: C6_6  and  C8_8 
REMARK    3  A    between atoms: C7_7  and  C8_8 
REMARK    4  A    between atoms: C7_7  and  C9_9 
ROOT
HETATM    1  C2  UNL     1     -33.126   4.937   0.600  1.00 20.00     0.010 C 
HETATM    2  C8  UNL     1     -33.139   6.153   1.537  1.00 20.00    -0.010 C 
ENDROOT
BRANCH   2   3
HETATM    3  C6  UNL     1     -31.788   6.883   1.392  1.00 20.00     0.100 C 
BRANCH   3   4
HETATM    4  C1  UNL     1     -31.825   8.329   1.864  1.00 20.00     0.219 C 
HETATM    5  O10 UNL     1     -31.506   8.669   2.998  1.00 20.00    -0.280 OA
HETATM    6 CL11 UNL     1     -32.421   9.396   0.622  1.00 20.00    -0.044 Cl
ENDBRANCH   3   4
ENDBRANCH   2   3
BRANCH   2   7
HETATM    7  C7  UNL     1     -33.372   5.723   3.009  1.00 20.00     0.013 C 
BRANCH   7   8
HETATM    8  C9  UNL     1     -34.602   6.334   3.743  1.00 20.00    -0.051 C 
HETATM    9  C3  UNL     1     -34.096   7.484   4.640  1.00 20.00     0.014 C 
HETATM   10  C4  UNL     1     -35.325   5.313   4.633  1.00 20.00     0.014 C 
HETATM   11  C5  UNL     1     -35.606   6.921   2.735  1.00 20.00     0.014 C 
ENDBRANCH   7   8
ENDBRANCH   2   7
TORSDOF 4
ENDMDL
MODEL 4
REMARK VINA RESULT:      -0.3      1.145      1.183
REMARK  4 active torsions:
REMARK  status: ('A' for Active; 'I' for Inactive)
REMARK    1  A    between atoms: C1_1  and  C6_6 
REMARK    2  A    between atoms: C6_6  and  C8_8 
REMARK    3  A    between atoms: C7_7  and  C8_8 
REMARK    4  A    between atoms: C7_7  and  C9_9 
ROOT
HETATM    1  C2  UNL     1     -32.063   5.639   0.875  1.00 20.00     0.010 C 
HETATM    2  C8  UNL     1     -32.917   6.588   1.727  1.00 20.00    -0.010 C 
ENDROOT
BRANCH   2   3
HETATM    3  C6  UNL     1     -32.075   7.842   2.038  1.00 20.00     0.100 C 
BRANCH   3   4
HETATM    4  C1  UNL     1     -31.884   8.758   0.839  1.00 20.00     0.219 C 
HETATM    5  O10 UNL     1     -31.051   8.547  -0.037  1.00 20.00    -0.280 OA
HETATM    6 CL11 UNL     1     -32.945  10.138   0.907  1.00 20.00    -0.044 Cl
ENDBRANCH   3   4
ENDBRANCH   2   3
BRANCH   2   7
HETATM    7  C7  UNL     1     -33.378   5.900   3.040  1.00 20.00     0.013 C 
BRANCH   7   8
HETATM    8  C9  UNL     1     -34.602   6.520   3.777  1.00 20.00    -0.051 C 
HETATM    9  C3  UNL     1     -35.272   5.404   4.605  1.00 20.00     0.014 C 
HETATM   10  C4  UNL     1     -35.645   7.093   2.808  1.00 20.00     0.014 C 
HETATM   11  C5  UNL     1     -34.153   7.629   4.745  1.00 20.00     0.014 C 
ENDBRANCH   7   8
ENDBRANCH   2   7
TORSDOF 4
ENDMDL
MODEL 5
REMARK VINA RESULT:      -0.2      1.143      1.758
REMARK  4 active torsions:
REMARK  status: ('A' for Active; 'I' for Inactive)
REMARK    1  A    between atoms: C1_1  and  C6_6 
REMARK    2  A    between atoms: C6_6  and  C8_8 
REMARK    3  A    between atoms: C7_7  and  C8_8 
REMARK    4  A    between atoms: C7_7  and  C9_9 
ROOT
HETATM    1  C2  UNL     1     -32.196   5.593   0.796  1.00 20.00     0.010 C 
HETATM    2  C8  UNL     1     -32.916   6.585   1.719  1.00 20.00    -0.010 C 
ENDROOT
BRANCH   2   3
HETATM    3  C6  UNL     1     -31.965   7.771   1.982  1.00 20.00     0.100 C 
BRANCH   3   4
HETATM    4  C1  UNL     1     -31.861   8.737   0.812  1.00 20.00     0.219 C 
HETATM    5  O10 UNL     1     -31.052   8.597  -0.099  1.00 20.00    -0.280 OA
HETATM    6 CL11 UNL     1     -32.982  10.062   0.969  1.00 20.00    -0.044 Cl
ENDBRANCH   3   4
ENDBRANCH   2   3
BRANCH   2   7
HETATM    7  C7  UNL     1     -33.329   5.910   3.054  1.00 20.00     0.013 C 
BRANCH   7   8
HETATM    8  C9  UNL     1     -34.558   6.505   3.803  1.00 20.00    -0.051 C 
HETATM    9  C3  UNL     1     -35.545   7.041   2.744  1.00 20.00     0.014 C 
HETATM   10  C4  UNL     1     -34.176   7.664   4.734  1.00 20.00     0.014 C 
HETATM   11  C5  UNL     1     -35.279   5.420   4.622  1.00 20.00     0.014 C 
ENDBRANCH   7   8
ENDBRANCH   2   7
TORSDOF 4
ENDMDL
MODEL 6
REMARK VINA RESULT:      -0.2      1.853      2.328
REMARK  4 active torsions:
REMARK  status: ('A' for Active; 'I' for Inactive)
REMARK    1  A    between atoms: C1_1  and  C6_6 
REMARK    2  A    between atoms: C6_6  and  C8_8 
REMARK    3  A    between atoms: C7_7  and  C8_8 
REMARK    4  A    between atoms: C7_7  and  C9_9 
ROOT
HETATM    1  C2  UNL     1     -32.068   6.052   1.199  1.00 20.00     0.010 C 
HETATM    2  C8  UNL     1     -32.562   7.460   1.557  1.00 20.00    -0.010 C 
ENDROOT
BRANCH   2   3
HETATM    3  C6  UNL     1     -31.679   8.481   0.810  1.00 20.00     0.100 C 
BRANCH   3   4
HETATM    4  C1  UNL     1     -32.472   9.597   0.145  1.00 20.00     0.219 C 
HETATM    5  O10 UNL     1     -32.896   9.521  -1.004  1.00 20.00    -0.280 OA
HETATM    6 CL11 UNL     1     -32.640  10.979   1.191  1.00 20.00    -0.044 Cl
ENDBRANCH   3   4
ENDBRANCH   2   3
BRANCH   2   7
HETATM    7  C7  UNL     1     -32.501   7.703   3.088  1.00 20.00     0.013 C 
BRANCH   7   8
HETATM    8  C9  UNL     1     -33.851   7.688   3.866  1.00 20.00    -0.051 C 
HETATM    9  C3  UNL     1     -33.555   8.051   5.336  1.00 20.00     0.014 C 
HETATM   10  C4  UNL     1     -34.531   6.312   3.838  1.00 20.00     0.014 C 
HETATM   11  C5  UNL     1     -34.821   8.740   3.300  1.00 20.00     0.014 C 
ENDBRANCH   7   8
ENDBRANCH   2   7
TORSDOF 4
ENDMDL
MODEL 7
REMARK VINA RESULT:       0.1      2.983      4.641
REMARK  4 active torsions:
REMARK  status: ('A' for Active; 'I' for Inactive)
REMARK    1  A    between atoms: C1_1  and  C6_6 
REMARK    2  A    between atoms: C6_6  and  C8_8 
REMARK    3  A    between atoms: C7_7  and  C8_8 
REMARK    4  A    between atoms: C7_7  and  C9_9 
ROOT
HETATM    1  C2  UNL     1     -33.506   7.752   4.921  1.00 20.00     0.010 C 
HETATM    2  C8  UNL     1     -34.157   7.277   3.615  1.00 20.00    -0.010 C 
ENDROOT
BRANCH   2   3
HETATM    3  C6  UNL     1     -33.721   5.818   3.365  1.00 20.00     0.100 C 
BRANCH   3   4
HETATM    4  C1  UNL     1     -34.501   4.803   4.186  1.00 20.00     0.219 C 
HETATM    5  O10 UNL     1     -35.632   5.015   4.611  1.00 20.00    -0.280 OA
HETATM    6 CL11 UNL     1     -33.570   3.359   4.478  1.00 20.00    -0.044 Cl
ENDBRANCH   3   4
ENDBRANCH   2   3
BRANCH   2   7
HETATM    7  C7  UNL     1     -33.745   8.182   2.423  1.00 20.00     0.013 C 
BRANCH   7   8
HETATM    8  C9  UNL     1     -32.299   8.017   1.870  1.00 20.00    -0.051 C 
HETATM    9  C3  UNL     1     -32.151   8.943   0.645  1.00 20.00     0.014 C 
HETATM   10  C4  UNL     1     -31.998   6.579   1.425  1.00 20.00     0.014 C 
HETATM   11  C5  UNL     1     -31.259   8.445   2.921  1.00 20.00     0.014 C 
ENDBRANCH   7   8
ENDBRANCH   2   7
TORSDOF 4
ENDMDL
MODEL 8
REMARK VINA RESULT:       0.2      2.437      4.138
REMARK  4 active torsions:
REMARK  status: ('A' for Active; 'I' for Inactive)
REMARK    1  A    between atoms: C1_1  and  C6_6 
REMARK    2  A    between atoms: C6_6  and  C8_8 
REMARK    3  A    between atoms: C7_7  and  C8_8 
REMARK    4  A    between atoms: C7_7  and  C9_9 
ROOT
HETATM    1  C2  UNL     1     -31.818   5.247   1.037  1.00 20.00     0.010 C 
HETATM    2  C8  UNL     1     -32.556   6.318   1.852  1.00 20.00    -0.010 C 
ENDROOT
BRANCH   2   3
HETATM    3  C6  UNL     1     -33.804   5.663   2.482  1.00 20.00     0.100 C 
BRANCH   3   4
HETATM    4  C1  UNL     1     -34.351   6.427   3.678  1.00 20.00     0.219 C 
HETATM    5  O10 UNL     1     -33.938   7.535   4.008  1.00 20.00    -0.280 OA
HETATM    6 CL11 UNL     1     -35.571   5.514   4.522  1.00 20.00    -0.044 Cl
ENDBRANCH   3   4
ENDBRANCH   2   3
BRANCH   2   7
HETATM    7  C7  UNL     1     -32.961   7.520   0.960  1.00 20.00     0.013 C 
BRANCH   7   8
HETATM    8  C9  UNL     1     -32.035   8.772   0.987  1.00 20.00    -0.051 C 
HETATM    9  C3  UNL     1     -31.244   8.748   2.312  1.00 20.00     0.014 C 
HETATM   10  C4  UNL     1     -32.821  10.089   0.920  1.00 20.00     0.014 C 
HETATM   11  C5  UNL     1     -31.024   8.730  -0.173  1.00 20.00     0.014 C 
ENDBRANCH   7   8
ENDBRANCH   2   7
TORSDOF 4
ENDMDL
MODEL 9
REMARK VINA RESULT:       0.3      2.288      4.009
REMARK  4 active torsions:
REMARK  status: ('A' for Active; 'I' for Inactive)
REMARK    1  A    between atoms: C1_1  and  C6_6 
REMARK    2  A    between atoms: C6_6  and  C8_8 
REMARK    3  A    between atoms: C7_7  and  C8_8 
REMARK    4  A    between atoms: C7_7  and  C9_9 
ROOT
HETATM    1  C2  UNL     1     -32.110   5.188   1.122  1.00 20.00     0.010 C 
HETATM    2  C8  UNL     1     -32.633   6.227   2.123  1.00 20.00    -0.010 C 
ENDROOT
BRANCH   2   3
HETATM    3  C6  UNL     1     -33.779   5.581   2.929  1.00 20.00     0.100 C 
BRANCH   3   4
HETATM    4  C1  UNL     1     -34.640   6.589   3.674  1.00 20.00     0.219 C 
HETATM    5  O10 UNL     1     -35.866   6.586   3.625  1.00 20.00    -0.280 OA
HETATM    6 CL11 UNL     1     -33.670   7.749   4.539  1.00 20.00    -0.044 Cl
ENDBRANCH   3   4
ENDBRANCH   2   3
BRANCH   2   7
HETATM    7  C7  UNL     1     -33.129   7.505   1.396  1.00 20.00     0.013 C 
BRANCH   7   8
HETATM    8  C9  UNL     1     -32.105   8.665   1.217  1.00 20.00    -0.051 C 
HETATM    9  C3  UNL     1     -32.895   9.988   1.142  1.00 20.00     0.014 C 
HETATM   10  C4  UNL     1     -31.277   8.526  -0.068  1.00 20.00     0.014 C 
HETATM   11  C5  UNL     1     -31.152   8.745   2.422  1.00 20.00     0.014 C 
ENDBRANCH   7   8
ENDBRANCH   2   7
TORSDOF 4
ENDMDL
