MODEL 1
REMARK VINA RESULT:      -2.6      0.000      0.000
REMARK  1 active torsions:
REMARK  status: ('A' for Active; 'I' for Inactive)
REMARK    1  A    between atoms: C4_4  and  C5_5 
ROOT
HETATM    1  C1  UNL     1     -32.410   7.208   1.830  1.00 20.00     0.059 C 
HETATM    2  C5  UNL     1     -33.356   6.107   2.038  1.00 20.00     0.128 C 
HETATM    3  N6  UNL     1     -31.662   8.079   1.662  1.00 20.00    -0.197 NA
ENDROOT
BRANCH   2   4
HETATM    4  C4  UNL     1     -33.761   6.190   3.470  1.00 20.00    -0.002 A 
HETATM    5  C2  UNL     1     -34.271   7.485   4.038  1.00 20.00     0.006 A 
HETATM    6  C3  UNL     1     -35.212   6.329   3.840  1.00 20.00     0.006 A 
ENDBRANCH   2   4
TORSDOF 1
ENDMDL
MODEL 2
REMARK VINA RESULT:      -2.3      2.329      3.447
REMARK  1 active torsions:
REMARK  status: ('A' for Active; 'I' for Inactive)
REMARK    1  A    between atoms: C4_4  and  C5_5 
ROOT
HETATM    1  C1  UNL     1     -34.895   6.150   4.064  1.00 20.00     0.059 C 
HETATM    2  C5  UNL     1     -34.264   7.408   3.653  1.00 20.00     0.128 C 
HETATM    3  N6  UNL     1     -35.397   5.155   4.389  1.00 20.00    -0.197 NA
ENDROOT
BRANCH   2   4
HETATM    4  C4  UNL     1     -32.940   7.026   3.083  1.00 20.00    -0.002 A 
HETATM    5  C2  UNL     1     -32.858   6.375   1.731  1.00 20.00     0.006 A 
HETATM    6  C3  UNL     1     -32.372   7.785   1.916  1.00 20.00     0.006 A 
ENDBRANCH   2   4
TORSDOF 1
ENDMDL
MODEL 3
REMARK VINA RESULT:      -2.2      1.740      2.610
REMARK  1 active torsions:
REMARK  status: ('A' for Active; 'I' for Inactive)
REMARK    1  A    between atoms: C4_4  and  C5_5 
ROOT
HETATM    1  C1  UNL     1     -32.210   9.158   0.852  1.00 20.00     0.059 C 
HETATM    2  C5  UNL     1     -31.911   8.090   1.812  1.00 20.00     0.128 C 
HETATM    3  N6  UNL     1     -32.445  10.004   0.093  1.00 20.00    -0.197 NA
ENDROOT
BRANCH   2   4
HETATM    4  C4  UNL     1     -32.926   7.028   1.560  1.00 20.00    -0.002 A 
HETATM    5  C2  UNL     1     -32.512   5.584   1.499  1.00 20.00     0.006 A 
HETATM    6  C3  UNL     1     -33.324   6.085   2.661  1.00 20.00     0.006 A 
ENDBRANCH   2   4
TORSDOF 1
ENDMDL
MODEL 4
REMARK VINA RESULT:      -2.1      1.345      1.864
REMARK  1 active torsions:
REMARK  status: ('A' for Active; 'I' for Inactive)
REMARK    1  A    between atoms: C4_4  and  C5_5 
ROOT
HETATM    1  C1  UNL     1     -32.240   8.848   1.095  1.00 20.00     0.059 C 
HETATM    2  C5  UNL     1     -32.138   7.831   2.147  1.00 20.00     0.128 C 
HETATM    3  N6  UNL     1     -32.317   9.652   0.262  1.00 20.00    -0.197 NA
ENDROOT
BRANCH   2   4
HETATM    4  C4  UNL     1     -33.538   7.565   2.584  1.00 20.00    -0.002 A 
HETATM    5  C2  UNL     1     -33.878   6.285   3.296  1.00 20.00     0.006 A 
HETATM    6  C3  UNL     1     -33.892   7.589   4.045  1.00 20.00     0.006 A 
ENDBRANCH   2   4
TORSDOF 1
ENDMDL
MODEL 5
REMARK VINA RESULT:      -2.1      2.192      3.449
REMARK  1 active torsions:
REMARK  status: ('A' for Active; 'I' for Inactive)
REMARK    1  A    between atoms: C4_4  and  C5_5 
ROOT
HETATM    1  C1  UNL     1     -34.516   6.787   3.861  1.00 20.00     0.059 C 
HETATM    2  C5  UNL     1     -33.343   7.633   3.617  1.00 20.00     0.128 C 
HETATM    3  N6  UNL     1     -35.444   6.119   4.057  1.00 20.00    -0.197 NA
ENDROOT
BRANCH   2   4
HETATM    4  C4  UNL     1     -33.036   7.484   2.166  1.00 20.00    -0.002 A 
HETATM    5  C2  UNL     1     -32.250   8.544   1.445  1.00 20.00     0.006 A 
HETATM    6  C3  UNL     1     -31.630   7.201   1.715  1.00 20.00     0.006 A 
ENDBRANCH   2   4
TORSDOF 1
ENDMDL
MODEL 6
REMARK VINA RESULT:      -2.0      2.484      3.912
REMARK  1 active torsions:
REMARK  status: ('A' for Active; 'I' for Inactive)
REMARK    1  A    between atoms: C4_4  and  C5_5 
ROOT
HETATM    1  C1  UNL     1     -32.372   6.914   1.662  1.00 20.00     0.059 C 
HETATM    2  C5  UNL     1     -31.773   8.251   1.585  1.00 20.00     0.128 C 
HETATM    3  N6  UNL     1     -32.844   5.856   1.725  1.00 20.00    -0.197 NA
ENDROOT
BRANCH   2   4
HETATM    4  C4  UNL     1     -32.730   9.074   0.792  1.00 20.00    -0.002 A 
HETATM    5  C2  UNL     1     -32.660  10.575   0.843  1.00 20.00     0.006 A 
HETATM    6  C3  UNL     1     -32.251   9.845  -0.406  1.00 20.00     0.006 A 
ENDBRANCH   2   4
TORSDOF 1
ENDMDL
MODEL 7
REMARK VINA RESULT:      -1.8      3.024      3.352
REMARK  1 active torsions:
REMARK  status: ('A' for Active; 'I' for Inactive)
REMARK    1  A    between atoms: C4_4  and  C5_5 
ROOT
HETATM    1  C1  UNL     1     -33.518   3.603   4.251  1.00 20.00     0.059 C 
HETATM    2  C5  UNL     1     -33.945   4.666   3.335  1.00 20.00     0.128 C 
HETATM    3  N6  UNL     1     -33.179   2.761   4.974  1.00 20.00    -0.197 NA
ENDROOT
BRANCH   2   4
HETATM    4  C4  UNL     1     -34.506   5.741   4.202  1.00 20.00    -0.002 A 
HETATM    5  C2  UNL     1     -34.218   7.185   3.899  1.00 20.00     0.006 A 
HETATM    6  C3  UNL     1     -35.601   6.634   3.687  1.00 20.00     0.006 A 
ENDBRANCH   2   4
TORSDOF 1
ENDMDL
MODEL 8
REMARK VINA RESULT:      -1.8      1.424      1.810
REMARK  1 active torsions:
REMARK  status: ('A' for Active; 'I' for Inactive)
REMARK    1  A    between atoms: C4_4  and  C5_5 
ROOT
HETATM    1  C1  UNL     1     -32.508   6.296   1.694  1.00 20.00     0.059 C 
HETATM    2  C5  UNL     1     -32.530   7.556   2.444  1.00 20.00     0.128 C 
HETATM    3  N6  UNL     1     -32.488   5.299   1.101  1.00 20.00    -0.197 NA
ENDROOT
BRANCH   2   4
HETATM    4  C4  UNL     1     -33.886   7.634   3.058  1.00 20.00    -0.002 A 
HETATM    5  C2  UNL     1     -34.460   6.445   3.778  1.00 20.00     0.006 A 
HETATM    6  C3  UNL     1     -34.038   7.662   4.554  1.00 20.00     0.006 A 
ENDBRANCH   2   4
TORSDOF 1
ENDMDL
MODEL 9
REMARK VINA RESULT:      -1.7      2.427      3.887
REMARK  1 active torsions:
REMARK  status: ('A' for Active; 'I' for Inactive)
REMARK    1  A    between atoms: C4_4  and  C5_5 
ROOT
HETATM    1  C1  UNL     1     -32.300   6.888   1.671  1.00 20.00     0.059 C 
HETATM    2  C5  UNL     1     -32.370   8.303   2.051  1.00 20.00     0.128 C 
HETATM    3  N6  UNL     1     -32.247   5.767   1.373  1.00 20.00    -0.197 NA
ENDROOT
BRANCH   2   4
HETATM    4  C4  UNL     1     -31.823   9.058   0.887  1.00 20.00    -0.002 A 
HETATM    5  C2  UNL     1     -32.563   9.071  -0.421  1.00 20.00     0.006 A 
HETATM    6  C3  UNL     1     -32.499  10.316   0.418  1.00 20.00     0.006 A 
ENDBRANCH   2   4
TORSDOF 1
ENDMDL
