MODEL 1
REMARK VINA RESULT:      -2.5      0.000      0.000
REMARK  1 active torsions:
REMARK  status: ('A' for Active; 'I' for Inactive)
REMARK    1  A    between atoms: C3_3  and  C4_4 
ROOT
HETATM    1  C1  UNL     1     -31.883   6.061   1.622  1.00 20.00     0.197 C 
HETATM    2  C2  UNL     1     -31.720   7.554   1.720  1.00 20.00     0.197 C 
HETATM    3  C3  UNL     1     -33.815   6.997   2.349  1.00 20.00     0.369 C 
HETATM    4  O5  UNL     1     -33.299   5.881   1.610  1.00 20.00    -0.351 OA
HETATM    5  O6  UNL     1     -32.763   7.934   2.616  1.00 20.00    -0.351 OA
ENDROOT
BRANCH   3   6
HETATM    6  C4  UNL     1     -34.409   6.519   3.659  1.00 20.00     0.437 C 
HETATM    7  F7  UNL     1     -33.976   5.279   3.948  1.00 20.00    -0.166 F 
HETATM    8  F8  UNL     1     -34.053   7.340   4.665  1.00 20.00    -0.166 F 
HETATM    9  F9  UNL     1     -35.752   6.495   3.585  1.00 20.00    -0.166 F 
ENDBRANCH   3   6
TORSDOF 1
ENDMDL
MODEL 2
REMARK VINA RESULT:      -2.5      0.039      1.254
REMARK  1 active torsions:
REMARK  status: ('A' for Active; 'I' for Inactive)
REMARK    1  A    between atoms: C3_3  and  C4_4 
ROOT
HETATM    1  C1  UNL     1     -31.892   6.056   1.662  1.00 20.00     0.197 C 
HETATM    2  C2  UNL     1     -31.743   7.552   1.729  1.00 20.00     0.197 C 
HETATM    3  C3  UNL     1     -33.834   6.991   2.363  1.00 20.00     0.369 C 
HETATM    4  O5  UNL     1     -33.306   5.863   1.650  1.00 20.00    -0.351 OA
HETATM    5  O6  UNL     1     -32.792   7.942   2.613  1.00 20.00    -0.351 OA
ENDROOT
BRANCH   3   6
HETATM    6  C4  UNL     1     -34.428   6.536   3.682  1.00 20.00     0.437 C 
HETATM    7  F7  UNL     1     -35.771   6.496   3.605  1.00 20.00    -0.166 F 
HETATM    8  F8  UNL     1     -33.983   5.306   3.999  1.00 20.00    -0.166 F 
HETATM    9  F9  UNL     1     -34.083   7.381   4.670  1.00 20.00    -0.166 F 
ENDBRANCH   3   6
TORSDOF 1
ENDMDL
MODEL 3
REMARK VINA RESULT:      -2.0      0.909      1.942
REMARK  1 active torsions:
REMARK  status: ('A' for Active; 'I' for Inactive)
REMARK    1  A    between atoms: C3_3  and  C4_4 
ROOT
HETATM    1  C1  UNL     1     -32.566   7.734   1.835  1.00 20.00     0.197 C 
HETATM    2  C2  UNL     1     -32.482   6.327   1.309  1.00 20.00     0.197 C 
HETATM    3  C3  UNL     1     -33.415   6.292   3.363  1.00 20.00     0.369 C 
HETATM    4  O5  UNL     1     -32.744   7.554   3.239  1.00 20.00    -0.351 OA
HETATM    5  O6  UNL     1     -33.450   5.631   2.091  1.00 20.00    -0.351 OA
ENDROOT
BRANCH   3   6
HETATM    6  C4  UNL     1     -34.831   6.506   3.860  1.00 20.00     0.437 C 
HETATM    7  F7  UNL     1     -34.867   7.495   4.770  1.00 20.00    -0.166 F 
HETATM    8  F8  UNL     1     -35.643   6.836   2.839  1.00 20.00    -0.166 F 
HETATM    9  F9  UNL     1     -35.303   5.383   4.433  1.00 20.00    -0.166 F 
ENDBRANCH   3   6
TORSDOF 1
ENDMDL
MODEL 4
REMARK VINA RESULT:      -2.0      0.929      1.971
REMARK  1 active torsions:
REMARK  status: ('A' for Active; 'I' for Inactive)
REMARK    1  A    between atoms: C3_3  and  C4_4 
ROOT
HETATM    1  C1  UNL     1     -32.624   7.743   1.860  1.00 20.00     0.197 C 
HETATM    2  C2  UNL     1     -32.521   6.336   1.337  1.00 20.00     0.197 C 
HETATM    3  C3  UNL     1     -33.436   6.291   3.399  1.00 20.00     0.369 C 
HETATM    4  O5  UNL     1     -32.788   7.564   3.266  1.00 20.00    -0.351 OA
HETATM    5  O6  UNL     1     -33.471   5.626   2.130  1.00 20.00    -0.351 OA
ENDROOT
BRANCH   3   6
HETATM    6  C4  UNL     1     -34.852   6.483   3.907  1.00 20.00     0.437 C 
HETATM    7  F7  UNL     1     -35.666   6.856   2.904  1.00 20.00    -0.166 F 
HETATM    8  F8  UNL     1     -35.323   5.337   4.434  1.00 20.00    -0.166 F 
HETATM    9  F9  UNL     1     -34.886   7.434   4.859  1.00 20.00    -0.166 F 
ENDBRANCH   3   6
TORSDOF 1
ENDMDL
MODEL 5
REMARK VINA RESULT:      -1.9      2.292      3.185
REMARK  1 active torsions:
REMARK  status: ('A' for Active; 'I' for Inactive)
REMARK    1  A    between atoms: C3_3  and  C4_4 
ROOT
HETATM    1  C1  UNL     1     -35.156   6.324   3.734  1.00 20.00     0.197 C 
HETATM    2  C2  UNL     1     -34.442   7.519   4.306  1.00 20.00     0.197 C 
HETATM    3  C3  UNL     1     -32.985   6.303   3.085  1.00 20.00     0.369 C 
HETATM    4  O5  UNL     1     -34.094   5.441   3.377  1.00 20.00    -0.351 OA
HETATM    5  O6  UNL     1     -33.303   7.650   3.459  1.00 20.00    -0.351 OA
ENDROOT
BRANCH   3   6
HETATM    6  C4  UNL     1     -32.667   6.252   1.604  1.00 20.00     0.437 C 
HETATM    7  F7  UNL     1     -33.743   5.850   0.905  1.00 20.00    -0.166 F 
HETATM    8  F8  UNL     1     -32.299   7.468   1.159  1.00 20.00    -0.166 F 
HETATM    9  F9  UNL     1     -31.660   5.391   1.368  1.00 20.00    -0.166 F 
ENDBRANCH   3   6
TORSDOF 1
ENDMDL
MODEL 6
REMARK VINA RESULT:      -1.7      2.460      3.521
REMARK  1 active torsions:
REMARK  status: ('A' for Active; 'I' for Inactive)
REMARK    1  A    between atoms: C3_3  and  C4_4 
ROOT
HETATM    1  C1  UNL     1     -34.151   7.301   4.386  1.00 20.00     0.197 C 
HETATM    2  C2  UNL     1     -34.414   5.990   3.696  1.00 20.00     0.197 C 
HETATM    3  C3  UNL     1     -33.496   7.428   2.220  1.00 20.00     0.369 C 
HETATM    4  O5  UNL     1     -33.998   8.221   3.305  1.00 20.00    -0.351 OA
HETATM    5  O6  UNL     1     -33.544   6.038   2.567  1.00 20.00    -0.351 OA
ENDROOT
BRANCH   3   6
HETATM    6  C4  UNL     1     -32.064   7.822   1.913  1.00 20.00     0.437 C 
HETATM    7  F7  UNL     1     -31.486   8.375   2.994  1.00 20.00    -0.166 F 
HETATM    8  F8  UNL     1     -31.346   6.742   1.552  1.00 20.00    -0.166 F 
HETATM    9  F9  UNL     1     -32.027   8.714   0.907  1.00 20.00    -0.166 F 
ENDBRANCH   3   6
TORSDOF 1
ENDMDL
MODEL 7
REMARK VINA RESULT:      -1.6      3.195      3.787
REMARK  1 active torsions:
REMARK  status: ('A' for Active; 'I' for Inactive)
REMARK    1  A    between atoms: C3_3  and  C4_4 
ROOT
HETATM    1  C1  UNL     1     -32.911   5.961   1.696  1.00 20.00     0.197 C 
HETATM    2  C2  UNL     1     -33.467   6.672   2.901  1.00 20.00     0.197 C 
HETATM    3  C3  UNL     1     -31.976   8.018   1.873  1.00 20.00     0.369 C 
HETATM    4  O5  UNL     1     -31.718   6.687   1.403  1.00 20.00    -0.351 OA
HETATM    5  O6  UNL     1     -33.201   8.044   2.618  1.00 20.00    -0.351 OA
ENDROOT
BRANCH   3   6
HETATM    6  C4  UNL     1     -32.080   8.970   0.698  1.00 20.00     0.437 C 
HETATM    7  F7  UNL     1     -33.071   8.591  -0.129  1.00 20.00    -0.166 F 
HETATM    8  F8  UNL     1     -32.336  10.220   1.126  1.00 20.00    -0.166 F 
HETATM    9  F9  UNL     1     -30.928   8.986   0.002  1.00 20.00    -0.166 F 
ENDBRANCH   3   6
TORSDOF 1
ENDMDL
MODEL 8
REMARK VINA RESULT:      -1.6      2.921      3.773
REMARK  1 active torsions:
REMARK  status: ('A' for Active; 'I' for Inactive)
REMARK    1  A    between atoms: C3_3  and  C4_4 
ROOT
HETATM    1  C1  UNL     1     -33.885   6.284   3.678  1.00 20.00     0.197 C 
HETATM    2  C2  UNL     1     -35.285   5.978   4.138  1.00 20.00     0.197 C 
HETATM    3  C3  UNL     1     -34.193   4.040   3.760  1.00 20.00     0.369 C 
HETATM    4  O5  UNL     1     -33.460   5.064   3.072  1.00 20.00    -0.351 OA
HETATM    5  O6  UNL     1     -35.185   4.635   4.607  1.00 20.00    -0.351 OA
ENDROOT
BRANCH   3   6
HETATM    6  C4  UNL     1     -33.247   3.205   4.601  1.00 20.00     0.437 C 
HETATM    7  F7  UNL     1     -31.971   3.442   4.251  1.00 20.00    -0.166 F 
HETATM    8  F8  UNL     1     -33.393   3.499   5.906  1.00 20.00    -0.166 F 
HETATM    9  F9  UNL     1     -33.499   1.894   4.429  1.00 20.00    -0.166 F 
ENDBRANCH   3   6
TORSDOF 1
ENDMDL
MODEL 9
REMARK VINA RESULT:      -1.5      3.199      3.807
REMARK  1 active torsions:
REMARK  status: ('A' for Active; 'I' for Inactive)
REMARK    1  A    between atoms: C3_3  and  C4_4 
ROOT
HETATM    1  C1  UNL     1     -32.881   5.948   1.677  1.00 20.00     0.197 C 
HETATM    2  C2  UNL     1     -33.470   6.652   2.870  1.00 20.00     0.197 C 
HETATM    3  C3  UNL     1     -31.983   8.020   1.867  1.00 20.00     0.369 C 
HETATM    4  O5  UNL     1     -31.695   6.693   1.404  1.00 20.00    -0.351 OA
HETATM    5  O6  UNL     1     -33.222   8.028   2.590  1.00 20.00    -0.351 OA
ENDROOT
BRANCH   3   6
HETATM    6  C4  UNL     1     -32.081   8.969   0.689  1.00 20.00     0.437 C 
HETATM    7  F7  UNL     1     -30.930   8.977  -0.007  1.00 20.00    -0.166 F 
HETATM    8  F8  UNL     1     -33.076   8.593  -0.137  1.00 20.00    -0.166 F 
HETATM    9  F9  UNL     1     -32.331  10.221   1.112  1.00 20.00    -0.166 F 
ENDBRANCH   3   6
TORSDOF 1
ENDMDL
