MODEL 1
REMARK VINA RESULT:      -2.4      0.000      0.000
REMARK  5 active torsions:
REMARK  status: ('A' for Active; 'I' for Inactive)
REMARK    1  A    between atoms: C1_1  and  C8_8 
REMARK    2  A    between atoms: C4_4  and  C6_6 
REMARK    3  A    between atoms: C5_5  and  C7_7 
REMARK    4  A    between atoms: C6_6  and  C8_8 
REMARK    5  A    between atoms: C7_7  and  C8_8 
ROOT
HETATM    1  C8  UNL     1     -33.347   5.930   3.217  1.00 20.00     0.072 C 
ENDROOT
BRANCH   1   2
HETATM    2  C1  UNL     1     -34.448   6.798   3.827  1.00 20.00     0.223 C 
HETATM    3  O9  UNL     1     -35.639   6.533   3.681  1.00 20.00    -0.279 OA
HETATM    4 CL10 UNL     1     -33.819   8.156   4.717  1.00 20.00    -0.043 Cl
ENDBRANCH   1   2
BRANCH   1   5
HETATM    5  C6  UNL     1     -33.814   4.462   3.164  1.00 20.00     0.013 C 
BRANCH   5   6
HETATM    6  C4  UNL     1     -33.976   3.786   4.531  1.00 20.00    -0.004 C 
HETATM    7  C2  UNL     1     -32.889   2.767   4.838  1.00 20.00     0.005 C 
ENDBRANCH   5   6
ENDBRANCH   1   5
BRANCH   1   8
HETATM    8  C7  UNL     1     -33.024   6.428   1.794  1.00 20.00     0.013 C 
BRANCH   8   9
HETATM    9  C5  UNL     1     -31.885   7.453   1.711  1.00 20.00    -0.004 C 
HETATM   10  C3  UNL     1     -32.310   8.787   1.117  1.00 20.00     0.005 C 
ENDBRANCH   8   9
ENDBRANCH   1   8
TORSDOF 5
ENDMDL
MODEL 2
REMARK VINA RESULT:      -2.3      2.903      3.416
REMARK  5 active torsions:
REMARK  status: ('A' for Active; 'I' for Inactive)
REMARK    1  A    between atoms: C1_1  and  C8_8 
REMARK    2  A    between atoms: C4_4  and  C6_6 
REMARK    3  A    between atoms: C5_5  and  C7_7 
REMARK    4  A    between atoms: C6_6  and  C8_8 
REMARK    5  A    between atoms: C7_7  and  C8_8 
ROOT
HETATM    1  C8  UNL     1     -32.947   7.367   1.925  1.00 20.00     0.072 C 
ENDROOT
BRANCH   1   2
HETATM    2  C1  UNL     1     -32.612   5.996   1.336  1.00 20.00     0.223 C 
HETATM    3  O9  UNL     1     -31.567   5.410   1.608  1.00 20.00    -0.279 OA
HETATM    4 CL10 UNL     1     -33.854   5.398   0.273  1.00 20.00    -0.043 Cl
ENDBRANCH   1   2
BRANCH   1   5
HETATM    5  C6  UNL     1     -33.086   7.253   3.456  1.00 20.00     0.013 C 
BRANCH   5   6
HETATM    6  C4  UNL     1     -34.517   7.404   3.987  1.00 20.00    -0.004 C 
HETATM    7  C2  UNL     1     -35.294   6.096   4.021  1.00 20.00     0.005 C 
ENDBRANCH   5   6
ENDBRANCH   1   5
BRANCH   1   8
HETATM    8  C7  UNL     1     -31.828   8.367   1.574  1.00 20.00     0.013 C 
BRANCH   8   9
HETATM    9  C5  UNL     1     -31.971   9.043   0.204  1.00 20.00    -0.004 C 
HETATM   10  C3  UNL     1     -32.665  10.395   0.262  1.00 20.00     0.005 C 
ENDBRANCH   8   9
ENDBRANCH   1   8
TORSDOF 5
ENDMDL
MODEL 3
REMARK VINA RESULT:      -2.0      2.316      4.190
REMARK  5 active torsions:
REMARK  status: ('A' for Active; 'I' for Inactive)
REMARK    1  A    between atoms: C1_1  and  C8_8 
REMARK    2  A    between atoms: C4_4  and  C6_6 
REMARK    3  A    between atoms: C5_5  and  C7_7 
REMARK    4  A    between atoms: C6_6  and  C8_8 
REMARK    5  A    between atoms: C7_7  and  C8_8 
ROOT
HETATM    1  C8  UNL     1     -33.368   7.261   2.189  1.00 20.00     0.072 C 
ENDROOT
BRANCH   1   2
HETATM    2  C1  UNL     1     -33.828   7.320   3.646  1.00 20.00     0.223 C 
HETATM    3  O9  UNL     1     -33.235   7.991   4.488  1.00 20.00    -0.279 OA
HETATM    4 CL10 UNL     1     -35.244   6.352   3.945  1.00 20.00    -0.043 Cl
ENDBRANCH   1   2
BRANCH   1   5
HETATM    5  C6  UNL     1     -32.048   8.042   2.031  1.00 20.00     0.013 C 
BRANCH   5   6
HETATM    6  C4  UNL     1     -31.860   8.721   0.669  1.00 20.00    -0.004 C 
HETATM    7  C2  UNL     1     -32.606  10.040   0.539  1.00 20.00     0.005 C 
ENDBRANCH   5   6
ENDBRANCH   1   5
BRANCH   1   8
HETATM    8  C7  UNL     1     -33.161   5.791   1.772  1.00 20.00     0.013 C 
BRANCH   8   9
HETATM    9  C5  UNL     1     -31.709   5.408   1.456  1.00 20.00    -0.004 C 
HETATM   10  C3  UNL     1     -31.580   4.389   0.335  1.00 20.00     0.005 C 
ENDBRANCH   8   9
ENDBRANCH   1   8
TORSDOF 5
ENDMDL
MODEL 4
REMARK VINA RESULT:      -2.0      2.704      3.216
REMARK  5 active torsions:
REMARK  status: ('A' for Active; 'I' for Inactive)
REMARK    1  A    between atoms: C1_1  and  C8_8 
REMARK    2  A    between atoms: C4_4  and  C6_6 
REMARK    3  A    between atoms: C5_5  and  C7_7 
REMARK    4  A    between atoms: C6_6  and  C8_8 
REMARK    5  A    between atoms: C7_7  and  C8_8 
ROOT
HETATM    1  C8  UNL     1     -32.994   7.368   1.946  1.00 20.00     0.072 C 
ENDROOT
BRANCH   1   2
HETATM    2  C1  UNL     1     -32.835   5.993   1.299  1.00 20.00     0.223 C 
HETATM    3  O9  UNL     1     -33.715   5.499   0.597  1.00 20.00    -0.279 OA
HETATM    4 CL10 UNL     1     -31.306   5.246   1.671  1.00 20.00    -0.043 Cl
ENDBRANCH   1   2
BRANCH   1   5
HETATM    5  C6  UNL     1     -33.097   7.211   3.476  1.00 20.00     0.013 C 
BRANCH   5   6
HETATM    6  C4  UNL     1     -34.510   7.380   4.049  1.00 20.00    -0.004 C 
HETATM    7  C2  UNL     1     -35.322   6.094   4.051  1.00 20.00     0.005 C 
ENDBRANCH   5   6
ENDBRANCH   1   5
BRANCH   1   8
HETATM    8  C7  UNL     1     -31.780   8.251   1.592  1.00 20.00     0.013 C 
BRANCH   8   9
HETATM    9  C5  UNL     1     -31.888   8.988   0.251  1.00 20.00    -0.004 C 
HETATM   10  C3  UNL     1     -32.635  10.310   0.342  1.00 20.00     0.005 C 
ENDBRANCH   8   9
ENDBRANCH   1   8
TORSDOF 5
ENDMDL
MODEL 5
REMARK VINA RESULT:      -2.0      0.631      4.117
REMARK  5 active torsions:
REMARK  status: ('A' for Active; 'I' for Inactive)
REMARK    1  A    between atoms: C1_1  and  C8_8 
REMARK    2  A    between atoms: C4_4  and  C6_6 
REMARK    3  A    between atoms: C5_5  and  C7_7 
REMARK    4  A    between atoms: C6_6  and  C8_8 
REMARK    5  A    between atoms: C7_7  and  C8_8 
ROOT
HETATM    1  C8  UNL     1     -33.639   6.410   2.720  1.00 20.00     0.072 C 
ENDROOT
BRANCH   1   2
HETATM    2  C1  UNL     1     -34.630   6.826   3.807  1.00 20.00     0.223 C 
HETATM    3  O9  UNL     1     -35.779   6.391   3.840  1.00 20.00    -0.279 OA
HETATM    4 CL10 UNL     1     -33.948   7.954   4.945  1.00 20.00    -0.043 Cl
ENDBRANCH   1   2
BRANCH   1   5
HETATM    5  C6  UNL     1     -32.464   7.407   2.681  1.00 20.00     0.013 C 
BRANCH   5   6
HETATM    6  C4  UNL     1     -31.954   7.749   1.276  1.00 20.00    -0.004 C 
HETATM    7  C2  UNL     1     -32.295   9.163   0.833  1.00 20.00     0.005 C 
ENDBRANCH   5   6
ENDBRANCH   1   5
BRANCH   1   8
HETATM    8  C7  UNL     1     -33.112   4.992   3.017  1.00 20.00     0.013 C 
BRANCH   8   9
HETATM    9  C5  UNL     1     -33.959   4.181   4.007  1.00 20.00    -0.004 C 
HETATM   10  C3  UNL     1     -33.207   3.024   4.646  1.00 20.00     0.005 C 
ENDBRANCH   8   9
ENDBRANCH   1   8
TORSDOF 5
ENDMDL
MODEL 6
REMARK VINA RESULT:      -2.0      2.799      4.914
REMARK  5 active torsions:
REMARK  status: ('A' for Active; 'I' for Inactive)
REMARK    1  A    between atoms: C1_1  and  C8_8 
REMARK    2  A    between atoms: C4_4  and  C6_6 
REMARK    3  A    between atoms: C5_5  and  C7_7 
REMARK    4  A    between atoms: C6_6  and  C8_8 
REMARK    5  A    between atoms: C7_7  and  C8_8 
ROOT
HETATM    1  C8  UNL     1     -32.368   7.231   2.182  1.00 20.00     0.072 C 
ENDROOT
BRANCH   1   2
HETATM    2  C1  UNL     1     -32.667   5.976   1.361  1.00 20.00     0.223 C 
HETATM    3  O9  UNL     1     -33.753   5.802   0.813  1.00 20.00    -0.279 OA
HETATM    4 CL10 UNL     1     -31.323   4.870   1.307  1.00 20.00    -0.043 Cl
ENDBRANCH   1   2
BRANCH   1   5
HETATM    5  C6  UNL     1     -31.683   8.284   1.287  1.00 20.00     0.013 C 
BRANCH   5   6
HETATM    6  C4  UNL     1     -32.514   9.545   1.024  1.00 20.00    -0.004 C 
HETATM    7  C2  UNL     1     -32.611   9.912  -0.449  1.00 20.00     0.005 C 
ENDBRANCH   5   6
ENDBRANCH   1   5
BRANCH   1   8
HETATM    8  C7  UNL     1     -33.682   7.802   2.751  1.00 20.00     0.013 C 
BRANCH   8   9
HETATM    9  C5  UNL     1     -34.115   7.208   4.098  1.00 20.00    -0.004 C 
HETATM   10  C3  UNL     1     -35.276   6.232   3.987  1.00 20.00     0.005 C 
ENDBRANCH   8   9
ENDBRANCH   1   8
TORSDOF 5
ENDMDL
MODEL 7
REMARK VINA RESULT:      -1.9      2.929      5.011
REMARK  5 active torsions:
REMARK  status: ('A' for Active; 'I' for Inactive)
REMARK    1  A    between atoms: C1_1  and  C8_8 
REMARK    2  A    between atoms: C4_4  and  C6_6 
REMARK    3  A    between atoms: C5_5  and  C7_7 
REMARK    4  A    between atoms: C6_6  and  C8_8 
REMARK    5  A    between atoms: C7_7  and  C8_8 
ROOT
HETATM    1  C8  UNL     1     -32.302   7.245   2.128  1.00 20.00     0.072 C 
ENDROOT
BRANCH   1   2
HETATM    2  C1  UNL     1     -32.380   5.921   1.368  1.00 20.00     0.223 C 
HETATM    3  O9  UNL     1     -31.485   5.080   1.435  1.00 20.00    -0.279 OA
HETATM    4 CL10 UNL     1     -33.840   5.765   0.433  1.00 20.00    -0.043 Cl
ENDBRANCH   1   2
BRANCH   1   5
HETATM    5  C6  UNL     1     -31.665   8.322   1.227  1.00 20.00     0.013 C 
BRANCH   5   6
HETATM    6  C4  UNL     1     -32.548   9.548   0.964  1.00 20.00    -0.004 C 
HETATM    7  C2  UNL     1     -32.620   9.942  -0.503  1.00 20.00     0.005 C 
ENDBRANCH   5   6
ENDBRANCH   1   5
BRANCH   1   8
HETATM    8  C7  UNL     1     -33.719   7.684   2.547  1.00 20.00     0.013 C 
BRANCH   8   9
HETATM    9  C5  UNL     1     -34.142   7.247   3.955  1.00 20.00    -0.004 C 
HETATM   10  C3  UNL     1     -35.269   6.226   3.963  1.00 20.00     0.005 C 
ENDBRANCH   8   9
ENDBRANCH   1   8
TORSDOF 5
ENDMDL
MODEL 8
REMARK VINA RESULT:      -1.8      2.044      3.509
REMARK  5 active torsions:
REMARK  status: ('A' for Active; 'I' for Inactive)
REMARK    1  A    between atoms: C1_1  and  C8_8 
REMARK    2  A    between atoms: C4_4  and  C6_6 
REMARK    3  A    between atoms: C5_5  and  C7_7 
REMARK    4  A    between atoms: C6_6  and  C8_8 
REMARK    5  A    between atoms: C7_7  and  C8_8 
ROOT
HETATM    1  C8  UNL     1     -33.688   5.792   3.522  1.00 20.00     0.072 C 
ENDROOT
BRANCH   1   2
HETATM    2  C1  UNL     1     -34.371   4.609   4.207  1.00 20.00     0.223 C 
HETATM    3  O9  UNL     1     -35.526   4.676   4.620  1.00 20.00    -0.279 OA
HETATM    4 CL10 UNL     1     -33.340   3.210   4.323  1.00 20.00    -0.043 Cl
ENDBRANCH   1   2
BRANCH   1   5
HETATM    5  C6  UNL     1     -33.456   5.465   2.033  1.00 20.00     0.013 C 
BRANCH   5   6
HETATM    6  C4  UNL     1     -32.104   5.923   1.474  1.00 20.00    -0.004 C 
HETATM    7  C2  UNL     1     -31.930   7.434   1.466  1.00 20.00     0.005 C 
ENDBRANCH   5   6
ENDBRANCH   1   5
BRANCH   1   8
HETATM    8  C7  UNL     1     -34.574   7.047   3.651  1.00 20.00     0.013 C 
BRANCH   8   9
HETATM    9  C5  UNL     1     -34.168   8.012   4.772  1.00 20.00    -0.004 C 
HETATM   10  C3  UNL     1     -32.685   8.346   4.780  1.00 20.00     0.005 C 
ENDBRANCH   8   9
ENDBRANCH   1   8
TORSDOF 5
ENDMDL
MODEL 9
REMARK VINA RESULT:      -1.7      2.004      4.151
REMARK  5 active torsions:
REMARK  status: ('A' for Active; 'I' for Inactive)
REMARK    1  A    between atoms: C1_1  and  C8_8 
REMARK    2  A    between atoms: C4_4  and  C6_6 
REMARK    3  A    between atoms: C5_5  and  C7_7 
REMARK    4  A    between atoms: C6_6  and  C8_8 
REMARK    5  A    between atoms: C7_7  and  C8_8 
ROOT
HETATM    1  C8  UNL     1     -33.409   5.901   3.137  1.00 20.00     0.072 C 
ENDROOT
BRANCH   1   2
HETATM    2  C1  UNL     1     -32.775   6.186   1.776  1.00 20.00     0.223 C 
HETATM    3  O9  UNL     1     -32.788   5.358   0.867  1.00 20.00    -0.279 OA
HETATM    4 CL10 UNL     1     -32.061   7.771   1.683  1.00 20.00    -0.043 Cl
ENDBRANCH   1   2
BRANCH   1   5
HETATM    5  C6  UNL     1     -34.638   6.810   3.337  1.00 20.00     0.013 C 
BRANCH   5   6
HETATM    6  C4  UNL     1     -34.440   7.952   4.340  1.00 20.00    -0.004 C 
HETATM    7  C2  UNL     1     -33.052   7.983   4.961  1.00 20.00     0.005 C 
ENDBRANCH   5   6
ENDBRANCH   1   5
BRANCH   1   8
HETATM    8  C7  UNL     1     -33.834   4.421   3.211  1.00 20.00     0.013 C 
BRANCH   8   9
HETATM    9  C5  UNL     1     -33.982   3.861   4.631  1.00 20.00    -0.004 C 
HETATM   10  C3  UNL     1     -32.979   2.766   4.961  1.00 20.00     0.005 C 
ENDBRANCH   8   9
ENDBRANCH   1   8
TORSDOF 5
ENDMDL
