MODEL 1
REMARK VINA RESULT:       0.9      0.000      0.000
REMARK  0 active torsions:
REMARK  status: ('A' for Active; 'I' for Inactive)
ROOT
HETATM    1  C1  UNL     1     -33.673   6.873   1.827  1.00 20.00     0.048 C 
HETATM    2  C2  UNL     1     -32.619   8.362   3.329  1.00 20.00     0.177 C 
HETATM    3  C3  UNL     1     -32.491   7.839   1.904  1.00 20.00    -0.023 C 
HETATM    4  C4  UNL     1     -33.907   6.424   3.279  1.00 20.00     0.054 C 
HETATM    5  C5  UNL     1     -32.591   8.962   0.872  1.00 20.00     0.017 C 
HETATM    6  C6  UNL     1     -31.156   7.100   1.717  1.00 20.00     0.017 C 
HETATM    7  C7  UNL     1     -33.524   4.962   3.509  1.00 20.00     0.045 C 
HETATM    8  C8  UNL     1     -35.359   6.649   3.707  1.00 20.00     0.045 C 
HETATM    9  O9  UNL     1     -33.065   7.246   4.111  1.00 20.00    -0.380 OA
ENDROOT
TORSDOF 0
ENDMDL
MODEL 2
REMARK VINA RESULT:       1.3      1.327      3.356
REMARK  0 active torsions:
REMARK  status: ('A' for Active; 'I' for Inactive)
ROOT
HETATM    1  C1  UNL     1     -34.161   6.891   2.168  1.00 20.00     0.048 C 
HETATM    2  C2  UNL     1     -33.552   5.158   3.654  1.00 20.00     0.177 C 
HETATM    3  C3  UNL     1     -34.326   6.470   3.628  1.00 20.00    -0.023 C 
HETATM    4  C4  UNL     1     -32.844   6.239   1.719  1.00 20.00     0.054 C 
HETATM    5  C5  UNL     1     -35.793   6.275   4.014  1.00 20.00     0.017 C 
HETATM    6  C6  UNL     1     -33.686   7.495   4.578  1.00 20.00     0.017 C 
HETATM    7  C7  UNL     1     -31.730   7.261   1.495  1.00 20.00     0.045 C 
HETATM    8  C8  UNL     1     -33.037   5.402   0.451  1.00 20.00     0.045 C 
HETATM    9  O9  UNL     1     -32.434   5.353   2.779  1.00 20.00    -0.380 OA
ENDROOT
TORSDOF 0
ENDMDL
MODEL 3
REMARK VINA RESULT:       1.5      0.825      3.473
REMARK  0 active torsions:
REMARK  status: ('A' for Active; 'I' for Inactive)
ROOT
HETATM    1  C1  UNL     1     -33.278   6.446   2.032  1.00 20.00     0.048 C 
HETATM    2  C2  UNL     1     -33.159   7.311   4.227  1.00 20.00     0.177 C 
HETATM    3  C3  UNL     1     -34.053   6.444   3.350  1.00 20.00    -0.023 C 
HETATM    4  C4  UNL     1     -32.485   7.762   2.046  1.00 20.00     0.054 C 
HETATM    5  C5  UNL     1     -34.221   5.036   3.922  1.00 20.00     0.017 C 
HETATM    6  C6  UNL     1     -35.438   7.089   3.182  1.00 20.00     0.017 C 
HETATM    7  C7  UNL     1     -33.008   8.773   1.026  1.00 20.00     0.045 C 
HETATM    8  C8  UNL     1     -30.992   7.518   1.810  1.00 20.00     0.045 C 
HETATM    9  O9  UNL     1     -32.641   8.329   3.362  1.00 20.00    -0.380 OA
ENDROOT
TORSDOF 0
ENDMDL
MODEL 4
REMARK VINA RESULT:       1.7      1.470      1.984
REMARK  0 active torsions:
REMARK  status: ('A' for Active; 'I' for Inactive)
ROOT
HETATM    1  C1  UNL     1     -33.193   7.920   0.831  1.00 20.00     0.048 C 
HETATM    2  C2  UNL     1     -31.539   8.966   2.156  1.00 20.00     0.177 C 
HETATM    3  C3  UNL     1     -32.128   9.014   0.752  1.00 20.00    -0.023 C 
HETATM    4  C4  UNL     1     -32.681   6.953   1.910  1.00 20.00     0.054 C 
HETATM    5  C5  UNL     1     -32.726  10.384   0.430  1.00 20.00     0.017 C 
HETATM    6  C6  UNL     1     -31.058   8.671  -0.297  1.00 20.00     0.017 C 
HETATM    7  C7  UNL     1     -32.231   5.612   1.331  1.00 20.00     0.045 C 
HETATM    8  C8  UNL     1     -33.734   6.717   2.996  1.00 20.00     0.045 C 
HETATM    9  O9  UNL     1     -31.539   7.582   2.527  1.00 20.00    -0.380 OA
ENDROOT
TORSDOF 0
ENDMDL
MODEL 5
REMARK VINA RESULT:       1.7      1.242      2.180
REMARK  0 active torsions:
REMARK  status: ('A' for Active; 'I' for Inactive)
ROOT
HETATM    1  C1  UNL     1     -33.132   7.510   3.598  1.00 20.00     0.048 C 
HETATM    2  C2  UNL     1     -32.398   6.434   1.626  1.00 20.00     0.177 C 
HETATM    3  C3  UNL     1     -32.351   7.792   2.314  1.00 20.00    -0.023 C 
HETATM    4  C4  UNL     1     -34.078   6.355   3.234  1.00 20.00     0.054 C 
HETATM    5  C5  UNL     1     -30.917   8.242   2.594  1.00 20.00     0.017 C 
HETATM    6  C6  UNL     1     -33.056   8.857   1.459  1.00 20.00     0.017 C 
HETATM    7  C7  UNL     1     -35.541   6.792   3.174  1.00 20.00     0.045 C 
HETATM    8  C8  UNL     1     -33.931   5.182   4.208  1.00 20.00     0.045 C 
HETATM    9  O9  UNL     1     -33.692   5.896   1.923  1.00 20.00    -0.380 OA
ENDROOT
TORSDOF 0
ENDMDL
MODEL 6
REMARK VINA RESULT:       1.8      1.495      2.333
REMARK  0 active torsions:
REMARK  status: ('A' for Active; 'I' for Inactive)
ROOT
HETATM    1  C1  UNL     1     -32.947   5.852   3.275  1.00 20.00     0.048 C 
HETATM    2  C2  UNL     1     -34.140   6.465   1.330  1.00 20.00     0.177 C 
HETATM    3  C3  UNL     1     -32.715   6.221   1.810  1.00 20.00    -0.023 C 
HETATM    4  C4  UNL     1     -34.262   6.554   3.652  1.00 20.00     0.054 C 
HETATM    5  C5  UNL     1     -32.034   5.097   1.029  1.00 20.00     0.017 C 
HETATM    6  C6  UNL     1     -31.875   7.502   1.687  1.00 20.00     0.017 C 
HETATM    7  C7  UNL     1     -34.049   7.716   4.622  1.00 20.00     0.045 C 
HETATM    8  C8  UNL     1     -35.273   5.568   4.244  1.00 20.00     0.045 C 
HETATM    9  O9  UNL     1     -34.818   7.082   2.432  1.00 20.00    -0.380 OA
ENDROOT
TORSDOF 0
ENDMDL
MODEL 7
REMARK VINA RESULT:       1.9      1.470      2.551
REMARK  0 active torsions:
REMARK  status: ('A' for Active; 'I' for Inactive)
ROOT
HETATM    1  C1  UNL     1     -33.398   7.108   2.296  1.00 20.00     0.048 C 
HETATM    2  C2  UNL     1     -32.975   4.913   3.061  1.00 20.00     0.177 C 
HETATM    3  C3  UNL     1     -32.892   5.755   1.795  1.00 20.00    -0.023 C 
HETATM    4  C4  UNL     1     -34.316   6.768   3.481  1.00 20.00     0.054 C 
HETATM    5  C5  UNL     1     -31.464   5.834   1.254  1.00 20.00     0.017 C 
HETATM    6  C6  UNL     1     -33.814   5.186   0.705  1.00 20.00     0.017 C 
HETATM    7  C7  UNL     1     -35.791   7.026   3.173  1.00 20.00     0.045 C 
HETATM    8  C8  UNL     1     -33.911   7.536   4.742  1.00 20.00     0.045 C 
HETATM    9  O9  UNL     1     -34.152   5.360   3.746  1.00 20.00    -0.380 OA
ENDROOT
TORSDOF 0
ENDMDL
MODEL 8
REMARK VINA RESULT:       1.9      1.650      3.080
REMARK  0 active torsions:
REMARK  status: ('A' for Active; 'I' for Inactive)
ROOT
HETATM    1  C1  UNL     1     -33.342   5.931   3.120  1.00 20.00     0.048 C 
HETATM    2  C2  UNL     1     -32.513   8.088   2.624  1.00 20.00     0.177 C 
HETATM    3  C3  UNL     1     -33.553   7.397   3.498  1.00 20.00    -0.023 C 
HETATM    4  C4  UNL     1     -32.778   5.972   1.691  1.00 20.00     0.054 C 
HETATM    5  C5  UNL     1     -33.310   7.654   4.986  1.00 20.00     0.017 C 
HETATM    6  C6  UNL     1     -34.969   7.868   3.129  1.00 20.00     0.017 C 
HETATM    7  C7  UNL     1     -33.773   5.454   0.653  1.00 20.00     0.045 C 
HETATM    8  C8  UNL     1     -31.467   5.188   1.584  1.00 20.00     0.045 C 
HETATM    9  O9  UNL     1     -32.495   7.354   1.393  1.00 20.00    -0.380 OA
ENDROOT
TORSDOF 0
ENDMDL
MODEL 9
REMARK VINA RESULT:       2.0      1.402      3.385
REMARK  0 active torsions:
REMARK  status: ('A' for Active; 'I' for Inactive)
ROOT
HETATM    1  C1  UNL     1     -31.619   6.992   1.282  1.00 20.00     0.048 C 
HETATM    2  C2  UNL     1     -33.464   6.415   2.641  1.00 20.00     0.177 C 
HETATM    3  C3  UNL     1     -32.716   5.935   1.404  1.00 20.00    -0.023 C 
HETATM    4  C4  UNL     1     -32.209   8.247   1.944  1.00 20.00     0.054 C 
HETATM    5  C5  UNL     1     -32.149   4.527   1.590  1.00 20.00     0.017 C 
HETATM    6  C6  UNL     1     -33.639   5.949   0.174  1.00 20.00     0.017 C 
HETATM    7  C7  UNL     1     -32.524   9.350   0.934  1.00 20.00     0.045 C 
HETATM    8  C8  UNL     1     -31.281   8.795   3.032  1.00 20.00     0.045 C 
HETATM    9  O9  UNL     1     -33.443   7.847   2.573  1.00 20.00    -0.380 OA
ENDROOT
TORSDOF 0
ENDMDL
