MODEL 1
REMARK VINA RESULT:      -1.3      0.000      0.000
REMARK  1 active torsions:
REMARK  status: ('A' for Active; 'I' for Inactive)
REMARK    1  A    between atoms: C1_1  and  C6_6 
ROOT
HETATM    1  C2  UNL     1     -33.743   7.870   3.709  1.00 20.00     0.022 C 
HETATM    2  C3  UNL     1     -33.687   5.826   2.191  1.00 20.00     0.022 C 
HETATM    3  C4  UNL     1     -32.360   8.350   3.291  1.00 20.00     0.074 C 
HETATM    4  C5  UNL     1     -32.299   6.139   1.646  1.00 20.00     0.074 C 
HETATM    5  C6  UNL     1     -33.903   6.351   3.611  1.00 20.00     0.048 C 
HETATM    6  S8  UNL     1     -31.992   7.926   1.564  1.00 20.00    -0.169 SA
ENDROOT
BRANCH   5   7
HETATM    7  C1  UNL     1     -35.279   5.965   4.064  1.00 20.00     0.235 C 
HETATM    8  O7  UNL     1     -35.540   4.891   4.595  1.00 20.00    -0.306 OA
ENDBRANCH   5   7
TORSDOF 1
ENDMDL
MODEL 2
REMARK VINA RESULT:      -1.0      0.581      1.951
REMARK  1 active torsions:
REMARK  status: ('A' for Active; 'I' for Inactive)
REMARK    1  A    between atoms: C1_1  and  C6_6 
ROOT
HETATM    1  C2  UNL     1     -33.506   5.441   2.630  1.00 20.00     0.022 C 
HETATM    2  C3  UNL     1     -33.730   7.689   3.805  1.00 20.00     0.022 C 
HETATM    3  C4  UNL     1     -32.760   6.020   1.435  1.00 20.00     0.074 C 
HETATM    4  C5  UNL     1     -33.001   8.454   2.706  1.00 20.00     0.074 C 
HETATM    5  C6  UNL     1     -34.455   6.446   3.286  1.00 20.00     0.048 C 
HETATM    6  S8  UNL     1     -31.728   7.437   1.906  1.00 20.00    -0.169 SA
ENDROOT
BRANCH   5   7
HETATM    7  C1  UNL     1     -35.162   5.787   4.431  1.00 20.00     0.235 C 
HETATM    8  O7  UNL     1     -35.186   4.573   4.604  1.00 20.00    -0.306 OA
ENDBRANCH   5   7
TORSDOF 1
ENDMDL
MODEL 3
REMARK VINA RESULT:      -0.9      2.949      4.003
REMARK  1 active torsions:
REMARK  status: ('A' for Active; 'I' for Inactive)
REMARK    1  A    between atoms: C1_1  and  C6_6 
ROOT
HETATM    1  C2  UNL     1     -33.042   6.116   1.861  1.00 20.00     0.022 C 
HETATM    2  C3  UNL     1     -33.378   8.294   3.136  1.00 20.00     0.022 C 
HETATM    3  C4  UNL     1     -33.653   5.256   2.960  1.00 20.00     0.074 C 
HETATM    4  C5  UNL     1     -34.017   7.614   4.340  1.00 20.00     0.074 C 
HETATM    5  C6  UNL     1     -32.389   7.392   2.396  1.00 20.00     0.048 C 
HETATM    6  S8  UNL     1     -34.959   6.138   3.860  1.00 20.00    -0.169 SA
ENDROOT
BRANCH   5   7
HETATM    7  C1  UNL     1     -31.794   8.161   1.255  1.00 20.00     0.235 C 
HETATM    8  O7  UNL     1     -32.293   9.182   0.795  1.00 20.00    -0.306 OA
ENDBRANCH   5   7
TORSDOF 1
ENDMDL
MODEL 4
REMARK VINA RESULT:      -0.4      2.950      3.580
REMARK  1 active torsions:
REMARK  status: ('A' for Active; 'I' for Inactive)
REMARK    1  A    between atoms: C1_1  and  C6_6 
ROOT
HETATM    1  C2  UNL     1     -33.615   7.478   3.503  1.00 20.00     0.022 C 
HETATM    2  C3  UNL     1     -32.495   5.878   1.869  1.00 20.00     0.022 C 
HETATM    3  C4  UNL     1     -34.705   6.488   3.890  1.00 20.00     0.074 C 
HETATM    4  C5  UNL     1     -33.493   4.755   2.122  1.00 20.00     0.074 C 
HETATM    5  C6  UNL     1     -33.096   7.269   2.079  1.00 20.00     0.048 C 
HETATM    6  S8  UNL     1     -34.112   4.773   3.828  1.00 20.00    -0.169 SA
ENDROOT
BRANCH   5   7
HETATM    7  C1  UNL     1     -32.050   8.298   1.775  1.00 20.00     0.235 C 
HETATM    8  O7  UNL     1     -32.122   9.078   0.831  1.00 20.00    -0.306 OA
ENDBRANCH   5   7
TORSDOF 1
ENDMDL
MODEL 5
REMARK VINA RESULT:      -0.1      2.258      3.078
REMARK  1 active torsions:
REMARK  status: ('A' for Active; 'I' for Inactive)
REMARK    1  A    between atoms: C1_1  and  C6_6 
ROOT
HETATM    1  C2  UNL     1     -32.824   5.033   3.023  1.00 20.00     0.022 C 
HETATM    2  C3  UNL     1     -34.802   4.976   4.625  1.00 20.00     0.022 C 
HETATM    3  C4  UNL     1     -33.280   6.314   2.338  1.00 20.00     0.074 C 
HETATM    4  C5  UNL     1     -35.422   6.253   4.072  1.00 20.00     0.074 C 
HETATM    5  C6  UNL     1     -33.985   4.209   3.584  1.00 20.00     0.048 C 
HETATM    6  S8  UNL     1     -34.159   7.416   3.482  1.00 20.00    -0.169 SA
ENDROOT
BRANCH   5   7
HETATM    7  C1  UNL     1     -33.450   2.959   4.215  1.00 20.00     0.235 C 
HETATM    8  O7  UNL     1     -32.884   2.940   5.302  1.00 20.00    -0.306 OA
ENDBRANCH   5   7
TORSDOF 1
ENDMDL
MODEL 6
REMARK VINA RESULT:       0.2      2.386      3.144
REMARK  1 active torsions:
REMARK  status: ('A' for Active; 'I' for Inactive)
REMARK    1  A    between atoms: C1_1  and  C6_6 
ROOT
HETATM    1  C2  UNL     1     -32.049   7.327   1.995  1.00 20.00     0.022 C 
HETATM    2  C3  UNL     1     -33.794   5.762   2.989  1.00 20.00     0.022 C 
HETATM    3  C4  UNL     1     -32.585   8.556   2.719  1.00 20.00     0.074 C 
HETATM    4  C5  UNL     1     -34.474   6.861   3.796  1.00 20.00     0.074 C 
HETATM    5  C6  UNL     1     -33.130   6.281   1.713  1.00 20.00     0.048 C 
HETATM    6  S8  UNL     1     -33.294   8.130   4.336  1.00 20.00    -0.169 SA
ENDROOT
BRANCH   5   7
HETATM    7  C1  UNL     1     -32.523   5.125   0.979  1.00 20.00     0.235 C 
HETATM    8  O7  UNL     1     -31.327   4.855   1.013  1.00 20.00    -0.306 OA
ENDBRANCH   5   7
TORSDOF 1
ENDMDL
MODEL 7
REMARK VINA RESULT:       0.4      1.901      2.639
REMARK  1 active torsions:
REMARK  status: ('A' for Active; 'I' for Inactive)
REMARK    1  A    between atoms: C1_1  and  C6_6 
ROOT
HETATM    1  C2  UNL     1     -33.788   5.976   3.222  1.00 20.00     0.022 C 
HETATM    2  C3  UNL     1     -32.346   8.043   2.861  1.00 20.00     0.022 C 
HETATM    3  C4  UNL     1     -33.539   5.428   1.823  1.00 20.00     0.074 C 
HETATM    4  C5  UNL     1     -31.976   7.665   1.432  1.00 20.00     0.074 C 
HETATM    5  C6  UNL     1     -33.712   7.503   3.287  1.00 20.00     0.048 C 
HETATM    6  S8  UNL     1     -31.886   5.866   1.211  1.00 20.00    -0.169 SA
ENDROOT
BRANCH   5   7
HETATM    7  C1  UNL     1     -33.995   7.955   4.688  1.00 20.00     0.235 C 
HETATM    8  O7  UNL     1     -33.122   8.311   5.472  1.00 20.00    -0.306 OA
ENDBRANCH   5   7
TORSDOF 1
ENDMDL
MODEL 8
REMARK VINA RESULT:       1.0      2.760      3.802
REMARK  1 active torsions:
REMARK  status: ('A' for Active; 'I' for Inactive)
REMARK    1  A    between atoms: C1_1  and  C6_6 
ROOT
HETATM    1  C2  UNL     1     -33.641   4.731   2.654  1.00 20.00     0.022 C 
HETATM    2  C3  UNL     1     -33.437   7.268   2.596  1.00 20.00     0.022 C 
HETATM    3  C4  UNL     1     -34.329   4.711   4.013  1.00 20.00     0.074 C 
HETATM    4  C5  UNL     1     -34.109   7.458   3.950  1.00 20.00     0.074 C 
HETATM    5  C6  UNL     1     -32.707   5.930   2.474  1.00 20.00     0.048 C 
HETATM    6  S8  UNL     1     -35.361   6.183   4.268  1.00 20.00    -0.169 SA
ENDROOT
BRANCH   5   7
HETATM    7  C1  UNL     1     -32.056   5.855   1.127  1.00 20.00     0.235 C 
HETATM    8  O7  UNL     1     -31.678   4.807   0.615  1.00 20.00    -0.306 OA
ENDBRANCH   5   7
TORSDOF 1
ENDMDL
MODEL 9
REMARK VINA RESULT:       1.0      2.253      3.354
REMARK  1 active torsions:
REMARK  status: ('A' for Active; 'I' for Inactive)
REMARK    1  A    between atoms: C1_1  and  C6_6 
ROOT
HETATM    1  C2  UNL     1     -33.807   5.436   2.467  1.00 20.00     0.022 C 
HETATM    2  C3  UNL     1     -32.258   7.328   1.758  1.00 20.00     0.022 C 
HETATM    3  C4  UNL     1     -34.098   6.044   3.833  1.00 20.00     0.074 C 
HETATM    4  C5  UNL     1     -32.422   8.094   3.065  1.00 20.00     0.074 C 
HETATM    5  C6  UNL     1     -32.428   5.817   1.925  1.00 20.00     0.048 C 
HETATM    6  S8  UNL     1     -34.073   7.859   3.782  1.00 20.00    -0.169 SA
ENDROOT
BRANCH   5   7
HETATM    7  C1  UNL     1     -32.216   5.157   0.596  1.00 20.00     0.235 C 
HETATM    8  O7  UNL     1     -33.043   4.424   0.066  1.00 20.00    -0.306 OA
ENDBRANCH   5   7
TORSDOF 1
ENDMDL
