MODEL 1
REMARK VINA RESULT:       1.0      0.000      0.000
REMARK  1 active torsions:
REMARK  status: ('A' for Active; 'I' for Inactive)
REMARK    1  A    between atoms: C1_1  and  C6_6 
ROOT
HETATM    1  C2  UNL     1     -31.549   5.958   1.797  1.00 20.00     0.005 C 
HETATM    2  C3  UNL     1     -33.056   5.670   1.768  1.00 20.00     0.006 C 
HETATM    3  C4  UNL     1     -31.969   8.231   2.757  1.00 20.00     0.017 C 
HETATM    4  C5  UNL     1     -32.652   7.656   0.543  1.00 20.00     0.010 C 
HETATM    5  C6  UNL     1     -33.487   7.986   2.738  1.00 20.00     0.059 C 
HETATM    6  C7  UNL     1     -31.482   7.467   1.511  1.00 20.00    -0.013 C 
HETATM    7  C8  UNL     1     -33.672   7.059   1.518  1.00 20.00    -0.003 C 
ENDROOT
BRANCH   5   8
HETATM    8  C1  UNL     1     -34.012   7.411   4.015  1.00 20.00     0.127 C 
HETATM    9  C9  UNL     1     -35.120   6.400   3.896  1.00 20.00     0.091 C 
HETATM   10  O10 UNL     1     -33.559   7.746   5.108  1.00 20.00    -0.298 OA
ENDBRANCH   5   8
TORSDOF 1
ENDMDL
MODEL 2
REMARK VINA RESULT:       1.1      1.788      3.658
REMARK  1 active torsions:
REMARK  status: ('A' for Active; 'I' for Inactive)
REMARK    1  A    between atoms: C1_1  and  C6_6 
ROOT
HETATM    1  C2  UNL     1     -33.843   7.133   4.928  1.00 20.00     0.005 C 
HETATM    2  C3  UNL     1     -33.744   8.086   3.730  1.00 20.00     0.006 C 
HETATM    3  C4  UNL     1     -33.832   5.155   3.395  1.00 20.00     0.017 C 
HETATM    4  C5  UNL     1     -35.645   6.706   3.431  1.00 20.00     0.010 C 
HETATM    5  C6  UNL     1     -33.742   6.075   2.167  1.00 20.00     0.059 C 
HETATM    6  C7  UNL     1     -34.690   5.975   4.377  1.00 20.00    -0.013 C 
HETATM    7  C8  UNL     1     -34.507   7.335   2.622  1.00 20.00    -0.003 C 
ENDROOT
BRANCH   5   8
HETATM    8  C1  UNL     1     -32.337   6.349   1.733  1.00 20.00     0.127 C 
HETATM    9  C9  UNL     1     -31.939   7.795   1.602  1.00 20.00     0.091 C 
HETATM   10  O10 UNL     1     -31.545   5.438   1.497  1.00 20.00    -0.298 OA
ENDBRANCH   5   8
TORSDOF 1
ENDMDL
MODEL 3
REMARK VINA RESULT:       1.2      1.239      1.293
REMARK  1 active torsions:
REMARK  status: ('A' for Active; 'I' for Inactive)
REMARK    1  A    between atoms: C1_1  and  C6_6 
ROOT
HETATM    1  C2  UNL     1     -31.266   6.577   1.670  1.00 20.00     0.005 C 
HETATM    2  C3  UNL     1     -32.580   5.990   1.135  1.00 20.00     0.006 C 
HETATM    3  C4  UNL     1     -32.512   7.833   3.441  1.00 20.00     0.017 C 
HETATM    4  C5  UNL     1     -32.759   8.352   1.125  1.00 20.00     0.010 C 
HETATM    5  C6  UNL     1     -33.850   7.274   2.932  1.00 20.00     0.059 C 
HETATM    6  C7  UNL     1     -31.686   7.976   2.149  1.00 20.00    -0.013 C 
HETATM    7  C8  UNL     1     -33.602   7.107   1.418  1.00 20.00    -0.003 C 
ENDROOT
BRANCH   5   8
HETATM    8  C1  UNL     1     -34.264   6.010   3.616  1.00 20.00     0.127 C 
HETATM    9  C9  UNL     1     -35.613   6.012   4.283  1.00 20.00     0.091 C 
HETATM   10  O10 UNL     1     -33.539   5.017   3.631  1.00 20.00    -0.298 OA
ENDBRANCH   5   8
TORSDOF 1
ENDMDL
MODEL 4
REMARK VINA RESULT:       1.3      1.588      3.421
REMARK  1 active torsions:
REMARK  status: ('A' for Active; 'I' for Inactive)
REMARK    1  A    between atoms: C1_1  and  C6_6 
ROOT
HETATM    1  C2  UNL     1     -33.364   6.704   4.770  1.00 20.00     0.005 C 
HETATM    2  C3  UNL     1     -33.639   8.115   4.232  1.00 20.00     0.006 C 
HETATM    3  C4  UNL     1     -33.196   5.814   2.436  1.00 20.00     0.017 C 
HETATM    4  C5  UNL     1     -35.253   6.641   3.320  1.00 20.00     0.010 C 
HETATM    5  C6  UNL     1     -33.477   7.210   1.857  1.00 20.00     0.059 C 
HETATM    6  C7  UNL     1     -34.040   5.801   3.725  1.00 20.00    -0.013 C 
HETATM    7  C8  UNL     1     -34.398   7.847   2.919  1.00 20.00    -0.003 C 
ENDROOT
BRANCH   5   8
HETATM    8  C1  UNL     1     -32.236   8.001   1.585  1.00 20.00     0.127 C 
HETATM    9  C9  UNL     1     -32.406   9.280   0.810  1.00 20.00     0.091 C 
HETATM   10  O10 UNL     1     -31.133   7.625   1.977  1.00 20.00    -0.298 OA
ENDBRANCH   5   8
TORSDOF 1
ENDMDL
MODEL 5
REMARK VINA RESULT:       1.3      0.864      2.035
REMARK  1 active torsions:
REMARK  status: ('A' for Active; 'I' for Inactive)
REMARK    1  A    between atoms: C1_1  and  C6_6 
ROOT
HETATM    1  C2  UNL     1     -32.950   8.408   0.611  1.00 20.00     0.005 C 
HETATM    2  C3  UNL     1     -32.716   9.150   1.933  1.00 20.00     0.006 C 
HETATM    3  C4  UNL     1     -33.056   6.220   1.821  1.00 20.00     0.017 C 
HETATM    4  C5  UNL     1     -31.040   7.492   1.701  1.00 20.00     0.010 C 
HETATM    5  C6  UNL     1     -32.814   6.923   3.167  1.00 20.00     0.059 C 
HETATM    6  C7  UNL     1     -32.230   7.069   0.836  1.00 20.00    -0.013 C 
HETATM    7  C8  UNL     1     -31.930   8.126   2.774  1.00 20.00    -0.003 C 
ENDROOT
BRANCH   5   8
HETATM    8  C1  UNL     1     -34.077   7.309   3.869  1.00 20.00     0.127 C 
HETATM    9  C9  UNL     1     -35.273   6.424   3.645  1.00 20.00     0.091 C 
HETATM   10  O10 UNL     1     -34.134   8.299   4.596  1.00 20.00    -0.298 OA
ENDBRANCH   5   8
TORSDOF 1
ENDMDL
MODEL 6
REMARK VINA RESULT:       1.4      0.844      1.075
REMARK  1 active torsions:
REMARK  status: ('A' for Active; 'I' for Inactive)
REMARK    1  A    between atoms: C1_1  and  C6_6 
ROOT
HETATM    1  C2  UNL     1     -31.553   5.904   1.776  1.00 20.00     0.005 C 
HETATM    2  C3  UNL     1     -33.059   5.621   1.689  1.00 20.00     0.006 C 
HETATM    3  C4  UNL     1     -32.003   8.177   2.724  1.00 20.00     0.017 C 
HETATM    4  C5  UNL     1     -32.603   7.608   0.484  1.00 20.00     0.010 C 
HETATM    5  C6  UNL     1     -33.519   7.937   2.646  1.00 20.00     0.059 C 
HETATM    6  C7  UNL     1     -31.471   7.413   1.496  1.00 20.00    -0.013 C 
HETATM    7  C8  UNL     1     -33.661   7.012   1.418  1.00 20.00    -0.003 C 
ENDROOT
BRANCH   5   8
HETATM    8  C1  UNL     1     -34.094   7.361   3.901  1.00 20.00     0.127 C 
HETATM    9  C9  UNL     1     -33.518   7.859   5.199  1.00 20.00     0.091 C 
HETATM   10  O10 UNL     1     -34.995   6.524   3.874  1.00 20.00    -0.298 OA
ENDBRANCH   5   8
TORSDOF 1
ENDMDL
MODEL 7
REMARK VINA RESULT:       1.9      1.278      2.336
REMARK  1 active torsions:
REMARK  status: ('A' for Active; 'I' for Inactive)
REMARK    1  A    between atoms: C1_1  and  C6_6 
ROOT
HETATM    1  C2  UNL     1     -33.563   6.532   0.369  1.00 20.00     0.005 C 
HETATM    2  C3  UNL     1     -33.104   7.708   1.241  1.00 20.00     0.006 C 
HETATM    3  C4  UNL     1     -33.630   5.032   2.371  1.00 20.00     0.017 C 
HETATM    4  C5  UNL     1     -31.579   5.921   1.536  1.00 20.00     0.010 C 
HETATM    5  C6  UNL     1     -33.164   6.182   3.279  1.00 20.00     0.059 C 
HETATM    6  C7  UNL     1     -32.899   5.323   1.047  1.00 20.00    -0.013 C 
HETATM    7  C8  UNL     1     -32.272   7.023   2.342  1.00 20.00    -0.003 C 
ENDROOT
BRANCH   5   8
HETATM    8  C1  UNL     1     -34.292   6.953   3.888  1.00 20.00     0.127 C 
HETATM    9  C9  UNL     1     -33.923   8.173   4.689  1.00 20.00     0.091 C 
HETATM   10  O10 UNL     1     -35.463   6.608   3.740  1.00 20.00    -0.298 OA
ENDBRANCH   5   8
TORSDOF 1
ENDMDL
MODEL 8
REMARK VINA RESULT:       2.0      1.961      3.573
REMARK  1 active torsions:
REMARK  status: ('A' for Active; 'I' for Inactive)
REMARK    1  A    between atoms: C1_1  and  C6_6 
ROOT
HETATM    1  C2  UNL     1     -35.494   6.530   3.686  1.00 20.00     0.005 C 
HETATM    2  C3  UNL     1     -34.457   5.406   3.819  1.00 20.00     0.006 C 
HETATM    3  C4  UNL     1     -33.864   7.922   2.394  1.00 20.00     0.017 C 
HETATM    4  C5  UNL     1     -33.517   7.395   4.695  1.00 20.00     0.010 C 
HETATM    5  C6  UNL     1     -32.794   6.824   2.511  1.00 20.00     0.059 C 
HETATM    6  C7  UNL     1     -34.629   7.800   3.725  1.00 20.00    -0.013 C 
HETATM    7  C8  UNL     1     -33.120   6.168   3.869  1.00 20.00    -0.003 C 
ENDROOT
BRANCH   5   8
HETATM    8  C1  UNL     1     -32.799   5.865   1.363  1.00 20.00     0.127 C 
HETATM    9  C9  UNL     1     -31.624   4.930   1.257  1.00 20.00     0.091 C 
HETATM   10  O10 UNL     1     -33.719   5.840   0.547  1.00 20.00    -0.298 OA
ENDBRANCH   5   8
TORSDOF 1
ENDMDL
MODEL 9
REMARK VINA RESULT:       2.1      2.371      3.425
REMARK  1 active torsions:
REMARK  status: ('A' for Active; 'I' for Inactive)
REMARK    1  A    between atoms: C1_1  and  C6_6 
ROOT
HETATM    1  C2  UNL     1     -34.006   6.870   2.423  1.00 20.00     0.005 C 
HETATM    2  C3  UNL     1     -33.782   6.734   0.911  1.00 20.00     0.006 C 
HETATM    3  C4  UNL     1     -32.043   8.412   2.607  1.00 20.00     0.017 C 
HETATM    4  C5  UNL     1     -31.784   6.113   2.021  1.00 20.00     0.010 C 
HETATM    5  C6  UNL     1     -31.779   8.296   1.097  1.00 20.00     0.059 C 
HETATM    6  C7  UNL     1     -32.577   7.014   2.970  1.00 20.00    -0.013 C 
HETATM    7  C8  UNL     1     -32.254   6.864   0.771  1.00 20.00    -0.003 C 
ENDROOT
BRANCH   5   8
HETATM    8  C1  UNL     1     -32.463   9.354   0.291  1.00 20.00     0.127 C 
HETATM    9  C9  UNL     1     -32.823  10.626   1.012  1.00 20.00     0.091 C 
HETATM   10  O10 UNL     1     -32.718   9.195  -0.901  1.00 20.00    -0.298 OA
ENDBRANCH   5   8
TORSDOF 1
ENDMDL
