MODEL 1
REMARK VINA RESULT:      -2.8      0.000      0.000
REMARK  2 active torsions:
REMARK  status: ('A' for Active; 'I' for Inactive)
REMARK    1  A    between atoms: C2_2  and  C3_3 
REMARK    2  A    between atoms: C4_4  and  C5_5 
ROOT
HETATM    1  C3  UNL     1     -32.224   7.817   1.591  1.00 20.00    -0.001 C 
HETATM    2  C4  UNL     1     -33.051   7.904   2.645  1.00 20.00    -0.000 C 
ENDROOT
BRANCH   2   3
HETATM    3  C5  UNL     1     -33.556   6.746   3.348  1.00 20.00    -0.004 C 
HETATM    4  C6  UNL     1     -34.836   6.622   3.731  1.00 20.00    -0.031 C 
HETATM    5  C7  UNL     1     -35.371   5.431   4.457  1.00 20.00     0.036 C 
ENDBRANCH   2   3
BRANCH   1   6
HETATM    6  C2  UNL     1     -31.721   8.975   0.889  1.00 20.00    -0.010 C 
HETATM    7  C1  UNL     1     -32.512   9.900   0.333  1.00 20.00     0.011 C 
ENDBRANCH   1   6
TORSDOF 2
ENDMDL
MODEL 2
REMARK VINA RESULT:      -2.7      0.740      4.587
REMARK  2 active torsions:
REMARK  status: ('A' for Active; 'I' for Inactive)
REMARK    1  A    between atoms: C2_2  and  C3_3 
REMARK    2  A    between atoms: C4_4  and  C5_5 
ROOT
HETATM    1  C3  UNL     1     -33.521   7.433   2.878  1.00 20.00    -0.001 C 
HETATM    2  C4  UNL     1     -32.463   7.327   2.061  1.00 20.00    -0.000 C 
ENDROOT
BRANCH   2   3
HETATM    3  C5  UNL     1     -31.927   8.444   1.315  1.00 20.00    -0.004 C 
HETATM    4  C6  UNL     1     -32.696   9.307   0.634  1.00 20.00    -0.031 C 
HETATM    5  C7  UNL     1     -32.156  10.466  -0.139  1.00 20.00     0.036 C 
ENDBRANCH   2   3
BRANCH   1   6
HETATM    6  C2  UNL     1     -34.056   6.315   3.622  1.00 20.00    -0.010 C 
HETATM    7  C1  UNL     1     -35.334   6.232   4.007  1.00 20.00     0.011 C 
ENDBRANCH   1   6
TORSDOF 2
ENDMDL
MODEL 3
REMARK VINA RESULT:      -2.5      1.659      4.893
REMARK  2 active torsions:
REMARK  status: ('A' for Active; 'I' for Inactive)
REMARK    1  A    between atoms: C2_2  and  C3_3 
REMARK    2  A    between atoms: C4_4  and  C5_5 
ROOT
HETATM    1  C3  UNL     1     -33.651   5.050   3.418  1.00 20.00    -0.001 C 
HETATM    2  C4  UNL     1     -34.046   6.311   3.648  1.00 20.00    -0.000 C 
ENDROOT
BRANCH   2   3
HETATM    3  C5  UNL     1     -33.606   7.433   2.848  1.00 20.00    -0.004 C 
HETATM    4  C6  UNL     1     -32.487   7.412   2.108  1.00 20.00    -0.031 C 
HETATM    5  C7  UNL     1     -32.022   8.563   1.277  1.00 20.00     0.036 C 
ENDBRANCH   2   3
BRANCH   1   6
HETATM    6  C2  UNL     1     -34.092   3.930   4.218  1.00 20.00    -0.010 C 
HETATM    7  C1  UNL     1     -33.261   2.998   4.699  1.00 20.00     0.011 C 
ENDBRANCH   1   6
TORSDOF 2
ENDMDL
MODEL 4
REMARK VINA RESULT:      -1.9      0.806      1.045
REMARK  2 active torsions:
REMARK  status: ('A' for Active; 'I' for Inactive)
REMARK    1  A    between atoms: C2_2  and  C3_3 
REMARK    2  A    between atoms: C4_4  and  C5_5 
ROOT
HETATM    1  C3  UNL     1     -32.681   9.051   1.586  1.00 20.00    -0.001 C 
HETATM    2  C4  UNL     1     -32.443   7.734   1.677  1.00 20.00    -0.000 C 
ENDROOT
BRANCH   2   3
HETATM    3  C5  UNL     1     -33.001   6.903   2.721  1.00 20.00    -0.004 C 
HETATM    4  C6  UNL     1     -34.264   7.023   3.158  1.00 20.00    -0.031 C 
HETATM    5  C7  UNL     1     -34.853   6.170   4.233  1.00 20.00     0.036 C 
ENDBRANCH   2   3
BRANCH   1   6
HETATM    6  C2  UNL     1     -32.122   9.881   0.543  1.00 20.00    -0.010 C 
HETATM    7  C1  UNL     1     -32.614   9.931  -0.699  1.00 20.00     0.011 C 
ENDBRANCH   1   6
TORSDOF 2
ENDMDL
MODEL 5
REMARK VINA RESULT:      -1.8      1.798      2.620
REMARK  2 active torsions:
REMARK  status: ('A' for Active; 'I' for Inactive)
REMARK    1  A    between atoms: C2_2  and  C3_3 
REMARK    2  A    between atoms: C4_4  and  C5_5 
ROOT
HETATM    1  C3  UNL     1     -33.175   6.440   2.825  1.00 20.00    -0.001 C 
HETATM    2  C4  UNL     1     -34.261   6.021   3.493  1.00 20.00    -0.000 C 
ENDROOT
BRANCH   2   3
HETATM    3  C5  UNL     1     -34.370   4.701   4.071  1.00 20.00    -0.004 C 
HETATM    4  C6  UNL     1     -33.346   3.835   4.122  1.00 20.00    -0.031 C 
HETATM    5  C7  UNL     1     -33.445   2.469   4.717  1.00 20.00     0.036 C 
ENDBRANCH   2   3
BRANCH   1   6
HETATM    6  C2  UNL     1     -33.067   7.760   2.247  1.00 20.00    -0.010 C 
HETATM    7  C1  UNL     1     -31.976   8.196   1.607  1.00 20.00     0.011 C 
ENDBRANCH   1   6
TORSDOF 2
ENDMDL
MODEL 6
REMARK VINA RESULT:      -1.4      2.238      4.535
REMARK  2 active torsions:
REMARK  status: ('A' for Active; 'I' for Inactive)
REMARK    1  A    between atoms: C2_2  and  C3_3 
REMARK    2  A    between atoms: C4_4  and  C5_5 
ROOT
HETATM    1  C3  UNL     1     -32.714   6.427   1.472  1.00 20.00    -0.001 C 
HETATM    2  C4  UNL     1     -31.809   7.417   1.499  1.00 20.00    -0.000 C 
ENDROOT
BRANCH   2   3
HETATM    3  C5  UNL     1     -32.170   8.816   1.456  1.00 20.00    -0.004 C 
HETATM    4  C6  UNL     1     -32.308   9.503   0.312  1.00 20.00    -0.031 C 
HETATM    5  C7  UNL     1     -32.682  10.948   0.253  1.00 20.00     0.036 C 
ENDBRANCH   2   3
BRANCH   1   6
HETATM    6  C2  UNL     1     -32.352   5.028   1.514  1.00 20.00    -0.010 C 
HETATM    7  C1  UNL     1     -31.621   4.429   0.568  1.00 20.00     0.011 C 
ENDBRANCH   1   6
TORSDOF 2
ENDMDL
MODEL 7
REMARK VINA RESULT:      -1.2      2.454      5.077
REMARK  2 active torsions:
REMARK  status: ('A' for Active; 'I' for Inactive)
REMARK    1  A    between atoms: C2_2  and  C3_3 
REMARK    2  A    between atoms: C4_4  and  C5_5 
ROOT
HETATM    1  C3  UNL     1     -33.763   4.347   3.944  1.00 20.00    -0.001 C 
HETATM    2  C4  UNL     1     -34.854   5.028   4.325  1.00 20.00    -0.000 C 
ENDROOT
BRANCH   2   3
HETATM    3  C5  UNL     1     -35.113   6.392   3.920  1.00 20.00    -0.004 C 
HETATM    4  C6  UNL     1     -34.159   7.333   3.862  1.00 20.00    -0.031 C 
HETATM    5  C7  UNL     1     -34.413   8.745   3.445  1.00 20.00     0.036 C 
ENDBRANCH   2   3
BRANCH   1   6
HETATM    6  C2  UNL     1     -33.505   2.983   4.350  1.00 20.00    -0.010 C 
HETATM    7  C1  UNL     1     -32.763   2.662   5.415  1.00 20.00     0.011 C 
ENDBRANCH   1   6
TORSDOF 2
ENDMDL
MODEL 8
REMARK VINA RESULT:      -1.1      2.853      3.930
REMARK  2 active torsions:
REMARK  status: ('A' for Active; 'I' for Inactive)
REMARK    1  A    between atoms: C2_2  and  C3_3 
REMARK    2  A    between atoms: C4_4  and  C5_5 
ROOT
HETATM    1  C3  UNL     1     -34.696   6.137   4.100  1.00 20.00    -0.001 C 
HETATM    2  C4  UNL     1     -33.781   5.275   3.632  1.00 20.00    -0.000 C 
ENDROOT
BRANCH   2   3
HETATM    3  C5  UNL     1     -33.912   3.840   3.758  1.00 20.00    -0.004 C 
HETATM    4  C6  UNL     1     -33.180   3.109   4.613  1.00 20.00    -0.031 C 
HETATM    5  C7  UNL     1     -33.307   1.628   4.754  1.00 20.00     0.036 C 
ENDBRANCH   2   3
BRANCH   1   6
HETATM    6  C2  UNL     1     -34.564   7.571   3.974  1.00 20.00    -0.010 C 
HETATM    7  C1  UNL     1     -33.573   8.269   4.538  1.00 20.00     0.011 C 
ENDBRANCH   1   6
TORSDOF 2
ENDMDL
MODEL 9
REMARK VINA RESULT:      -0.9      2.149      3.986
REMARK  2 active torsions:
REMARK  status: ('A' for Active; 'I' for Inactive)
REMARK    1  A    between atoms: C2_2  and  C3_3 
REMARK    2  A    between atoms: C4_4  and  C5_5 
ROOT
HETATM    1  C3  UNL     1     -33.803   6.604   3.110  1.00 20.00    -0.001 C 
HETATM    2  C4  UNL     1     -32.820   7.098   2.342  1.00 20.00    -0.000 C 
ENDROOT
BRANCH   2   3
HETATM    3  C5  UNL     1     -32.212   6.353   1.263  1.00 20.00    -0.004 C 
HETATM    4  C6  UNL     1     -32.139   5.013   1.246  1.00 20.00    -0.031 C 
HETATM    5  C7  UNL     1     -31.516   4.232   0.137  1.00 20.00     0.036 C 
ENDBRANCH   2   3
BRANCH   1   6
HETATM    6  C2  UNL     1     -34.409   7.350   4.190  1.00 20.00    -0.010 C 
HETATM    7  C1  UNL     1     -33.724   8.177   4.986  1.00 20.00     0.011 C 
ENDBRANCH   1   6
TORSDOF 2
ENDMDL
