MODEL 1
REMARK VINA RESULT:      -1.0      0.000      0.000
REMARK  1 active torsions:
REMARK  status: ('A' for Active; 'I' for Inactive)
REMARK    1  A    between atoms: C5_5  and  C10_10 
ROOT
HETATM    1  C1  UNL     1     -33.241   7.888   3.924  1.00 20.00     0.011 C 
HETATM    2  C2  UNL     1     -33.280   5.983   2.257  1.00 20.00     0.011 C 
HETATM    3  C3  UNL     1     -34.463   7.351   4.675  1.00 20.00     0.079 C 
HETATM    4  C4  UNL     1     -34.092   5.244   3.325  1.00 20.00     0.079 C 
HETATM    5  C5  UNL     1     -33.253   7.510   2.440  1.00 20.00    -0.007 C 
HETATM    6  C6  UNL     1     -35.105   6.146   4.003  1.00 20.00     0.243 C 
HETATM    7  F11 UNL     1     -35.810   5.439   4.921  1.00 20.00    -0.206 F 
HETATM    8  F12 UNL     1     -36.005   6.572   3.078  1.00 20.00    -0.206 F 
ENDROOT
BRANCH   5   9
HETATM    9  C10 UNL     1     -32.062   8.122   1.704  1.00 20.00    -0.048 C 
HETATM   10  C7  UNL     1     -31.061   8.696   2.721  1.00 20.00     0.015 C 
HETATM   11  C8  UNL     1     -32.547   9.252   0.780  1.00 20.00     0.015 C 
HETATM   12  C9  UNL     1     -31.363   7.043   0.860  1.00 20.00     0.015 C 
ENDBRANCH   5   9
TORSDOF 1
ENDMDL
MODEL 2
REMARK VINA RESULT:      -1.0      0.002      1.253
REMARK  1 active torsions:
REMARK  status: ('A' for Active; 'I' for Inactive)
REMARK    1  A    between atoms: C5_5  and  C10_10 
ROOT
HETATM    1  C1  UNL     1     -33.242   7.887   3.923  1.00 20.00     0.011 C 
HETATM    2  C2  UNL     1     -33.280   5.982   2.257  1.00 20.00     0.011 C 
HETATM    3  C3  UNL     1     -34.464   7.351   4.674  1.00 20.00     0.079 C 
HETATM    4  C4  UNL     1     -34.092   5.243   3.325  1.00 20.00     0.079 C 
HETATM    5  C5  UNL     1     -33.254   7.510   2.439  1.00 20.00    -0.007 C 
HETATM    6  C6  UNL     1     -35.105   6.145   4.003  1.00 20.00     0.243 C 
HETATM    7  F11 UNL     1     -35.810   5.438   4.920  1.00 20.00    -0.206 F 
HETATM    8  F12 UNL     1     -36.006   6.571   3.077  1.00 20.00    -0.206 F 
ENDROOT
BRANCH   5   9
HETATM    9  C10 UNL     1     -32.063   8.122   1.703  1.00 20.00    -0.048 C 
HETATM   10  C7  UNL     1     -32.548   9.253   0.780  1.00 20.00     0.015 C 
HETATM   11  C8  UNL     1     -31.364   7.044   0.858  1.00 20.00     0.015 C 
HETATM   12  C9  UNL     1     -31.063   8.695   2.722  1.00 20.00     0.015 C 
ENDBRANCH   5   9
TORSDOF 1
ENDMDL
MODEL 3
REMARK VINA RESULT:       0.7      2.435      4.563
REMARK  1 active torsions:
REMARK  status: ('A' for Active; 'I' for Inactive)
REMARK    1  A    between atoms: C5_5  and  C10_10 
ROOT
HETATM    1  C1  UNL     1     -32.883   6.076   1.856  1.00 20.00     0.011 C 
HETATM    2  C2  UNL     1     -32.690   8.199   3.221  1.00 20.00     0.011 C 
HETATM    3  C3  UNL     1     -32.081   6.666   0.692  1.00 20.00     0.079 C 
HETATM    4  C4  UNL     1     -31.489   8.507   2.322  1.00 20.00     0.079 C 
HETATM    5  C5  UNL     1     -33.649   7.145   2.641  1.00 20.00    -0.007 C 
HETATM    6  C6  UNL     1     -31.745   8.139   0.874  1.00 20.00     0.243 C 
HETATM    7  F11 UNL     1     -30.662   8.452   0.120  1.00 20.00    -0.206 F 
HETATM    8  F12 UNL     1     -32.770   8.896   0.401  1.00 20.00    -0.206 F 
ENDROOT
BRANCH   5   9
HETATM    9  C10 UNL     1     -34.496   6.518   3.747  1.00 20.00    -0.048 C 
HETATM   10  C7  UNL     1     -34.089   5.047   3.943  1.00 20.00     0.015 C 
HETATM   11  C8  UNL     1     -35.983   6.584   3.363  1.00 20.00     0.015 C 
HETATM   12  C9  UNL     1     -34.279   7.282   5.064  1.00 20.00     0.015 C 
ENDBRANCH   5   9
TORSDOF 1
ENDMDL
