MODEL 1
REMARK VINA RESULT:      -1.4      0.000      0.000
REMARK  3 active torsions:
REMARK  status: ('A' for Active; 'I' for Inactive)
REMARK    1  A    between atoms: C1_1  and  C7_7 
REMARK    2  A    between atoms: C5_5  and  C6_6 
REMARK    3  A    between atoms: C6_6  and  C7_7 
ROOT
HETATM    1  C3  UNL     1     -33.764   6.376   0.619  1.00 20.00     0.024 C 
HETATM    2  C4  UNL     1     -31.718   5.422   1.657  1.00 20.00     0.024 C 
HETATM    3  C7  UNL     1     -32.838   6.465   1.848  1.00 20.00     0.029 C 
ENDROOT
BRANCH   3   4
HETATM    4  C1  UNL     1     -33.647   6.115   3.119  1.00 20.00     0.226 C 
HETATM    5  O8  UNL     1     -33.845   4.951   3.462  1.00 20.00    -0.279 OA
HETATM    6 CL9  UNL     1     -34.242   7.501   4.002  1.00 20.00    -0.043 Cl
ENDBRANCH   3   4
BRANCH   3   7
HETATM    7  C6  UNL     1     -32.233   7.892   1.928  1.00 20.00     0.017 C 
BRANCH   7   8
HETATM    8  C5  UNL     1     -31.831   8.500   0.579  1.00 20.00    -0.003 C 
HETATM    9  C2  UNL     1     -32.474   9.864   0.375  1.00 20.00     0.005 C 
ENDBRANCH   7   8
ENDBRANCH   3   7
TORSDOF 3
ENDMDL
MODEL 2
REMARK VINA RESULT:      -1.2      1.921      2.900
REMARK  3 active torsions:
REMARK  status: ('A' for Active; 'I' for Inactive)
REMARK    1  A    between atoms: C1_1  and  C7_7 
REMARK    2  A    between atoms: C5_5  and  C6_6 
REMARK    3  A    between atoms: C6_6  and  C7_7 
ROOT
HETATM    1  C3  UNL     1     -33.899   7.456   4.627  1.00 20.00     0.024 C 
HETATM    2  C4  UNL     1     -35.767   7.034   3.044  1.00 20.00     0.024 C 
HETATM    3  C7  UNL     1     -34.407   6.495   3.534  1.00 20.00     0.029 C 
ENDROOT
BRANCH   3   4
HETATM    4  C1  UNL     1     -34.609   5.090   4.148  1.00 20.00     0.226 C 
HETATM    5  O8  UNL     1     -35.619   4.800   4.786  1.00 20.00    -0.279 OA
HETATM    6 CL9  UNL     1     -33.293   3.978   3.856  1.00 20.00    -0.043 Cl
ENDBRANCH   3   4
BRANCH   3   7
HETATM    7  C6  UNL     1     -33.389   6.470   2.364  1.00 20.00     0.017 C 
BRANCH   7   8
HETATM    8  C5  UNL     1     -32.290   7.536   2.441  1.00 20.00    -0.003 C 
HETATM    9  C2  UNL     1     -32.289   8.418   1.201  1.00 20.00     0.005 C 
ENDBRANCH   7   8
ENDBRANCH   3   7
TORSDOF 3
ENDMDL
MODEL 3
REMARK VINA RESULT:      -1.1      2.269      4.284
REMARK  3 active torsions:
REMARK  status: ('A' for Active; 'I' for Inactive)
REMARK    1  A    between atoms: C1_1  and  C7_7 
REMARK    2  A    between atoms: C5_5  and  C6_6 
REMARK    3  A    between atoms: C6_6  and  C7_7 
ROOT
HETATM    1  C3  UNL     1     -35.466   6.428   3.205  1.00 20.00     0.024 C 
HETATM    2  C4  UNL     1     -33.783   7.901   4.288  1.00 20.00     0.024 C 
HETATM    3  C7  UNL     1     -33.968   6.564   3.541  1.00 20.00     0.029 C 
ENDROOT
BRANCH   3   4
HETATM    4  C1  UNL     1     -33.155   6.601   2.225  1.00 20.00     0.226 C 
HETATM    5  O8  UNL     1     -33.194   5.680   1.412  1.00 20.00    -0.279 OA
HETATM    6 CL9  UNL     1     -32.195   8.046   2.010  1.00 20.00    -0.043 Cl
ENDBRANCH   3   4
BRANCH   3   7
HETATM    7  C6  UNL     1     -33.540   5.380   4.448  1.00 20.00     0.017 C 
BRANCH   7   8
HETATM    8  C5  UNL     1     -34.113   4.017   4.043  1.00 20.00    -0.003 C 
HETATM    9  C2  UNL     1     -33.291   2.878   4.629  1.00 20.00     0.005 C 
ENDBRANCH   7   8
ENDBRANCH   3   7
TORSDOF 3
ENDMDL
MODEL 4
REMARK VINA RESULT:      -1.0      2.638      4.369
REMARK  3 active torsions:
REMARK  status: ('A' for Active; 'I' for Inactive)
REMARK    1  A    between atoms: C1_1  and  C7_7 
REMARK    2  A    between atoms: C5_5  and  C6_6 
REMARK    3  A    between atoms: C6_6  and  C7_7 
ROOT
HETATM    1  C3  UNL     1     -33.673   5.744   2.051  1.00 20.00     0.024 C 
HETATM    2  C4  UNL     1     -35.703   6.631   3.178  1.00 20.00     0.024 C 
HETATM    3  C7  UNL     1     -34.223   6.254   3.398  1.00 20.00     0.029 C 
ENDROOT
BRANCH   3   4
HETATM    4  C1  UNL     1     -33.436   7.517   3.821  1.00 20.00     0.226 C 
HETATM    5  O8  UNL     1     -33.604   8.049   4.916  1.00 20.00    -0.279 OA
HETATM    6 CL9  UNL     1     -32.310   8.102   2.619  1.00 20.00    -0.043 Cl
ENDBRANCH   3   4
BRANCH   3   7
HETATM    7  C6  UNL     1     -34.109   5.125   4.456  1.00 20.00     0.017 C 
BRANCH   7   8
HETATM    8  C5  UNL     1     -33.764   3.743   3.890  1.00 20.00    -0.003 C 
HETATM    9  C2  UNL     1     -33.096   2.868   4.941  1.00 20.00     0.005 C 
ENDBRANCH   7   8
ENDBRANCH   3   7
TORSDOF 3
ENDMDL
MODEL 5
REMARK VINA RESULT:      -0.8      2.514      4.426
REMARK  3 active torsions:
REMARK  status: ('A' for Active; 'I' for Inactive)
REMARK    1  A    between atoms: C1_1  and  C7_7 
REMARK    2  A    between atoms: C5_5  and  C6_6 
REMARK    3  A    between atoms: C6_6  and  C7_7 
ROOT
HETATM    1  C3  UNL     1     -35.315   6.557   3.271  1.00 20.00     0.024 C 
HETATM    2  C4  UNL     1     -33.711   7.959   4.551  1.00 20.00     0.024 C 
HETATM    3  C7  UNL     1     -33.826   6.726   3.631  1.00 20.00     0.029 C 
ENDROOT
BRANCH   3   4
HETATM    4  C1  UNL     1     -33.018   6.981   2.337  1.00 20.00     0.226 C 
HETATM    5  O8  UNL     1     -32.547   8.085   2.073  1.00 20.00    -0.279 OA
HETATM    6 CL9  UNL     1     -32.843   5.579   1.307  1.00 20.00    -0.043 Cl
ENDBRANCH   3   4
BRANCH   3   7
HETATM    7  C6  UNL     1     -33.334   5.455   4.375  1.00 20.00     0.017 C 
BRANCH   7   8
HETATM    8  C5  UNL     1     -34.159   4.191   4.108  1.00 20.00    -0.003 C 
HETATM    9  C2  UNL     1     -33.407   2.941   4.540  1.00 20.00     0.005 C 
ENDBRANCH   7   8
ENDBRANCH   3   7
TORSDOF 3
ENDMDL
MODEL 6
REMARK VINA RESULT:      -0.8      2.209      3.603
REMARK  3 active torsions:
REMARK  status: ('A' for Active; 'I' for Inactive)
REMARK    1  A    between atoms: C1_1  and  C7_7 
REMARK    2  A    between atoms: C5_5  and  C6_6 
REMARK    3  A    between atoms: C6_6  and  C7_7 
ROOT
HETATM    1  C3  UNL     1     -31.619   5.474   1.226  1.00 20.00     0.024 C 
HETATM    2  C4  UNL     1     -33.794   6.494   0.590  1.00 20.00     0.024 C 
HETATM    3  C7  UNL     1     -32.700   6.475   1.678  1.00 20.00     0.029 C 
ENDROOT
BRANCH   3   4
HETATM    4  C1  UNL     1     -32.071   7.884   1.789  1.00 20.00     0.226 C 
HETATM    5  O8  UNL     1     -31.418   8.228   2.772  1.00 20.00    -0.279 OA
HETATM    6 CL9  UNL     1     -32.371   8.920   0.413  1.00 20.00    -0.043 Cl
ENDBRANCH   3   4
BRANCH   3   7
HETATM    7  C6  UNL     1     -33.297   6.004   3.030  1.00 20.00     0.017 C 
BRANCH   7   8
HETATM    8  C5  UNL     1     -34.355   6.938   3.629  1.00 20.00    -0.003 C 
HETATM    9  C2  UNL     1     -35.548   6.153   4.157  1.00 20.00     0.005 C 
ENDBRANCH   7   8
ENDBRANCH   3   7
TORSDOF 3
ENDMDL
MODEL 7
REMARK VINA RESULT:      -0.7      2.693      3.943
REMARK  3 active torsions:
REMARK  status: ('A' for Active; 'I' for Inactive)
REMARK    1  A    between atoms: C1_1  and  C7_7 
REMARK    2  A    between atoms: C5_5  and  C6_6 
REMARK    3  A    between atoms: C6_6  and  C7_7 
ROOT
HETATM    1  C3  UNL     1     -31.248   8.338   3.092  1.00 20.00     0.024 C 
HETATM    2  C4  UNL     1     -31.982   6.559   1.520  1.00 20.00     0.024 C 
HETATM    3  C7  UNL     1     -32.257   8.006   1.976  1.00 20.00     0.029 C 
ENDROOT
BRANCH   3   4
HETATM    4  C1  UNL     1     -32.028   8.966   0.784  1.00 20.00     0.226 C 
HETATM    5  O8  UNL     1     -31.233   8.704  -0.116  1.00 20.00    -0.279 OA
HETATM    6 CL9  UNL     1     -32.986  10.427   0.838  1.00 20.00    -0.043 Cl
ENDBRANCH   3   4
BRANCH   3   7
HETATM    7  C6  UNL     1     -33.698   8.125   2.539  1.00 20.00     0.017 C 
BRANCH   7   8
HETATM    8  C5  UNL     1     -33.909   7.482   3.915  1.00 20.00    -0.003 C 
HETATM    9  C2  UNL     1     -35.031   6.454   3.876  1.00 20.00     0.005 C 
ENDBRANCH   7   8
ENDBRANCH   3   7
TORSDOF 3
ENDMDL
MODEL 8
REMARK VINA RESULT:      -0.7      1.150      1.591
REMARK  3 active torsions:
REMARK  status: ('A' for Active; 'I' for Inactive)
REMARK    1  A    between atoms: C1_1  and  C7_7 
REMARK    2  A    between atoms: C5_5  and  C6_6 
REMARK    3  A    between atoms: C6_6  and  C7_7 
ROOT
HETATM    1  C3  UNL     1     -32.012   6.234   1.538  1.00 20.00     0.024 C 
HETATM    2  C4  UNL     1     -31.206   8.175   2.863  1.00 20.00     0.024 C 
HETATM    3  C7  UNL     1     -32.460   7.534   2.233  1.00 20.00     0.029 C 
ENDROOT
BRANCH   3   4
HETATM    4  C1  UNL     1     -33.469   7.187   3.353  1.00 20.00     0.226 C 
HETATM    5  O8  UNL     1     -34.236   6.231   3.262  1.00 20.00    -0.279 OA
HETATM    6 CL9  UNL     1     -33.417   8.262   4.731  1.00 20.00    -0.043 Cl
ENDBRANCH   3   4
BRANCH   3   7
HETATM    7  C6  UNL     1     -33.078   8.489   1.179  1.00 20.00     0.017 C 
BRANCH   7   8
HETATM    8  C5  UNL     1     -32.065   9.344   0.409  1.00 20.00    -0.003 C 
HETATM    9  C2  UNL     1     -32.670  10.678  -0.004  1.00 20.00     0.005 C 
ENDBRANCH   7   8
ENDBRANCH   3   7
TORSDOF 3
ENDMDL
MODEL 9
REMARK VINA RESULT:      -0.6      1.531      2.513
REMARK  3 active torsions:
REMARK  status: ('A' for Active; 'I' for Inactive)
REMARK    1  A    between atoms: C1_1  and  C7_7 
REMARK    2  A    between atoms: C5_5  and  C6_6 
REMARK    3  A    between atoms: C6_6  and  C7_7 
ROOT
HETATM    1  C3  UNL     1     -33.397   7.571   4.397  1.00 20.00     0.024 C 
HETATM    2  C4  UNL     1     -35.463   7.201   3.066  1.00 20.00     0.024 C 
HETATM    3  C7  UNL     1     -34.043   6.661   3.333  1.00 20.00     0.029 C 
ENDROOT
BRANCH   3   4
HETATM    4  C1  UNL     1     -34.144   5.222   3.891  1.00 20.00     0.226 C 
HETATM    5  O8  UNL     1     -33.276   4.379   3.674  1.00 20.00    -0.279 OA
HETATM    6 CL9  UNL     1     -35.580   4.914   4.839  1.00 20.00    -0.043 Cl
ENDBRANCH   3   4
BRANCH   3   7
HETATM    7  C6  UNL     1     -33.196   6.715   2.034  1.00 20.00     0.017 C 
BRANCH   7   8
HETATM    8  C5  UNL     1     -32.057   7.742   2.048  1.00 20.00    -0.003 C 
HETATM    9  C2  UNL     1     -32.276   8.822   0.999  1.00 20.00     0.005 C 
ENDBRANCH   7   8
ENDBRANCH   3   7
TORSDOF 3
ENDMDL
