MODEL 1
REMARK VINA RESULT:      -2.1      0.000      0.000
REMARK  0 active torsions:
REMARK  status: ('A' for Active; 'I' for Inactive)
ROOT
HETATM    1  C1  UNL     1     -34.261   6.691   3.731  1.00 20.00    -0.003 A 
HETATM    2  C2  UNL     1     -33.864   5.644   2.808  1.00 20.00    -0.003 A 
HETATM    3  C3  UNL     1     -33.583   7.809   3.412  1.00 20.00    -0.013 A 
HETATM    4  C4  UNL     1     -32.958   6.160   1.957  1.00 20.00    -0.013 A 
HETATM    5  C5  UNL     1     -31.346   8.190   2.143  1.00 20.00     0.019 A 
HETATM    6  C6  UNL     1     -32.457   8.597   1.205  1.00 20.00     0.019 A 
HETATM    7  C7  UNL     1     -32.699   7.572   2.263  1.00 20.00    -0.005 A 
ENDROOT
TORSDOF 0
ENDMDL
MODEL 2
REMARK VINA RESULT:      -2.1      0.016      1.657
REMARK  0 active torsions:
REMARK  status: ('A' for Active; 'I' for Inactive)
ROOT
HETATM    1  C1  UNL     1     -33.878   5.657   2.798  1.00 20.00    -0.003 A 
HETATM    2  C2  UNL     1     -34.272   6.701   3.725  1.00 20.00    -0.003 A 
HETATM    3  C3  UNL     1     -32.965   6.171   1.953  1.00 20.00    -0.013 A 
HETATM    4  C4  UNL     1     -33.586   7.817   3.414  1.00 20.00    -0.013 A 
HETATM    5  C5  UNL     1     -32.448   8.610   1.216  1.00 20.00     0.019 A 
HETATM    6  C6  UNL     1     -31.342   8.193   2.156  1.00 20.00     0.019 A 
HETATM    7  C7  UNL     1     -32.700   7.581   2.267  1.00 20.00    -0.005 A 
ENDROOT
TORSDOF 0
ENDMDL
MODEL 3
REMARK VINA RESULT:      -2.0      0.967      3.199
REMARK  0 active torsions:
REMARK  status: ('A' for Active; 'I' for Inactive)
ROOT
HETATM    1  C1  UNL     1     -32.434   7.007   1.753  1.00 20.00    -0.003 A 
HETATM    2  C2  UNL     1     -32.375   8.015   2.795  1.00 20.00    -0.003 A 
HETATM    3  C3  UNL     1     -33.419   6.142   2.063  1.00 20.00    -0.013 A 
HETATM    4  C4  UNL     1     -33.326   7.731   3.705  1.00 20.00    -0.013 A 
HETATM    5  C5  UNL     1     -34.549   5.522   4.320  1.00 20.00     0.019 A 
HETATM    6  C6  UNL     1     -35.536   6.370   3.556  1.00 20.00     0.019 A 
HETATM    7  C7  UNL     1     -34.069   6.524   3.324  1.00 20.00    -0.005 A 
ENDROOT
TORSDOF 0
ENDMDL
MODEL 4
REMARK VINA RESULT:      -2.0      0.969      2.978
REMARK  0 active torsions:
REMARK  status: ('A' for Active; 'I' for Inactive)
ROOT
HETATM    1  C1  UNL     1     -32.363   8.015   2.816  1.00 20.00    -0.003 A 
HETATM    2  C2  UNL     1     -32.430   7.024   1.758  1.00 20.00    -0.003 A 
HETATM    3  C3  UNL     1     -33.310   7.720   3.726  1.00 20.00    -0.013 A 
HETATM    4  C4  UNL     1     -33.416   6.158   2.059  1.00 20.00    -0.013 A 
HETATM    5  C5  UNL     1     -35.525   6.369   3.562  1.00 20.00     0.019 A 
HETATM    6  C6  UNL     1     -34.539   5.504   4.310  1.00 20.00     0.019 A 
HETATM    7  C7  UNL     1     -34.060   6.521   3.327  1.00 20.00    -0.005 A 
ENDROOT
TORSDOF 0
ENDMDL
MODEL 5
REMARK VINA RESULT:      -1.8      1.127      2.266
REMARK  0 active torsions:
REMARK  status: ('A' for Active; 'I' for Inactive)
ROOT
HETATM    1  C1  UNL     1     -34.604   6.579   4.076  1.00 20.00    -0.003 A 
HETATM    2  C2  UNL     1     -33.851   7.802   3.870  1.00 20.00    -0.003 A 
HETATM    3  C3  UNL     1     -34.210   5.684   3.151  1.00 20.00    -0.013 A 
HETATM    4  C4  UNL     1     -33.022   7.611   2.826  1.00 20.00    -0.013 A 
HETATM    5  C5  UNL     1     -33.096   5.962   0.819  1.00 20.00     0.019 A 
HETATM    6  C6  UNL     1     -32.026   5.461   1.758  1.00 20.00     0.019 A 
HETATM    7  C7  UNL     1     -33.176   6.258   2.279  1.00 20.00    -0.005 A 
ENDROOT
TORSDOF 0
ENDMDL
MODEL 6
REMARK VINA RESULT:      -1.8      1.117      1.932
REMARK  0 active torsions:
REMARK  status: ('A' for Active; 'I' for Inactive)
ROOT
HETATM    1  C1  UNL     1     -33.856   7.797   3.842  1.00 20.00    -0.003 A 
HETATM    2  C2  UNL     1     -34.594   6.569   4.068  1.00 20.00    -0.003 A 
HETATM    3  C3  UNL     1     -33.029   7.602   2.797  1.00 20.00    -0.013 A 
HETATM    4  C4  UNL     1     -34.192   5.666   3.154  1.00 20.00    -0.013 A 
HETATM    5  C5  UNL     1     -32.012   5.447   1.758  1.00 20.00     0.019 A 
HETATM    6  C6  UNL     1     -33.090   5.922   0.814  1.00 20.00     0.019 A 
HETATM    7  C7  UNL     1     -33.169   6.237   2.271  1.00 20.00    -0.005 A 
ENDROOT
TORSDOF 0
ENDMDL
MODEL 7
REMARK VINA RESULT:      -1.6      1.000      2.483
REMARK  0 active torsions:
REMARK  status: ('A' for Active; 'I' for Inactive)
ROOT
HETATM    1  C1  UNL     1     -33.546   7.489   3.589  1.00 20.00    -0.003 A 
HETATM    2  C2  UNL     1     -32.609   8.297   2.832  1.00 20.00    -0.003 A 
HETATM    3  C3  UNL     1     -33.644   6.288   2.987  1.00 20.00    -0.013 A 
HETATM    4  C4  UNL     1     -32.168   7.563   1.793  1.00 20.00    -0.013 A 
HETATM    5  C5  UNL     1     -33.177   5.516   0.549  1.00 20.00     0.019 A 
HETATM    6  C6  UNL     1     -32.042   4.996   1.398  1.00 20.00     0.019 A 
HETATM    7  C7  UNL     1     -32.782   6.229   1.799  1.00 20.00    -0.005 A 
ENDROOT
TORSDOF 0
ENDMDL
MODEL 8
REMARK VINA RESULT:      -1.2      1.270      1.912
REMARK  0 active torsions:
REMARK  status: ('A' for Active; 'I' for Inactive)
ROOT
HETATM    1  C1  UNL     1     -35.434   5.417   4.411  1.00 20.00    -0.003 A 
HETATM    2  C2  UNL     1     -34.378   4.437   4.239  1.00 20.00    -0.003 A 
HETATM    3  C3  UNL     1     -35.064   6.546   3.777  1.00 20.00    -0.013 A 
HETATM    4  C4  UNL     1     -33.400   5.001   3.505  1.00 20.00    -0.013 A 
HETATM    5  C5  UNL     1     -32.736   7.480   3.094  1.00 20.00     0.019 A 
HETATM    6  C6  UNL     1     -33.399   6.988   1.830  1.00 20.00     0.019 A 
HETATM    7  C7  UNL     1     -33.746   6.383   3.149  1.00 20.00    -0.005 A 
ENDROOT
TORSDOF 0
ENDMDL
MODEL 9
REMARK VINA RESULT:      -0.9      2.244      4.072
REMARK  0 active torsions:
REMARK  status: ('A' for Active; 'I' for Inactive)
ROOT
HETATM    1  C1  UNL     1     -34.141   6.386   3.300  1.00 20.00    -0.003 A 
HETATM    2  C2  UNL     1     -35.314   6.064   4.089  1.00 20.00    -0.003 A 
HETATM    3  C3  UNL     1     -33.286   5.349   3.378  1.00 20.00    -0.013 A 
HETATM    4  C4  UNL     1     -35.135   4.840   4.623  1.00 20.00    -0.013 A 
HETATM    5  C5  UNL     1     -32.997   3.455   5.135  1.00 20.00     0.019 A 
HETATM    6  C6  UNL     1     -33.642   2.831   3.922  1.00 20.00     0.019 A 
HETATM    7  C7  UNL     1     -33.839   4.281   4.221  1.00 20.00    -0.005 A 
ENDROOT
TORSDOF 0
ENDMDL
