MODEL 1
REMARK VINA RESULT:      -1.5      0.000      0.000
REMARK  4 active torsions:
REMARK  status: ('A' for Active; 'I' for Inactive)
REMARK    1  A    between atoms: C4_4  and  C7_7 
REMARK    2  A    between atoms: C5_5  and  C8_8 
REMARK    3  A    between atoms: C6_6  and  C8_8 
REMARK    4  A    between atoms: C7_7  and  C8_8 
ROOT
HETATM    1  C8  UNL     1     -32.238   7.916   1.927  1.00 20.00     0.036 C 
HETATM    2 CL9  UNL     1     -31.215   8.653   3.235  1.00 20.00    -0.119 Cl
ENDROOT
BRANCH   1   3
HETATM    3  C5  UNL     1     -32.024   8.767   0.653  1.00 20.00     0.021 C 
HETATM    4  C2  UNL     1     -32.683  10.142   0.678  1.00 20.00     0.007 C 
ENDBRANCH   1   3
BRANCH   1   5
HETATM    5  C6  UNL     1     -31.794   6.437   1.749  1.00 20.00     0.021 C 
HETATM    6  C3  UNL     1     -32.809   5.503   1.099  1.00 20.00     0.007 C 
ENDBRANCH   1   5
BRANCH   1   7
HETATM    7  C7  UNL     1     -33.714   7.914   2.417  1.00 20.00     0.025 C 
BRANCH   7   8
HETATM    8  C4  UNL     1     -33.943   7.484   3.872  1.00 20.00    -0.003 C 
HETATM    9  C1  UNL     1     -35.029   6.421   3.966  1.00 20.00     0.005 C 
ENDBRANCH   7   8
ENDBRANCH   1   7
TORSDOF 4
ENDMDL
MODEL 2
REMARK VINA RESULT:      -0.9      1.745      3.528
REMARK  4 active torsions:
REMARK  status: ('A' for Active; 'I' for Inactive)
REMARK    1  A    between atoms: C4_4  and  C7_7 
REMARK    2  A    between atoms: C5_5  and  C8_8 
REMARK    3  A    between atoms: C6_6  and  C8_8 
REMARK    4  A    between atoms: C7_7  and  C8_8 
ROOT
HETATM    1  C8  UNL     1     -32.898   6.531   1.870  1.00 20.00     0.036 C 
HETATM    2 CL9  UNL     1     -33.914   6.425   0.368  1.00 20.00    -0.119 Cl
ENDROOT
BRANCH   1   3
HETATM    3  C5  UNL     1     -33.825   6.209   3.067  1.00 20.00     0.021 C 
HETATM    4  C2  UNL     1     -34.175   7.402   3.950  1.00 20.00     0.007 C 
ENDBRANCH   1   3
BRANCH   1   5
HETATM    5  C6  UNL     1     -31.725   5.522   1.726  1.00 20.00     0.021 C 
HETATM    6  C3  UNL     1     -31.784   4.588   0.521  1.00 20.00     0.007 C 
ENDBRANCH   1   5
BRANCH   1   7
HETATM    7  C7  UNL     1     -32.290   7.961   1.939  1.00 20.00     0.025 C 
BRANCH   7   8
HETATM    8  C4  UNL     1     -31.838   8.568   0.605  1.00 20.00    -0.003 C 
HETATM    9  C1  UNL     1     -32.508   9.912   0.358  1.00 20.00     0.005 C 
ENDBRANCH   7   8
ENDBRANCH   1   7
TORSDOF 4
ENDMDL
MODEL 3
REMARK VINA RESULT:      -0.7      2.396      3.327
REMARK  4 active torsions:
REMARK  status: ('A' for Active; 'I' for Inactive)
REMARK    1  A    between atoms: C4_4  and  C7_7 
REMARK    2  A    between atoms: C5_5  and  C8_8 
REMARK    3  A    between atoms: C6_6  and  C8_8 
REMARK    4  A    between atoms: C7_7  and  C8_8 
ROOT
HETATM    1  C8  UNL     1     -33.269   6.197   2.467  1.00 20.00     0.036 C 
HETATM    2 CL9  UNL     1     -33.892   6.025   0.769  1.00 20.00    -0.119 Cl
ENDROOT
BRANCH   1   3
HETATM    3  C5  UNL     1     -32.063   7.164   2.409  1.00 20.00     0.021 C 
HETATM    4  C2  UNL     1     -32.106   8.181   1.274  1.00 20.00     0.007 C 
ENDBRANCH   1   3
BRANCH   1   5
HETATM    5  C6  UNL     1     -34.430   6.730   3.351  1.00 20.00     0.021 C 
HETATM    6  C3  UNL     1     -34.065   7.810   4.364  1.00 20.00     0.007 C 
ENDBRANCH   1   5
BRANCH   1   7
HETATM    7  C7  UNL     1     -32.889   4.780   2.984  1.00 20.00     0.025 C 
BRANCH   7   8
HETATM    8  C4  UNL     1     -33.869   4.135   3.972  1.00 20.00    -0.003 C 
HETATM    9  C1  UNL     1     -33.226   2.962   4.698  1.00 20.00     0.005 C 
ENDBRANCH   7   8
ENDBRANCH   1   7
TORSDOF 4
ENDMDL
MODEL 4
REMARK VINA RESULT:      -0.7      0.674      3.493
REMARK  4 active torsions:
REMARK  status: ('A' for Active; 'I' for Inactive)
REMARK    1  A    between atoms: C4_4  and  C7_7 
REMARK    2  A    between atoms: C5_5  and  C8_8 
REMARK    3  A    between atoms: C6_6  and  C8_8 
REMARK    4  A    between atoms: C7_7  and  C8_8 
ROOT
HETATM    1  C8  UNL     1     -32.561   7.564   2.303  1.00 20.00     0.036 C 
HETATM    2 CL9  UNL     1     -31.034   8.354   2.889  1.00 20.00    -0.119 Cl
ENDROOT
BRANCH   1   3
HETATM    3  C5  UNL     1     -32.234   6.069   2.068  1.00 20.00     0.021 C 
HETATM    4  C2  UNL     1     -32.757   5.494   0.756  1.00 20.00     0.007 C 
ENDBRANCH   1   3
BRANCH   1   5
HETATM    5  C6  UNL     1     -33.656   7.780   3.384  1.00 20.00     0.021 C 
HETATM    6  C3  UNL     1     -34.515   6.567   3.725  1.00 20.00     0.007 C 
ENDBRANCH   1   5
BRANCH   1   7
HETATM    7  C7  UNL     1     -33.016   8.298   1.009  1.00 20.00     0.025 C 
BRANCH   7   8
HETATM    8  C4  UNL     1     -32.015   9.294   0.410  1.00 20.00    -0.003 C 
HETATM    9  C1  UNL     1     -32.660  10.655   0.189  1.00 20.00     0.005 C 
ENDBRANCH   7   8
ENDBRANCH   1   7
TORSDOF 4
ENDMDL
MODEL 5
REMARK VINA RESULT:      -0.6      2.611      3.916
REMARK  4 active torsions:
REMARK  status: ('A' for Active; 'I' for Inactive)
REMARK    1  A    between atoms: C4_4  and  C7_7 
REMARK    2  A    between atoms: C5_5  and  C8_8 
REMARK    3  A    between atoms: C6_6  and  C8_8 
REMARK    4  A    between atoms: C7_7  and  C8_8 
ROOT
HETATM    1  C8  UNL     1     -33.975   6.269   3.252  1.00 20.00     0.036 C 
HETATM    2 CL9  UNL     1     -35.778   6.456   3.381  1.00 20.00    -0.119 Cl
ENDROOT
BRANCH   1   3
HETATM    3  C5  UNL     1     -33.671   5.830   1.799  1.00 20.00     0.021 C 
HETATM    4  C2  UNL     1     -32.192   5.812   1.428  1.00 20.00     0.007 C 
ENDBRANCH   1   3
BRANCH   1   5
HETATM    5  C6  UNL     1     -33.326   7.632   3.619  1.00 20.00     0.021 C 
HETATM    6  C3  UNL     1     -33.575   8.137   5.037  1.00 20.00     0.007 C 
ENDBRANCH   1   5
BRANCH   1   7
HETATM    7  C7  UNL     1     -33.523   5.225   4.311  1.00 20.00     0.025 C 
BRANCH   7   8
HETATM    8  C4  UNL     1     -33.928   3.770   4.042  1.00 20.00    -0.003 C 
HETATM    9  C1  UNL     1     -33.091   2.804   4.869  1.00 20.00     0.005 C 
ENDBRANCH   7   8
ENDBRANCH   1   7
TORSDOF 4
ENDMDL
MODEL 6
REMARK VINA RESULT:      -0.4      1.580      3.692
REMARK  4 active torsions:
REMARK  status: ('A' for Active; 'I' for Inactive)
REMARK    1  A    between atoms: C4_4  and  C7_7 
REMARK    2  A    between atoms: C5_5  and  C8_8 
REMARK    3  A    between atoms: C6_6  and  C8_8 
REMARK    4  A    between atoms: C7_7  and  C8_8 
ROOT
HETATM    1  C8  UNL     1     -32.883   6.487   1.794  1.00 20.00     0.036 C 
HETATM    2 CL9  UNL     1     -31.528   5.286   1.645  1.00 20.00    -0.119 Cl
ENDROOT
BRANCH   1   3
HETATM    3  C5  UNL     1     -33.761   6.337   0.528  1.00 20.00     0.021 C 
HETATM    4  C2  UNL     1     -33.821   4.928  -0.050  1.00 20.00     0.007 C 
ENDBRANCH   1   3
BRANCH   1   5
HETATM    5  C6  UNL     1     -33.656   6.176   3.106  1.00 20.00     0.021 C 
HETATM    6  C3  UNL     1     -34.168   7.381   3.888  1.00 20.00     0.007 C 
ENDBRANCH   1   5
BRANCH   1   7
HETATM    7  C7  UNL     1     -32.255   7.904   1.935  1.00 20.00     0.025 C 
BRANCH   7   8
HETATM    8  C4  UNL     1     -31.785   8.567   0.635  1.00 20.00    -0.003 C 
HETATM    9  C1  UNL     1     -32.510   9.883   0.396  1.00 20.00     0.005 C 
ENDBRANCH   7   8
ENDBRANCH   1   7
TORSDOF 4
ENDMDL
MODEL 7
REMARK VINA RESULT:      -0.4      2.129      3.720
REMARK  4 active torsions:
REMARK  status: ('A' for Active; 'I' for Inactive)
REMARK    1  A    between atoms: C4_4  and  C7_7 
REMARK    2  A    between atoms: C5_5  and  C8_8 
REMARK    3  A    between atoms: C6_6  and  C8_8 
REMARK    4  A    between atoms: C7_7  and  C8_8 
ROOT
HETATM    1  C8  UNL     1     -33.678   6.415   3.201  1.00 20.00     0.036 C 
HETATM    2 CL9  UNL     1     -35.475   6.609   3.377  1.00 20.00    -0.119 Cl
ENDROOT
BRANCH   1   3
HETATM    3  C5  UNL     1     -33.020   7.286   4.298  1.00 20.00     0.021 C 
HETATM    4  C2  UNL     1     -33.958   8.268   4.989  1.00 20.00     0.007 C 
ENDBRANCH   1   3
BRANCH   1   5
HETATM    5  C6  UNL     1     -33.344   4.904   3.348  1.00 20.00     0.021 C 
HETATM    6  C3  UNL     1     -34.138   4.138   4.400  1.00 20.00     0.007 C 
ENDBRANCH   1   5
BRANCH   1   7
HETATM    7  C7  UNL     1     -33.286   6.851   1.760  1.00 20.00     0.025 C 
BRANCH   7   8
HETATM    8  C4  UNL     1     -31.995   7.669   1.629  1.00 20.00    -0.003 C 
HETATM    9  C1  UNL     1     -32.252   8.992   0.921  1.00 20.00     0.005 C 
ENDBRANCH   7   8
ENDBRANCH   1   7
TORSDOF 4
ENDMDL
MODEL 8
REMARK VINA RESULT:      -0.3      1.625      2.982
REMARK  4 active torsions:
REMARK  status: ('A' for Active; 'I' for Inactive)
REMARK    1  A    between atoms: C4_4  and  C7_7 
REMARK    2  A    between atoms: C5_5  and  C8_8 
REMARK    3  A    between atoms: C6_6  and  C8_8 
REMARK    4  A    between atoms: C7_7  and  C8_8 
ROOT
HETATM    1  C8  UNL     1     -32.617   6.942   1.962  1.00 20.00     0.036 C 
HETATM    2 CL9  UNL     1     -33.953   6.791   0.741  1.00 20.00    -0.119 Cl
ENDROOT
BRANCH   1   3
HETATM    3  C5  UNL     1     -31.808   5.623   1.912  1.00 20.00     0.021 C 
HETATM    4  C2  UNL     1     -32.082   4.745   0.695  1.00 20.00     0.007 C 
ENDBRANCH   1   3
BRANCH   1   5
HETATM    5  C6  UNL     1     -31.765   8.187   1.588  1.00 20.00     0.021 C 
HETATM    6  C3  UNL     1     -32.444   9.225   0.701  1.00 20.00     0.007 C 
ENDBRANCH   1   5
BRANCH   1   7
HETATM    7  C7  UNL     1     -33.263   7.207   3.352  1.00 20.00     0.025 C 
BRANCH   7   8
HETATM    8  C4  UNL     1     -34.763   6.908   3.467  1.00 20.00    -0.003 C 
HETATM    9  C1  UNL     1     -35.007   5.585   4.179  1.00 20.00     0.005 C 
ENDBRANCH   7   8
ENDBRANCH   1   7
TORSDOF 4
ENDMDL
MODEL 9
REMARK VINA RESULT:      -0.2      0.903      3.324
REMARK  4 active torsions:
REMARK  status: ('A' for Active; 'I' for Inactive)
REMARK    1  A    between atoms: C4_4  and  C7_7 
REMARK    2  A    between atoms: C5_5  and  C8_8 
REMARK    3  A    between atoms: C6_6  and  C8_8 
REMARK    4  A    between atoms: C7_7  and  C8_8 
ROOT
HETATM    1  C8  UNL     1     -32.552   8.145   2.266  1.00 20.00     0.036 C 
HETATM    2 CL9  UNL     1     -31.399   8.654   3.575  1.00 20.00    -0.119 Cl
ENDROOT
BRANCH   1   3
HETATM    3  C5  UNL     1     -33.837   7.644   2.967  1.00 20.00     0.021 C 
HETATM    4  C2  UNL     1     -33.846   7.799   4.484  1.00 20.00     0.007 C 
ENDBRANCH   1   3
BRANCH   1   5
HETATM    5  C6  UNL     1     -32.804   9.373   1.347  1.00 20.00     0.021 C 
HETATM    6  C3  UNL     1     -32.182   9.312  -0.044  1.00 20.00     0.007 C 
ENDBRANCH   1   5
BRANCH   1   7
HETATM    7  C7  UNL     1     -31.855   7.046   1.413  1.00 20.00     0.025 C 
BRANCH   7   8
HETATM    8  C4  UNL     1     -32.585   5.701   1.319  1.00 20.00    -0.003 C 
HETATM    9  C1  UNL     1     -31.695   4.636   0.694  1.00 20.00     0.005 C 
ENDBRANCH   7   8
ENDBRANCH   1   7
TORSDOF 4
ENDMDL
