MODEL 1
REMARK VINA RESULT:      -1.4      0.000      0.000
REMARK  2 active torsions:
REMARK  status: ('A' for Active; 'I' for Inactive)
REMARK    1  A    between atoms: C2_2  and  C6_6 
REMARK    2  A    between atoms: C2_2  and  O9_9 
ROOT
HETATM    1  C1  UNL     1     -34.259   5.090   4.060  1.00 20.00     0.079 C 
HETATM    2  C3  UNL     1     -33.935   7.431   4.721  1.00 20.00     0.042 C 
HETATM    3  C4  UNL     1     -35.711   6.789   3.050  1.00 20.00     0.042 C 
HETATM    4  C6  UNL     1     -34.298   6.486   3.566  1.00 20.00     0.129 C 
HETATM    5  N7  UNL     1     -34.229   3.997   4.449  1.00 20.00    -0.196 NA
ENDROOT
BRANCH   4   6
HETATM    6  C2  UNL     1     -33.288   6.659   2.427  1.00 20.00     0.280 C 
HETATM    7  O8  UNL     1     -33.070   5.825   1.557  1.00 20.00    -0.263 OA
BRANCH   6   8
HETATM    8  O9  UNL     1     -32.667   7.874   2.521  1.00 20.00    -0.325 OA
HETATM    9  C5  UNL     1     -31.895   8.266   1.381  1.00 20.00     0.213 C 
ENDBRANCH   6   8
ENDBRANCH   4   6
TORSDOF 2
ENDMDL
MODEL 2
REMARK VINA RESULT:      -1.0      2.312      3.578
REMARK  2 active torsions:
REMARK  status: ('A' for Active; 'I' for Inactive)
REMARK    1  A    between atoms: C2_2  and  C6_6 
REMARK    2  A    between atoms: C2_2  and  O9_9 
ROOT
HETATM    1  C1  UNL     1     -33.489   6.357   2.442  1.00 20.00     0.079 C 
HETATM    2  C3  UNL     1     -35.802   6.918   3.041  1.00 20.00     0.042 C 
HETATM    3  C4  UNL     1     -33.900   7.396   4.626  1.00 20.00     0.042 C 
HETATM    4  C6  UNL     1     -34.447   6.425   3.571  1.00 20.00     0.129 C 
HETATM    5  N7  UNL     1     -32.740   6.306   1.558  1.00 20.00    -0.196 NA
ENDROOT
BRANCH   4   6
HETATM    6  C2  UNL     1     -34.614   5.035   4.190  1.00 20.00     0.280 C 
HETATM    7  O8  UNL     1     -35.567   4.690   4.881  1.00 20.00    -0.263 OA
BRANCH   6   8
HETATM    8  O9  UNL     1     -33.553   4.237   3.866  1.00 20.00    -0.325 OA
HETATM    9  C5  UNL     1     -33.349   3.100   4.712  1.00 20.00     0.213 C 
ENDBRANCH   6   8
ENDBRANCH   4   6
TORSDOF 2
ENDMDL
MODEL 3
REMARK VINA RESULT:      -0.8      0.769      1.451
REMARK  2 active torsions:
REMARK  status: ('A' for Active; 'I' for Inactive)
REMARK    1  A    between atoms: C2_2  and  C6_6 
REMARK    2  A    between atoms: C2_2  and  O9_9 
ROOT
HETATM    1  C1  UNL     1     -34.247   5.198   4.031  1.00 20.00     0.079 C 
HETATM    2  C3  UNL     1     -33.949   7.515   4.781  1.00 20.00     0.042 C 
HETATM    3  C4  UNL     1     -35.705   6.922   3.072  1.00 20.00     0.042 C 
HETATM    4  C6  UNL     1     -34.293   6.611   3.589  1.00 20.00     0.129 C 
HETATM    5  N7  UNL     1     -34.212   4.092   4.380  1.00 20.00    -0.196 NA
ENDROOT
BRANCH   4   6
HETATM    6  C2  UNL     1     -33.276   6.834   2.466  1.00 20.00     0.280 C 
HETATM    7  O8  UNL     1     -32.591   7.842   2.337  1.00 20.00    -0.263 OA
BRANCH   6   8
HETATM    8  O9  UNL     1     -33.243   5.753   1.630  1.00 20.00    -0.325 OA
HETATM    9  C5  UNL     1     -31.950   5.394   1.131  1.00 20.00     0.213 C 
ENDBRANCH   6   8
ENDBRANCH   4   6
TORSDOF 2
ENDMDL
MODEL 4
REMARK VINA RESULT:      -0.5      2.360      3.535
REMARK  2 active torsions:
REMARK  status: ('A' for Active; 'I' for Inactive)
REMARK    1  A    between atoms: C2_2  and  C6_6 
REMARK    2  A    between atoms: C2_2  and  O9_9 
ROOT
HETATM    1  C1  UNL     1     -33.832   7.354   4.401  1.00 20.00     0.079 C 
HETATM    2  C3  UNL     1     -33.510   6.252   2.233  1.00 20.00     0.042 C 
HETATM    3  C4  UNL     1     -35.814   6.888   3.035  1.00 20.00     0.042 C 
HETATM    4  C6  UNL     1     -34.428   6.381   3.457  1.00 20.00     0.129 C 
HETATM    5  N7  UNL     1     -33.364   8.118   5.139  1.00 20.00    -0.196 NA
ENDROOT
BRANCH   4   6
HETATM    6  C2  UNL     1     -34.566   5.018   4.139  1.00 20.00     0.280 C 
HETATM    7  O8  UNL     1     -35.514   4.682   4.840  1.00 20.00    -0.263 OA
BRANCH   6   8
HETATM    8  O9  UNL     1     -33.485   4.231   3.857  1.00 20.00    -0.325 OA
HETATM    9  C5  UNL     1     -33.333   3.066   4.676  1.00 20.00     0.213 C 
ENDBRANCH   6   8
ENDBRANCH   4   6
TORSDOF 2
ENDMDL
MODEL 5
REMARK VINA RESULT:      -0.5      2.584      3.681
REMARK  2 active torsions:
REMARK  status: ('A' for Active; 'I' for Inactive)
REMARK    1  A    between atoms: C2_2  and  C6_6 
REMARK    2  A    between atoms: C2_2  and  O9_9 
ROOT
HETATM    1  C1  UNL     1     -32.322   7.250   1.662  1.00 20.00     0.079 C 
HETATM    2  C3  UNL     1     -31.532   4.935   1.479  1.00 20.00     0.042 C 
HETATM    3  C4  UNL     1     -33.726   5.640   0.457  1.00 20.00     0.042 C 
HETATM    4  C6  UNL     1     -32.765   5.837   1.637  1.00 20.00     0.129 C 
HETATM    5  N7  UNL     1     -31.975   8.357   1.680  1.00 20.00    -0.196 NA
ENDROOT
BRANCH   4   6
HETATM    6  C2  UNL     1     -33.483   5.497   2.946  1.00 20.00     0.280 C 
HETATM    7  O8  UNL     1     -33.488   4.390   3.471  1.00 20.00    -0.263 OA
BRANCH   6   8
HETATM    8  O9  UNL     1     -34.117   6.602   3.443  1.00 20.00    -0.325 OA
HETATM    9  C5  UNL     1     -35.398   6.368   4.037  1.00 20.00     0.213 C 
ENDBRANCH   6   8
ENDBRANCH   4   6
TORSDOF 2
ENDMDL
MODEL 6
REMARK VINA RESULT:      -0.3      1.832      2.902
REMARK  2 active torsions:
REMARK  status: ('A' for Active; 'I' for Inactive)
REMARK    1  A    between atoms: C2_2  and  C6_6 
REMARK    2  A    between atoms: C2_2  and  O9_9 
ROOT
HETATM    1  C1  UNL     1     -33.730   6.443   2.870  1.00 20.00     0.079 C 
HETATM    2  C3  UNL     1     -33.646   6.483   0.419  1.00 20.00     0.042 C 
HETATM    3  C4  UNL     1     -31.785   5.441   1.763  1.00 20.00     0.042 C 
HETATM    4  C6  UNL     1     -32.819   6.573   1.710  1.00 20.00     0.129 C 
HETATM    5  N7  UNL     1     -34.445   6.339   3.779  1.00 20.00    -0.196 NA
ENDROOT
BRANCH   4   6
HETATM    6  C2  UNL     1     -32.102   7.925   1.765  1.00 20.00     0.280 C 
HETATM    7  O8  UNL     1     -31.649   8.432   2.785  1.00 20.00    -0.263 OA
BRANCH   6   8
HETATM    8  O9  UNL     1     -32.042   8.485   0.519  1.00 20.00    -0.325 OA
HETATM    9  C5  UNL     1     -32.409   9.867   0.441  1.00 20.00     0.213 C 
ENDBRANCH   6   8
ENDBRANCH   4   6
TORSDOF 2
ENDMDL
MODEL 7
REMARK VINA RESULT:      -0.2      1.469      2.054
REMARK  2 active torsions:
REMARK  status: ('A' for Active; 'I' for Inactive)
REMARK    1  A    between atoms: C2_2  and  C6_6 
REMARK    2  A    between atoms: C2_2  and  O9_9 
ROOT
HETATM    1  C1  UNL     1     -33.881   7.475   4.559  1.00 20.00     0.079 C 
HETATM    2  C3  UNL     1     -35.650   6.846   2.981  1.00 20.00     0.042 C 
HETATM    3  C4  UNL     1     -34.234   5.091   4.108  1.00 20.00     0.042 C 
HETATM    4  C6  UNL     1     -34.248   6.502   3.505  1.00 20.00     0.129 C 
HETATM    5  N7  UNL     1     -33.595   8.238   5.386  1.00 20.00    -0.196 NA
ENDROOT
BRANCH   4   6
HETATM    6  C2  UNL     1     -33.239   6.579   2.357  1.00 20.00     0.280 C 
HETATM    7  O8  UNL     1     -33.088   5.713   1.502  1.00 20.00    -0.263 OA
BRANCH   6   8
HETATM    8  O9  UNL     1     -32.531   7.747   2.421  1.00 20.00    -0.325 OA
HETATM    9  C5  UNL     1     -31.912   8.166   1.200  1.00 20.00     0.213 C 
ENDBRANCH   6   8
ENDBRANCH   4   6
TORSDOF 2
ENDMDL
MODEL 8
REMARK VINA RESULT:      -0.1      2.382      3.466
REMARK  2 active torsions:
REMARK  status: ('A' for Active; 'I' for Inactive)
REMARK    1  A    between atoms: C2_2  and  C6_6 
REMARK    2  A    between atoms: C2_2  and  O9_9 
ROOT
HETATM    1  C1  UNL     1     -32.776   7.487   2.576  1.00 20.00     0.079 C 
HETATM    2  C3  UNL     1     -34.810   8.637   3.322  1.00 20.00     0.042 C 
HETATM    3  C4  UNL     1     -33.066   7.882   4.979  1.00 20.00     0.042 C 
HETATM    4  C6  UNL     1     -33.781   7.549   3.662  1.00 20.00     0.129 C 
HETATM    5  N7  UNL     1     -31.988   7.440   1.725  1.00 20.00    -0.196 NA
ENDROOT
BRANCH   4   6
HETATM    6  C2  UNL     1     -34.488   6.197   3.790  1.00 20.00     0.280 C 
HETATM    7  O8  UNL     1     -35.655   6.051   4.135  1.00 20.00    -0.263 OA
BRANCH   6   8
HETATM    8  O9  UNL     1     -33.634   5.180   3.466  1.00 20.00    -0.325 OA
HETATM    9  C5  UNL     1     -33.853   3.943   4.153  1.00 20.00     0.213 C 
ENDBRANCH   6   8
ENDBRANCH   4   6
TORSDOF 2
ENDMDL
MODEL 9
REMARK VINA RESULT:      -0.0      2.750      4.137
REMARK  2 active torsions:
REMARK  status: ('A' for Active; 'I' for Inactive)
REMARK    1  A    between atoms: C2_2  and  C6_6 
REMARK    2  A    between atoms: C2_2  and  O9_9 
ROOT
HETATM    1  C1  UNL     1     -32.506   8.854   1.106  1.00 20.00     0.079 C 
HETATM    2  C3  UNL     1     -30.995   8.211   2.929  1.00 20.00     0.042 C 
HETATM    3  C4  UNL     1     -31.981   6.475   1.389  1.00 20.00     0.042 C 
HETATM    4  C6  UNL     1     -32.232   7.804   2.115  1.00 20.00     0.129 C 
HETATM    5  N7  UNL     1     -32.719   9.677   0.316  1.00 20.00    -0.196 NA
ENDROOT
BRANCH   4   6
HETATM    6  C2  UNL     1     -33.435   7.659   3.050  1.00 20.00     0.280 C 
HETATM    7  O8  UNL     1     -33.888   8.559   3.748  1.00 20.00    -0.263 OA
BRANCH   6   8
HETATM    8  O9  UNL     1     -33.931   6.386   2.996  1.00 20.00    -0.325 OA
HETATM    9  C5  UNL     1     -35.021   6.106   3.880  1.00 20.00     0.213 C 
ENDBRANCH   6   8
ENDBRANCH   4   6
TORSDOF 2
ENDMDL
