MODEL 1
REMARK VINA RESULT:      -3.5      0.000      0.000
REMARK  1 active torsions:
REMARK  status: ('A' for Active; 'I' for Inactive)
REMARK    1  A    between atoms: C2_2  and  C4_4 
ROOT
HETATM    1  C4  UNL     1     -32.161   7.906   2.093  1.00 20.00     0.407 C 
HETATM    2  F5  UNL     1     -31.569   8.476   3.173  1.00 20.00    -0.167 F 
HETATM    3  F6  UNL     1     -31.214   7.155   1.477  1.00 20.00    -0.167 F 
HETATM    4  F7  UNL     1     -32.475   8.915   1.241  1.00 20.00    -0.167 F 
ENDROOT
BRANCH   1   5
HETATM    5  C2  UNL     1     -33.334   7.080   2.490  1.00 20.00     0.084 C 
HETATM    6  C1  UNL     1     -34.007   7.223   3.641  1.00 20.00    -0.026 C 
HETATM    7  C3  UNL     1     -35.182   6.386   4.024  1.00 20.00     0.036 C 
ENDBRANCH   1   5
TORSDOF 1
ENDMDL
MODEL 2
REMARK VINA RESULT:      -3.4      3.014      3.900
REMARK  1 active torsions:
REMARK  status: ('A' for Active; 'I' for Inactive)
REMARK    1  A    between atoms: C2_2  and  C4_4 
ROOT
HETATM    1  C4  UNL     1     -34.927   6.367   3.855  1.00 20.00     0.407 C 
HETATM    2  F5  UNL     1     -34.774   7.241   4.882  1.00 20.00    -0.167 F 
HETATM    3  F6  UNL     1     -36.144   6.613   3.309  1.00 20.00    -0.167 F 
HETATM    4  F7  UNL     1     -34.988   5.126   4.403  1.00 20.00    -0.167 F 
ENDROOT
BRANCH   1   5
HETATM    5  C2  UNL     1     -33.841   6.516   2.850  1.00 20.00     0.084 C 
HETATM    6  C1  UNL     1     -33.028   7.579   2.763  1.00 20.00    -0.026 C 
HETATM    7  C3  UNL     1     -31.942   7.714   1.747  1.00 20.00     0.036 C 
ENDBRANCH   1   5
TORSDOF 1
ENDMDL
MODEL 3
REMARK VINA RESULT:      -3.4      2.996      3.858
REMARK  1 active torsions:
REMARK  status: ('A' for Active; 'I' for Inactive)
REMARK    1  A    between atoms: C2_2  and  C4_4 
ROOT
HETATM    1  C4  UNL     1     -34.905   6.383   3.840  1.00 20.00     0.407 C 
HETATM    2  F5  UNL     1     -34.919   5.141   4.385  1.00 20.00    -0.167 F 
HETATM    3  F6  UNL     1     -34.752   7.260   4.864  1.00 20.00    -0.167 F 
HETATM    4  F7  UNL     1     -36.141   6.599   3.323  1.00 20.00    -0.167 F 
ENDROOT
BRANCH   1   5
HETATM    5  C2  UNL     1     -33.813   6.524   2.839  1.00 20.00     0.084 C 
HETATM    6  C1  UNL     1     -33.014   7.595   2.733  1.00 20.00    -0.026 C 
HETATM    7  C3  UNL     1     -31.922   7.720   1.722  1.00 20.00     0.036 C 
ENDBRANCH   1   5
TORSDOF 1
ENDMDL
MODEL 4
REMARK VINA RESULT:      -3.3      2.998      3.877
REMARK  1 active torsions:
REMARK  status: ('A' for Active; 'I' for Inactive)
REMARK    1  A    between atoms: C2_2  and  C4_4 
ROOT
HETATM    1  C4  UNL     1     -34.897   6.388   3.858  1.00 20.00     0.407 C 
HETATM    2  F5  UNL     1     -36.113   6.623   3.302  1.00 20.00    -0.167 F 
HETATM    3  F6  UNL     1     -34.942   5.138   4.384  1.00 20.00    -0.167 F 
HETATM    4  F7  UNL     1     -34.772   7.246   4.903  1.00 20.00    -0.167 F 
ENDROOT
BRANCH   1   5
HETATM    5  C2  UNL     1     -33.807   6.515   2.854  1.00 20.00     0.084 C 
HETATM    6  C1  UNL     1     -33.019   7.592   2.722  1.00 20.00    -0.026 C 
HETATM    7  C3  UNL     1     -31.929   7.704   1.709  1.00 20.00     0.036 C 
ENDBRANCH   1   5
TORSDOF 1
ENDMDL
MODEL 5
REMARK VINA RESULT:      -3.3      3.243      3.900
REMARK  1 active torsions:
REMARK  status: ('A' for Active; 'I' for Inactive)
REMARK    1  A    between atoms: C2_2  and  C4_4 
ROOT
HETATM    1  C4  UNL     1     -34.851   6.307   3.815  1.00 20.00     0.407 C 
HETATM    2  F5  UNL     1     -34.070   6.510   2.724  1.00 20.00    -0.167 F 
HETATM    3  F6  UNL     1     -36.137   6.461   3.410  1.00 20.00    -0.167 F 
HETATM    4  F7  UNL     1     -34.590   7.322   4.678  1.00 20.00    -0.167 F 
ENDROOT
BRANCH   1   5
HETATM    5  C2  UNL     1     -34.625   4.959   4.401  1.00 20.00     0.084 C 
HETATM    6  C1  UNL     1     -33.621   4.141   4.056  1.00 20.00    -0.026 C 
HETATM    7  C3  UNL     1     -33.407   2.790   4.654  1.00 20.00     0.036 C 
ENDBRANCH   1   5
TORSDOF 1
ENDMDL
MODEL 6
REMARK VINA RESULT:      -3.3      3.234      3.693
REMARK  1 active torsions:
REMARK  status: ('A' for Active; 'I' for Inactive)
REMARK    1  A    between atoms: C2_2  and  C4_4 
ROOT
HETATM    1  C4  UNL     1     -34.853   6.315   3.807  1.00 20.00     0.407 C 
HETATM    2  F5  UNL     1     -34.589   7.325   4.674  1.00 20.00    -0.167 F 
HETATM    3  F6  UNL     1     -34.066   6.514   2.720  1.00 20.00    -0.167 F 
HETATM    4  F7  UNL     1     -36.136   6.478   3.394  1.00 20.00    -0.167 F 
ENDROOT
BRANCH   1   5
HETATM    5  C2  UNL     1     -34.597   4.987   4.427  1.00 20.00     0.084 C 
HETATM    6  C1  UNL     1     -33.650   4.130   4.020  1.00 20.00    -0.026 C 
HETATM    7  C3  UNL     1     -33.405   2.800   4.653  1.00 20.00     0.036 C 
ENDBRANCH   1   5
TORSDOF 1
ENDMDL
MODEL 7
REMARK VINA RESULT:      -3.2      3.149      3.922
REMARK  1 active torsions:
REMARK  status: ('A' for Active; 'I' for Inactive)
REMARK    1  A    between atoms: C2_2  and  C4_4 
ROOT
HETATM    1  C4  UNL     1     -35.071   6.331   3.905  1.00 20.00     0.407 C 
HETATM    2  F5  UNL     1     -35.541   5.443   4.817  1.00 20.00    -0.167 F 
HETATM    3  F6  UNL     1     -34.638   7.413   4.599  1.00 20.00    -0.167 F 
HETATM    4  F7  UNL     1     -36.137   6.740   3.170  1.00 20.00    -0.167 F 
ENDROOT
BRANCH   1   5
HETATM    5  C2  UNL     1     -33.979   5.740   3.084  1.00 20.00     0.084 C 
HETATM    6  C1  UNL     1     -33.244   6.423   2.196  1.00 20.00    -0.026 C 
HETATM    7  C3  UNL     1     -32.151   5.815   1.380  1.00 20.00     0.036 C 
ENDBRANCH   1   5
TORSDOF 1
ENDMDL
MODEL 8
REMARK VINA RESULT:      -2.6      1.596      2.398
REMARK  1 active torsions:
REMARK  status: ('A' for Active; 'I' for Inactive)
REMARK    1  A    between atoms: C2_2  and  C4_4 
ROOT
HETATM    1  C4  UNL     1     -32.658   6.017   1.502  1.00 20.00     0.407 C 
HETATM    2  F5  UNL     1     -33.362   5.978   0.343  1.00 20.00    -0.167 F 
HETATM    3  F6  UNL     1     -32.150   7.271   1.610  1.00 20.00    -0.167 F 
HETATM    4  F7  UNL     1     -31.601   5.180   1.348  1.00 20.00    -0.167 F 
ENDROOT
BRANCH   1   5
HETATM    5  C2  UNL     1     -33.516   5.677   2.669  1.00 20.00     0.084 C 
HETATM    6  C1  UNL     1     -34.371   6.528   3.256  1.00 20.00    -0.026 C 
HETATM    7  C3  UNL     1     -35.225   6.171   4.426  1.00 20.00     0.036 C 
ENDBRANCH   1   5
TORSDOF 1
ENDMDL
MODEL 9
REMARK VINA RESULT:      -2.6      1.576      2.080
REMARK  1 active torsions:
REMARK  status: ('A' for Active; 'I' for Inactive)
REMARK    1  A    between atoms: C2_2  and  C4_4 
ROOT
HETATM    1  C4  UNL     1     -32.677   6.080   1.520  1.00 20.00     0.407 C 
HETATM    2  F5  UNL     1     -31.597   5.265   1.409  1.00 20.00    -0.167 F 
HETATM    3  F6  UNL     1     -33.341   6.014   0.339  1.00 20.00    -0.167 F 
HETATM    4  F7  UNL     1     -32.202   7.347   1.630  1.00 20.00    -0.167 F 
ENDROOT
BRANCH   1   5
HETATM    5  C2  UNL     1     -33.548   5.675   2.656  1.00 20.00     0.084 C 
HETATM    6  C1  UNL     1     -34.399   6.494   3.289  1.00 20.00    -0.026 C 
HETATM    7  C3  UNL     1     -35.267   6.071   4.428  1.00 20.00     0.036 C 
ENDBRANCH   1   5
TORSDOF 1
ENDMDL
