MODEL 1
REMARK VINA RESULT:       0.5      0.000      0.000
REMARK  0 active torsions:
REMARK  status: ('A' for Active; 'I' for Inactive)
ROOT
HETATM    1  C1  UNL     1     -34.885   6.680   2.942  1.00 20.00     0.072 C 
HETATM    2  C2  UNL     1     -34.564   7.490   4.188  1.00 20.00     0.173 C 
HETATM    3  C3  UNL     1     -32.558   7.076   3.050  1.00 20.00     0.255 C 
HETATM    4  C4  UNL     1     -33.565   5.997   2.650  1.00 20.00     0.154 C 
HETATM    5  O5  UNL     1     -33.152   7.760   4.170  1.00 20.00    -0.367 OA
HETATM    6 CL6  UNL     1     -32.264   8.317   1.790  1.00 20.00    -0.092 Cl
HETATM    7 CL7  UNL     1     -33.366   4.573   3.738  1.00 20.00    -0.098 Cl
HETATM    8 CL8  UNL     1     -33.449   5.424   0.975  1.00 20.00    -0.098 Cl
ENDROOT
TORSDOF 0
ENDMDL
MODEL 2
REMARK VINA RESULT:       0.5      2.191      2.788
REMARK  0 active torsions:
REMARK  status: ('A' for Active; 'I' for Inactive)
ROOT
HETATM    1  C1  UNL     1     -33.279   5.529   3.635  1.00 20.00     0.072 C 
HETATM    2  C2  UNL     1     -33.246   5.054   2.192  1.00 20.00     0.173 C 
HETATM    3  C3  UNL     1     -33.334   7.396   2.188  1.00 20.00     0.255 C 
HETATM    4  C4  UNL     1     -33.915   6.899   3.513  1.00 20.00     0.154 C 
HETATM    5  O5  UNL     1     -33.213   6.225   1.358  1.00 20.00    -0.367 OA
HETATM    6 CL6  UNL     1     -31.691   8.102   2.319  1.00 20.00    -0.092 Cl
HETATM    7 CL7  UNL     1     -35.700   6.724   3.345  1.00 20.00    -0.098 Cl
HETATM    8 CL8  UNL     1     -33.596   7.927   4.923  1.00 20.00    -0.098 Cl
ENDROOT
TORSDOF 0
ENDMDL
MODEL 3
REMARK VINA RESULT:       0.6      2.088      2.877
REMARK  0 active torsions:
REMARK  status: ('A' for Active; 'I' for Inactive)
ROOT
HETATM    1  C1  UNL     1     -33.586   8.562   2.127  1.00 20.00     0.072 C 
HETATM    2  C2  UNL     1     -32.204   8.728   1.518  1.00 20.00     0.173 C 
HETATM    3  C3  UNL     1     -32.351   6.568   2.415  1.00 20.00     0.255 C 
HETATM    4  C4  UNL     1     -33.365   7.456   3.139  1.00 20.00     0.154 C 
HETATM    5  O5  UNL     1     -31.522   7.470   1.659  1.00 20.00    -0.367 OA
HETATM    6 CL6  UNL     1     -33.075   5.429   1.235  1.00 20.00    -0.092 Cl
HETATM    7 CL7  UNL     1     -32.600   8.136   4.622  1.00 20.00    -0.098 Cl
HETATM    8 CL8  UNL     1     -34.876   6.660   3.619  1.00 20.00    -0.098 Cl
ENDROOT
TORSDOF 0
ENDMDL
MODEL 4
REMARK VINA RESULT:       1.0      1.702      2.760
REMARK  0 active torsions:
REMARK  status: ('A' for Active; 'I' for Inactive)
ROOT
HETATM    1  C1  UNL     1     -31.684   6.283   1.981  1.00 20.00     0.072 C 
HETATM    2  C2  UNL     1     -31.625   7.712   1.466  1.00 20.00     0.173 C 
HETATM    3  C3  UNL     1     -33.676   7.415   2.559  1.00 20.00     0.255 C 
HETATM    4  C4  UNL     1     -33.175   6.043   2.104  1.00 20.00     0.154 C 
HETATM    5  O5  UNL     1     -32.825   8.372   1.901  1.00 20.00    -0.367 OA
HETATM    6 CL6  UNL     1     -33.517   7.713   4.319  1.00 20.00    -0.092 Cl
HETATM    7 CL7  UNL     1     -33.864   5.673   0.480  1.00 20.00    -0.098 Cl
HETATM    8 CL8  UNL     1     -33.562   4.690   3.183  1.00 20.00    -0.098 Cl
ENDROOT
TORSDOF 0
ENDMDL
MODEL 5
REMARK VINA RESULT:       1.1      1.473      2.720
REMARK  0 active torsions:
REMARK  status: ('A' for Active; 'I' for Inactive)
ROOT
HETATM    1  C1  UNL     1     -32.734   7.166   2.999  1.00 20.00     0.072 C 
HETATM    2  C2  UNL     1     -34.054   7.480   3.684  1.00 20.00     0.173 C 
HETATM    3  C3  UNL     1     -34.131   5.261   2.933  1.00 20.00     0.255 C 
HETATM    4  C4  UNL     1     -33.106   6.017   2.085  1.00 20.00     0.154 C 
HETATM    5  O5  UNL     1     -34.836   6.273   3.676  1.00 20.00    -0.367 OA
HETATM    6 CL6  UNL     1     -33.413   4.148   4.141  1.00 20.00    -0.092 Cl
HETATM    7 CL7  UNL     1     -33.920   6.657   0.610  1.00 20.00    -0.098 Cl
HETATM    8 CL8  UNL     1     -31.696   5.073   1.565  1.00 20.00    -0.098 Cl
ENDROOT
TORSDOF 0
ENDMDL
MODEL 6
REMARK VINA RESULT:       1.3      1.851      3.327
REMARK  0 active torsions:
REMARK  status: ('A' for Active; 'I' for Inactive)
ROOT
HETATM    1  C1  UNL     1     -31.530   8.412   2.874  1.00 20.00     0.072 C 
HETATM    2  C2  UNL     1     -32.711   8.044   3.757  1.00 20.00     0.173 C 
HETATM    3  C3  UNL     1     -33.104   7.179   1.615  1.00 20.00     0.255 C 
HETATM    4  C4  UNL     1     -32.132   8.352   1.484  1.00 20.00     0.154 C 
HETATM    5  O5  UNL     1     -33.602   7.241   2.965  1.00 20.00    -0.367 OA
HETATM    6 CL6  UNL     1     -32.345   5.566   1.423  1.00 20.00    -0.092 Cl
HETATM    7 CL7  UNL     1     -33.067   9.860   1.164  1.00 20.00    -0.098 Cl
HETATM    8 CL8  UNL     1     -30.902   8.192   0.215  1.00 20.00    -0.098 Cl
ENDROOT
TORSDOF 0
ENDMDL
MODEL 7
REMARK VINA RESULT:       1.5      2.095      3.312
REMARK  0 active torsions:
REMARK  status: ('A' for Active; 'I' for Inactive)
ROOT
HETATM    1  C1  UNL     1     -34.169   6.146   1.763  1.00 20.00     0.072 C 
HETATM    2  C2  UNL     1     -32.782   5.701   1.329  1.00 20.00     0.173 C 
HETATM    3  C3  UNL     1     -33.035   5.188   3.601  1.00 20.00     0.255 C 
HETATM    4  C4  UNL     1     -34.001   6.323   3.258  1.00 20.00     0.154 C 
HETATM    5  O5  UNL     1     -32.163   5.067   2.461  1.00 20.00    -0.367 OA
HETATM    6 CL6  UNL     1     -33.818   3.590   3.817  1.00 20.00    -0.092 Cl
HETATM    7 CL7  UNL     1     -33.198   7.901   3.593  1.00 20.00    -0.098 Cl
HETATM    8 CL8  UNL     1     -35.548   6.301   4.126  1.00 20.00    -0.098 Cl
ENDROOT
TORSDOF 0
ENDMDL
MODEL 8
REMARK VINA RESULT:       1.9      2.126      2.865
REMARK  0 active torsions:
REMARK  status: ('A' for Active; 'I' for Inactive)
ROOT
HETATM    1  C1  UNL     1     -33.686   5.697   2.871  1.00 20.00     0.072 C 
HETATM    2  C2  UNL     1     -33.009   6.795   2.067  1.00 20.00     0.173 C 
HETATM    3  C3  UNL     1     -34.047   7.782   3.922  1.00 20.00     0.255 C 
HETATM    4  C4  UNL     1     -34.755   6.459   3.627  1.00 20.00     0.154 C 
HETATM    5  O5  UNL     1     -33.201   8.027   2.782  1.00 20.00    -0.367 OA
HETATM    6 CL6  UNL     1     -32.973   7.743   5.356  1.00 20.00    -0.092 Cl
HETATM    7 CL7  UNL     1     -36.159   6.770   2.541  1.00 20.00    -0.098 Cl
HETATM    8 CL8  UNL     1     -35.348   5.574   5.046  1.00 20.00    -0.098 Cl
ENDROOT
TORSDOF 0
ENDMDL
MODEL 9
REMARK VINA RESULT:       2.1      2.247      3.082
REMARK  0 active torsions:
REMARK  status: ('A' for Active; 'I' for Inactive)
ROOT
HETATM    1  C1  UNL     1     -33.208   6.796   0.890  1.00 20.00     0.072 C 
HETATM    2  C2  UNL     1     -33.136   5.486   1.657  1.00 20.00     0.173 C 
HETATM    3  C3  UNL     1     -33.054   7.243   3.205  1.00 20.00     0.255 C 
HETATM    4  C4  UNL     1     -32.568   7.773   1.855  1.00 20.00     0.154 C 
HETATM    5  O5  UNL     1     -33.113   5.811   3.057  1.00 20.00    -0.367 OA
HETATM    6 CL6  UNL     1     -34.703   7.777   3.660  1.00 20.00    -0.092 Cl
HETATM    7 CL7  UNL     1     -30.775   7.620   1.772  1.00 20.00    -0.098 Cl
HETATM    8 CL8  UNL     1     -32.990   9.459   1.498  1.00 20.00    -0.098 Cl
ENDROOT
TORSDOF 0
ENDMDL
