MODEL 1
REMARK VINA RESULT:      -2.4      0.000      0.000
REMARK  6 active torsions:
REMARK  status: ('A' for Active; 'I' for Inactive)
REMARK    1  A    between atoms: C1_1  and  C4_4 
REMARK    2  A    between atoms: C4_4  and  C5_5 
REMARK    3  A    between atoms: C5_5  and  C6_6 
REMARK    4  A    between atoms: C6_6  and  C7_7 
REMARK    5  A    between atoms: C7_7  and  C8_8 
REMARK    6  A    between atoms: C8_8  and  C9_9 
ROOT
HETATM    1  C6  UNL     1     -31.684   6.581   1.408  1.00 20.00     0.000 C 
ENDROOT
BRANCH   1   2
HETATM    2  C5  UNL     1     -31.904   8.082   1.609  1.00 20.00     0.008 C 
BRANCH   2   3
HETATM    3  C4  UNL     1     -31.465   8.878   0.380  1.00 20.00     0.096 C 
BRANCH   3   4
HETATM    4  C1  UNL     1     -32.488   9.925  -0.024  1.00 20.00     0.218 C 
HETATM    5  O10 UNL     1     -33.097   9.889  -1.089  1.00 20.00    -0.280 OA
HETATM    6 CL11 UNL     1     -32.669  11.149   1.203  1.00 20.00    -0.044 Cl
ENDBRANCH   3   4
ENDBRANCH   2   3
ENDBRANCH   1   2
BRANCH   1   7
HETATM    7  C7  UNL     1     -32.992   5.803   1.572  1.00 20.00     0.000 C 
BRANCH   7   8
HETATM    8  C8  UNL     1     -33.397   5.591   3.036  1.00 20.00     0.004 C 
BRANCH   8   9
HETATM    9  C9  UNL     1     -34.570   6.451   3.541  1.00 20.00    -0.023 C 
HETATM   10  C2  UNL     1     -35.542   5.658   4.414  1.00 20.00     0.009 C 
HETATM   11  C3  UNL     1     -34.029   7.650   4.328  1.00 20.00     0.009 C 
ENDBRANCH   8   9
ENDBRANCH   7   8
ENDBRANCH   1   7
TORSDOF 6
ENDMDL
MODEL 2
REMARK VINA RESULT:      -2.2      4.268      6.020
REMARK  6 active torsions:
REMARK  status: ('A' for Active; 'I' for Inactive)
REMARK    1  A    between atoms: C1_1  and  C4_4 
REMARK    2  A    between atoms: C4_4  and  C5_5 
REMARK    3  A    between atoms: C5_5  and  C6_6 
REMARK    4  A    between atoms: C6_6  and  C7_7 
REMARK    5  A    between atoms: C7_7  and  C8_8 
REMARK    6  A    between atoms: C8_8  and  C9_9 
ROOT
HETATM    1  C6  UNL     1     -35.330   6.156   3.982  1.00 20.00     0.000 C 
ENDROOT
BRANCH   1   2
HETATM    2  C5  UNL     1     -35.038   4.788   4.604  1.00 20.00     0.008 C 
BRANCH   2   3
HETATM    3  C4  UNL     1     -33.799   4.146   3.981  1.00 20.00     0.096 C 
BRANCH   3   4
HETATM    4  C1  UNL     1     -33.322   2.934   4.763  1.00 20.00     0.218 C 
HETATM    5  O10 UNL     1     -33.553   1.781   4.415  1.00 20.00    -0.280 OA
HETATM    6 CL11 UNL     1     -32.427   3.403   6.183  1.00 20.00    -0.044 Cl
ENDBRANCH   3   4
ENDBRANCH   2   3
ENDBRANCH   1   2
BRANCH   1   7
HETATM    7  C7  UNL     1     -34.121   7.087   4.103  1.00 20.00     0.000 C 
BRANCH   7   8
HETATM    8  C8  UNL     1     -33.712   7.733   2.774  1.00 20.00     0.004 C 
BRANCH   8   9
HETATM    9  C9  UNL     1     -32.399   7.219   2.152  1.00 20.00    -0.023 C 
HETATM   10  C2  UNL     1     -32.608   5.964   1.304  1.00 20.00     0.009 C 
HETATM   11  C3  UNL     1     -31.767   8.322   1.297  1.00 20.00     0.009 C 
ENDBRANCH   8   9
ENDBRANCH   7   8
ENDBRANCH   1   7
TORSDOF 6
ENDMDL
MODEL 3
REMARK VINA RESULT:      -2.2      3.729      5.718
REMARK  6 active torsions:
REMARK  status: ('A' for Active; 'I' for Inactive)
REMARK    1  A    between atoms: C1_1  and  C4_4 
REMARK    2  A    between atoms: C4_4  and  C5_5 
REMARK    3  A    between atoms: C5_5  and  C6_6 
REMARK    4  A    between atoms: C6_6  and  C7_7 
REMARK    5  A    between atoms: C7_7  and  C8_8 
REMARK    6  A    between atoms: C8_8  and  C9_9 
ROOT
HETATM    1  C6  UNL     1     -33.188   8.024   3.303  1.00 20.00     0.000 C 
ENDROOT
BRANCH   1   2
HETATM    2  C5  UNL     1     -34.281   7.024   3.688  1.00 20.00     0.008 C 
BRANCH   2   3
HETATM    3  C4  UNL     1     -33.890   5.597   3.304  1.00 20.00     0.096 C 
BRANCH   3   4
HETATM    4  C1  UNL     1     -34.480   4.564   4.248  1.00 20.00     0.218 C 
HETATM    5  O10 UNL     1     -35.588   4.683   4.762  1.00 20.00    -0.280 OA
HETATM    6 CL11 UNL     1     -33.392   3.224   4.489  1.00 20.00    -0.044 Cl
ENDBRANCH   3   4
ENDBRANCH   2   3
ENDBRANCH   1   2
BRANCH   1   7
HETATM    7  C7  UNL     1     -32.332   7.492   2.153  1.00 20.00     0.000 C 
BRANCH   7   8
HETATM    8  C8  UNL     1     -31.694   8.597   1.303  1.00 20.00     0.004 C 
BRANCH   8   9
HETATM    9  C9  UNL     1     -32.673   9.508   0.538  1.00 20.00    -0.023 C 
HETATM   10  C2  UNL     1     -32.612  10.960   1.014  1.00 20.00     0.009 C 
HETATM   11  C3  UNL     1     -32.373   9.443  -0.963  1.00 20.00     0.009 C 
ENDBRANCH   8   9
ENDBRANCH   7   8
ENDBRANCH   1   7
TORSDOF 6
ENDMDL
MODEL 4
REMARK VINA RESULT:      -1.9      0.481      1.103
REMARK  6 active torsions:
REMARK  status: ('A' for Active; 'I' for Inactive)
REMARK    1  A    between atoms: C1_1  and  C4_4 
REMARK    2  A    between atoms: C4_4  and  C5_5 
REMARK    3  A    between atoms: C5_5  and  C6_6 
REMARK    4  A    between atoms: C6_6  and  C7_7 
REMARK    5  A    between atoms: C7_7  and  C8_8 
REMARK    6  A    between atoms: C8_8  and  C9_9 
ROOT
HETATM    1  C6  UNL     1     -31.969   6.540   1.527  1.00 20.00     0.000 C 
ENDROOT
BRANCH   1   2
HETATM    2  C5  UNL     1     -31.936   8.058   1.715  1.00 20.00     0.008 C 
BRANCH   2   3
HETATM    3  C4  UNL     1     -31.491   8.768   0.437  1.00 20.00     0.096 C 
BRANCH   3   4
HETATM    4  C1  UNL     1     -32.469   9.847   0.006  1.00 20.00     0.218 C 
HETATM    5  O10 UNL     1     -33.060   9.823  -1.069  1.00 20.00    -0.280 OA
HETATM    6 CL11 UNL     1     -32.626  11.088   1.219  1.00 20.00    -0.044 Cl
ENDBRANCH   3   4
ENDBRANCH   2   3
ENDBRANCH   1   2
BRANCH   1   7
HETATM    7  C7  UNL     1     -33.367   5.979   1.799  1.00 20.00     0.000 C 
BRANCH   7   8
HETATM    8  C8  UNL     1     -33.582   5.551   3.255  1.00 20.00     0.004 C 
BRANCH   8   9
HETATM    9  C9  UNL     1     -34.555   6.420   4.075  1.00 20.00    -0.023 C 
HETATM   10  C2  UNL     1     -33.980   7.801   4.390  1.00 20.00     0.009 C 
HETATM   11  C3  UNL     1     -35.877   6.571   3.316  1.00 20.00     0.009 C 
ENDBRANCH   8   9
ENDBRANCH   7   8
ENDBRANCH   1   7
TORSDOF 6
ENDMDL
MODEL 5
REMARK VINA RESULT:      -1.9      3.547      5.529
REMARK  6 active torsions:
REMARK  status: ('A' for Active; 'I' for Inactive)
REMARK    1  A    between atoms: C1_1  and  C4_4 
REMARK    2  A    between atoms: C4_4  and  C5_5 
REMARK    3  A    between atoms: C5_5  and  C6_6 
REMARK    4  A    between atoms: C6_6  and  C7_7 
REMARK    5  A    between atoms: C7_7  and  C8_8 
REMARK    6  A    between atoms: C8_8  and  C9_9 
ROOT
HETATM    1  C6  UNL     1     -34.367   7.241   4.405  1.00 20.00     0.000 C 
ENDROOT
BRANCH   1   2
HETATM    2  C5  UNL     1     -35.355   6.158   3.968  1.00 20.00     0.008 C 
BRANCH   2   3
HETATM    3  C4  UNL     1     -35.032   4.813   4.618  1.00 20.00     0.096 C 
BRANCH   3   4
HETATM    4  C1  UNL     1     -33.846   4.126   3.965  1.00 20.00     0.218 C 
HETATM    5  O10 UNL     1     -33.429   4.428   2.850  1.00 20.00    -0.280 OA
HETATM    6 CL11 UNL     1     -33.180   2.886   4.992  1.00 20.00    -0.044 Cl
ENDBRANCH   3   4
ENDBRANCH   2   3
ENDBRANCH   1   2
BRANCH   1   7
HETATM    7  C7  UNL     1     -33.896   8.075   3.211  1.00 20.00     0.000 C 
BRANCH   7   8
HETATM    8  C8  UNL     1     -32.371   8.209   3.121  1.00 20.00     0.004 C 
BRANCH   8   9
HETATM    9  C9  UNL     1     -31.758   7.987   1.726  1.00 20.00    -0.023 C 
HETATM   10  C2  UNL     1     -32.112   6.619   1.143  1.00 20.00     0.009 C 
HETATM   11  C3  UNL     1     -32.228   9.092   0.774  1.00 20.00     0.009 C 
ENDBRANCH   8   9
ENDBRANCH   7   8
ENDBRANCH   1   7
TORSDOF 6
ENDMDL
MODEL 6
REMARK VINA RESULT:      -1.9      1.010      1.591
REMARK  6 active torsions:
REMARK  status: ('A' for Active; 'I' for Inactive)
REMARK    1  A    between atoms: C1_1  and  C4_4 
REMARK    2  A    between atoms: C4_4  and  C5_5 
REMARK    3  A    between atoms: C5_5  and  C6_6 
REMARK    4  A    between atoms: C6_6  and  C7_7 
REMARK    5  A    between atoms: C7_7  and  C8_8 
REMARK    6  A    between atoms: C8_8  and  C9_9 
ROOT
HETATM    1  C6  UNL     1     -32.448   8.100   2.872  1.00 20.00     0.000 C 
ENDROOT
BRANCH   1   2
HETATM    2  C5  UNL     1     -32.017   7.705   1.457  1.00 20.00     0.008 C 
BRANCH   2   3
HETATM    3  C4  UNL     1     -31.377   8.882   0.722  1.00 20.00     0.096 C 
BRANCH   3   4
HETATM    4  C1  UNL     1     -32.411   9.804   0.098  1.00 20.00     0.218 C 
HETATM    5  O10 UNL     1     -32.970   9.559  -0.966  1.00 20.00    -0.280 OA
HETATM    6 CL11 UNL     1     -32.681  11.218   1.080  1.00 20.00    -0.044 Cl
ENDBRANCH   3   4
ENDBRANCH   2   3
ENDBRANCH   1   2
BRANCH   1   7
HETATM    7  C7  UNL     1     -33.606   7.226   3.361  1.00 20.00     0.000 C 
BRANCH   7   8
HETATM    8  C8  UNL     1     -33.531   5.778   2.864  1.00 20.00     0.004 C 
BRANCH   8   9
HETATM    9  C9  UNL     1     -34.436   4.768   3.596  1.00 20.00    -0.023 C 
HETATM   10  C2  UNL     1     -33.636   3.735   4.390  1.00 20.00     0.009 C 
HETATM   11  C3  UNL     1     -35.389   5.515   4.535  1.00 20.00     0.009 C 
ENDBRANCH   8   9
ENDBRANCH   7   8
ENDBRANCH   1   7
TORSDOF 6
ENDMDL
MODEL 7
REMARK VINA RESULT:      -1.9      2.611      4.771
REMARK  6 active torsions:
REMARK  status: ('A' for Active; 'I' for Inactive)
REMARK    1  A    between atoms: C1_1  and  C4_4 
REMARK    2  A    between atoms: C4_4  and  C5_5 
REMARK    3  A    between atoms: C5_5  and  C6_6 
REMARK    4  A    between atoms: C6_6  and  C7_7 
REMARK    5  A    between atoms: C7_7  and  C8_8 
REMARK    6  A    between atoms: C8_8  and  C9_9 
ROOT
HETATM    1  C6  UNL     1     -31.944   6.118   1.317  1.00 20.00     0.000 C 
ENDROOT
BRANCH   1   2
HETATM    2  C5  UNL     1     -33.395   5.831   1.710  1.00 20.00     0.008 C 
BRANCH   2   3
HETATM    3  C4  UNL     1     -33.527   5.580   3.212  1.00 20.00     0.096 C 
BRANCH   3   4
HETATM    4  C1  UNL     1     -34.571   6.475   3.857  1.00 20.00     0.218 C 
HETATM    5  O10 UNL     1     -35.770   6.216   3.850  1.00 20.00    -0.280 OA
HETATM    6 CL11 UNL     1     -33.844   7.880   4.588  1.00 20.00    -0.044 Cl
ENDBRANCH   3   4
ENDBRANCH   2   3
ENDBRANCH   1   2
BRANCH   1   7
HETATM    7  C7  UNL     1     -31.515   7.515   1.770  1.00 20.00     0.000 C 
BRANCH   7   8
HETATM    8  C8  UNL     1     -32.556   8.601   1.474  1.00 20.00     0.004 C 
BRANCH   8   9
HETATM    9  C9  UNL     1     -32.132   9.680   0.459  1.00 20.00    -0.023 C 
HETATM   10  C2  UNL     1     -32.545   9.332  -0.971  1.00 20.00     0.009 C 
HETATM   11  C3  UNL     1     -32.739  11.029   0.858  1.00 20.00     0.009 C 
ENDBRANCH   8   9
ENDBRANCH   7   8
ENDBRANCH   1   7
TORSDOF 6
ENDMDL
MODEL 8
REMARK VINA RESULT:      -1.6      1.919      3.195
REMARK  6 active torsions:
REMARK  status: ('A' for Active; 'I' for Inactive)
REMARK    1  A    between atoms: C1_1  and  C4_4 
REMARK    2  A    between atoms: C4_4  and  C5_5 
REMARK    3  A    between atoms: C5_5  and  C6_6 
REMARK    4  A    between atoms: C6_6  and  C7_7 
REMARK    5  A    between atoms: C7_7  and  C8_8 
REMARK    6  A    between atoms: C8_8  and  C9_9 
ROOT
HETATM    1  C6  UNL     1     -34.499   7.425   4.488  1.00 20.00     0.000 C 
ENDROOT
BRANCH   1   2
HETATM    2  C5  UNL     1     -33.219   7.870   3.777  1.00 20.00     0.008 C 
BRANCH   2   3
HETATM    3  C4  UNL     1     -33.328   7.684   2.264  1.00 20.00     0.096 C 
BRANCH   3   4
HETATM    4  C1  UNL     1     -32.088   8.168   1.533  1.00 20.00     0.218 C 
HETATM    5  O10 UNL     1     -31.008   7.588   1.590  1.00 20.00    -0.280 OA
HETATM    6 CL11 UNL     1     -32.407   9.622   0.627  1.00 20.00    -0.044 Cl
ENDBRANCH   3   4
ENDBRANCH   2   3
ENDBRANCH   1   2
BRANCH   1   7
HETATM    7  C7  UNL     1     -35.108   6.195   3.810  1.00 20.00     0.000 C 
BRANCH   7   8
HETATM    8  C8  UNL     1     -34.879   4.893   4.585  1.00 20.00     0.004 C 
BRANCH   8   9
HETATM    9  C9  UNL     1     -33.988   3.844   3.892  1.00 20.00    -0.023 C 
HETATM   10  C2  UNL     1     -33.048   4.468   2.860  1.00 20.00     0.009 C 
HETATM   11  C3  UNL     1     -33.171   3.085   4.942  1.00 20.00     0.009 C 
ENDBRANCH   8   9
ENDBRANCH   7   8
ENDBRANCH   1   7
TORSDOF 6
ENDMDL
MODEL 9
REMARK VINA RESULT:      -1.6      1.099      1.137
REMARK  6 active torsions:
REMARK  status: ('A' for Active; 'I' for Inactive)
REMARK    1  A    between atoms: C1_1  and  C4_4 
REMARK    2  A    between atoms: C4_4  and  C5_5 
REMARK    3  A    between atoms: C5_5  and  C6_6 
REMARK    4  A    between atoms: C6_6  and  C7_7 
REMARK    5  A    between atoms: C7_7  and  C8_8 
REMARK    6  A    between atoms: C8_8  and  C9_9 
ROOT
HETATM    1  C6  UNL     1     -31.876   6.551   1.104  1.00 20.00     0.000 C 
ENDROOT
BRANCH   1   2
HETATM    2  C5  UNL     1     -31.679   7.885   1.828  1.00 20.00     0.008 C 
BRANCH   2   3
HETATM    3  C4  UNL     1     -32.665   8.941   1.328  1.00 20.00     0.096 C 
BRANCH   3   4
HETATM    4  C1  UNL     1     -32.303   9.460  -0.052  1.00 20.00     0.218 C 
HETATM    5  O10 UNL     1     -33.097  10.061  -0.769  1.00 20.00    -0.280 OA
HETATM    6 CL11 UNL     1     -30.650   9.090  -0.461  1.00 20.00    -0.044 Cl
ENDBRANCH   3   4
ENDBRANCH   2   3
ENDBRANCH   1   2
BRANCH   1   7
HETATM    7  C7  UNL     1     -33.187   5.882   1.523  1.00 20.00     0.000 C 
BRANCH   7   8
HETATM    8  C8  UNL     1     -33.366   5.788   3.043  1.00 20.00     0.004 C 
BRANCH   8   9
HETATM    9  C9  UNL     1     -34.581   6.536   3.625  1.00 20.00    -0.023 C 
HETATM   10  C2  UNL     1     -35.493   5.620   4.442  1.00 20.00     0.009 C 
HETATM   11  C3  UNL     1     -34.101   7.700   4.498  1.00 20.00     0.009 C 
ENDBRANCH   8   9
ENDBRANCH   7   8
ENDBRANCH   1   7
TORSDOF 6
ENDMDL
