MODEL 1
REMARK VINA RESULT:      -2.4      0.000      0.000
REMARK  2 active torsions:
REMARK  status: ('A' for Active; 'I' for Inactive)
REMARK    1  A    between atoms: C1_1  and  C3_3 
REMARK    2  A    between atoms: C2_2  and  C3_3 
ROOT
HETATM    1  C3  UNL     1     -33.172   7.149   2.027  1.00 20.00     0.139 C 
HETATM    2 CL6  UNL     1     -33.778   7.357   3.699  1.00 20.00    -0.120 Cl
ENDROOT
BRANCH   1   3
HETATM    3  C1  UNL     1     -31.914   7.980   1.834  1.00 20.00     0.244 C 
HETATM    4  F4  UNL     1     -32.124   8.917   0.871  1.00 20.00    -0.254 F 
ENDBRANCH   1   3
BRANCH   1   5
HETATM    5  C2  UNL     1     -32.923   5.672   1.761  1.00 20.00     0.244 C 
HETATM    6  F5  UNL     1     -31.660   5.511   1.283  1.00 20.00    -0.254 F 
ENDBRANCH   1   5
TORSDOF 2
ENDMDL
MODEL 2
REMARK VINA RESULT:      -2.3      2.198      2.928
REMARK  2 active torsions:
REMARK  status: ('A' for Active; 'I' for Inactive)
REMARK    1  A    between atoms: C1_1  and  C3_3 
REMARK    2  A    between atoms: C2_2  and  C3_3 
ROOT
HETATM    1  C3  UNL     1     -33.144   6.832   1.956  1.00 20.00     0.139 C 
HETATM    2 CL6  UNL     1     -32.397   5.331   1.328  1.00 20.00    -0.120 Cl
ENDROOT
BRANCH   1   3
HETATM    3  C1  UNL     1     -33.827   6.544   3.282  1.00 20.00     0.244 C 
HETATM    4  F4  UNL     1     -34.132   7.713   3.907  1.00 20.00    -0.254 F 
ENDBRANCH   1   3
BRANCH   1   5
HETATM    5  C2  UNL     1     -32.077   7.908   2.089  1.00 20.00     0.244 C 
HETATM    6  F5  UNL     1     -32.241   8.825   1.098  1.00 20.00    -0.254 F 
ENDBRANCH   1   5
TORSDOF 2
ENDMDL
MODEL 3
REMARK VINA RESULT:      -2.2      2.197      2.906
REMARK  2 active torsions:
REMARK  status: ('A' for Active; 'I' for Inactive)
REMARK    1  A    between atoms: C1_1  and  C3_3 
REMARK    2  A    between atoms: C2_2  and  C3_3 
ROOT
HETATM    1  C3  UNL     1     -33.318   7.097   2.226  1.00 20.00     0.139 C 
HETATM    2 CL6  UNL     1     -31.853   8.108   2.035  1.00 20.00    -0.120 Cl
ENDROOT
BRANCH   1   3
HETATM    3  C1  UNL     1     -32.990   5.653   1.881  1.00 20.00     0.244 C 
HETATM    4  F4  UNL     1     -31.758   5.585   1.307  1.00 20.00    -0.254 F 
ENDBRANCH   1   3
BRANCH   1   5
HETATM    5  C2  UNL     1     -33.844   7.234   3.647  1.00 20.00     0.244 C 
HETATM    6  F5  UNL     1     -35.051   6.614   3.739  1.00 20.00    -0.254 F 
ENDBRANCH   1   5
TORSDOF 2
ENDMDL
MODEL 4
REMARK VINA RESULT:      -2.1      0.625      2.385
REMARK  2 active torsions:
REMARK  status: ('A' for Active; 'I' for Inactive)
REMARK    1  A    between atoms: C1_1  and  C3_3 
REMARK    2  A    between atoms: C2_2  and  C3_3 
ROOT
HETATM    1  C3  UNL     1     -32.620   7.083   2.547  1.00 20.00     0.139 C 
HETATM    2 CL6  UNL     1     -33.996   7.344   3.662  1.00 20.00    -0.120 Cl
ENDROOT
BRANCH   1   3
HETATM    3  C1  UNL     1     -32.921   5.907   1.632  1.00 20.00     0.244 C 
HETATM    4  F4  UNL     1     -31.761   5.303   1.260  1.00 20.00    -0.254 F 
ENDBRANCH   1   3
BRANCH   1   5
HETATM    5  C2  UNL     1     -32.357   8.359   1.763  1.00 20.00     0.244 C 
HETATM    6  F5  UNL     1     -31.306   8.159   0.923  1.00 20.00    -0.254 F 
ENDBRANCH   1   5
TORSDOF 2
ENDMDL
MODEL 5
REMARK VINA RESULT:      -2.1      2.092      2.401
REMARK  2 active torsions:
REMARK  status: ('A' for Active; 'I' for Inactive)
REMARK    1  A    between atoms: C1_1  and  C3_3 
REMARK    2  A    between atoms: C2_2  and  C3_3 
ROOT
HETATM    1  C3  UNL     1     -32.557   7.140   2.450  1.00 20.00     0.139 C 
HETATM    2 CL6  UNL     1     -32.247   8.542   1.380  1.00 20.00    -0.120 Cl
ENDROOT
BRANCH   1   3
HETATM    3  C1  UNL     1     -33.674   7.480   3.423  1.00 20.00     0.244 C 
HETATM    4  F4  UNL     1     -34.555   6.445   3.492  1.00 20.00    -0.254 F 
ENDBRANCH   1   3
BRANCH   1   5
HETATM    5  C2  UNL     1     -32.893   5.924   1.602  1.00 20.00     0.244 C 
HETATM    6  F5  UNL     1     -31.741   5.297   1.242  1.00 20.00    -0.254 F 
ENDBRANCH   1   5
TORSDOF 2
ENDMDL
MODEL 6
REMARK VINA RESULT:      -2.1      2.509      2.718
REMARK  2 active torsions:
REMARK  status: ('A' for Active; 'I' for Inactive)
REMARK    1  A    between atoms: C1_1  and  C3_3 
REMARK    2  A    between atoms: C2_2  and  C3_3 
ROOT
HETATM    1  C3  UNL     1     -33.873   7.483   3.448  1.00 20.00     0.139 C 
HETATM    2 CL6  UNL     1     -33.327   8.134   5.023  1.00 20.00    -0.120 Cl
ENDROOT
BRANCH   1   3
HETATM    3  C1  UNL     1     -32.718   7.502   2.460  1.00 20.00     0.244 C 
HETATM    4  F4  UNL     1     -32.780   6.406   1.657  1.00 20.00    -0.254 F 
ENDBRANCH   1   3
BRANCH   1   5
HETATM    5  C2  UNL     1     -34.426   6.080   3.647  1.00 20.00     0.244 C 
HETATM    6  F5  UNL     1     -35.727   6.162   4.034  1.00 20.00    -0.254 F 
ENDBRANCH   1   5
TORSDOF 2
ENDMDL
MODEL 7
REMARK VINA RESULT:      -2.1      2.352      2.576
REMARK  2 active torsions:
REMARK  status: ('A' for Active; 'I' for Inactive)
REMARK    1  A    between atoms: C1_1  and  C3_3 
REMARK    2  A    between atoms: C2_2  and  C3_3 
ROOT
HETATM    1  C3  UNL     1     -32.884   6.841   2.822  1.00 20.00     0.139 C 
HETATM    2 CL6  UNL     1     -32.970   5.631   1.506  1.00 20.00    -0.120 Cl
ENDROOT
BRANCH   1   3
HETATM    3  C1  UNL     1     -32.393   8.167   2.264  1.00 20.00     0.244 C 
HETATM    4  F4  UNL     1     -31.475   7.944   1.285  1.00 20.00    -0.254 F 
ENDBRANCH   1   3
BRANCH   1   5
HETATM    5  C2  UNL     1     -34.251   6.973   3.476  1.00 20.00     0.244 C 
HETATM    6  F5  UNL     1     -34.164   7.837   4.523  1.00 20.00    -0.254 F 
ENDBRANCH   1   5
TORSDOF 2
ENDMDL
MODEL 8
REMARK VINA RESULT:      -2.1      3.294      3.993
REMARK  2 active torsions:
REMARK  status: ('A' for Active; 'I' for Inactive)
REMARK    1  A    between atoms: C1_1  and  C3_3 
REMARK    2  A    between atoms: C2_2  and  C3_3 
ROOT
HETATM    1  C3  UNL     1     -34.034   6.457   2.972  1.00 20.00     0.139 C 
HETATM    2 CL6  UNL     1     -32.896   5.885   1.714  1.00 20.00    -0.120 Cl
ENDROOT
BRANCH   1   3
HETATM    3  C1  UNL     1     -34.390   5.306   3.899  1.00 20.00     0.244 C 
HETATM    4  F4  UNL     1     -35.642   5.488   4.400  1.00 20.00    -0.254 F 
ENDBRANCH   1   3
BRANCH   1   5
HETATM    5  C2  UNL     1     -33.407   7.619   3.728  1.00 20.00     0.244 C 
HETATM    6  F5  UNL     1     -34.206   7.954   4.776  1.00 20.00    -0.254 F 
ENDBRANCH   1   5
TORSDOF 2
ENDMDL
MODEL 9
REMARK VINA RESULT:      -2.1      2.793      3.137
REMARK  2 active torsions:
REMARK  status: ('A' for Active; 'I' for Inactive)
REMARK    1  A    between atoms: C1_1  and  C3_3 
REMARK    2  A    between atoms: C2_2  and  C3_3 
ROOT
HETATM    1  C3  UNL     1     -33.540   5.784   3.405  1.00 20.00     0.139 C 
HETATM    2 CL6  UNL     1     -33.976   4.126   3.917  1.00 20.00    -0.120 Cl
ENDROOT
BRANCH   1   3
HETATM    3  C1  UNL     1     -33.185   5.784   1.927  1.00 20.00     0.244 C 
HETATM    4  F4  UNL     1     -32.405   6.860   1.639  1.00 20.00    -0.254 F 
ENDBRANCH   1   3
BRANCH   1   5
HETATM    5  C2  UNL     1     -34.694   6.726   3.711  1.00 20.00     0.244 C 
HETATM    6  F5  UNL     1     -35.760   6.001   4.143  1.00 20.00    -0.254 F 
ENDBRANCH   1   5
TORSDOF 2
ENDMDL
