MODEL 1
REMARK VINA RESULT:       0.5      0.000      0.000
REMARK  1 active torsions:
REMARK  status: ('A' for Active; 'I' for Inactive)
REMARK    1  A    between atoms: C1_1  and  C6_6 
ROOT
HETATM    1  C2  UNL     1     -31.449   6.358   1.794  1.00 20.00     0.005 C 
HETATM    2  C3  UNL     1     -32.843   5.854   1.398  1.00 20.00     0.006 C 
HETATM    3  C4  UNL     1     -32.456   7.957   3.436  1.00 20.00     0.016 C 
HETATM    4  C5  UNL     1     -32.779   8.201   1.085  1.00 20.00     0.010 C 
HETATM    5  C6  UNL     1     -33.871   7.487   3.063  1.00 20.00     0.051 C 
HETATM    6  C7  UNL     1     -31.694   7.844   2.102  1.00 20.00    -0.013 C 
HETATM    7  C8  UNL     1     -33.727   7.104   1.575  1.00 20.00    -0.003 C 
ENDROOT
BRANCH   5   8
HETATM    8  C1  UNL     1     -34.374   6.374   3.925  1.00 20.00     0.236 C 
HETATM    9  O9  UNL     1     -35.564   6.105   4.058  1.00 20.00    -0.306 OA
ENDBRANCH   5   8
TORSDOF 1
ENDMDL
MODEL 2
REMARK VINA RESULT:       0.7      2.222      3.348
REMARK  1 active torsions:
REMARK  status: ('A' for Active; 'I' for Inactive)
REMARK    1  A    between atoms: C1_1  and  C6_6 
ROOT
HETATM    1  C2  UNL     1     -34.058   7.482   4.445  1.00 20.00     0.005 C 
HETATM    2  C3  UNL     1     -32.987   6.870   3.533  1.00 20.00     0.006 C 
HETATM    3  C4  UNL     1     -35.281   5.300   4.530  1.00 20.00     0.016 C 
HETATM    4  C5  UNL     1     -35.103   6.562   2.514  1.00 20.00     0.010 C 
HETATM    5  C6  UNL     1     -34.235   4.649   3.611  1.00 20.00     0.051 C 
HETATM    6  C7  UNL     1     -35.340   6.749   4.013  1.00 20.00    -0.013 C 
HETATM    7  C8  UNL     1     -33.778   5.825   2.722  1.00 20.00    -0.003 C 
ENDROOT
BRANCH   5   8
HETATM    8  C1  UNL     1     -33.119   3.988   4.356  1.00 20.00     0.236 C 
HETATM    9  O9  UNL     1     -33.191   2.852   4.813  1.00 20.00    -0.306 OA
ENDBRANCH   5   8
TORSDOF 1
ENDMDL
MODEL 3
REMARK VINA RESULT:       0.9      0.872      2.093
REMARK  1 active torsions:
REMARK  status: ('A' for Active; 'I' for Inactive)
REMARK    1  A    between atoms: C1_1  and  C6_6 
ROOT
HETATM    1  C2  UNL     1     -32.667   8.578   0.629  1.00 20.00     0.005 C 
HETATM    2  C3  UNL     1     -32.826   9.290   1.978  1.00 20.00     0.006 C 
HETATM    3  C4  UNL     1     -32.897   6.347   1.740  1.00 20.00     0.016 C 
HETATM    4  C5  UNL     1     -31.022   7.765   2.145  1.00 20.00     0.010 C 
HETATM    5  C6  UNL     1     -33.052   7.020   3.114  1.00 20.00     0.051 C 
HETATM    6  C7  UNL     1     -31.922   7.286   1.006  1.00 20.00    -0.013 C 
HETATM    7  C8  UNL     1     -32.196   8.295   2.973  1.00 20.00    -0.003 C 
ENDROOT
BRANCH   5   8
HETATM    8  C1  UNL     1     -34.476   7.289   3.486  1.00 20.00     0.236 C 
HETATM    9  O9  UNL     1     -35.218   6.443   3.977  1.00 20.00    -0.306 OA
ENDBRANCH   5   8
TORSDOF 1
ENDMDL
MODEL 4
REMARK VINA RESULT:       1.2      1.974      3.468
REMARK  1 active torsions:
REMARK  status: ('A' for Active; 'I' for Inactive)
REMARK    1  A    between atoms: C1_1  and  C6_6 
ROOT
HETATM    1  C2  UNL     1     -33.886   7.010   5.026  1.00 20.00     0.005 C 
HETATM    2  C3  UNL     1     -33.811   8.191   4.049  1.00 20.00     0.006 C 
HETATM    3  C4  UNL     1     -33.531   5.391   3.150  1.00 20.00     0.016 C 
HETATM    4  C5  UNL     1     -35.510   6.714   3.311  1.00 20.00     0.010 C 
HETATM    5  C6  UNL     1     -33.459   6.544   2.136  1.00 20.00     0.051 C 
HETATM    6  C7  UNL     1     -34.549   5.907   4.185  1.00 20.00    -0.013 C 
HETATM    7  C8  UNL     1     -34.398   7.604   2.750  1.00 20.00    -0.003 C 
ENDROOT
BRANCH   5   8
HETATM    8  C1  UNL     1     -32.068   7.038   1.897  1.00 20.00     0.236 C 
HETATM    9  O9  UNL     1     -31.814   8.101   1.339  1.00 20.00    -0.306 OA
ENDBRANCH   5   8
TORSDOF 1
ENDMDL
MODEL 5
REMARK VINA RESULT:       1.3      2.085      3.442
REMARK  1 active torsions:
REMARK  status: ('A' for Active; 'I' for Inactive)
REMARK    1  A    between atoms: C1_1  and  C6_6 
ROOT
HETATM    1  C2  UNL     1     -33.853   7.290   4.817  1.00 20.00     0.005 C 
HETATM    2  C3  UNL     1     -33.629   8.047   3.501  1.00 20.00     0.006 C 
HETATM    3  C4  UNL     1     -33.910   5.109   3.590  1.00 20.00     0.016 C 
HETATM    4  C5  UNL     1     -35.607   6.759   3.296  1.00 20.00     0.010 C 
HETATM    5  C6  UNL     1     -33.695   5.829   2.249  1.00 20.00     0.051 C 
HETATM    6  C7  UNL     1     -34.753   6.118   4.391  1.00 20.00    -0.013 C 
HETATM    7  C8  UNL     1     -34.389   7.188   2.472  1.00 20.00    -0.003 C 
ENDROOT
BRANCH   5   8
HETATM    8  C1  UNL     1     -32.255   5.944   1.861  1.00 20.00     0.236 C 
HETATM    9  O9  UNL     1     -31.687   5.145   1.124  1.00 20.00    -0.306 OA
ENDBRANCH   5   8
TORSDOF 1
ENDMDL
MODEL 6
REMARK VINA RESULT:       1.3      2.497      3.478
REMARK  1 active torsions:
REMARK  status: ('A' for Active; 'I' for Inactive)
REMARK    1  A    between atoms: C1_1  and  C6_6 
ROOT
HETATM    1  C2  UNL     1     -33.311   6.603   2.067  1.00 20.00     0.005 C 
HETATM    2  C3  UNL     1     -32.034   6.603   1.215  1.00 20.00     0.006 C 
HETATM    3  C4  UNL     1     -33.396   9.104   1.999  1.00 20.00     0.016 C 
HETATM    4  C5  UNL     1     -31.653   7.937   3.136  1.00 20.00     0.010 C 
HETATM    5  C6  UNL     1     -32.114   9.149   1.152  1.00 20.00     0.051 C 
HETATM    6  C7  UNL     1     -33.164   7.883   2.908  1.00 20.00    -0.013 C 
HETATM    7  C8  UNL     1     -31.334   7.910   1.638  1.00 20.00    -0.003 C 
ENDROOT
BRANCH   5   8
HETATM    8  C1  UNL     1     -32.375   9.157  -0.320  1.00 20.00     0.236 C 
HETATM    9  O9  UNL     1     -33.073   9.998  -0.879  1.00 20.00    -0.306 OA
ENDBRANCH   5   8
TORSDOF 1
ENDMDL
MODEL 7
REMARK VINA RESULT:       1.3      1.920      3.057
REMARK  1 active torsions:
REMARK  status: ('A' for Active; 'I' for Inactive)
REMARK    1  A    between atoms: C1_1  and  C6_6 
ROOT
HETATM    1  C2  UNL     1     -32.789   7.876   4.573  1.00 20.00     0.005 C 
HETATM    2  C3  UNL     1     -32.077   8.287   3.277  1.00 20.00     0.006 C 
HETATM    3  C4  UNL     1     -33.983   6.033   3.371  1.00 20.00     0.016 C 
HETATM    4  C5  UNL     1     -34.415   8.330   2.893  1.00 20.00     0.010 C 
HETATM    5  C6  UNL     1     -33.298   6.418   2.049  1.00 20.00     0.051 C 
HETATM    6  C7  UNL     1     -34.161   7.391   4.074  1.00 20.00    -0.013 C 
HETATM    7  C8  UNL     1     -33.112   7.943   2.188  1.00 20.00    -0.003 C 
ENDROOT
BRANCH   5   8
HETATM    8  C1  UNL     1     -32.024   5.675   1.803  1.00 20.00     0.236 C 
HETATM    9  O9  UNL     1     -31.840   4.949   0.831  1.00 20.00    -0.306 OA
ENDBRANCH   5   8
TORSDOF 1
ENDMDL
MODEL 8
REMARK VINA RESULT:       1.5      2.018      3.330
REMARK  1 active torsions:
REMARK  status: ('A' for Active; 'I' for Inactive)
REMARK    1  A    between atoms: C1_1  and  C6_6 
ROOT
HETATM    1  C2  UNL     1     -35.551   6.544   3.706  1.00 20.00     0.005 C 
HETATM    2  C3  UNL     1     -34.519   5.424   3.893  1.00 20.00     0.006 C 
HETATM    3  C4  UNL     1     -33.901   7.893   2.394  1.00 20.00     0.016 C 
HETATM    4  C5  UNL     1     -33.591   7.443   4.716  1.00 20.00     0.010 C 
HETATM    5  C6  UNL     1     -32.834   6.799   2.564  1.00 20.00     0.051 C 
HETATM    6  C7  UNL     1     -34.686   7.816   3.716  1.00 20.00    -0.013 C 
HETATM    7  C8  UNL     1     -33.182   6.189   3.938  1.00 20.00    -0.003 C 
ENDROOT
BRANCH   5   8
HETATM    8  C1  UNL     1     -32.822   5.803   1.449  1.00 20.00     0.236 C 
HETATM    9  O9  UNL     1     -31.822   5.176   1.113  1.00 20.00    -0.306 OA
ENDBRANCH   5   8
TORSDOF 1
ENDMDL
MODEL 9
REMARK VINA RESULT:       1.6      0.986      1.807
REMARK  1 active torsions:
REMARK  status: ('A' for Active; 'I' for Inactive)
REMARK    1  A    between atoms: C1_1  and  C6_6 
ROOT
HETATM    1  C2  UNL     1     -33.322   5.456   0.620  1.00 20.00     0.005 C 
HETATM    2  C3  UNL     1     -33.806   6.899   0.816  1.00 20.00     0.006 C 
HETATM    3  C4  UNL     1     -32.973   5.204   3.086  1.00 20.00     0.016 C 
HETATM    4  C5  UNL     1     -31.650   6.696   1.776  1.00 20.00     0.010 C 
HETATM    5  C6  UNL     1     -33.443   6.648   3.325  1.00 20.00     0.051 C 
HETATM    6  C7  UNL     1     -32.262   5.295   1.723  1.00 20.00    -0.013 C 
HETATM    7  C8  UNL     1     -32.998   7.374   2.039  1.00 20.00    -0.003 C 
ENDROOT
BRANCH   5   8
HETATM    8  C1  UNL     1     -34.909   6.756   3.602  1.00 20.00     0.236 C 
HETATM    9  O9  UNL     1     -35.545   5.909   4.220  1.00 20.00    -0.306 OA
ENDBRANCH   5   8
TORSDOF 1
ENDMDL
