MODEL 1
REMARK VINA RESULT:       1.8      0.000      0.000
REMARK  2 active torsions:
REMARK  status: ('A' for Active; 'I' for Inactive)
REMARK    1  A    between atoms: C7_7  and  C10_10 
REMARK    2  A    between atoms: C8_8  and  C9_9 
ROOT
HETATM    1  C1  UNL     1     -33.395   7.971   1.803  1.00 20.00    -0.019 A 
HETATM    2  C3  UNL     1     -32.326   8.346   1.089  1.00 20.00    -0.087 A 
HETATM    3  C5  UNL     1     -31.372   7.218   0.846  1.00 20.00     0.039 A 
HETATM    4  C8  UNL     1     -33.370   6.520   2.153  1.00 20.00     0.021 A 
HETATM    5  C10 UNL     1     -32.023   6.009   1.533  1.00 20.00     0.005 A 
HETATM    6  C11 UNL     1     -32.041   9.710   0.573  1.00 20.00     0.043 C 
ENDROOT
BRANCH   4   7
HETATM    7  C9  UNL     1     -33.190   6.207   3.661  1.00 20.00     0.022 C 
HETATM    8  C4  UNL     1     -33.904   7.304   4.426  1.00 20.00    -0.082 C 
HETATM    9  C2  UNL     1     -35.223   7.123   4.247  1.00 20.00    -0.019 C 
HETATM   10  C12 UNL     1     -33.195   8.374   5.164  1.00 20.00     0.043 C 
HETATM   11  C7  UNL     1     -35.390   5.908   3.360  1.00 20.00     0.014 C 
HETATM   12  C6  UNL     1     -34.211   5.084   3.890  1.00 20.00     0.018 C 
ENDBRANCH   4   7
TORSDOF 2
ENDMDL
MODEL 2
REMARK VINA RESULT:       1.9      1.075      4.458
REMARK  2 active torsions:
REMARK  status: ('A' for Active; 'I' for Inactive)
REMARK    1  A    between atoms: C7_7  and  C10_10 
REMARK    2  A    between atoms: C8_8  and  C9_9 
ROOT
HETATM    1  C1  UNL     1     -34.274   6.739   2.859  1.00 20.00    -0.019 A 
HETATM    2  C3  UNL     1     -34.717   6.487   4.096  1.00 20.00    -0.087 A 
HETATM    3  C5  UNL     1     -34.144   7.423   5.115  1.00 20.00     0.039 A 
HETATM    4  C8  UNL     1     -33.339   7.903   2.811  1.00 20.00     0.021 A 
HETATM    5  C10 UNL     1     -33.235   8.360   4.307  1.00 20.00     0.005 A 
HETATM    6  C11 UNL     1     -35.660   5.411   4.497  1.00 20.00     0.043 C 
ENDROOT
BRANCH   4   7
HETATM    7  C9  UNL     1     -31.870   7.557   2.458  1.00 20.00     0.022 C 
HETATM    8  C4  UNL     1     -31.893   6.857   1.112  1.00 20.00    -0.082 C 
HETATM    9  C2  UNL     1     -32.204   7.781   0.188  1.00 20.00    -0.019 C 
HETATM   10  C12 UNL     1     -31.659   5.405   0.948  1.00 20.00     0.043 C 
HETATM   11  C7  UNL     1     -32.392   9.095   0.915  1.00 20.00     0.014 C 
HETATM   12  C6  UNL     1     -31.314   8.909   1.989  1.00 20.00     0.018 C 
ENDBRANCH   4   7
TORSDOF 2
ENDMDL
MODEL 3
REMARK VINA RESULT:       2.7      0.830      3.952
REMARK  2 active torsions:
REMARK  status: ('A' for Active; 'I' for Inactive)
REMARK    1  A    between atoms: C7_7  and  C10_10 
REMARK    2  A    between atoms: C8_8  and  C9_9 
ROOT
HETATM    1  C1  UNL     1     -32.945   7.428   3.850  1.00 20.00    -0.019 A 
HETATM    2  C3  UNL     1     -33.950   7.682   4.696  1.00 20.00    -0.087 A 
HETATM    3  C5  UNL     1     -35.138   6.802   4.461  1.00 20.00     0.039 A 
HETATM    4  C8  UNL     1     -33.261   6.316   2.903  1.00 20.00     0.021 A 
HETATM    5  C10 UNL     1     -34.722   5.899   3.291  1.00 20.00     0.005 A 
HETATM    6  C11 UNL     1     -33.967   8.714   5.766  1.00 20.00     0.043 C 
ENDROOT
BRANCH   4   7
HETATM    7  C9  UNL     1     -33.410   6.735   1.418  1.00 20.00     0.022 C 
HETATM    8  C4  UNL     1     -32.212   7.602   1.083  1.00 20.00    -0.082 C 
HETATM    9  C2  UNL     1     -31.135   6.799   1.051  1.00 20.00    -0.019 C 
HETATM   10  C12 UNL     1     -32.296   9.068   0.895  1.00 20.00     0.043 C 
HETATM   11  C7  UNL     1     -31.613   5.399   1.369  1.00 20.00     0.014 C 
HETATM   12  C6  UNL     1     -32.976   5.467   0.671  1.00 20.00     0.018 C 
ENDBRANCH   4   7
TORSDOF 2
ENDMDL
MODEL 4
REMARK VINA RESULT:       3.2      1.129      2.825
REMARK  2 active torsions:
REMARK  status: ('A' for Active; 'I' for Inactive)
REMARK    1  A    between atoms: C7_7  and  C10_10 
REMARK    2  A    between atoms: C8_8  and  C9_9 
ROOT
HETATM    1  C1  UNL     1     -32.510   5.545   2.274  1.00 20.00    -0.019 A 
HETATM    2  C3  UNL     1     -31.935   5.563   1.065  1.00 20.00    -0.087 A 
HETATM    3  C5  UNL     1     -31.686   6.952   0.566  1.00 20.00     0.039 A 
HETATM    4  C8  UNL     1     -32.734   6.916   2.821  1.00 20.00     0.021 A 
HETATM    5  C10 UNL     1     -32.202   7.862   1.690  1.00 20.00     0.005 A 
HETATM    6  C11 UNL     1     -31.568   4.381   0.243  1.00 20.00     0.043 C 
ENDROOT
BRANCH   4   7
HETATM    7  C9  UNL     1     -34.220   7.342   2.949  1.00 20.00     0.022 C 
HETATM    8  C4  UNL     1     -34.756   6.695   4.211  1.00 20.00    -0.082 C 
HETATM    9  C2  UNL     1     -34.185   7.319   5.254  1.00 20.00    -0.019 C 
HETATM   10  C12 UNL     1     -35.694   5.550   4.201  1.00 20.00     0.043 C 
HETATM   11  C7  UNL     1     -33.264   8.379   4.690  1.00 20.00     0.014 C 
HETATM   12  C6  UNL     1     -34.108   8.780   3.475  1.00 20.00     0.018 C 
ENDBRANCH   4   7
TORSDOF 2
ENDMDL
MODEL 5
REMARK VINA RESULT:       3.2      1.364      4.231
REMARK  2 active torsions:
REMARK  status: ('A' for Active; 'I' for Inactive)
REMARK    1  A    between atoms: C7_7  and  C10_10 
REMARK    2  A    between atoms: C8_8  and  C9_9 
ROOT
HETATM    1  C1  UNL     1     -33.172   4.631   3.210  1.00 20.00    -0.019 A 
HETATM    2  C3  UNL     1     -33.779   3.861   4.121  1.00 20.00    -0.087 A 
HETATM    3  C5  UNL     1     -34.885   4.575   4.834  1.00 20.00     0.039 A 
HETATM    4  C8  UNL     1     -33.770   5.997   3.125  1.00 20.00     0.021 A 
HETATM    5  C10 UNL     1     -34.902   5.978   4.208  1.00 20.00     0.005 A 
HETATM    6  C11 UNL     1     -33.443   2.453   4.455  1.00 20.00     0.043 C 
ENDROOT
BRANCH   4   7
HETATM    7  C9  UNL     1     -32.854   7.150   3.611  1.00 20.00     0.022 C 
HETATM    8  C4  UNL     1     -32.523   7.991   2.393  1.00 20.00    -0.082 C 
HETATM    9  C2  UNL     1     -33.644   8.641   2.039  1.00 20.00    -0.019 C 
HETATM   10  C12 UNL     1     -31.192   7.993   1.745  1.00 20.00     0.043 C 
HETATM   11  C7  UNL     1     -34.725   8.230   3.016  1.00 20.00     0.014 C 
HETATM   12  C6  UNL     1     -33.853   8.111   4.271  1.00 20.00     0.018 C 
ENDBRANCH   4   7
TORSDOF 2
ENDMDL
MODEL 6
REMARK VINA RESULT:       3.4      1.940      3.448
REMARK  2 active torsions:
REMARK  status: ('A' for Active; 'I' for Inactive)
REMARK    1  A    between atoms: C7_7  and  C10_10 
REMARK    2  A    between atoms: C8_8  and  C9_9 
ROOT
HETATM    1  C1  UNL     1     -32.247   8.125   0.268  1.00 20.00    -0.019 A 
HETATM    2  C3  UNL     1     -32.406   9.408   0.613  1.00 20.00    -0.087 A 
HETATM    3  C5  UNL     1     -32.385   9.613   2.096  1.00 20.00     0.039 A 
HETATM    4  C8  UNL     1     -32.069   7.232   1.452  1.00 20.00     0.021 A 
HETATM    5  C10 UNL     1     -32.170   8.207   2.675  1.00 20.00     0.005 A 
HETATM    6  C11 UNL     1     -32.599  10.556  -0.311  1.00 20.00     0.043 C 
ENDROOT
BRANCH   4   7
HETATM    7  C9  UNL     1     -33.231   6.239   1.712  1.00 20.00     0.022 C 
HETATM    8  C4  UNL     1     -33.328   5.344   0.491  1.00 20.00    -0.082 C 
HETATM    9  C2  UNL     1     -32.252   4.540   0.500  1.00 20.00    -0.019 C 
HETATM   10  C12 UNL     1     -34.417   5.446  -0.506  1.00 20.00     0.043 C 
HETATM   11  C7  UNL     1     -31.435   4.900   1.722  1.00 20.00     0.014 C 
HETATM   12  C6  UNL     1     -32.593   5.226   2.673  1.00 20.00     0.018 C 
ENDBRANCH   4   7
TORSDOF 2
ENDMDL
MODEL 7
REMARK VINA RESULT:       3.7      1.185      4.461
REMARK  2 active torsions:
REMARK  status: ('A' for Active; 'I' for Inactive)
REMARK    1  A    between atoms: C7_7  and  C10_10 
REMARK    2  A    between atoms: C8_8  and  C9_9 
ROOT
HETATM    1  C1  UNL     1     -33.158   5.877   2.027  1.00 20.00    -0.019 A 
HETATM    2  C3  UNL     1     -33.698   5.500   3.192  1.00 20.00    -0.087 A 
HETATM    3  C5  UNL     1     -34.151   6.662   4.020  1.00 20.00     0.039 A 
HETATM    4  C8  UNL     1     -33.166   7.359   1.845  1.00 20.00     0.021 A 
HETATM    5  C10 UNL     1     -33.813   7.895   3.168  1.00 20.00     0.005 A 
HETATM    6  C11 UNL     1     -33.854   4.107   3.686  1.00 20.00     0.043 C 
ENDROOT
BRANCH   4   7
HETATM    7  C9  UNL     1     -31.771   8.034   1.851  1.00 20.00     0.022 C 
HETATM    8  C4  UNL     1     -31.572   8.647   0.478  1.00 20.00    -0.082 C 
HETATM    9  C2  UNL     1     -32.402   9.699   0.387  1.00 20.00    -0.019 C 
HETATM   10  C12 UNL     1     -30.649   8.088  -0.535  1.00 20.00     0.043 C 
HETATM   11  C7  UNL     1     -33.158   9.786   1.695  1.00 20.00     0.014 C 
HETATM   12  C6  UNL     1     -32.033   9.330   2.631  1.00 20.00     0.018 C 
ENDBRANCH   4   7
TORSDOF 2
ENDMDL
MODEL 8
REMARK VINA RESULT:       4.0      1.121      4.166
REMARK  2 active torsions:
REMARK  status: ('A' for Active; 'I' for Inactive)
REMARK    1  A    between atoms: C7_7  and  C10_10 
REMARK    2  A    between atoms: C8_8  and  C9_9 
ROOT
HETATM    1  C1  UNL     1     -34.223   7.294   3.549  1.00 20.00    -0.019 A 
HETATM    2  C3  UNL     1     -34.663   6.079   3.895  1.00 20.00    -0.087 A 
HETATM    3  C5  UNL     1     -33.803   4.979   3.354  1.00 20.00     0.039 A 
HETATM    4  C8  UNL     1     -32.975   7.240   2.730  1.00 20.00     0.021 A 
HETATM    5  C10 UNL     1     -32.692   5.705   2.583  1.00 20.00     0.005 A 
HETATM    6  C11 UNL     1     -35.867   5.773   4.710  1.00 20.00     0.043 C 
ENDROOT
BRANCH   4   7
HETATM    7  C9  UNL     1     -33.130   7.700   1.258  1.00 20.00     0.022 C 
HETATM    8  C4  UNL     1     -32.354   8.995   1.117  1.00 20.00    -0.082 C 
HETATM    9  C2  UNL     1     -31.049   8.689   1.189  1.00 20.00    -0.019 C 
HETATM   10  C12 UNL     1     -33.002  10.320   0.985  1.00 20.00     0.043 C 
HETATM   11  C7  UNL     1     -30.952   7.191   1.382  1.00 20.00     0.014 C 
HETATM   12  C6  UNL     1     -32.149   6.779   0.518  1.00 20.00     0.018 C 
ENDBRANCH   4   7
TORSDOF 2
ENDMDL
MODEL 9
REMARK VINA RESULT:       4.4      1.125      2.389
REMARK  2 active torsions:
REMARK  status: ('A' for Active; 'I' for Inactive)
REMARK    1  A    between atoms: C7_7  and  C10_10 
REMARK    2  A    between atoms: C8_8  and  C9_9 
ROOT
HETATM    1  C1  UNL     1     -31.907   6.977   1.859  1.00 20.00    -0.019 A 
HETATM    2  C3  UNL     1     -31.965   8.181   1.278  1.00 20.00    -0.087 A 
HETATM    3  C5  UNL     1     -33.055   9.040   1.840  1.00 20.00     0.039 A 
HETATM    4  C8  UNL     1     -32.931   6.810   2.933  1.00 20.00     0.021 A 
HETATM    5  C10 UNL     1     -33.709   8.171   2.923  1.00 20.00     0.005 A 
HETATM    6  C11 UNL     1     -31.091   8.678   0.184  1.00 20.00     0.043 C 
ENDROOT
BRANCH   4   7
HETATM    7  C9  UNL     1     -34.048   5.778   2.628  1.00 20.00     0.022 C 
HETATM    8  C4  UNL     1     -34.084   4.811   3.795  1.00 20.00    -0.082 C 
HETATM    9  C2  UNL     1     -34.585   5.476   4.849  1.00 20.00    -0.019 C 
HETATM   10  C12 UNL     1     -33.586   3.419   3.713  1.00 20.00     0.043 C 
HETATM   11  C7  UNL     1     -34.878   6.887   4.388  1.00 20.00     0.014 C 
HETATM   12  C6  UNL     1     -35.325   6.563   2.958  1.00 20.00     0.018 C 
ENDBRANCH   4   7
TORSDOF 2
ENDMDL
