MODEL 1
REMARK VINA RESULT:      -2.2      0.000      0.000
REMARK  1 active torsions:
REMARK  status: ('A' for Active; 'I' for Inactive)
REMARK    1  A    between atoms: C4_4  and  C7_7 
ROOT
HETATM    1  C1  UNL     1     -32.152   9.318   0.627  1.00 20.00     0.063 C 
HETATM    2  C7  UNL     1     -31.496   8.235   1.378  1.00 20.00     0.165 C 
HETATM    3  N8  UNL     1     -32.668  10.171   0.034  1.00 20.00    -0.197 NA
ENDROOT
BRANCH   2   4
HETATM    4  C4  UNL     1     -32.500   7.444   2.145  1.00 20.00    -0.006 A 
HETATM    5  C3  UNL     1     -33.234   8.061   3.145  1.00 20.00     0.128 A 
HETATM    6  N9  UNL     1     -34.166   7.432   3.896  1.00 20.00    -0.248 NA
HETATM    7  C6  UNL     1     -34.369   6.124   3.630  1.00 20.00     0.127 A 
HETATM    8  C2  UNL     1     -33.688   5.416   2.652  1.00 20.00     0.068 A 
HETATM    9 CL11 UNL     1     -35.559   5.367   4.606  1.00 20.00    -0.062 Cl
HETATM   10  C5  UNL     1     -32.737   6.097   1.899  1.00 20.00     0.045 A 
HETATM   11 CL10 UNL     1     -31.874   5.240   0.676  1.00 20.00    -0.084 Cl
ENDBRANCH   2   4
TORSDOF 1
ENDMDL
MODEL 2
REMARK VINA RESULT:      -1.6      2.382      4.967
REMARK  1 active torsions:
REMARK  status: ('A' for Active; 'I' for Inactive)
REMARK    1  A    between atoms: C4_4  and  C7_7 
ROOT
HETATM    1  C1  UNL     1     -33.847   3.915   4.393  1.00 20.00     0.063 C 
HETATM    2  C7  UNL     1     -34.608   5.127   4.050  1.00 20.00     0.165 C 
HETATM    3  N8  UNL     1     -33.248   2.959   4.663  1.00 20.00    -0.197 NA
ENDROOT
BRANCH   2   4
HETATM    4  C4  UNL     1     -33.778   6.055   3.230  1.00 20.00    -0.006 A 
HETATM    5  C3  UNL     1     -33.254   5.617   2.025  1.00 20.00     0.128 A 
HETATM    6  N9  UNL     1     -32.490   6.378   1.211  1.00 20.00    -0.248 NA
HETATM    7  C6  UNL     1     -32.240   7.639   1.627  1.00 20.00     0.127 A 
HETATM    8  C2  UNL     1     -32.716   8.172   2.814  1.00 20.00     0.068 A 
HETATM    9 CL11 UNL     1     -31.268   8.569   0.564  1.00 20.00    -0.062 Cl
HETATM   10  C5  UNL     1     -33.500   7.358   3.626  1.00 20.00     0.045 A 
HETATM   11 CL10 UNL     1     -34.105   7.997   5.109  1.00 20.00    -0.084 Cl
ENDBRANCH   2   4
TORSDOF 1
ENDMDL
MODEL 3
REMARK VINA RESULT:      -0.0      1.789      2.103
REMARK  1 active torsions:
REMARK  status: ('A' for Active; 'I' for Inactive)
REMARK    1  A    between atoms: C4_4  and  C7_7 
ROOT
HETATM    1  C1  UNL     1     -32.040   9.246   0.501  1.00 20.00     0.063 C 
HETATM    2  C7  UNL     1     -31.447   8.079   1.172  1.00 20.00     0.165 C 
HETATM    3  N8  UNL     1     -32.508  10.165  -0.030  1.00 20.00    -0.197 NA
ENDROOT
BRANCH   2   4
HETATM    4  C4  UNL     1     -32.440   7.431   2.075  1.00 20.00    -0.006 A 
HETATM    5  C3  UNL     1     -33.181   6.355   1.614  1.00 20.00     0.128 A 
HETATM    6  N9  UNL     1     -34.104   5.700   2.353  1.00 20.00    -0.248 NA
HETATM    7  C6  UNL     1     -34.293   6.148   3.613  1.00 20.00     0.127 A 
HETATM    8  C2  UNL     1     -33.606   7.215   4.168  1.00 20.00     0.068 A 
HETATM    9 CL11 UNL     1     -35.473   5.289   4.513  1.00 20.00    -0.062 Cl
HETATM   10  C5  UNL     1     -32.662   7.864   3.378  1.00 20.00     0.045 A 
HETATM   11 CL10 UNL     1     -31.792   9.196   4.043  1.00 20.00    -0.084 Cl
ENDBRANCH   2   4
TORSDOF 1
ENDMDL
MODEL 4
REMARK VINA RESULT:       0.5      2.223      4.438
REMARK  1 active torsions:
REMARK  status: ('A' for Active; 'I' for Inactive)
REMARK    1  A    between atoms: C4_4  and  C7_7 
ROOT
HETATM    1  C1  UNL     1     -33.725   3.853   4.335  1.00 20.00     0.063 C 
HETATM    2  C7  UNL     1     -34.602   4.902   3.791  1.00 20.00     0.165 C 
HETATM    3  N8  UNL     1     -33.033   3.025   4.762  1.00 20.00    -0.197 NA
ENDROOT
BRANCH   2   4
HETATM    4  C4  UNL     1     -33.801   5.954   3.104  1.00 20.00    -0.006 A 
HETATM    5  C3  UNL     1     -33.671   7.202   3.690  1.00 20.00     0.128 A 
HETATM    6  N9  UNL     1     -32.969   8.222   3.148  1.00 20.00    -0.248 NA
HETATM    7  C6  UNL     1     -32.369   7.977   1.963  1.00 20.00     0.127 A 
HETATM    8  C2  UNL     1     -32.439   6.764   1.295  1.00 20.00     0.068 A 
HETATM    9 CL11 UNL     1     -31.489   9.297   1.313  1.00 20.00    -0.062 Cl
HETATM   10  C5  UNL     1     -33.171   5.738   1.884  1.00 20.00     0.045 A 
HETATM   11 CL10 UNL     1     -33.275   4.219   1.075  1.00 20.00    -0.084 Cl
ENDBRANCH   2   4
TORSDOF 1
ENDMDL
