MODEL 1
REMARK VINA RESULT:       2.2      0.000      0.000
REMARK  0 active torsions:
REMARK  status: ('A' for Active; 'I' for Inactive)
ROOT
HETATM    1  C1  UNL     1     -31.876   6.997   1.133  1.00 20.00     0.031 A 
HETATM    2  C2  UNL     1     -33.489   8.220   2.481  1.00 20.00     0.043 A 
HETATM    3  C3  UNL     1     -33.254   5.836   2.700  1.00 20.00     0.033 A 
HETATM    4  C4  UNL     1     -32.258   5.797   1.734  1.00 20.00    -0.045 A 
HETATM    5  C5  UNL     1     -33.867   7.025   3.076  1.00 20.00     0.017 A 
HETATM    6  C6  UNL     1     -32.488   8.202   1.505  1.00 20.00     0.035 A 
HETATM    7  C7  UNL     1     -33.775   4.675   3.428  1.00 20.00     0.171 A 
HETATM    8  C8  UNL     1     -34.858   5.023   4.421  1.00 20.00     0.163 A 
HETATM    9  C9  UNL     1     -31.586   4.537   1.309  1.00 20.00     0.049 C 
HETATM   10  O10 UNL     1     -33.374   3.534   3.250  1.00 20.00    -0.291 OA
HETATM   11  S11 UNL     1     -35.102   6.821   4.321  1.00 20.00    -0.121 SA
HETATM   12 CL12 UNL     1     -32.001   9.674   0.753  1.00 20.00    -0.084 Cl
ENDROOT
TORSDOF 0
ENDMDL
MODEL 2
REMARK VINA RESULT:       3.1      2.466      3.219
REMARK  0 active torsions:
REMARK  status: ('A' for Active; 'I' for Inactive)
ROOT
HETATM    1  C1  UNL     1     -31.791   6.435   1.023  1.00 20.00     0.031 A 
HETATM    2  C2  UNL     1     -32.868   4.479   1.987  1.00 20.00     0.043 A 
HETATM    3  C3  UNL     1     -33.361   6.687   2.804  1.00 20.00     0.033 A 
HETATM    4  C4  UNL     1     -32.486   7.271   1.898  1.00 20.00    -0.045 A 
HETATM    5  C5  UNL     1     -33.557   5.313   2.857  1.00 20.00     0.017 A 
HETATM    6  C6  UNL     1     -31.981   5.047   1.067  1.00 20.00     0.035 A 
HETATM    7  C7  UNL     1     -34.167   7.412   3.792  1.00 20.00     0.171 A 
HETATM    8  C8  UNL     1     -35.028   6.512   4.644  1.00 20.00     0.163 A 
HETATM    9  C9  UNL     1     -32.254   8.740   1.822  1.00 20.00     0.049 C 
HETATM   10  O10 UNL     1     -34.146   8.628   3.915  1.00 20.00    -0.291 OA
HETATM   11  S11 UNL     1     -34.716   4.809   4.090  1.00 20.00    -0.121 SA
HETATM   12 CL12 UNL     1     -31.116   4.031  -0.023  1.00 20.00    -0.084 Cl
ENDROOT
TORSDOF 0
ENDMDL
MODEL 3
REMARK VINA RESULT:       4.2      1.752      2.740
REMARK  0 active torsions:
REMARK  status: ('A' for Active; 'I' for Inactive)
ROOT
HETATM    1  C1  UNL     1     -33.270   8.752   2.558  1.00 20.00     0.031 A 
HETATM    2  C2  UNL     1     -32.084   7.410   0.912  1.00 20.00     0.043 A 
HETATM    3  C3  UNL     1     -33.267   6.370   2.731  1.00 20.00     0.033 A 
HETATM    4  C4  UNL     1     -33.672   7.599   3.234  1.00 20.00    -0.045 A 
HETATM    5  C5  UNL     1     -32.485   6.265   1.588  1.00 20.00     0.017 A 
HETATM    6  C6  UNL     1     -32.481   8.658   1.403  1.00 20.00     0.035 A 
HETATM    7  C7  UNL     1     -33.596   5.066   3.314  1.00 20.00     0.171 A 
HETATM    8  C8  UNL     1     -33.016   3.900   2.548  1.00 20.00     0.163 A 
HETATM    9  C9  UNL     1     -34.508   7.741   4.459  1.00 20.00     0.049 C 
HETATM   10  O10 UNL     1     -34.275   4.931   4.322  1.00 20.00    -0.291 OA
HETATM   11  S11 UNL     1     -32.098   4.600   1.145  1.00 20.00    -0.121 SA
HETATM   12 CL12 UNL     1     -31.996  10.092   0.581  1.00 20.00    -0.084 Cl
ENDROOT
TORSDOF 0
ENDMDL
MODEL 4
REMARK VINA RESULT:       4.6      2.908      3.902
REMARK  0 active torsions:
REMARK  status: ('A' for Active; 'I' for Inactive)
ROOT
HETATM    1  C1  UNL     1     -33.436   5.075   2.742  1.00 20.00     0.031 A 
HETATM    2  C2  UNL     1     -34.324   7.182   3.567  1.00 20.00     0.043 A 
HETATM    3  C3  UNL     1     -32.656   7.141   1.834  1.00 20.00     0.033 A 
HETATM    4  C4  UNL     1     -32.607   5.754   1.848  1.00 20.00    -0.045 A 
HETATM    5  C5  UNL     1     -33.499   7.855   2.678  1.00 20.00     0.017 A 
HETATM    6  C6  UNL     1     -34.290   5.785   3.597  1.00 20.00     0.035 A 
HETATM    7  C7  UNL     1     -31.857   8.009   0.964  1.00 20.00     0.171 A 
HETATM    8  C8  UNL     1     -32.123   9.481   1.173  1.00 20.00     0.163 A 
HETATM    9  C9  UNL     1     -31.712   4.963   0.958  1.00 20.00     0.049 C 
HETATM   10  O10 UNL     1     -31.053   7.586   0.146  1.00 20.00    -0.291 OA
HETATM   11  S11 UNL     1     -33.383   9.606   2.477  1.00 20.00    -0.121 SA
HETATM   12 CL12 UNL     1     -35.307   4.929   4.693  1.00 20.00    -0.084 Cl
ENDROOT
TORSDOF 0
ENDMDL
MODEL 5
REMARK VINA RESULT:       4.7      2.485      3.431
REMARK  0 active torsions:
REMARK  status: ('A' for Active; 'I' for Inactive)
ROOT
HETATM    1  C1  UNL     1     -32.771   4.280   2.066  1.00 20.00     0.031 A 
HETATM    2  C2  UNL     1     -31.893   6.287   1.010  1.00 20.00     0.043 A 
HETATM    3  C3  UNL     1     -33.378   6.434   2.897  1.00 20.00     0.033 A 
HETATM    4  C4  UNL     1     -33.479   5.052   2.987  1.00 20.00    -0.045 A 
HETATM    5  C5  UNL     1     -32.600   7.053   1.928  1.00 20.00     0.017 A 
HETATM    6  C6  UNL     1     -31.982   4.894   1.083  1.00 20.00     0.035 A 
HETATM    7  C7  UNL     1     -34.053   7.392   3.779  1.00 20.00     0.171 A 
HETATM    8  C8  UNL     1     -33.755   8.833   3.442  1.00 20.00     0.163 A 
HETATM    9  C9  UNL     1     -34.308   4.362   4.014  1.00 20.00     0.049 C 
HETATM   10  O10 UNL     1     -34.785   7.059   4.700  1.00 20.00    -0.291 OA
HETATM   11  S11 UNL     1     -32.630   8.816   2.015  1.00 20.00    -0.121 SA
HETATM   12 CL12 UNL     1     -31.113   3.923  -0.045  1.00 20.00    -0.084 Cl
ENDROOT
TORSDOF 0
ENDMDL
MODEL 6
REMARK VINA RESULT:       4.8      3.251      4.651
REMARK  0 active torsions:
REMARK  status: ('A' for Active; 'I' for Inactive)
ROOT
HETATM    1  C1  UNL     1     -34.770   6.750   4.325  1.00 20.00     0.031 A 
HETATM    2  C2  UNL     1     -33.812   4.825   3.189  1.00 20.00     0.043 A 
HETATM    3  C3  UNL     1     -33.163   7.062   2.587  1.00 20.00     0.033 A 
HETATM    4  C4  UNL     1     -34.010   7.616   3.538  1.00 20.00    -0.045 A 
HETATM    5  C5  UNL     1     -33.058   5.689   2.406  1.00 20.00     0.017 A 
HETATM    6  C6  UNL     1     -34.671   5.362   4.152  1.00 20.00     0.035 A 
HETATM    7  C7  UNL     1     -32.299   7.822   1.678  1.00 20.00     0.171 A 
HETATM    8  C8  UNL     1     -31.487   6.949   0.750  1.00 20.00     0.163 A 
HETATM    9  C9  UNL     1     -34.146   9.084   3.751  1.00 20.00     0.049 C 
HETATM   10  O10 UNL     1     -32.238   9.043   1.670  1.00 20.00    -0.291 OA
HETATM   11  S11 UNL     1     -31.918   5.227   1.140  1.00 20.00    -0.121 SA
HETATM   12 CL12 UNL     1     -35.617   4.309   5.135  1.00 20.00    -0.084 Cl
ENDROOT
TORSDOF 0
ENDMDL
MODEL 7
REMARK VINA RESULT:       4.8      2.823      3.843
REMARK  0 active torsions:
REMARK  status: ('A' for Active; 'I' for Inactive)
ROOT
HETATM    1  C1  UNL     1     -34.071   5.131   2.107  1.00 20.00     0.031 A 
HETATM    2  C2  UNL     1     -32.190   6.320   1.125  1.00 20.00     0.043 A 
HETATM    3  C3  UNL     1     -33.176   7.062   3.190  1.00 20.00     0.033 A 
HETATM    4  C4  UNL     1     -34.106   6.031   3.173  1.00 20.00    -0.045 A 
HETATM    5  C5  UNL     1     -32.228   7.214   2.186  1.00 20.00     0.017 A 
HETATM    6  C6  UNL     1     -33.118   5.275   1.089  1.00 20.00     0.035 A 
HETATM    7  C7  UNL     1     -33.072   8.092   4.229  1.00 20.00     0.171 A 
HETATM    8  C8  UNL     1     -31.962   9.086   3.982  1.00 20.00     0.163 A 
HETATM    9  C9  UNL     1     -35.135   5.846   4.234  1.00 20.00     0.049 C 
HETATM   10  O10 UNL     1     -33.809   8.143   5.202  1.00 20.00    -0.291 OA
HETATM   11  S11 UNL     1     -31.157   8.597   2.428  1.00 20.00    -0.121 SA
HETATM   12 CL12 UNL     1     -33.090   4.153  -0.219  1.00 20.00    -0.084 Cl
ENDROOT
TORSDOF 0
ENDMDL
