MODEL 1
REMARK VINA RESULT:      -0.8      0.000      0.000
REMARK  0 active torsions:
REMARK  status: ('A' for Active; 'I' for Inactive)
ROOT
HETATM    1  C1  UNL     1     -31.966   7.877   1.843  1.00 20.00    -0.025 C 
HETATM    2  C2  UNL     1     -31.550   6.644   1.516  1.00 20.00    -0.025 C 
HETATM    3  C3  UNL     1     -34.869   6.807   4.115  1.00 20.00    -0.024 A 
HETATM    4  C4  UNL     1     -35.221   5.518   4.121  1.00 20.00    -0.025 A 
HETATM    5  C5  UNL     1     -33.832   6.680   1.214  1.00 20.00     0.018 C 
HETATM    6  C6  UNL     1     -33.428   7.769   2.217  1.00 20.00     0.016 C 
HETATM    7  C7  UNL     1     -32.733   5.714   1.672  1.00 20.00     0.014 C 
HETATM    8  C8  UNL     1     -33.496   7.023   3.572  1.00 20.00     0.021 A 
HETATM    9  C9  UNL     1     -34.163   4.617   3.559  1.00 20.00     0.009 A 
HETATM   10  C10 UNL     1     -33.008   5.577   3.197  1.00 20.00     0.009 A 
HETATM   11  C11 UNL     1     -33.730   3.571   4.580  1.00 20.00     0.014 C 
ENDROOT
TORSDOF 0
ENDMDL
MODEL 2
REMARK VINA RESULT:       0.4      1.032      2.676
REMARK  0 active torsions:
REMARK  status: ('A' for Active; 'I' for Inactive)
ROOT
HETATM    1  C1  UNL     1     -31.988   8.836   0.456  1.00 20.00    -0.025 C 
HETATM    2  C2  UNL     1     -32.613   9.542   1.411  1.00 20.00    -0.025 C 
HETATM    3  C3  UNL     1     -32.768   5.350   1.860  1.00 20.00    -0.024 A 
HETATM    4  C4  UNL     1     -33.291   5.269   3.087  1.00 20.00    -0.025 A 
HETATM    5  C5  UNL     1     -31.296   7.986   2.483  1.00 20.00     0.018 C 
HETATM    6  C6  UNL     1     -31.611   7.502   1.062  1.00 20.00     0.016 C 
HETATM    7  C7  UNL     1     -32.654   8.679   2.653  1.00 20.00     0.014 C 
HETATM    8  C8  UNL     1     -32.926   6.707   1.260  1.00 20.00     0.021 A 
HETATM    9  C9  UNL     1     -33.880   6.563   3.562  1.00 20.00     0.009 A 
HETATM   10  C10 UNL     1     -33.664   7.529   2.376  1.00 20.00     0.009 A 
HETATM   11  C11 UNL     1     -35.357   6.404   3.901  1.00 20.00     0.014 C 
ENDROOT
TORSDOF 0
ENDMDL
MODEL 3
REMARK VINA RESULT:       1.1      0.948      3.393
REMARK  0 active torsions:
REMARK  status: ('A' for Active; 'I' for Inactive)
ROOT
HETATM    1  C1  UNL     1     -35.447   6.877   3.988  1.00 20.00    -0.025 C 
HETATM    2  C2  UNL     1     -35.184   5.562   3.957  1.00 20.00    -0.025 C 
HETATM    3  C3  UNL     1     -32.465   8.006   1.851  1.00 20.00    -0.024 A 
HETATM    4  C4  UNL     1     -31.518   7.108   1.569  1.00 20.00    -0.025 A 
HETATM    5  C5  UNL     1     -33.215   6.625   4.503  1.00 20.00     0.018 C 
HETATM    6  C6  UNL     1     -34.138   7.600   3.760  1.00 20.00     0.016 C 
HETATM    7  C7  UNL     1     -33.699   5.407   3.707  1.00 20.00     0.014 C 
HETATM    8  C8  UNL     1     -33.746   7.372   2.279  1.00 20.00     0.021 A 
HETATM    9  C9  UNL     1     -31.969   5.693   1.775  1.00 20.00     0.009 A 
HETATM   10  C10 UNL     1     -33.438   5.832   2.234  1.00 20.00     0.009 A 
HETATM   11  C11 UNL     1     -31.852   4.884   0.489  1.00 20.00     0.014 C 
ENDROOT
TORSDOF 0
ENDMDL
