MODEL 1
REMARK VINA RESULT:      -2.3      0.000      0.000
REMARK  3 active torsions:
REMARK  status: ('A' for Active; 'I' for Inactive)
REMARK    1  A    between atoms: C4_4  and  C6_6 
REMARK    2  A    between atoms: C5_5  and  C6_6 
REMARK    3  A    between atoms: C6_6  and  N7_7 
ROOT
HETATM    1  C1  UNL     1     -32.268   8.781   1.210  1.00 20.00     0.158 C 
HETATM    2  N7  UNL     1     -32.129   7.891   1.961  1.00 20.00    -0.270 NA
HETATM    3  S8  UNL     1     -32.423   9.999   0.195  1.00 20.00    -0.055 SA
ENDROOT
BRANCH   2   4
HETATM    4  C6  UNL     1     -33.341   7.093   2.198  1.00 20.00     0.109 C 
BRANCH   4   5
HETATM    5  C4  UNL     1     -33.833   7.364   3.625  1.00 20.00     0.023 C 
HETATM    6  C2  UNL     1     -35.018   6.486   4.009  1.00 20.00     0.007 C 
ENDBRANCH   4   5
BRANCH   4   7
HETATM    7  C5  UNL     1     -32.995   5.611   2.010  1.00 20.00     0.023 C 
HETATM    8  C3  UNL     1     -31.870   5.401   1.039  1.00 20.00     0.007 C 
ENDBRANCH   4   7
ENDBRANCH   2   4
TORSDOF 3
ENDMDL
MODEL 2
REMARK VINA RESULT:      -1.8      0.543      2.550
REMARK  3 active torsions:
REMARK  status: ('A' for Active; 'I' for Inactive)
REMARK    1  A    between atoms: C4_4  and  C6_6 
REMARK    2  A    between atoms: C5_5  and  C6_6 
REMARK    3  A    between atoms: C6_6  and  N7_7 
ROOT
HETATM    1  C1  UNL     1     -32.083   8.751   1.355  1.00 20.00     0.158 C 
HETATM    2  N7  UNL     1     -31.673   8.049   2.199  1.00 20.00    -0.270 NA
HETATM    3  S8  UNL     1     -32.609   9.724   0.209  1.00 20.00    -0.055 SA
ENDROOT
BRANCH   2   4
HETATM    4  C6  UNL     1     -32.607   6.998   2.630  1.00 20.00     0.109 C 
BRANCH   4   5
HETATM    5  C4  UNL     1     -33.053   6.204   1.397  1.00 20.00     0.023 C 
HETATM    6  C2  UNL     1     -32.086   5.079   1.047  1.00 20.00     0.007 C 
ENDBRANCH   4   5
BRANCH   4   7
HETATM    7  C5  UNL     1     -33.807   7.662   3.317  1.00 20.00     0.023 C 
HETATM    8  C3  UNL     1     -34.795   6.662   3.842  1.00 20.00     0.007 C 
ENDBRANCH   4   7
ENDBRANCH   2   4
TORSDOF 3
ENDMDL
MODEL 3
REMARK VINA RESULT:      -1.8      2.148      3.111
REMARK  3 active torsions:
REMARK  status: ('A' for Active; 'I' for Inactive)
REMARK    1  A    between atoms: C4_4  and  C6_6 
REMARK    2  A    between atoms: C5_5  and  C6_6 
REMARK    3  A    between atoms: C6_6  and  N7_7 
ROOT
HETATM    1  C1  UNL     1     -32.662   6.603   1.849  1.00 20.00     0.158 C 
HETATM    2  N7  UNL     1     -33.238   5.614   2.106  1.00 20.00    -0.270 NA
HETATM    3  S8  UNL     1     -31.876   7.934   1.465  1.00 20.00    -0.055 SA
ENDROOT
BRANCH   2   4
HETATM    4  C6  UNL     1     -33.634   5.485   3.516  1.00 20.00     0.109 C 
BRANCH   4   5
HETATM    5  C4  UNL     1     -34.118   4.050   3.759  1.00 20.00     0.023 C 
HETATM    6  C2  UNL     1     -33.229   3.292   4.736  1.00 20.00     0.007 C 
ENDBRANCH   4   5
BRANCH   4   7
HETATM    7  C5  UNL     1     -34.750   6.495   3.806  1.00 20.00     0.023 C 
HETATM    8  C3  UNL     1     -34.245   7.728   4.497  1.00 20.00     0.007 C 
ENDBRANCH   4   7
ENDBRANCH   2   4
TORSDOF 3
ENDMDL
MODEL 4
REMARK VINA RESULT:      -1.8      2.371      3.673
REMARK  3 active torsions:
REMARK  status: ('A' for Active; 'I' for Inactive)
REMARK    1  A    between atoms: C4_4  and  C6_6 
REMARK    2  A    between atoms: C5_5  and  C6_6 
REMARK    3  A    between atoms: C6_6  and  N7_7 
ROOT
HETATM    1  C1  UNL     1     -33.983   7.049   3.552  1.00 20.00     0.158 C 
HETATM    2  N7  UNL     1     -33.090   7.713   3.183  1.00 20.00    -0.270 NA
HETATM    3  S8  UNL     1     -35.194   6.162   4.085  1.00 20.00    -0.055 SA
ENDROOT
BRANCH   2   4
HETATM    4  C6  UNL     1     -32.702   7.496   1.782  1.00 20.00     0.109 C 
BRANCH   4   5
HETATM    5  C4  UNL     1     -31.996   6.140   1.673  1.00 20.00     0.023 C 
HETATM    6  C2  UNL     1     -32.708   5.186   0.722  1.00 20.00     0.007 C 
ENDBRANCH   4   5
BRANCH   4   7
HETATM    7  C5  UNL     1     -31.770   8.635   1.351  1.00 20.00     0.023 C 
HETATM    8  C3  UNL     1     -32.424   9.581   0.386  1.00 20.00     0.007 C 
ENDBRANCH   4   7
ENDBRANCH   2   4
TORSDOF 3
ENDMDL
MODEL 5
REMARK VINA RESULT:      -1.6      3.588      4.107
REMARK  3 active torsions:
REMARK  status: ('A' for Active; 'I' for Inactive)
REMARK    1  A    between atoms: C4_4  and  C6_6 
REMARK    2  A    between atoms: C5_5  and  C6_6 
REMARK    3  A    between atoms: C6_6  and  N7_7 
ROOT
HETATM    1  C1  UNL     1     -33.842   4.066   4.068  1.00 20.00     0.158 C 
HETATM    2  N7  UNL     1     -34.366   4.990   3.572  1.00 20.00    -0.270 NA
HETATM    3  S8  UNL     1     -33.161   2.792   4.741  1.00 20.00    -0.055 SA
ENDROOT
BRANCH   2   4
HETATM    4  C6  UNL     1     -33.497   6.160   3.384  1.00 20.00     0.109 C 
BRANCH   4   5
HETATM    5  C4  UNL     1     -34.267   7.416   3.811  1.00 20.00     0.023 C 
HETATM    6  C2  UNL     1     -33.570   8.174   4.933  1.00 20.00     0.007 C 
ENDBRANCH   4   5
BRANCH   4   7
HETATM    7  C5  UNL     1     -33.096   6.240   1.906  1.00 20.00     0.023 C 
HETATM    8  C3  UNL     1     -32.110   7.338   1.636  1.00 20.00     0.007 C 
ENDBRANCH   4   7
ENDBRANCH   2   4
TORSDOF 3
ENDMDL
MODEL 6
REMARK VINA RESULT:      -1.5      2.310      3.307
REMARK  3 active torsions:
REMARK  status: ('A' for Active; 'I' for Inactive)
REMARK    1  A    between atoms: C4_4  and  C6_6 
REMARK    2  A    between atoms: C5_5  and  C6_6 
REMARK    3  A    between atoms: C6_6  and  N7_7 
ROOT
HETATM    1  C1  UNL     1     -33.893   7.272   3.446  1.00 20.00     0.158 C 
HETATM    2  N7  UNL     1     -33.073   7.986   3.007  1.00 20.00    -0.270 NA
HETATM    3  S8  UNL     1     -35.020   6.329   4.060  1.00 20.00    -0.055 SA
ENDROOT
BRANCH   2   4
HETATM    4  C6  UNL     1     -32.121   7.339   2.094  1.00 20.00     0.109 C 
BRANCH   4   5
HETATM    5  C4  UNL     1     -31.548   8.402   1.150  1.00 20.00     0.023 C 
HETATM    6  C2  UNL     1     -32.596   9.417   0.710  1.00 20.00     0.007 C 
ENDBRANCH   4   5
BRANCH   4   7
HETATM    7  C5  UNL     1     -32.860   6.249   1.308  1.00 20.00     0.023 C 
HETATM    8  C3  UNL     1     -32.013   5.032   1.076  1.00 20.00     0.007 C 
ENDBRANCH   4   7
ENDBRANCH   2   4
TORSDOF 3
ENDMDL
MODEL 7
REMARK VINA RESULT:      -1.2      0.955      1.519
REMARK  3 active torsions:
REMARK  status: ('A' for Active; 'I' for Inactive)
REMARK    1  A    between atoms: C4_4  and  C6_6 
REMARK    2  A    between atoms: C5_5  and  C6_6 
REMARK    3  A    between atoms: C6_6  and  N7_7 
ROOT
HETATM    1  C1  UNL     1     -32.322   8.574   1.485  1.00 20.00     0.158 C 
HETATM    2  N7  UNL     1     -32.294   7.798   2.363  1.00 20.00    -0.270 NA
HETATM    3  S8  UNL     1     -32.327   9.639   0.300  1.00 20.00    -0.055 SA
ENDROOT
BRANCH   2   4
HETATM    4  C6  UNL     1     -33.527   7.015   2.530  1.00 20.00     0.109 C 
BRANCH   4   5
HETATM    5  C4  UNL     1     -34.163   7.385   3.875  1.00 20.00     0.023 C 
HETATM    6  C2  UNL     1     -33.206   8.148   4.783  1.00 20.00     0.007 C 
ENDBRANCH   4   5
BRANCH   4   7
HETATM    7  C5  UNL     1     -33.170   5.525   2.485  1.00 20.00     0.023 C 
HETATM    8  C3  UNL     1     -33.901   4.726   3.524  1.00 20.00     0.007 C 
ENDBRANCH   4   7
ENDBRANCH   2   4
TORSDOF 3
ENDMDL
MODEL 8
REMARK VINA RESULT:      -1.2      3.697      4.746
REMARK  3 active torsions:
REMARK  status: ('A' for Active; 'I' for Inactive)
REMARK    1  A    between atoms: C4_4  and  C6_6 
REMARK    2  A    between atoms: C5_5  and  C6_6 
REMARK    3  A    between atoms: C6_6  and  N7_7 
ROOT
HETATM    1  C1  UNL     1     -34.112   3.991   4.435  1.00 20.00     0.158 C 
HETATM    2  N7  UNL     1     -34.925   4.826   4.302  1.00 20.00    -0.270 NA
HETATM    3  S8  UNL     1     -33.030   2.841   4.641  1.00 20.00    -0.055 SA
ENDROOT
BRANCH   2   4
HETATM    4  C6  UNL     1     -34.555   5.898   3.367  1.00 20.00     0.109 C 
BRANCH   4   5
HETATM    5  C4  UNL     1     -33.098   5.691   2.937  1.00 20.00     0.023 C 
HETATM    6  C2  UNL     1     -32.915   5.798   1.428  1.00 20.00     0.007 C 
ENDBRANCH   4   5
BRANCH   4   7
HETATM    7  C5  UNL     1     -34.729   7.247   4.077  1.00 20.00     0.023 C 
HETATM    8  C3  UNL     1     -33.420   7.926   4.353  1.00 20.00     0.007 C 
ENDBRANCH   4   7
ENDBRANCH   2   4
TORSDOF 3
ENDMDL
MODEL 9
REMARK VINA RESULT:      -0.9      1.742      2.453
REMARK  3 active torsions:
REMARK  status: ('A' for Active; 'I' for Inactive)
REMARK    1  A    between atoms: C4_4  and  C6_6 
REMARK    2  A    between atoms: C5_5  and  C6_6 
REMARK    3  A    between atoms: C6_6  and  N7_7 
ROOT
HETATM    1  C1  UNL     1     -32.679   6.851   2.066  1.00 20.00     0.158 C 
HETATM    2  N7  UNL     1     -33.235   5.929   2.530  1.00 20.00    -0.270 NA
HETATM    3  S8  UNL     1     -31.897   8.081   1.424  1.00 20.00    -0.055 SA
ENDROOT
BRANCH   2   4
HETATM    4  C6  UNL     1     -34.496   6.253   3.213  1.00 20.00     0.109 C 
BRANCH   4   5
HETATM    5  C4  UNL     1     -34.393   7.673   3.783  1.00 20.00     0.023 C 
HETATM    6  C2  UNL     1     -33.538   7.735   5.042  1.00 20.00     0.007 C 
ENDBRANCH   4   5
BRANCH   4   7
HETATM    7  C5  UNL     1     -34.724   5.229   4.331  1.00 20.00     0.023 C 
HETATM    8  C3  UNL     1     -33.911   3.982   4.144  1.00 20.00     0.007 C 
ENDBRANCH   4   7
ENDBRANCH   2   4
TORSDOF 3
ENDMDL
