MODEL 1
REMARK VINA RESULT:      -2.8      0.000      0.000
REMARK  1 active torsions:
REMARK  status: ('A' for Active; 'I' for Inactive)
REMARK    1  A    between atoms: C2_2  and  C3_3 
ROOT
HETATM    1  C1  UNL     1     -33.095   6.108   2.366  1.00 20.00    -0.019 C 
HETATM    2  C2  UNL     1     -33.884   6.243   3.448  1.00 20.00    -0.004 C 
HETATM    3  C4  UNL     1     -32.367   7.189   1.629  1.00 20.00     0.036 C 
HETATM    4  C5  UNL     1     -34.212   7.549   4.118  1.00 20.00     0.053 C 
ENDROOT
BRANCH   2   5
HETATM    5  C3  UNL     1     -34.525   5.026   4.089  1.00 20.00     0.247 C 
HETATM    6  O6  UNL     1     -35.674   5.141   4.520  1.00 20.00    -0.274 OA
HETATM    7 CL7  UNL     1     -33.646   3.510   4.193  1.00 20.00    -0.039 Cl
ENDBRANCH   2   5
TORSDOF 1
ENDMDL
MODEL 2
REMARK VINA RESULT:      -2.7      3.480      4.287
REMARK  1 active torsions:
REMARK  status: ('A' for Active; 'I' for Inactive)
REMARK    1  A    between atoms: C2_2  and  C3_3 
ROOT
HETATM    1  C1  UNL     1     -34.003   7.275   3.441  1.00 20.00    -0.019 C 
HETATM    2  C2  UNL     1     -33.103   7.092   2.457  1.00 20.00    -0.004 C 
HETATM    3  C4  UNL     1     -35.009   6.289   3.951  1.00 20.00     0.036 C 
HETATM    4  C5  UNL     1     -32.960   5.835   1.643  1.00 20.00     0.053 C 
ENDROOT
BRANCH   2   5
HETATM    5  C3  UNL     1     -32.133   8.199   2.087  1.00 20.00     0.247 C 
HETATM    6  O6  UNL     1     -31.206   8.434   2.865  1.00 20.00    -0.274 OA
HETATM    7 CL7  UNL     1     -32.333   9.093   0.590  1.00 20.00    -0.039 Cl
ENDBRANCH   2   5
TORSDOF 1
ENDMDL
MODEL 3
REMARK VINA RESULT:      -2.6      1.168      1.876
REMARK  1 active torsions:
REMARK  status: ('A' for Active; 'I' for Inactive)
REMARK    1  A    between atoms: C2_2  and  C3_3 
ROOT
HETATM    1  C1  UNL     1     -32.803   7.667   2.476  1.00 20.00    -0.019 C 
HETATM    2  C2  UNL     1     -33.200   6.382   2.428  1.00 20.00    -0.004 C 
HETATM    3  C4  UNL     1     -31.884   8.374   1.528  1.00 20.00     0.036 C 
HETATM    4  C5  UNL     1     -32.753   5.381   1.398  1.00 20.00     0.053 C 
ENDROOT
BRANCH   2   5
HETATM    5  C3  UNL     1     -34.166   5.836   3.463  1.00 20.00     0.247 C 
HETATM    6  O6  UNL     1     -35.041   6.592   3.888  1.00 20.00    -0.274 OA
HETATM    7 CL7  UNL     1     -34.031   4.174   4.014  1.00 20.00    -0.039 Cl
ENDBRANCH   2   5
TORSDOF 1
ENDMDL
MODEL 4
REMARK VINA RESULT:      -2.5      2.118      2.502
REMARK  1 active torsions:
REMARK  status: ('A' for Active; 'I' for Inactive)
REMARK    1  A    between atoms: C2_2  and  C3_3 
ROOT
HETATM    1  C1  UNL     1     -33.031   5.699   1.947  1.00 20.00    -0.019 C 
HETATM    2  C2  UNL     1     -33.044   6.910   2.536  1.00 20.00    -0.004 C 
HETATM    3  C4  UNL     1     -32.172   5.250   0.806  1.00 20.00     0.036 C 
HETATM    4  C5  UNL     1     -32.191   8.078   2.122  1.00 20.00     0.053 C 
ENDROOT
BRANCH   2   5
HETATM    5  C3  UNL     1     -33.966   7.185   3.709  1.00 20.00     0.247 C 
HETATM    6  O6  UNL     1     -33.651   8.086   4.489  1.00 20.00    -0.274 OA
HETATM    7 CL7  UNL     1     -35.434   6.248   3.923  1.00 20.00    -0.039 Cl
ENDBRANCH   2   5
TORSDOF 1
ENDMDL
MODEL 5
REMARK VINA RESULT:      -2.4      1.846      2.389
REMARK  1 active torsions:
REMARK  status: ('A' for Active; 'I' for Inactive)
REMARK    1  A    between atoms: C2_2  and  C3_3 
ROOT
HETATM    1  C1  UNL     1     -32.743   7.577   2.410  1.00 20.00    -0.019 C 
HETATM    2  C2  UNL     1     -33.063   6.274   2.309  1.00 20.00    -0.004 C 
HETATM    3  C4  UNL     1     -31.878   8.379   1.487  1.00 20.00     0.036 C 
HETATM    4  C5  UNL     1     -32.570   5.348   1.230  1.00 20.00     0.053 C 
ENDROOT
BRANCH   2   5
HETATM    5  C3  UNL     1     -33.983   5.626   3.327  1.00 20.00     0.247 C 
HETATM    6  O6  UNL     1     -33.724   4.475   3.685  1.00 20.00    -0.274 OA
HETATM    7 CL7  UNL     1     -35.357   6.508   3.971  1.00 20.00    -0.039 Cl
ENDBRANCH   2   5
TORSDOF 1
ENDMDL
MODEL 6
REMARK VINA RESULT:      -2.4      2.747      3.502
REMARK  1 active torsions:
REMARK  status: ('A' for Active; 'I' for Inactive)
REMARK    1  A    between atoms: C2_2  and  C3_3 
ROOT
HETATM    1  C1  UNL     1     -34.448   5.509   3.520  1.00 20.00    -0.019 C 
HETATM    2  C2  UNL     1     -33.757   6.629   3.238  1.00 20.00    -0.004 C 
HETATM    3  C4  UNL     1     -35.442   5.304   4.621  1.00 20.00     0.036 C 
HETATM    4  C5  UNL     1     -33.838   7.911   4.021  1.00 20.00     0.053 C 
ENDROOT
BRANCH   2   5
HETATM    5  C3  UNL     1     -32.805   6.668   2.057  1.00 20.00     0.247 C 
HETATM    6  O6  UNL     1     -32.634   5.626   1.421  1.00 20.00    -0.274 OA
HETATM    7 CL7  UNL     1     -31.994   8.163   1.620  1.00 20.00    -0.039 Cl
ENDBRANCH   2   5
TORSDOF 1
ENDMDL
MODEL 7
REMARK VINA RESULT:      -2.3      2.553      3.339
REMARK  1 active torsions:
REMARK  status: ('A' for Active; 'I' for Inactive)
REMARK    1  A    between atoms: C2_2  and  C3_3 
ROOT
HETATM    1  C1  UNL     1     -34.381   5.682   3.457  1.00 20.00    -0.019 C 
HETATM    2  C2  UNL     1     -33.689   6.826   3.306  1.00 20.00    -0.004 C 
HETATM    3  C4  UNL     1     -35.421   5.374   4.489  1.00 20.00     0.036 C 
HETATM    4  C5  UNL     1     -33.816   8.033   4.195  1.00 20.00     0.053 C 
ENDROOT
BRANCH   2   5
HETATM    5  C3  UNL     1     -32.685   6.976   2.177  1.00 20.00     0.247 C 
HETATM    6  O6  UNL     1     -32.183   8.087   1.998  1.00 20.00    -0.274 OA
HETATM    7 CL7  UNL     1     -32.258   5.595   1.180  1.00 20.00    -0.039 Cl
ENDBRANCH   2   5
TORSDOF 1
ENDMDL
MODEL 8
REMARK VINA RESULT:      -2.0      2.029      2.443
REMARK  1 active torsions:
REMARK  status: ('A' for Active; 'I' for Inactive)
REMARK    1  A    between atoms: C2_2  and  C3_3 
ROOT
HETATM    1  C1  UNL     1     -33.007   5.985   1.989  1.00 20.00    -0.019 C 
HETATM    2  C2  UNL     1     -33.692   5.592   3.079  1.00 20.00    -0.004 C 
HETATM    3  C4  UNL     1     -32.136   5.145   1.108  1.00 20.00     0.036 C 
HETATM    4  C5  UNL     1     -33.683   4.199   3.646  1.00 20.00     0.053 C 
ENDROOT
BRANCH   2   5
HETATM    5  C3  UNL     1     -34.556   6.579   3.842  1.00 20.00     0.247 C 
HETATM    6  O6  UNL     1     -35.754   6.316   3.970  1.00 20.00    -0.274 OA
HETATM    7 CL7  UNL     1     -33.851   8.036   4.522  1.00 20.00    -0.039 Cl
ENDBRANCH   2   5
TORSDOF 1
ENDMDL
MODEL 9
REMARK VINA RESULT:      -1.9      2.134      3.184
REMARK  1 active torsions:
REMARK  status: ('A' for Active; 'I' for Inactive)
REMARK    1  A    between atoms: C2_2  and  C3_3 
ROOT
HETATM    1  C1  UNL     1     -34.016   4.151   4.402  1.00 20.00    -0.019 C 
HETATM    2  C2  UNL     1     -33.920   5.200   3.564  1.00 20.00    -0.004 C 
HETATM    3  C4  UNL     1     -33.284   2.848   4.318  1.00 20.00     0.036 C 
HETATM    4  C5  UNL     1     -33.056   5.243   2.334  1.00 20.00     0.053 C 
ENDROOT
BRANCH   2   5
HETATM    5  C3  UNL     1     -34.721   6.464   3.818  1.00 20.00     0.247 C 
HETATM    6  O6  UNL     1     -35.941   6.416   3.650  1.00 20.00    -0.274 OA
HETATM    7 CL7  UNL     1     -33.917   7.933   4.346  1.00 20.00    -0.039 Cl
ENDBRANCH   2   5
TORSDOF 1
ENDMDL
