MODEL 1
REMARK VINA RESULT:       5.7      0.000      0.000
REMARK  0 active torsions:
REMARK  status: ('A' for Active; 'I' for Inactive)
ROOT
HETATM    1  C1  UNL     1     -33.671   6.755   0.682  1.00 20.00     0.009 C 
HETATM    2  C2  UNL     1     -31.944   8.530   1.076  1.00 20.00     0.009 C 
HETATM    3  C3  UNL     1     -31.497   6.167   1.789  1.00 20.00     0.009 C 
HETATM    4  C4  UNL     1     -34.069   8.530   2.407  1.00 20.00     0.048 C 
HETATM    5  C5  UNL     1     -33.624   6.168   3.119  1.00 20.00     0.048 C 
HETATM    6  C6  UNL     1     -31.898   7.943   3.513  1.00 20.00     0.048 C 
HETATM    7  C7  UNL     1     -33.455   8.240   1.026  1.00 20.00    -0.011 C 
HETATM    8  C8  UNL     1     -33.006   5.860   1.744  1.00 20.00    -0.011 C 
HETATM    9  C9  UNL     1     -31.268   7.648   2.141  1.00 20.00    -0.011 C 
HETATM   10  C10 UNL     1     -33.402   7.646   3.467  1.00 20.00     0.104 C 
HETATM   11  F11 UNL     1     -33.950   7.908   4.679  1.00 20.00    -0.243 F 
ENDROOT
TORSDOF 0
ENDMDL
MODEL 2
REMARK VINA RESULT:       5.8      0.044      2.263
REMARK  0 active torsions:
REMARK  status: ('A' for Active; 'I' for Inactive)
ROOT
HETATM    1  C1  UNL     1     -31.490   6.166   1.811  1.00 20.00     0.009 C 
HETATM    2  C2  UNL     1     -33.627   6.780   0.652  1.00 20.00     0.009 C 
HETATM    3  C3  UNL     1     -31.899   8.540   1.111  1.00 20.00     0.009 C 
HETATM    4  C4  UNL     1     -33.650   6.168   3.083  1.00 20.00     0.048 C 
HETATM    5  C5  UNL     1     -31.923   7.926   3.543  1.00 20.00     0.048 C 
HETATM    6  C6  UNL     1     -34.060   8.541   2.385  1.00 20.00     0.048 C 
HETATM    7  C7  UNL     1     -32.999   5.870   1.722  1.00 20.00    -0.011 C 
HETATM    8  C8  UNL     1     -31.258   7.641   2.185  1.00 20.00    -0.011 C 
HETATM    9  C9  UNL     1     -33.410   8.260   1.019  1.00 20.00    -0.011 C 
HETATM   10  C10 UNL     1     -33.428   7.640   3.453  1.00 20.00     0.104 C 
HETATM   11  F11 UNL     1     -34.005   7.893   4.653  1.00 20.00    -0.243 F 
ENDROOT
TORSDOF 0
ENDMDL
MODEL 3
REMARK VINA RESULT:       5.8      0.038      2.274
REMARK  0 active torsions:
REMARK  status: ('A' for Active; 'I' for Inactive)
ROOT
HETATM    1  C1  UNL     1     -31.924   8.573   1.097  1.00 20.00     0.009 C 
HETATM    2  C2  UNL     1     -31.472   6.207   1.792  1.00 20.00     0.009 C 
HETATM    3  C3  UNL     1     -33.635   6.790   0.664  1.00 20.00     0.009 C 
HETATM    4  C4  UNL     1     -31.904   7.962   3.529  1.00 20.00     0.048 C 
HETATM    5  C5  UNL     1     -34.065   8.547   2.402  1.00 20.00     0.048 C 
HETATM    6  C6  UNL     1     -33.613   6.181   3.096  1.00 20.00     0.048 C 
HETATM    7  C7  UNL     1     -31.254   7.685   2.162  1.00 20.00    -0.011 C 
HETATM    8  C8  UNL     1     -33.433   8.273   1.027  1.00 20.00    -0.011 C 
HETATM    9  C9  UNL     1     -32.977   5.890   1.726  1.00 20.00    -0.011 C 
HETATM   10  C10 UNL     1     -33.405   7.656   3.462  1.00 20.00     0.104 C 
HETATM   11  F11 UNL     1     -33.967   7.903   4.670  1.00 20.00    -0.243 F 
ENDROOT
TORSDOF 0
ENDMDL
MODEL 4
REMARK VINA RESULT:       6.1      1.856      2.974
REMARK  0 active torsions:
REMARK  status: ('A' for Active; 'I' for Inactive)
ROOT
HETATM    1  C1  UNL     1     -31.620   6.227   1.638  1.00 20.00     0.009 C 
HETATM    2  C2  UNL     1     -31.414   8.243   3.116  1.00 20.00     0.009 C 
HETATM    3  C3  UNL     1     -33.643   7.132   2.816  1.00 20.00     0.009 C 
HETATM    4  C4  UNL     1     -31.199   8.484   0.630  1.00 20.00     0.048 C 
HETATM    5  C5  UNL     1     -33.425   7.373   0.328  1.00 20.00     0.048 C 
HETATM    6  C6  UNL     1     -33.219   9.388   1.806  1.00 20.00     0.048 C 
HETATM    7  C7  UNL     1     -30.895   7.572   1.831  1.00 20.00    -0.011 C 
HETATM    8  C8  UNL     1     -33.140   6.453   1.528  1.00 20.00    -0.011 C 
HETATM    9  C9  UNL     1     -32.931   8.482   3.016  1.00 20.00    -0.011 C 
HETATM   10  C10 UNL     1     -32.711   8.716   0.524  1.00 20.00     0.104 C 
HETATM   11  F11 UNL     1     -32.968   9.520  -0.537  1.00 20.00    -0.243 F 
ENDROOT
TORSDOF 0
ENDMDL
MODEL 5
REMARK VINA RESULT:       6.1      1.869      3.186
REMARK  0 active torsions:
REMARK  status: ('A' for Active; 'I' for Inactive)
ROOT
HETATM    1  C1  UNL     1     -31.358   8.242   3.076  1.00 20.00     0.009 C 
HETATM    2  C2  UNL     1     -33.612   7.170   2.834  1.00 20.00     0.009 C 
HETATM    3  C3  UNL     1     -31.634   6.216   1.621  1.00 20.00     0.009 C 
HETATM    4  C4  UNL     1     -33.170   9.408   1.795  1.00 20.00     0.048 C 
HETATM    5  C5  UNL     1     -31.194   8.457   0.583  1.00 20.00     0.048 C 
HETATM    6  C6  UNL     1     -33.447   7.384   0.342  1.00 20.00     0.048 C 
HETATM    7  C7  UNL     1     -32.873   8.509   3.007  1.00 20.00    -0.011 C 
HETATM    8  C8  UNL     1     -30.881   7.549   1.786  1.00 20.00    -0.011 C 
HETATM    9  C9  UNL     1     -33.150   6.470   1.543  1.00 20.00    -0.011 C 
HETATM   10  C10 UNL     1     -32.704   8.716   0.509  1.00 20.00     0.104 C 
HETATM   11  F11 UNL     1     -32.970   9.515  -0.553  1.00 20.00    -0.243 F 
ENDROOT
TORSDOF 0
ENDMDL
MODEL 6
REMARK VINA RESULT:       6.1      1.872      3.355
REMARK  0 active torsions:
REMARK  status: ('A' for Active; 'I' for Inactive)
ROOT
HETATM    1  C1  UNL     1     -34.599   8.359   3.062  1.00 20.00     0.009 C 
HETATM    2  C2  UNL     1     -35.369   6.125   3.903  1.00 20.00     0.009 C 
HETATM    3  C3  UNL     1     -33.266   7.149   4.809  1.00 20.00     0.009 C 
HETATM    4  C4  UNL     1     -34.473   6.346   1.572  1.00 20.00     0.048 C 
HETATM    5  C5  UNL     1     -32.371   7.370   2.476  1.00 20.00     0.048 C 
HETATM    6  C6  UNL     1     -33.140   5.137   3.318  1.00 20.00     0.048 C 
HETATM    7  C7  UNL     1     -35.296   7.043   2.669  1.00 20.00    -0.011 C 
HETATM    8  C8  UNL     1     -33.178   8.074   3.581  1.00 20.00    -0.011 C 
HETATM    9  C9  UNL     1     -33.953   5.825   4.428  1.00 20.00    -0.011 C 
HETATM   10  C10 UNL     1     -33.059   6.054   2.091  1.00 20.00     0.104 C 
HETATM   11  F11 UNL     1     -32.342   5.441   1.118  1.00 20.00    -0.243 F 
ENDROOT
TORSDOF 0
ENDMDL
MODEL 7
REMARK VINA RESULT:       6.1      1.873      3.354
REMARK  0 active torsions:
REMARK  status: ('A' for Active; 'I' for Inactive)
ROOT
HETATM    1  C1  UNL     1     -33.236   7.165   4.770  1.00 20.00     0.009 C 
HETATM    2  C2  UNL     1     -34.587   8.359   3.027  1.00 20.00     0.009 C 
HETATM    3  C3  UNL     1     -35.361   6.144   3.914  1.00 20.00     0.009 C 
HETATM    4  C4  UNL     1     -32.376   7.344   2.421  1.00 20.00     0.048 C 
HETATM    5  C5  UNL     1     -33.148   5.131   3.308  1.00 20.00     0.048 C 
HETATM    6  C6  UNL     1     -34.500   6.324   1.565  1.00 20.00     0.048 C 
HETATM    7  C7  UNL     1     -33.160   8.072   3.527  1.00 20.00    -0.011 C 
HETATM    8  C8  UNL     1     -33.939   5.841   4.420  1.00 20.00    -0.011 C 
HETATM    9  C9  UNL     1     -35.299   7.043   2.665  1.00 20.00    -0.011 C 
HETATM   10  C10 UNL     1     -33.080   6.029   2.066  1.00 20.00     0.104 C 
HETATM   11  F11 UNL     1     -32.383   5.395   1.092  1.00 20.00    -0.243 F 
ENDROOT
TORSDOF 0
ENDMDL
MODEL 8
REMARK VINA RESULT:       6.2      1.881      2.996
REMARK  0 active torsions:
REMARK  status: ('A' for Active; 'I' for Inactive)
ROOT
HETATM    1  C1  UNL     1     -33.613   7.206   2.829  1.00 20.00     0.009 C 
HETATM    2  C2  UNL     1     -31.631   6.251   1.626  1.00 20.00     0.009 C 
HETATM    3  C3  UNL     1     -31.360   8.283   3.073  1.00 20.00     0.009 C 
HETATM    4  C4  UNL     1     -33.441   7.410   0.336  1.00 20.00     0.048 C 
HETATM    5  C5  UNL     1     -33.172   9.441   1.781  1.00 20.00     0.048 C 
HETATM    6  C6  UNL     1     -31.190   8.486   0.579  1.00 20.00     0.048 C 
HETATM    7  C7  UNL     1     -33.147   6.501   1.542  1.00 20.00    -0.011 C 
HETATM    8  C8  UNL     1     -32.875   8.547   2.998  1.00 20.00    -0.011 C 
HETATM    9  C9  UNL     1     -30.880   7.585   1.787  1.00 20.00    -0.011 C 
HETATM   10  C10 UNL     1     -32.700   8.743   0.499  1.00 20.00     0.104 C 
HETATM   11  F11 UNL     1     -32.965   9.537  -0.567  1.00 20.00    -0.243 F 
ENDROOT
TORSDOF 0
ENDMDL
MODEL 9
REMARK VINA RESULT:       6.2      1.872      3.333
REMARK  0 active torsions:
REMARK  status: ('A' for Active; 'I' for Inactive)
ROOT
HETATM    1  C1  UNL     1     -35.358   6.134   3.924  1.00 20.00     0.009 C 
HETATM    2  C2  UNL     1     -33.240   7.159   4.791  1.00 20.00     0.009 C 
HETATM    3  C3  UNL     1     -34.598   8.363   3.059  1.00 20.00     0.009 C 
HETATM    4  C4  UNL     1     -33.140   5.140   3.309  1.00 20.00     0.048 C 
HETATM    5  C5  UNL     1     -34.498   6.341   1.578  1.00 20.00     0.048 C 
HETATM    6  C6  UNL     1     -32.380   7.367   2.445  1.00 20.00     0.048 C 
HETATM    7  C7  UNL     1     -33.934   5.834   4.428  1.00 20.00    -0.011 C 
HETATM    8  C8  UNL     1     -35.302   7.046   2.684  1.00 20.00    -0.011 C 
HETATM    9  C9  UNL     1     -33.170   8.078   3.558  1.00 20.00    -0.011 C 
HETATM   10  C10 UNL     1     -33.076   6.050   2.077  1.00 20.00     0.104 C 
HETATM   11  F11 UNL     1     -32.375   5.430   1.096  1.00 20.00    -0.243 F 
ENDROOT
TORSDOF 0
ENDMDL
