MODEL 1
REMARK VINA RESULT:      -3.0      0.000      0.000
REMARK  2 active torsions:
REMARK  status: ('A' for Active; 'I' for Inactive)
REMARK    1  A    between atoms: C1_1  and  C4_4 
REMARK    2  A    between atoms: C3_3  and  C4_4 
ROOT
HETATM    1  C4  UNL     1     -33.823   7.194   3.411  1.00 20.00     0.359 C 
HETATM    2  F8  UNL     1     -33.113   7.405   4.553  1.00 20.00    -0.191 F 
HETATM    3  F9  UNL     1     -34.595   8.299   3.236  1.00 20.00    -0.191 F 
ENDROOT
BRANCH   1   4
HETATM    4  C1  UNL     1     -32.894   6.990   2.237  1.00 20.00     0.200 C 
HETATM    5  C2  UNL     1     -31.974   8.125   1.873  1.00 20.00     0.098 C 
HETATM    6  O5  UNL     1     -32.913   5.948   1.581  1.00 20.00    -0.292 OA
ENDBRANCH   1   4
BRANCH   1   7
HETATM    7  C3  UNL     1     -34.722   5.998   3.616  1.00 20.00     0.432 C 
HETATM    8  F6  UNL     1     -33.993   4.940   4.052  1.00 20.00    -0.207 F 
HETATM    9  F7  UNL     1     -35.622   6.278   4.593  1.00 20.00    -0.207 F 
ENDBRANCH   1   7
TORSDOF 2
ENDMDL
MODEL 2
REMARK VINA RESULT:      -2.9      2.554      3.458
REMARK  2 active torsions:
REMARK  status: ('A' for Active; 'I' for Inactive)
REMARK    1  A    between atoms: C1_1  and  C4_4 
REMARK    2  A    between atoms: C3_3  and  C4_4 
ROOT
HETATM    1  C4  UNL     1     -32.889   6.413   1.863  1.00 20.00     0.359 C 
HETATM    2  F8  UNL     1     -31.929   5.464   1.691  1.00 20.00    -0.191 F 
HETATM    3  F9  UNL     1     -33.677   6.360   0.757  1.00 20.00    -0.191 F 
ENDROOT
BRANCH   1   4
HETATM    4  C1  UNL     1     -33.692   6.139   3.114  1.00 20.00     0.200 C 
HETATM    5  C2  UNL     1     -34.205   7.327   3.884  1.00 20.00     0.098 C 
HETATM    6  O5  UNL     1     -33.891   4.989   3.506  1.00 20.00    -0.292 OA
ENDBRANCH   1   4
BRANCH   1   7
HETATM    7  C3  UNL     1     -32.223   7.767   1.923  1.00 20.00     0.432 C 
HETATM    8  F6  UNL     1     -30.875   7.622   1.900  1.00 20.00    -0.207 F 
HETATM    9  F7  UNL     1     -32.556   8.477   0.815  1.00 20.00    -0.207 F 
ENDBRANCH   1   7
TORSDOF 2
ENDMDL
MODEL 3
REMARK VINA RESULT:      -2.8      0.563      1.119
REMARK  2 active torsions:
REMARK  status: ('A' for Active; 'I' for Inactive)
REMARK    1  A    between atoms: C1_1  and  C4_4 
REMARK    2  A    between atoms: C3_3  and  C4_4 
ROOT
HETATM    1  C4  UNL     1     -33.863   7.473   3.688  1.00 20.00     0.359 C 
HETATM    2  F8  UNL     1     -33.041   7.812   4.719  1.00 20.00    -0.191 F 
HETATM    3  F9  UNL     1     -34.596   8.583   3.406  1.00 20.00    -0.191 F 
ENDROOT
BRANCH   1   4
HETATM    4  C1  UNL     1     -33.058   7.035   2.486  1.00 20.00     0.200 C 
HETATM    5  C2  UNL     1     -32.043   8.003   1.940  1.00 20.00     0.098 C 
HETATM    6  O5  UNL     1     -33.249   5.941   1.954  1.00 20.00    -0.292 OA
ENDBRANCH   1   4
BRANCH   1   7
HETATM    7  C3  UNL     1     -34.795   6.380   4.154  1.00 20.00     0.432 C 
HETATM    8  F6  UNL     1     -35.946   6.415   3.437  1.00 20.00    -0.207 F 
HETATM    9  F7  UNL     1     -34.223   5.173   3.912  1.00 20.00    -0.207 F 
ENDBRANCH   1   7
TORSDOF 2
ENDMDL
MODEL 4
REMARK VINA RESULT:      -2.6      2.616      3.937
REMARK  2 active torsions:
REMARK  status: ('A' for Active; 'I' for Inactive)
REMARK    1  A    between atoms: C1_1  and  C4_4 
REMARK    2  A    between atoms: C3_3  and  C4_4 
ROOT
HETATM    1  C4  UNL     1     -31.997   7.929   1.953  1.00 20.00     0.359 C 
HETATM    2  F8  UNL     1     -31.655   8.676   3.038  1.00 20.00    -0.191 F 
HETATM    3  F9  UNL     1     -30.859   7.309   1.544  1.00 20.00    -0.191 F 
ENDROOT
BRANCH   1   4
HETATM    4  C1  UNL     1     -33.064   6.922   2.314  1.00 20.00     0.200 C 
HETATM    5  C2  UNL     1     -33.959   7.246   3.480  1.00 20.00     0.098 C 
HETATM    6  O5  UNL     1     -33.175   5.860   1.699  1.00 20.00    -0.292 OA
ENDBRANCH   1   4
BRANCH   1   7
HETATM    7  C3  UNL     1     -32.466   8.857   0.857  1.00 20.00     0.432 C 
HETATM    8  F6  UNL     1     -32.779  10.070   1.379  1.00 20.00    -0.207 F 
HETATM    9  F7  UNL     1     -31.451   9.062  -0.019  1.00 20.00    -0.207 F 
ENDBRANCH   1   7
TORSDOF 2
ENDMDL
MODEL 5
REMARK VINA RESULT:      -2.5      2.190      3.204
REMARK  2 active torsions:
REMARK  status: ('A' for Active; 'I' for Inactive)
REMARK    1  A    between atoms: C1_1  and  C4_4 
REMARK    2  A    between atoms: C3_3  and  C4_4 
ROOT
HETATM    1  C4  UNL     1     -34.427   6.444   3.643  1.00 20.00     0.359 C 
HETATM    2  F8  UNL     1     -35.496   6.869   2.915  1.00 20.00    -0.191 F 
HETATM    3  F9  UNL     1     -34.249   7.365   4.627  1.00 20.00    -0.191 F 
ENDROOT
BRANCH   1   4
HETATM    4  C1  UNL     1     -34.688   5.074   4.223  1.00 20.00     0.200 C 
HETATM    5  C2  UNL     1     -33.628   4.023   4.028  1.00 20.00     0.098 C 
HETATM    6  O5  UNL     1     -35.742   4.817   4.805  1.00 20.00    -0.292 OA
ENDBRANCH   1   4
BRANCH   1   7
HETATM    7  C3  UNL     1     -33.208   6.442   2.752  1.00 20.00     0.432 C 
HETATM    8  F6  UNL     1     -33.535   5.977   1.520  1.00 20.00    -0.207 F 
HETATM    9  F7  UNL     1     -32.775   7.717   2.584  1.00 20.00    -0.207 F 
ENDBRANCH   1   7
TORSDOF 2
ENDMDL
MODEL 6
REMARK VINA RESULT:      -2.4      2.598      3.612
REMARK  2 active torsions:
REMARK  status: ('A' for Active; 'I' for Inactive)
REMARK    1  A    between atoms: C1_1  and  C4_4 
REMARK    2  A    between atoms: C3_3  and  C4_4 
ROOT
HETATM    1  C4  UNL     1     -32.920   6.428   1.905  1.00 20.00     0.359 C 
HETATM    2  F8  UNL     1     -31.984   5.450   1.766  1.00 20.00    -0.191 F 
HETATM    3  F9  UNL     1     -33.704   6.363   0.796  1.00 20.00    -0.191 F 
ENDROOT
BRANCH   1   4
HETATM    4  C1  UNL     1     -33.735   6.211   3.159  1.00 20.00     0.200 C 
HETATM    5  C2  UNL     1     -33.999   4.790   3.578  1.00 20.00     0.098 C 
HETATM    6  O5  UNL     1     -34.194   7.161   3.794  1.00 20.00    -0.292 OA
ENDBRANCH   1   4
BRANCH   1   7
HETATM    7  C3  UNL     1     -32.220   7.766   1.928  1.00 20.00     0.432 C 
HETATM    8  F6  UNL     1     -30.876   7.587   1.873  1.00 20.00    -0.207 F 
HETATM    9  F7  UNL     1     -32.564   8.469   0.820  1.00 20.00    -0.207 F 
ENDBRANCH   1   7
TORSDOF 2
ENDMDL
MODEL 7
REMARK VINA RESULT:      -2.4      2.665      3.396
REMARK  2 active torsions:
REMARK  status: ('A' for Active; 'I' for Inactive)
REMARK    1  A    between atoms: C1_1  and  C4_4 
REMARK    2  A    between atoms: C3_3  and  C4_4 
ROOT
HETATM    1  C4  UNL     1     -32.599   7.275   2.176  1.00 20.00     0.359 C 
HETATM    2  F8  UNL     1     -33.114   8.132   1.252  1.00 20.00    -0.191 F 
HETATM    3  F9  UNL     1     -31.279   7.583   2.285  1.00 20.00    -0.191 F 
ENDROOT
BRANCH   1   4
HETATM    4  C1  UNL     1     -33.304   7.436   3.503  1.00 20.00     0.200 C 
HETATM    5  C2  UNL     1     -34.617   6.721   3.682  1.00 20.00     0.098 C 
HETATM    6  O5  UNL     1     -32.839   8.150   4.391  1.00 20.00    -0.292 OA
ENDBRANCH   1   4
BRANCH   1   7
HETATM    7  C3  UNL     1     -32.728   5.865   1.651  1.00 20.00     0.432 C 
HETATM    8  F6  UNL     1     -33.520   5.851   0.550  1.00 20.00    -0.207 F 
HETATM    9  F7  UNL     1     -31.508   5.422   1.257  1.00 20.00    -0.207 F 
ENDBRANCH   1   7
TORSDOF 2
ENDMDL
MODEL 8
REMARK VINA RESULT:      -2.3      2.089      2.684
REMARK  2 active torsions:
REMARK  status: ('A' for Active; 'I' for Inactive)
REMARK    1  A    between atoms: C1_1  and  C4_4 
REMARK    2  A    between atoms: C3_3  and  C4_4 
ROOT
HETATM    1  C4  UNL     1     -32.748   6.422   1.817  1.00 20.00     0.359 C 
HETATM    2  F8  UNL     1     -33.685   6.323   0.835  1.00 20.00    -0.191 F 
HETATM    3  F9  UNL     1     -31.766   5.538   1.495  1.00 20.00    -0.191 F 
ENDROOT
BRANCH   1   4
HETATM    4  C1  UNL     1     -32.205   7.830   1.896  1.00 20.00     0.200 C 
HETATM    5  C2  UNL     1     -32.059   8.592   0.606  1.00 20.00     0.098 C 
HETATM    6  O5  UNL     1     -31.865   8.323   2.972  1.00 20.00    -0.292 OA
ENDBRANCH   1   4
BRANCH   1   7
HETATM    7  C3  UNL     1     -33.374   5.999   3.125  1.00 20.00     0.432 C 
HETATM    8  F6  UNL     1     -34.602   6.561   3.253  1.00 20.00    -0.207 F 
HETATM    9  F7  UNL     1     -33.561   4.655   3.116  1.00 20.00    -0.207 F 
ENDBRANCH   1   7
TORSDOF 2
ENDMDL
MODEL 9
REMARK VINA RESULT:      -2.3      1.646      3.243
REMARK  2 active torsions:
REMARK  status: ('A' for Active; 'I' for Inactive)
REMARK    1  A    between atoms: C1_1  and  C4_4 
REMARK    2  A    between atoms: C3_3  and  C4_4 
ROOT
HETATM    1  C4  UNL     1     -33.435   7.682   3.477  1.00 20.00     0.359 C 
HETATM    2  F8  UNL     1     -34.378   8.635   3.244  1.00 20.00    -0.191 F 
HETATM    3  F9  UNL     1     -32.968   7.910   4.733  1.00 20.00    -0.191 F 
ENDROOT
BRANCH   1   4
HETATM    4  C1  UNL     1     -34.036   6.300   3.365  1.00 20.00     0.200 C 
HETATM    5  C2  UNL     1     -35.322   6.039   4.105  1.00 20.00     0.098 C 
HETATM    6  O5  UNL     1     -33.479   5.411   2.721  1.00 20.00    -0.292 OA
ENDBRANCH   1   4
BRANCH   1   7
HETATM    7  C3  UNL     1     -32.304   7.871   2.494  1.00 20.00     0.432 C 
HETATM    8  F6  UNL     1     -32.703   8.677   1.479  1.00 20.00    -0.207 F 
HETATM    9  F7  UNL     1     -31.277   8.505   3.113  1.00 20.00    -0.207 F 
ENDBRANCH   1   7
TORSDOF 2
ENDMDL
