MODEL 1
REMARK VINA RESULT:      -1.2      0.000      0.000
REMARK  2 active torsions:
REMARK  status: ('A' for Active; 'I' for Inactive)
REMARK    1  A    between atoms: C5_5  and  C7_7 
REMARK    2  A    between atoms: C6_6  and  O10_10 
ROOT
HETATM    1  C1  UNL     1     -32.697   6.473   1.509  1.00 20.00     0.006 A 
HETATM    2  C2  UNL     1     -32.640   8.120   3.413  1.00 20.00     0.006 A 
HETATM    3  C3  UNL     1     -33.682   5.797   2.119  1.00 20.00    -0.008 A 
HETATM    4  C4  UNL     1     -33.626   7.448   4.027  1.00 20.00    -0.008 A 
HETATM    5  C6  UNL     1     -32.068   7.707   2.086  1.00 20.00     0.163 A 
HETATM    6  C7  UNL     1     -34.277   6.224   3.436  1.00 20.00     0.044 A 
HETATM    7  C8  UNL     1     -35.787   6.432   3.302  1.00 20.00     0.031 C 
ENDROOT
BRANCH   6   8
HETATM    8  C5  UNL     1     -33.990   5.103   4.398  1.00 20.00     0.248 C 
HETATM    9  O9  UNL     1     -34.185   3.921   4.136  1.00 20.00    -0.305 OA
ENDBRANCH   6   8
BRANCH   5  10
HETATM   10  O10 UNL     1     -32.236   8.769   1.152  1.00 20.00    -0.388 OA
HETATM   11  H20 UNL     1     -33.187   8.957   1.115  1.00 20.00     0.210 HD
ENDBRANCH   5  10
TORSDOF 2
ENDMDL
MODEL 2
REMARK VINA RESULT:      -0.8      1.027      3.961
REMARK  2 active torsions:
REMARK  status: ('A' for Active; 'I' for Inactive)
REMARK    1  A    between atoms: C5_5  and  C7_7 
REMARK    2  A    between atoms: C6_6  and  O10_10 
ROOT
HETATM    1  C1  UNL     1     -33.034   5.601   1.771  1.00 20.00     0.006 A 
HETATM    2  C2  UNL     1     -34.140   6.959   3.580  1.00 20.00     0.006 A 
HETATM    3  C3  UNL     1     -32.271   6.655   1.443  1.00 20.00    -0.008 A 
HETATM    4  C4  UNL     1     -33.379   8.015   3.257  1.00 20.00    -0.008 A 
HETATM    5  C6  UNL     1     -34.051   5.636   2.874  1.00 20.00     0.163 A 
HETATM    6  C7  UNL     1     -32.338   7.975   2.168  1.00 20.00     0.044 A 
HETATM    7  C8  UNL     1     -30.964   8.354   2.724  1.00 20.00     0.031 C 
ENDROOT
BRANCH   6   8
HETATM    8  C5  UNL     1     -32.780   8.983   1.142  1.00 20.00     0.248 C 
HETATM    9  O9  UNL     1     -32.036   9.447   0.285  1.00 20.00    -0.305 OA
ENDBRANCH   6   8
BRANCH   5  10
HETATM   10  O10 UNL     1     -33.717   4.622   3.817  1.00 20.00    -0.388 OA
HETATM   11  H20 UNL     1     -33.014   4.089   3.413  1.00 20.00     0.210 HD
ENDBRANCH   5  10
TORSDOF 2
ENDMDL
MODEL 3
REMARK VINA RESULT:       0.2      1.205      3.885
REMARK  2 active torsions:
REMARK  status: ('A' for Active; 'I' for Inactive)
REMARK    1  A    between atoms: C5_5  and  C7_7 
REMARK    2  A    between atoms: C6_6  and  O10_10 
ROOT
HETATM    1  C1  UNL     1     -34.626   6.713   3.773  1.00 20.00     0.006 A 
HETATM    2  C2  UNL     1     -33.540   4.442   3.684  1.00 20.00     0.006 A 
HETATM    3  C3  UNL     1     -34.044   7.040   2.609  1.00 20.00    -0.008 A 
HETATM    4  C4  UNL     1     -32.958   4.764   2.519  1.00 20.00    -0.008 A 
HETATM    5  C6  UNL     1     -34.439   5.380   4.439  1.00 20.00     0.163 A 
HETATM    6  C7  UNL     1     -33.165   6.091   1.836  1.00 20.00     0.044 A 
HETATM    7  C8  UNL     1     -33.708   5.886   0.420  1.00 20.00     0.031 C 
ENDROOT
BRANCH   6   8
HETATM    8  C5  UNL     1     -31.809   6.740   1.784  1.00 20.00     0.248 C 
HETATM    9  O9  UNL     1     -31.639   7.955   1.791  1.00 20.00    -0.305 OA
ENDBRANCH   6   8
BRANCH   5  10
HETATM   10  O10 UNL     1     -35.721   4.779   4.594  1.00 20.00    -0.388 OA
HETATM   11  H20 UNL     1     -35.823   4.152   3.862  1.00 20.00     0.210 HD
ENDBRANCH   5  10
TORSDOF 2
ENDMDL
MODEL 4
REMARK VINA RESULT:       0.5      2.087      3.175
REMARK  2 active torsions:
REMARK  status: ('A' for Active; 'I' for Inactive)
REMARK    1  A    between atoms: C5_5  and  C7_7 
REMARK    2  A    between atoms: C6_6  and  O10_10 
ROOT
HETATM    1  C1  UNL     1     -34.162   6.378   3.666  1.00 20.00     0.006 A 
HETATM    2  C2  UNL     1     -32.738   8.174   2.623  1.00 20.00     0.006 A 
HETATM    3  C3  UNL     1     -33.732   5.500   2.747  1.00 20.00    -0.008 A 
HETATM    4  C4  UNL     1     -32.305   7.300   1.703  1.00 20.00    -0.008 A 
HETATM    5  C6  UNL     1     -33.714   7.810   3.707  1.00 20.00     0.163 A 
HETATM    6  C7  UNL     1     -32.733   5.856   1.676  1.00 20.00     0.044 A 
HETATM    7  C8  UNL     1     -31.514   4.933   1.751  1.00 20.00     0.031 C 
ENDROOT
BRANCH   6   8
HETATM    8  C5  UNL     1     -33.450   5.666   0.368  1.00 20.00     0.248 C 
HETATM    9  O9  UNL     1     -33.640   4.568  -0.147  1.00 20.00    -0.305 OA
ENDBRANCH   6   8
BRANCH   5  10
HETATM   10  O10 UNL     1     -33.117   8.051   4.977  1.00 20.00    -0.388 OA
HETATM   11  H20 UNL     1     -32.453   7.356   5.107  1.00 20.00     0.210 HD
ENDBRANCH   5  10
TORSDOF 2
ENDMDL
MODEL 5
REMARK VINA RESULT:       1.0      1.420      3.894
REMARK  2 active torsions:
REMARK  status: ('A' for Active; 'I' for Inactive)
REMARK    1  A    between atoms: C5_5  and  C7_7 
REMARK    2  A    between atoms: C6_6  and  O10_10 
ROOT
HETATM    1  C1  UNL     1     -33.993   7.657   4.073  1.00 20.00     0.006 A 
HETATM    2  C2  UNL     1     -33.746   5.666   2.552  1.00 20.00     0.006 A 
HETATM    3  C3  UNL     1     -33.180   8.369   3.278  1.00 20.00    -0.008 A 
HETATM    4  C4  UNL     1     -32.933   6.373   1.754  1.00 20.00    -0.008 A 
HETATM    5  C6  UNL     1     -34.367   6.230   3.800  1.00 20.00     0.163 A 
HETATM    6  C7  UNL     1     -32.578   7.815   2.012  1.00 20.00     0.044 A 
HETATM    7  C8  UNL     1     -32.957   8.684   0.812  1.00 20.00     0.031 C 
ENDROOT
BRANCH   6   8
HETATM    8  C5  UNL     1     -31.089   7.838   2.223  1.00 20.00     0.248 C 
HETATM    9  O9  UNL     1     -30.539   8.501   3.096  1.00 20.00    -0.305 OA
ENDBRANCH   6   8
BRANCH   5  10
HETATM   10  O10 UNL     1     -35.785   6.155   3.693  1.00 20.00    -0.388 OA
HETATM   11  H20 UNL     1     -36.079   6.998   3.314  1.00 20.00     0.210 HD
ENDBRANCH   5  10
TORSDOF 2
ENDMDL
MODEL 6
REMARK VINA RESULT:       1.0      1.362      2.369
REMARK  2 active torsions:
REMARK  status: ('A' for Active; 'I' for Inactive)
REMARK    1  A    between atoms: C5_5  and  C7_7 
REMARK    2  A    between atoms: C6_6  and  O10_10 
ROOT
HETATM    1  C1  UNL     1     -32.855   8.022   3.478  1.00 20.00     0.006 A 
HETATM    2  C2  UNL     1     -33.049   6.534   1.456  1.00 20.00     0.006 A 
HETATM    3  C3  UNL     1     -33.614   7.168   4.182  1.00 20.00    -0.008 A 
HETATM    4  C4  UNL     1     -33.807   5.677   2.156  1.00 20.00    -0.008 A 
HETATM    5  C6  UNL     1     -32.489   7.800   2.039  1.00 20.00     0.163 A 
HETATM    6  C7  UNL     1     -34.154   5.884   3.608  1.00 20.00     0.044 A 
HETATM    7  C8  UNL     1     -33.698   4.687   4.445  1.00 20.00     0.031 C 
ENDROOT
BRANCH   6   8
HETATM    8  C5  UNL     1     -35.652   6.012   3.656  1.00 20.00     0.248 C 
HETATM    9  O9  UNL     1     -36.275   6.889   3.066  1.00 20.00    -0.305 OA
ENDBRANCH   6   8
BRANCH   5  10
HETATM   10  O10 UNL     1     -31.068   7.773   1.943  1.00 20.00    -0.388 OA
HETATM   11  H20 UNL     1     -30.801   6.847   2.051  1.00 20.00     0.210 HD
ENDBRANCH   5  10
TORSDOF 2
ENDMDL
MODEL 7
REMARK VINA RESULT:       1.1      1.982      2.490
REMARK  2 active torsions:
REMARK  status: ('A' for Active; 'I' for Inactive)
REMARK    1  A    between atoms: C5_5  and  C7_7 
REMARK    2  A    between atoms: C6_6  and  O10_10 
ROOT
HETATM    1  C1  UNL     1     -33.069   4.797   2.830  1.00 20.00     0.006 A 
HETATM    2  C2  UNL     1     -32.582   6.981   1.676  1.00 20.00     0.006 A 
HETATM    3  C3  UNL     1     -33.963   5.411   3.621  1.00 20.00    -0.008 A 
HETATM    4  C4  UNL     1     -33.475   7.599   2.463  1.00 20.00    -0.008 A 
HETATM    5  C6  UNL     1     -32.281   5.512   1.772  1.00 20.00     0.163 A 
HETATM    6  C7  UNL     1     -34.287   6.878   3.508  1.00 20.00     0.044 A 
HETATM    7  C8  UNL     1     -35.783   7.081   3.260  1.00 20.00     0.031 C 
ENDROOT
BRANCH   6   8
HETATM    8  C5  UNL     1     -33.891   7.487   4.826  1.00 20.00     0.248 C 
HETATM    9  O9  UNL     1     -32.923   8.227   4.965  1.00 20.00    -0.305 OA
ENDBRANCH   6   8
BRANCH   5  10
HETATM   10  O10 UNL     1     -32.557   4.893   0.519  1.00 20.00    -0.388 OA
HETATM   11  H20 UNL     1     -32.107   4.034   0.530  1.00 20.00     0.210 HD
ENDBRANCH   5  10
TORSDOF 2
ENDMDL
MODEL 8
REMARK VINA RESULT:       1.2      2.089      3.133
REMARK  2 active torsions:
REMARK  status: ('A' for Active; 'I' for Inactive)
REMARK    1  A    between atoms: C5_5  and  C7_7 
REMARK    2  A    between atoms: C6_6  and  O10_10 
ROOT
HETATM    1  C1  UNL     1     -32.611   7.973   2.718  1.00 20.00     0.006 A 
HETATM    2  C2  UNL     1     -33.947   6.064   3.673  1.00 20.00     0.006 A 
HETATM    3  C3  UNL     1     -32.354   7.247   1.619  1.00 20.00    -0.008 A 
HETATM    4  C4  UNL     1     -33.693   5.335   2.576  1.00 20.00    -0.008 A 
HETATM    5  C6  UNL     1     -33.435   7.464   3.865  1.00 20.00     0.163 A 
HETATM    6  C7  UNL     1     -32.889   5.854   1.412  1.00 20.00     0.044 A 
HETATM    7  C8  UNL     1     -33.705   5.778   0.120  1.00 20.00     0.031 C 
ENDROOT
BRANCH   6   8
HETATM    8  C5  UNL     1     -31.682   4.961   1.319  1.00 20.00     0.248 C 
HETATM    9  O9  UNL     1     -31.356   4.368   0.296  1.00 20.00    -0.305 OA
ENDBRANCH   6   8
BRANCH   5  10
HETATM   10  O10 UNL     1     -34.538   8.347   4.045  1.00 20.00    -0.388 OA
HETATM   11  H20 UNL     1     -34.954   8.101   4.886  1.00 20.00     0.210 HD
ENDBRANCH   5  10
TORSDOF 2
ENDMDL
MODEL 9
REMARK VINA RESULT:       1.4      1.146      3.865
REMARK  2 active torsions:
REMARK  status: ('A' for Active; 'I' for Inactive)
REMARK    1  A    between atoms: C5_5  and  C7_7 
REMARK    2  A    between atoms: C6_6  and  O10_10 
ROOT
HETATM    1  C1  UNL     1     -33.803   4.896   3.529  1.00 20.00     0.006 A 
HETATM    2  C2  UNL     1     -35.613   6.627   3.780  1.00 20.00     0.006 A 
HETATM    3  C3  UNL     1     -32.911   5.862   3.265  1.00 20.00    -0.008 A 
HETATM    4  C4  UNL     1     -34.725   7.598   3.518  1.00 20.00    -0.008 A 
HETATM    5  C6  UNL     1     -35.250   5.170   3.816  1.00 20.00     0.163 A 
HETATM    6  C7  UNL     1     -33.266   7.327   3.256  1.00 20.00     0.044 A 
HETATM    7  C8  UNL     1     -32.391   8.099   4.246  1.00 20.00     0.031 C 
ENDROOT
BRANCH   6   8
HETATM    8  C5  UNL     1     -33.007   7.802   1.852  1.00 20.00     0.248 C 
HETATM    9  O9  UNL     1     -31.977   8.373   1.510  1.00 20.00    -0.305 OA
ENDBRANCH   6   8
BRANCH   5  10
HETATM   10  O10 UNL     1     -35.555   4.641   5.103  1.00 20.00    -0.388 OA
HETATM   11  H20 UNL     1     -35.910   5.376   5.626  1.00 20.00     0.210 HD
ENDBRANCH   5  10
TORSDOF 2
ENDMDL
