MODEL 1
REMARK VINA RESULT:      -2.6      0.000      0.000
REMARK  1 active torsions:
REMARK  status: ('A' for Active; 'I' for Inactive)
REMARK    1  A    between atoms: C1_1  and  C4_4 
ROOT
HETATM    1  C3  UNL     1     -33.706   7.339   3.141  1.00 20.00    -0.024 C 
HETATM    2  C4  UNL     1     -32.849   7.128   2.121  1.00 20.00    -0.066 C 
HETATM    3  C6  UNL     1     -34.493   6.338   3.925  1.00 20.00     0.036 C 
HETATM    4  C7  UNL     1     -32.523   5.768   1.561  1.00 20.00     0.048 C 
ENDROOT
BRANCH   2   5
HETATM    5  C1  UNL     1     -32.191   8.285   1.509  1.00 20.00     0.002 C 
HETATM    6  C2  UNL     1     -32.734   9.156   0.643  1.00 20.00    -0.030 C 
HETATM    7  C5  UNL     1     -31.990  10.315   0.063  1.00 20.00     0.036 C 
ENDBRANCH   2   5
TORSDOF 1
ENDMDL
MODEL 2
REMARK VINA RESULT:      -2.4      1.358      2.606
REMARK  1 active torsions:
REMARK  status: ('A' for Active; 'I' for Inactive)
REMARK    1  A    between atoms: C1_1  and  C4_4 
ROOT
HETATM    1  C3  UNL     1     -33.398   4.970   3.495  1.00 20.00    -0.024 C 
HETATM    2  C4  UNL     1     -34.086   6.129   3.433  1.00 20.00    -0.066 C 
HETATM    3  C6  UNL     1     -33.781   3.689   4.165  1.00 20.00     0.036 C 
HETATM    4  C7  UNL     1     -35.434   6.344   4.071  1.00 20.00     0.048 C 
ENDROOT
BRANCH   2   5
HETATM    5  C1  UNL     1     -33.494   7.255   2.707  1.00 20.00     0.002 C 
HETATM    6  C2  UNL     1     -32.369   7.240   1.976  1.00 20.00    -0.030 C 
HETATM    7  C5  UNL     1     -31.831   8.438   1.263  1.00 20.00     0.036 C 
ENDBRANCH   2   5
TORSDOF 1
ENDMDL
MODEL 3
REMARK VINA RESULT:      -2.2      1.128      3.891
REMARK  1 active torsions:
REMARK  status: ('A' for Active; 'I' for Inactive)
REMARK    1  A    between atoms: C1_1  and  C4_4 
ROOT
HETATM    1  C3  UNL     1     -32.467   7.820   1.886  1.00 20.00    -0.024 C 
HETATM    2  C4  UNL     1     -32.648   6.483   1.878  1.00 20.00    -0.066 C 
HETATM    3  C6  UNL     1     -31.559   8.647   1.033  1.00 20.00     0.036 C 
HETATM    4  C7  UNL     1     -31.918   5.540   0.957  1.00 20.00     0.048 C 
ENDROOT
BRANCH   2   5
HETATM    5  C1  UNL     1     -33.607   5.901   2.819  1.00 20.00     0.002 C 
HETATM    6  C2  UNL     1     -34.520   6.561   3.549  1.00 20.00    -0.030 C 
HETATM    7  C5  UNL     1     -35.466   5.889   4.492  1.00 20.00     0.036 C 
ENDBRANCH   2   5
TORSDOF 1
ENDMDL
MODEL 4
REMARK VINA RESULT:      -2.0      2.083      4.993
REMARK  1 active torsions:
REMARK  status: ('A' for Active; 'I' for Inactive)
REMARK    1  A    between atoms: C1_1  and  C4_4 
ROOT
HETATM    1  C3  UNL     1     -32.919   6.334   2.301  1.00 20.00    -0.024 C 
HETATM    2  C4  UNL     1     -33.810   6.106   3.288  1.00 20.00    -0.066 C 
HETATM    3  C6  UNL     1     -32.507   7.638   1.696  1.00 20.00     0.036 C 
HETATM    4  C7  UNL     1     -34.591   7.189   3.986  1.00 20.00     0.048 C 
ENDROOT
BRANCH   2   5
HETATM    5  C1  UNL     1     -34.043   4.724   3.714  1.00 20.00     0.002 C 
HETATM    6  C2  UNL     1     -33.128   3.861   4.183  1.00 20.00    -0.030 C 
HETATM    7  C5  UNL     1     -33.449   2.461   4.598  1.00 20.00     0.036 C 
ENDBRANCH   2   5
TORSDOF 1
ENDMDL
MODEL 5
REMARK VINA RESULT:      -1.7      0.924      3.897
REMARK  1 active torsions:
REMARK  status: ('A' for Active; 'I' for Inactive)
REMARK    1  A    between atoms: C1_1  and  C4_4 
ROOT
HETATM    1  C3  UNL     1     -32.830   9.189   1.260  1.00 20.00    -0.024 C 
HETATM    2  C4  UNL     1     -32.503   8.046   1.899  1.00 20.00    -0.066 C 
HETATM    3  C6  UNL     1     -32.163   9.826   0.083  1.00 20.00     0.036 C 
HETATM    4  C7  UNL     1     -31.340   7.169   1.515  1.00 20.00     0.048 C 
ENDROOT
BRANCH   2   5
HETATM    5  C1  UNL     1     -33.321   7.624   3.039  1.00 20.00     0.002 C 
HETATM    6  C2  UNL     1     -34.216   6.623   3.060  1.00 20.00    -0.030 C 
HETATM    7  C5  UNL     1     -35.013   6.255   4.270  1.00 20.00     0.036 C 
ENDBRANCH   2   5
TORSDOF 1
ENDMDL
MODEL 6
REMARK VINA RESULT:      -1.6      0.807      1.936
REMARK  1 active torsions:
REMARK  status: ('A' for Active; 'I' for Inactive)
REMARK    1  A    between atoms: C1_1  and  C4_4 
ROOT
HETATM    1  C3  UNL     1     -32.146   6.445   1.263  1.00 20.00    -0.024 C 
HETATM    2  C4  UNL     1     -32.571   7.489   2.004  1.00 20.00    -0.066 C 
HETATM    3  C6  UNL     1     -32.327   4.982   1.516  1.00 20.00     0.036 C 
HETATM    4  C7  UNL     1     -33.341   7.351   3.292  1.00 20.00     0.048 C 
ENDROOT
BRANCH   2   5
HETATM    5  C1  UNL     1     -32.269   8.846   1.540  1.00 20.00     0.002 C 
HETATM    6  C2  UNL     1     -32.594   9.381   0.353  1.00 20.00    -0.030 C 
HETATM    7  C5  UNL     1     -32.246  10.779  -0.045  1.00 20.00     0.036 C 
ENDBRANCH   2   5
TORSDOF 1
ENDMDL
MODEL 7
REMARK VINA RESULT:      -1.4      1.432      4.039
REMARK  1 active torsions:
REMARK  status: ('A' for Active; 'I' for Inactive)
REMARK    1  A    between atoms: C1_1  and  C4_4 
ROOT
HETATM    1  C3  UNL     1     -32.452   5.300   1.404  1.00 20.00    -0.024 C 
HETATM    2  C4  UNL     1     -32.628   6.552   1.873  1.00 20.00    -0.066 C 
HETATM    3  C6  UNL     1     -31.425   4.798   0.439  1.00 20.00     0.036 C 
HETATM    4  C7  UNL     1     -31.775   7.729   1.477  1.00 20.00     0.048 C 
ENDROOT
BRANCH   2   5
HETATM    5  C1  UNL     1     -33.715   6.796   2.825  1.00 20.00     0.002 C 
HETATM    6  C2  UNL     1     -34.421   5.871   3.495  1.00 20.00    -0.030 C 
HETATM    7  C5  UNL     1     -35.520   6.205   4.452  1.00 20.00     0.036 C 
ENDBRANCH   2   5
TORSDOF 1
ENDMDL
MODEL 8
REMARK VINA RESULT:      -1.3      1.431      3.226
REMARK  1 active torsions:
REMARK  status: ('A' for Active; 'I' for Inactive)
REMARK    1  A    between atoms: C1_1  and  C4_4 
ROOT
HETATM    1  C3  UNL     1     -33.887   6.649   3.187  1.00 20.00    -0.024 C 
HETATM    2  C4  UNL     1     -32.971   6.827   2.212  1.00 20.00    -0.066 C 
HETATM    3  C6  UNL     1     -34.309   7.603   4.258  1.00 20.00     0.036 C 
HETATM    4  C7  UNL     1     -32.167   8.087   2.030  1.00 20.00     0.048 C 
ENDROOT
BRANCH   2   5
HETATM    5  C1  UNL     1     -32.734   5.732   1.268  1.00 20.00     0.002 C 
HETATM    6  C2  UNL     1     -31.563   5.123   1.020  1.00 20.00    -0.030 C 
HETATM    7  C5  UNL     1     -31.405   4.008   0.036  1.00 20.00     0.036 C 
ENDBRANCH   2   5
TORSDOF 1
ENDMDL
MODEL 9
REMARK VINA RESULT:      -1.3      2.601      3.327
REMARK  1 active torsions:
REMARK  status: ('A' for Active; 'I' for Inactive)
REMARK    1  A    between atoms: C1_1  and  C4_4 
ROOT
HETATM    1  C3  UNL     1     -33.392   7.518   3.827  1.00 20.00    -0.024 C 
HETATM    2  C4  UNL     1     -34.116   6.450   3.433  1.00 20.00    -0.066 C 
HETATM    3  C6  UNL     1     -33.630   8.434   4.985  1.00 20.00     0.036 C 
HETATM    4  C7  UNL     1     -35.363   5.972   4.131  1.00 20.00     0.048 C 
ENDROOT
BRANCH   2   5
HETATM    5  C1  UNL     1     -33.673   5.702   2.253  1.00 20.00     0.002 C 
HETATM    6  C2  UNL     1     -32.442   5.697   1.719  1.00 20.00    -0.030 C 
HETATM    7  C5  UNL     1     -32.071   4.903   0.508  1.00 20.00     0.036 C 
ENDBRANCH   2   5
TORSDOF 1
ENDMDL
