MODEL 1
REMARK VINA RESULT:      -2.8      0.000      0.000
REMARK  4 active torsions:
REMARK  status: ('A' for Active; 'I' for Inactive)
REMARK    1  A    between atoms: C3_3  and  C6_6 
REMARK    2  A    between atoms: C5_5  and  C7_7 
REMARK    3  A    between atoms: C6_6  and  C8_8 
REMARK    4  A    between atoms: C7_7  and  C8_8 
ROOT
HETATM    1  C1  UNL     1     -32.452   9.450   0.277  1.00 20.00     0.059 C 
HETATM    2  C5  UNL     1     -32.014   8.894   1.564  1.00 20.00     0.124 C 
HETATM    3  N9  UNL     1     -32.799   9.890  -0.739  1.00 20.00    -0.197 NA
ENDROOT
BRANCH   2   4
HETATM    4  C7  UNL     1     -31.793   7.381   1.495  1.00 20.00     0.014 C 
BRANCH   4   5
HETATM    5  C8  UNL     1     -33.107   6.589   1.497  1.00 20.00     0.005 C 
BRANCH   5   6
HETATM    6  C6  UNL     1     -33.357   5.844   2.815  1.00 20.00     0.033 C 
BRANCH   6   7
HETATM    7  C3  UNL     1     -34.342   6.519   3.742  1.00 20.00    -0.093 C 
HETATM    8  C2  UNL     1     -35.507   5.937   4.069  1.00 20.00     0.014 C 
HETATM    9  C4  UNL     1     -33.947   7.850   4.311  1.00 20.00     0.042 C 
ENDBRANCH   6   7
ENDBRANCH   5   6
ENDBRANCH   4   5
ENDBRANCH   2   4
TORSDOF 4
ENDMDL
MODEL 2
REMARK VINA RESULT:      -2.7      0.192      1.173
REMARK  4 active torsions:
REMARK  status: ('A' for Active; 'I' for Inactive)
REMARK    1  A    between atoms: C3_3  and  C6_6 
REMARK    2  A    between atoms: C5_5  and  C7_7 
REMARK    3  A    between atoms: C6_6  and  C8_8 
REMARK    4  A    between atoms: C7_7  and  C8_8 
ROOT
HETATM    1  C1  UNL     1     -32.451   9.402   0.374  1.00 20.00     0.059 C 
HETATM    2  C5  UNL     1     -31.951   8.792   1.613  1.00 20.00     0.124 C 
HETATM    3  N9  UNL     1     -32.846   9.886  -0.604  1.00 20.00    -0.197 NA
ENDROOT
BRANCH   2   4
HETATM    4  C7  UNL     1     -31.772   7.278   1.479  1.00 20.00     0.014 C 
BRANCH   4   5
HETATM    5  C8  UNL     1     -33.105   6.519   1.511  1.00 20.00     0.005 C 
BRANCH   5   6
HETATM    6  C6  UNL     1     -33.339   5.768   2.828  1.00 20.00     0.033 C 
BRANCH   6   7
HETATM    7  C3  UNL     1     -34.317   6.435   3.768  1.00 20.00    -0.093 C 
HETATM    8  C2  UNL     1     -34.180   7.722   4.123  1.00 20.00     0.014 C 
HETATM    9  C4  UNL     1     -35.471   5.608   4.257  1.00 20.00     0.042 C 
ENDBRANCH   6   7
ENDBRANCH   5   6
ENDBRANCH   4   5
ENDBRANCH   2   4
TORSDOF 4
ENDMDL
MODEL 3
REMARK VINA RESULT:      -2.6      0.959      1.379
REMARK  4 active torsions:
REMARK  status: ('A' for Active; 'I' for Inactive)
REMARK    1  A    between atoms: C3_3  and  C6_6 
REMARK    2  A    between atoms: C5_5  and  C7_7 
REMARK    3  A    between atoms: C6_6  and  C8_8 
REMARK    4  A    between atoms: C7_7  and  C8_8 
ROOT
HETATM    1  C1  UNL     1     -32.277   9.301   0.690  1.00 20.00     0.059 C 
HETATM    2  C5  UNL     1     -31.920   8.299   1.702  1.00 20.00     0.124 C 
HETATM    3  N9  UNL     1     -32.559  10.095  -0.108  1.00 20.00    -0.197 NA
ENDROOT
BRANCH   2   4
HETATM    4  C7  UNL     1     -31.875   6.883   1.122  1.00 20.00     0.014 C 
BRANCH   4   5
HETATM    5  C8  UNL     1     -32.832   5.919   1.835  1.00 20.00     0.005 C 
BRANCH   5   6
HETATM    6  C6  UNL     1     -33.433   6.508   3.119  1.00 20.00     0.033 C 
BRANCH   6   7
HETATM    7  C3  UNL     1     -34.424   5.609   3.819  1.00 20.00    -0.093 C 
HETATM    8  C2  UNL     1     -35.631   6.059   4.200  1.00 20.00     0.014 C 
HETATM    9  C4  UNL     1     -34.018   4.180   4.040  1.00 20.00     0.042 C 
ENDBRANCH   6   7
ENDBRANCH   5   6
ENDBRANCH   4   5
ENDBRANCH   2   4
TORSDOF 4
ENDMDL
MODEL 4
REMARK VINA RESULT:      -2.5      3.412      5.255
REMARK  4 active torsions:
REMARK  status: ('A' for Active; 'I' for Inactive)
REMARK    1  A    between atoms: C3_3  and  C6_6 
REMARK    2  A    between atoms: C5_5  and  C7_7 
REMARK    3  A    between atoms: C6_6  and  C8_8 
REMARK    4  A    between atoms: C7_7  and  C8_8 
ROOT
HETATM    1  C1  UNL     1     -33.483   3.441   4.620  1.00 20.00     0.059 C 
HETATM    2  C5  UNL     1     -34.289   4.249   3.695  1.00 20.00     0.124 C 
HETATM    3  N9  UNL     1     -32.846   2.802   5.350  1.00 20.00    -0.197 NA
ENDROOT
BRANCH   2   4
HETATM    4  C7  UNL     1     -34.925   5.457   4.386  1.00 20.00     0.014 C 
BRANCH   4   5
HETATM    5  C8  UNL     1     -34.785   6.748   3.570  1.00 20.00     0.005 C 
BRANCH   5   6
HETATM    6  C6  UNL     1     -33.349   7.291   3.545  1.00 20.00     0.033 C 
BRANCH   6   7
HETATM    7  C3  UNL     1     -32.682   7.242   2.190  1.00 20.00    -0.093 C 
HETATM    8  C2  UNL     1     -32.063   8.316   1.675  1.00 20.00     0.014 C 
HETATM    9  C4  UNL     1     -32.707   5.930   1.460  1.00 20.00     0.042 C 
ENDBRANCH   6   7
ENDBRANCH   5   6
ENDBRANCH   4   5
ENDBRANCH   2   4
TORSDOF 4
ENDMDL
MODEL 5
REMARK VINA RESULT:      -2.5      3.403      5.140
REMARK  4 active torsions:
REMARK  status: ('A' for Active; 'I' for Inactive)
REMARK    1  A    between atoms: C3_3  and  C6_6 
REMARK    2  A    between atoms: C5_5  and  C7_7 
REMARK    3  A    between atoms: C6_6  and  C8_8 
REMARK    4  A    between atoms: C7_7  and  C8_8 
ROOT
HETATM    1  C1  UNL     1     -33.491   3.427   4.604  1.00 20.00     0.059 C 
HETATM    2  C5  UNL     1     -34.352   4.223   3.719  1.00 20.00     0.124 C 
HETATM    3  N9  UNL     1     -32.811   2.797   5.302  1.00 20.00    -0.197 NA
ENDROOT
BRANCH   2   4
HETATM    4  C7  UNL     1     -34.925   5.454   4.424  1.00 20.00     0.014 C 
BRANCH   4   5
HETATM    5  C8  UNL     1     -34.825   6.726   3.572  1.00 20.00     0.005 C 
BRANCH   5   6
HETATM    6  C6  UNL     1     -33.404   7.302   3.516  1.00 20.00     0.033 C 
BRANCH   6   7
HETATM    7  C3  UNL     1     -32.716   7.153   2.179  1.00 20.00    -0.093 C 
HETATM    8  C2  UNL     1     -32.732   5.989   1.510  1.00 20.00     0.014 C 
HETATM    9  C4  UNL     1     -32.045   8.370   1.613  1.00 20.00     0.042 C 
ENDBRANCH   6   7
ENDBRANCH   5   6
ENDBRANCH   4   5
ENDBRANCH   2   4
TORSDOF 4
ENDMDL
MODEL 6
REMARK VINA RESULT:      -2.5      1.020      1.285
REMARK  4 active torsions:
REMARK  status: ('A' for Active; 'I' for Inactive)
REMARK    1  A    between atoms: C3_3  and  C6_6 
REMARK    2  A    between atoms: C5_5  and  C7_7 
REMARK    3  A    between atoms: C6_6  and  C8_8 
REMARK    4  A    between atoms: C7_7  and  C8_8 
ROOT
HETATM    1  C1  UNL     1     -32.477   9.624   0.166  1.00 20.00     0.059 C 
HETATM    2  C5  UNL     1     -31.808   9.106   1.366  1.00 20.00     0.124 C 
HETATM    3  N9  UNL     1     -33.005  10.035  -0.782  1.00 20.00    -0.197 NA
ENDROOT
BRANCH   2   4
HETATM    4  C7  UNL     1     -31.950   7.587   1.496  1.00 20.00     0.014 C 
BRANCH   4   5
HETATM    5  C8  UNL     1     -32.998   7.177   2.539  1.00 20.00     0.005 C 
BRANCH   5   6
HETATM    6  C6  UNL     1     -33.392   5.697   2.445  1.00 20.00     0.033 C 
BRANCH   6   7
HETATM    7  C3  UNL     1     -34.218   5.191   3.605  1.00 20.00    -0.093 C 
HETATM    8  C2  UNL     1     -33.962   4.006   4.183  1.00 20.00     0.014 C 
HETATM    9  C4  UNL     1     -35.315   6.084   4.107  1.00 20.00     0.042 C 
ENDBRANCH   6   7
ENDBRANCH   5   6
ENDBRANCH   4   5
ENDBRANCH   2   4
TORSDOF 4
ENDMDL
MODEL 7
REMARK VINA RESULT:      -2.4      2.903      4.913
REMARK  4 active torsions:
REMARK  status: ('A' for Active; 'I' for Inactive)
REMARK    1  A    between atoms: C3_3  and  C6_6 
REMARK    2  A    between atoms: C5_5  and  C7_7 
REMARK    3  A    between atoms: C6_6  and  C8_8 
REMARK    4  A    between atoms: C7_7  and  C8_8 
ROOT
HETATM    1  C1  UNL     1     -34.383   4.324   4.334  1.00 20.00     0.059 C 
HETATM    2  C5  UNL     1     -35.313   5.451   4.494  1.00 20.00     0.124 C 
HETATM    3  N9  UNL     1     -33.650   3.434   4.208  1.00 20.00    -0.197 NA
ENDROOT
BRANCH   2   4
HETATM    4  C7  UNL     1     -35.059   6.560   3.471  1.00 20.00     0.014 C 
BRANCH   4   5
HETATM    5  C8  UNL     1     -34.173   7.684   4.022  1.00 20.00     0.005 C 
BRANCH   5   6
HETATM    6  C6  UNL     1     -32.707   7.566   3.583  1.00 20.00     0.033 C 
BRANCH   6   7
HETATM    7  C3  UNL     1     -32.506   7.420   2.093  1.00 20.00    -0.093 C 
HETATM    8  C2  UNL     1     -32.208   8.477   1.320  1.00 20.00     0.014 C 
HETATM    9  C4  UNL     1     -32.618   6.038   1.517  1.00 20.00     0.042 C 
ENDBRANCH   6   7
ENDBRANCH   5   6
ENDBRANCH   4   5
ENDBRANCH   2   4
TORSDOF 4
ENDMDL
MODEL 8
REMARK VINA RESULT:      -2.4      2.914      4.806
REMARK  4 active torsions:
REMARK  status: ('A' for Active; 'I' for Inactive)
REMARK    1  A    between atoms: C3_3  and  C6_6 
REMARK    2  A    between atoms: C5_5  and  C7_7 
REMARK    3  A    between atoms: C6_6  and  C8_8 
REMARK    4  A    between atoms: C7_7  and  C8_8 
ROOT
HETATM    1  C1  UNL     1     -34.379   4.321   4.369  1.00 20.00     0.059 C 
HETATM    2  C5  UNL     1     -35.304   5.454   4.505  1.00 20.00     0.124 C 
HETATM    3  N9  UNL     1     -33.649   3.425   4.264  1.00 20.00    -0.197 NA
ENDROOT
BRANCH   2   4
HETATM    4  C7  UNL     1     -35.037   6.545   3.466  1.00 20.00     0.014 C 
BRANCH   4   5
HETATM    5  C8  UNL     1     -34.173   7.688   4.016  1.00 20.00     0.005 C 
BRANCH   5   6
HETATM    6  C6  UNL     1     -32.704   7.596   3.579  1.00 20.00     0.033 C 
BRANCH   6   7
HETATM    7  C3  UNL     1     -32.501   7.359   2.100  1.00 20.00    -0.093 C 
HETATM    8  C2  UNL     1     -32.614   6.133   1.566  1.00 20.00     0.014 C 
HETATM    9  C4  UNL     1     -32.205   8.559   1.248  1.00 20.00     0.042 C 
ENDBRANCH   6   7
ENDBRANCH   5   6
ENDBRANCH   4   5
ENDBRANCH   2   4
TORSDOF 4
ENDMDL
MODEL 9
REMARK VINA RESULT:      -2.2      2.813      4.955
REMARK  4 active torsions:
REMARK  status: ('A' for Active; 'I' for Inactive)
REMARK    1  A    between atoms: C3_3  and  C6_6 
REMARK    2  A    between atoms: C5_5  and  C7_7 
REMARK    3  A    between atoms: C6_6  and  C8_8 
REMARK    4  A    between atoms: C7_7  and  C8_8 
ROOT
HETATM    1  C1  UNL     1     -34.531   4.998   4.115  1.00 20.00     0.059 C 
HETATM    2  C5  UNL     1     -35.048   6.358   3.915  1.00 20.00     0.124 C 
HETATM    3  N9  UNL     1     -34.124   3.923   4.273  1.00 20.00    -0.197 NA
ENDROOT
BRANCH   2   4
HETATM    4  C7  UNL     1     -33.927   7.376   3.695  1.00 20.00     0.014 C 
BRANCH   4   5
HETATM    5  C8  UNL     1     -33.243   7.218   2.331  1.00 20.00     0.005 C 
BRANCH   5   6
HETATM    6  C6  UNL     1     -32.021   8.132   2.162  1.00 20.00     0.033 C 
BRANCH   6   7
HETATM    7  C3  UNL     1     -32.016   8.948   0.890  1.00 20.00    -0.093 C 
HETATM    8  C2  UNL     1     -31.321   8.556  -0.190  1.00 20.00     0.014 C 
HETATM    9  C4  UNL     1     -32.851  10.195   0.873  1.00 20.00     0.042 C 
ENDBRANCH   6   7
ENDBRANCH   5   6
ENDBRANCH   4   5
ENDBRANCH   2   4
TORSDOF 4
ENDMDL
