MODEL 1
REMARK VINA RESULT:      -1.7      0.000      0.000
REMARK  1 active torsions:
REMARK  status: ('A' for Active; 'I' for Inactive)
REMARK    1  A    between atoms: C1_1  and  C6_6 
ROOT
HETATM    1  C2  UNL     1     -33.588   5.760   2.173  1.00 20.00     0.038 C 
HETATM    2  C3  UNL     1     -33.621   7.871   3.527  1.00 20.00     0.038 C 
HETATM    3  C4  UNL     1     -32.261   6.236   1.593  1.00 20.00     0.168 C 
HETATM    4  C5  UNL     1     -32.292   8.230   2.873  1.00 20.00     0.168 C 
HETATM    5  C6  UNL     1     -33.805   6.359   3.557  1.00 20.00     0.051 C 
HETATM    6  O8  UNL     1     -32.201   7.663   1.566  1.00 20.00    -0.391 OA
ENDROOT
BRANCH   5   7
HETATM    7  C1  UNL     1     -35.229   6.061   3.985  1.00 20.00     0.235 C 
HETATM    8  O7  UNL     1     -35.563   5.024   4.549  1.00 20.00    -0.306 OA
ENDBRANCH   5   7
TORSDOF 1
ENDMDL
MODEL 2
REMARK VINA RESULT:      -1.7      0.563      1.802
REMARK  1 active torsions:
REMARK  status: ('A' for Active; 'I' for Inactive)
REMARK    1  A    between atoms: C1_1  and  C6_6 
ROOT
HETATM    1  C2  UNL     1     -33.320   7.740   3.449  1.00 20.00     0.038 C 
HETATM    2  C3  UNL     1     -33.520   5.454   2.436  1.00 20.00     0.038 C 
HETATM    3  C4  UNL     1     -32.394   8.095   2.292  1.00 20.00     0.168 C 
HETATM    4  C5  UNL     1     -32.584   5.936   1.334  1.00 20.00     0.168 C 
HETATM    5  C6  UNL     1     -34.279   6.630   3.037  1.00 20.00     0.051 C 
HETATM    6  O8  UNL     1     -31.696   6.939   1.827  1.00 20.00    -0.391 OA
ENDROOT
BRANCH   5   7
HETATM    7  C1  UNL     1     -35.004   6.145   4.277  1.00 20.00     0.235 C 
HETATM    8  O7  UNL     1     -35.323   4.974   4.460  1.00 20.00    -0.306 OA
ENDBRANCH   5   7
TORSDOF 1
ENDMDL
MODEL 3
REMARK VINA RESULT:      -1.4      1.329      3.851
REMARK  1 active torsions:
REMARK  status: ('A' for Active; 'I' for Inactive)
REMARK    1  A    between atoms: C1_1  and  C6_6 
ROOT
HETATM    1  C2  UNL     1     -33.335   8.273   3.068  1.00 20.00     0.038 C 
HETATM    2  C3  UNL     1     -32.897   6.173   1.768  1.00 20.00     0.038 C 
HETATM    3  C4  UNL     1     -34.003   7.398   4.122  1.00 20.00     0.168 C 
HETATM    4  C5  UNL     1     -33.588   5.414   2.895  1.00 20.00     0.168 C 
HETATM    5  C6  UNL     1     -32.296   7.470   2.295  1.00 20.00     0.051 C 
HETATM    6  O8  UNL     1     -34.573   6.232   3.526  1.00 20.00    -0.391 OA
ENDROOT
BRANCH   5   7
HETATM    7  C1  UNL     1     -31.840   8.299   1.111  1.00 20.00     0.235 C 
HETATM    8  O7  UNL     1     -32.368   9.356   0.781  1.00 20.00    -0.306 OA
ENDBRANCH   5   7
TORSDOF 1
ENDMDL
MODEL 4
REMARK VINA RESULT:      -1.1      1.093      3.441
REMARK  1 active torsions:
REMARK  status: ('A' for Active; 'I' for Inactive)
REMARK    1  A    between atoms: C1_1  and  C6_6 
ROOT
HETATM    1  C2  UNL     1     -32.737   5.711   2.219  1.00 20.00     0.038 C 
HETATM    2  C3  UNL     1     -33.829   7.538   3.544  1.00 20.00     0.038 C 
HETATM    3  C4  UNL     1     -33.810   4.773   2.759  1.00 20.00     0.168 C 
HETATM    4  C5  UNL     1     -34.842   6.500   4.011  1.00 20.00     0.168 C 
HETATM    5  C6  UNL     1     -33.253   7.144   2.190  1.00 20.00     0.051 C 
HETATM    6  O8  UNL     1     -34.254   5.199   4.048  1.00 20.00    -0.391 OA
ENDROOT
BRANCH   5   7
HETATM    7  C1  UNL     1     -32.086   8.063   1.884  1.00 20.00     0.235 C 
HETATM    8  O7  UNL     1     -32.108   8.913   1.000  1.00 20.00    -0.306 OA
ENDBRANCH   5   7
TORSDOF 1
ENDMDL
MODEL 5
REMARK VINA RESULT:      -1.1      1.684      2.365
REMARK  1 active torsions:
REMARK  status: ('A' for Active; 'I' for Inactive)
REMARK    1  A    between atoms: C1_1  and  C6_6 
ROOT
HETATM    1  C2  UNL     1     -32.459   8.092   2.817  1.00 20.00     0.038 C 
HETATM    2  C3  UNL     1     -33.581   5.849   2.776  1.00 20.00     0.038 C 
HETATM    3  C4  UNL     1     -31.846   7.733   1.468  1.00 20.00     0.168 C 
HETATM    4  C5  UNL     1     -32.906   5.614   1.429  1.00 20.00     0.168 C 
HETATM    5  C6  UNL     1     -33.769   7.341   3.019  1.00 20.00     0.051 C 
HETATM    6  O8  UNL     1     -31.668   6.321   1.353  1.00 20.00    -0.391 OA
ENDROOT
BRANCH   5   7
HETATM    7  C1  UNL     1     -34.211   7.537   4.456  1.00 20.00     0.235 C 
HETATM    8  O7  UNL     1     -33.557   8.158   5.287  1.00 20.00    -0.306 OA
ENDBRANCH   5   7
TORSDOF 1
ENDMDL
MODEL 6
REMARK VINA RESULT:      -0.9      1.086      3.860
REMARK  1 active torsions:
REMARK  status: ('A' for Active; 'I' for Inactive)
REMARK    1  A    between atoms: C1_1  and  C6_6 
ROOT
HETATM    1  C2  UNL     1     -34.663   6.884   3.360  1.00 20.00     0.038 C 
HETATM    2  C3  UNL     1     -33.313   4.805   2.976  1.00 20.00     0.038 C 
HETATM    3  C4  UNL     1     -35.305   6.165   4.540  1.00 20.00     0.168 C 
HETATM    4  C5  UNL     1     -34.029   4.201   4.178  1.00 20.00     0.168 C 
HETATM    5  C6  UNL     1     -33.272   6.324   3.093  1.00 20.00     0.051 C 
HETATM    6  O8  UNL     1     -35.337   4.754   4.319  1.00 20.00    -0.391 OA
ENDROOT
BRANCH   5   7
HETATM    7  C1  UNL     1     -32.777   6.889   1.776  1.00 20.00     0.235 C 
HETATM    8  O7  UNL     1     -31.999   7.834   1.694  1.00 20.00    -0.306 OA
ENDBRANCH   5   7
TORSDOF 1
ENDMDL
MODEL 7
REMARK VINA RESULT:      -0.7      2.278      3.092
REMARK  1 active torsions:
REMARK  status: ('A' for Active; 'I' for Inactive)
REMARK    1  A    between atoms: C1_1  and  C6_6 
ROOT
HETATM    1  C2  UNL     1     -34.980   5.027   4.646  1.00 20.00     0.038 C 
HETATM    2  C3  UNL     1     -32.936   5.036   3.192  1.00 20.00     0.038 C 
HETATM    3  C4  UNL     1     -35.366   6.348   3.992  1.00 20.00     0.168 C 
HETATM    4  C5  UNL     1     -33.436   6.356   2.618  1.00 20.00     0.168 C 
HETATM    5  C6  UNL     1     -34.106   4.206   3.706  1.00 20.00     0.051 C 
HETATM    6  O8  UNL     1     -34.204   7.072   3.586  1.00 20.00    -0.391 OA
ENDROOT
BRANCH   5   7
HETATM    7  C1  UNL     1     -33.550   3.028   4.481  1.00 20.00     0.235 C 
HETATM    8  O7  UNL     1     -32.497   3.069   5.110  1.00 20.00    -0.306 OA
ENDBRANCH   5   7
TORSDOF 1
ENDMDL
MODEL 8
REMARK VINA RESULT:      -0.5      1.898      3.010
REMARK  1 active torsions:
REMARK  status: ('A' for Active; 'I' for Inactive)
REMARK    1  A    between atoms: C1_1  and  C6_6 
ROOT
HETATM    1  C2  UNL     1     -33.807   6.020   3.064  1.00 20.00     0.038 C 
HETATM    2  C3  UNL     1     -32.016   7.406   1.986  1.00 20.00     0.038 C 
HETATM    3  C4  UNL     1     -34.162   7.249   3.893  1.00 20.00     0.168 C 
HETATM    4  C5  UNL     1     -32.470   8.559   2.874  1.00 20.00     0.168 C 
HETATM    5  C6  UNL     1     -33.168   6.438   1.746  1.00 20.00     0.051 C 
HETATM    6  O8  UNL     1     -33.012   8.070   4.101  1.00 20.00    -0.391 OA
ENDROOT
BRANCH   5   7
HETATM    7  C1  UNL     1     -32.614   5.198   1.073  1.00 20.00     0.235 C 
HETATM    8  O7  UNL     1     -31.421   4.908   1.063  1.00 20.00    -0.306 OA
ENDBRANCH   5   7
TORSDOF 1
ENDMDL
MODEL 9
REMARK VINA RESULT:       1.0      2.223      2.720
REMARK  1 active torsions:
REMARK  status: ('A' for Active; 'I' for Inactive)
REMARK    1  A    between atoms: C1_1  and  C6_6 
ROOT
HETATM    1  C2  UNL     1     -31.834   7.585   1.161  1.00 20.00     0.038 C 
HETATM    2  C3  UNL     1     -33.350   9.427   1.935  1.00 20.00     0.038 C 
HETATM    3  C4  UNL     1     -31.247   8.580   0.166  1.00 20.00     0.168 C 
HETATM    4  C5  UNL     1     -32.679  10.321   0.898  1.00 20.00     0.168 C 
HETATM    5  C6  UNL     1     -32.401   8.318   2.371  1.00 20.00     0.051 C 
HETATM    6  O8  UNL     1     -32.223   9.551  -0.215  1.00 20.00    -0.391 OA
ENDROOT
BRANCH   5   7
HETATM    7  C1  UNL     1     -33.183   7.323   3.205  1.00 20.00     0.235 C 
HETATM    8  O7  UNL     1     -34.074   7.646   3.984  1.00 20.00    -0.306 OA
ENDBRANCH   5   7
TORSDOF 1
ENDMDL
