MODEL 1
REMARK VINA RESULT:      -1.5      0.000      0.000
REMARK  1 active torsions:
REMARK  status: ('A' for Active; 'I' for Inactive)
REMARK    1  A    between atoms: C2_2  and  C3_3 
ROOT
HETATM    1  C1  UNL     1     -33.154   7.871   3.074  1.00 20.00     0.101 A 
HETATM    2  C2  UNL     1     -33.863   6.688   3.141  1.00 20.00     0.118 A 
HETATM    3  N4  UNL     1     -33.460   5.699   2.257  1.00 20.00    -0.166 NA
HETATM    4  N5  UNL     1     -32.448   6.103   1.506  1.00 20.00    -0.037 NA
HETATM    5  S7  UNL     1     -31.967   7.669   1.852  1.00 20.00    -0.008 SA
ENDROOT
BRANCH   2   6
HETATM    6  C3  UNL     1     -34.950   6.453   4.047  1.00 20.00     0.292 C 
HETATM    7  O6  UNL     1     -35.354   5.320   4.368  1.00 20.00    -0.300 OA
ENDBRANCH   2   6
TORSDOF 1
ENDMDL
MODEL 2
REMARK VINA RESULT:      -1.3      1.507      1.605
REMARK  1 active torsions:
REMARK  status: ('A' for Active; 'I' for Inactive)
REMARK    1  A    between atoms: C2_2  and  C3_3 
ROOT
HETATM    1  C1  UNL     1     -33.476   5.780   2.322  1.00 20.00     0.101 A 
HETATM    2  C2  UNL     1     -34.081   6.468   3.355  1.00 20.00     0.118 A 
HETATM    3  N4  UNL     1     -33.570   7.730   3.612  1.00 20.00    -0.166 NA
HETATM    4  N5  UNL     1     -32.574   8.027   2.792  1.00 20.00    -0.037 NA
HETATM    5  S7  UNL     1     -32.242   6.799   1.702  1.00 20.00    -0.008 SA
ENDROOT
BRANCH   2   6
HETATM    6  C3  UNL     1     -35.169   5.952   4.135  1.00 20.00     0.292 C 
HETATM    7  O6  UNL     1     -35.259   4.767   4.503  1.00 20.00    -0.300 OA
ENDBRANCH   2   6
TORSDOF 1
ENDMDL
MODEL 3
REMARK VINA RESULT:      -1.1      2.800      3.225
REMARK  1 active torsions:
REMARK  status: ('A' for Active; 'I' for Inactive)
REMARK    1  A    between atoms: C2_2  and  C3_3 
ROOT
HETATM    1  C1  UNL     1     -33.696   7.788   3.469  1.00 20.00     0.101 A 
HETATM    2  C2  UNL     1     -32.884   7.315   2.458  1.00 20.00     0.118 A 
HETATM    3  N4  UNL     1     -33.041   5.974   2.143  1.00 20.00    -0.166 NA
HETATM    4  N5  UNL     1     -33.965   5.403   2.901  1.00 20.00    -0.037 NA
HETATM    5  S7  UNL     1     -34.655   6.466   3.995  1.00 20.00    -0.008 SA
ENDROOT
BRANCH   2   6
HETATM    6  C3  UNL     1     -31.929   8.118   1.751  1.00 20.00     0.292 C 
HETATM    7  O6  UNL     1     -32.237   9.014   0.944  1.00 20.00    -0.300 OA
ENDBRANCH   2   6
TORSDOF 1
ENDMDL
MODEL 4
REMARK VINA RESULT:      -1.1      3.208      3.612
REMARK  1 active torsions:
REMARK  status: ('A' for Active; 'I' for Inactive)
REMARK    1  A    between atoms: C2_2  and  C3_3 
ROOT
HETATM    1  C1  UNL     1     -33.453   6.106   2.438  1.00 20.00     0.101 A 
HETATM    2  C2  UNL     1     -32.912   7.367   2.588  1.00 20.00     0.118 A 
HETATM    3  N4  UNL     1     -33.402   8.104   3.655  1.00 20.00    -0.166 NA
HETATM    4  N5  UNL     1     -34.317   7.428   4.332  1.00 20.00    -0.037 NA
HETATM    5  S7  UNL     1     -34.598   5.903   3.699  1.00 20.00    -0.008 SA
ENDROOT
BRANCH   2   6
HETATM    6  C3  UNL     1     -31.909   7.919   1.724  1.00 20.00     0.292 C 
HETATM    7  O6  UNL     1     -32.113   8.861   0.936  1.00 20.00    -0.300 OA
ENDBRANCH   2   6
TORSDOF 1
ENDMDL
MODEL 5
REMARK VINA RESULT:      -0.9      2.901      3.210
REMARK  1 active torsions:
REMARK  status: ('A' for Active; 'I' for Inactive)
REMARK    1  A    between atoms: C2_2  and  C3_3 
ROOT
HETATM    1  C1  UNL     1     -33.369   5.486   3.286  1.00 20.00     0.101 A 
HETATM    2  C2  UNL     1     -34.028   4.498   3.990  1.00 20.00     0.118 A 
HETATM    3  N4  UNL     1     -35.251   4.866   4.532  1.00 20.00    -0.166 NA
HETATM    4  N5  UNL     1     -35.544   6.127   4.256  1.00 20.00    -0.037 NA
HETATM    5  S7  UNL     1     -34.361   6.885   3.344  1.00 20.00    -0.008 SA
ENDROOT
BRANCH   2   6
HETATM    6  C3  UNL     1     -33.523   3.168   4.175  1.00 20.00     0.292 C 
HETATM    7  O6  UNL     1     -32.860   2.808   5.164  1.00 20.00    -0.300 OA
ENDBRANCH   2   6
TORSDOF 1
ENDMDL
MODEL 6
REMARK VINA RESULT:      -0.7      1.916      2.059
REMARK  1 active torsions:
REMARK  status: ('A' for Active; 'I' for Inactive)
REMARK    1  A    between atoms: C2_2  and  C3_3 
ROOT
HETATM    1  C1  UNL     1     -33.451   5.797   2.503  1.00 20.00     0.101 A 
HETATM    2  C2  UNL     1     -33.404   7.066   3.046  1.00 20.00     0.118 A 
HETATM    3  N4  UNL     1     -32.494   7.933   2.461  1.00 20.00    -0.166 NA
HETATM    4  N5  UNL     1     -31.835   7.349   1.472  1.00 20.00    -0.037 NA
HETATM    5  S7  UNL     1     -32.298   5.758   1.232  1.00 20.00    -0.008 SA
ENDROOT
BRANCH   2   6
HETATM    6  C3  UNL     1     -34.223   7.503   4.139  1.00 20.00     0.292 C 
HETATM    7  O6  UNL     1     -33.791   8.135   5.121  1.00 20.00    -0.300 OA
ENDBRANCH   2   6
TORSDOF 1
ENDMDL
MODEL 7
REMARK VINA RESULT:      -0.5      2.765      3.046
REMARK  1 active torsions:
REMARK  status: ('A' for Active; 'I' for Inactive)
REMARK    1  A    between atoms: C2_2  and  C3_3 
ROOT
HETATM    1  C1  UNL     1     -35.066   5.095   4.505  1.00 20.00     0.101 A 
HETATM    2  C2  UNL     1     -33.969   4.474   3.943  1.00 20.00     0.118 A 
HETATM    3  N4  UNL     1     -33.255   5.233   3.029  1.00 20.00    -0.166 NA
HETATM    4  N5  UNL     1     -33.788   6.435   2.876  1.00 20.00    -0.037 NA
HETATM    5  S7  UNL     1     -35.147   6.669   3.826  1.00 20.00    -0.008 SA
ENDROOT
BRANCH   2   6
HETATM    6  C3  UNL     1     -33.556   3.135   4.255  1.00 20.00     0.292 C 
HETATM    7  O6  UNL     1     -32.803   2.843   5.201  1.00 20.00    -0.300 OA
ENDBRANCH   2   6
TORSDOF 1
ENDMDL
MODEL 8
REMARK VINA RESULT:      -0.5      2.965      3.375
REMARK  1 active torsions:
REMARK  status: ('A' for Active; 'I' for Inactive)
REMARK    1  A    between atoms: C2_2  and  C3_3 
ROOT
HETATM    1  C1  UNL     1     -34.100   5.542   2.914  1.00 20.00     0.101 A 
HETATM    2  C2  UNL     1     -33.210   6.545   2.585  1.00 20.00     0.118 A 
HETATM    3  N4  UNL     1     -33.343   7.722   3.305  1.00 20.00    -0.166 NA
HETATM    4  N5  UNL     1     -34.327   7.642   4.187  1.00 20.00    -0.037 NA
HETATM    5  S7  UNL     1     -35.101   6.157   4.165  1.00 20.00    -0.008 SA
ENDROOT
BRANCH   2   6
HETATM    6  C3  UNL     1     -32.199   6.423   1.574  1.00 20.00     0.292 C 
HETATM    7  O6  UNL     1     -31.767   5.335   1.153  1.00 20.00    -0.300 OA
ENDBRANCH   2   6
TORSDOF 1
ENDMDL
MODEL 9
REMARK VINA RESULT:      -0.3      2.590      2.948
REMARK  1 active torsions:
REMARK  status: ('A' for Active; 'I' for Inactive)
REMARK    1  A    between atoms: C2_2  and  C3_3 
ROOT
HETATM    1  C1  UNL     1     -32.875   7.668   2.795  1.00 20.00     0.101 A 
HETATM    2  C2  UNL     1     -33.234   6.410   2.353  1.00 20.00     0.118 A 
HETATM    3  N4  UNL     1     -34.234   5.784   3.081  1.00 20.00    -0.166 NA
HETATM    4  N5  UNL     1     -34.653   6.542   4.082  1.00 20.00    -0.037 NA
HETATM    5  S7  UNL     1     -33.855   8.012   4.161  1.00 20.00    -0.008 SA
ENDROOT
BRANCH   2   6
HETATM    6  C3  UNL     1     -32.642   5.756   1.222  1.00 20.00     0.292 C 
HETATM    7  O6  UNL     1     -31.592   5.091   1.276  1.00 20.00    -0.300 OA
ENDBRANCH   2   6
TORSDOF 1
ENDMDL
