MODEL 1
REMARK VINA RESULT:      -3.3      0.000      0.000
REMARK  2 active torsions:
REMARK  status: ('A' for Active; 'I' for Inactive)
REMARK    1  A    between atoms: C1_1  and  C3_3 
REMARK    2  A    between atoms: C2_2  and  C3_3 
ROOT
HETATM    1  C3  UNL     1     -33.961   7.435   3.812  1.00 20.00     0.358 C 
HETATM    2  F8  UNL     1     -33.359   7.922   4.926  1.00 20.00    -0.194 F 
HETATM    3  F9  UNL     1     -34.674   8.454   3.270  1.00 20.00    -0.194 F 
ENDROOT
BRANCH   1   4
HETATM    4  C1  UNL     1     -32.903   6.997   2.829  1.00 20.00     0.430 C 
HETATM    5  F4  UNL     1     -33.492   6.329   1.805  1.00 20.00    -0.208 F 
HETATM    6  F5  UNL     1     -32.290   8.078   2.290  1.00 20.00    -0.208 F 
ENDBRANCH   1   4
BRANCH   1   7
HETATM    7  C2  UNL     1     -34.905   6.325   4.208  1.00 20.00     0.430 C 
HETATM    8  F6  UNL     1     -36.032   6.408   3.456  1.00 20.00    -0.208 F 
HETATM    9  F7  UNL     1     -34.345   5.121   3.946  1.00 20.00    -0.208 F 
ENDBRANCH   1   7
TORSDOF 2
ENDMDL
MODEL 2
REMARK VINA RESULT:      -3.3      0.003      2.828
REMARK  2 active torsions:
REMARK  status: ('A' for Active; 'I' for Inactive)
REMARK    1  A    between atoms: C1_1  and  C3_3 
REMARK    2  A    between atoms: C2_2  and  C3_3 
ROOT
HETATM    1  C3  UNL     1     -33.961   7.433   3.812  1.00 20.00     0.358 C 
HETATM    2  F8  UNL     1     -34.674   8.452   3.269  1.00 20.00    -0.194 F 
HETATM    3  F9  UNL     1     -33.359   7.921   4.925  1.00 20.00    -0.194 F 
ENDROOT
BRANCH   1   4
HETATM    4  C1  UNL     1     -34.906   6.325   4.208  1.00 20.00     0.430 C 
HETATM    5  F4  UNL     1     -36.032   6.407   3.456  1.00 20.00    -0.208 F 
HETATM    6  F5  UNL     1     -34.347   5.119   3.947  1.00 20.00    -0.208 F 
ENDBRANCH   1   4
BRANCH   1   7
HETATM    7  C2  UNL     1     -32.903   6.993   2.828  1.00 20.00     0.430 C 
HETATM    8  F6  UNL     1     -33.494   6.324   1.806  1.00 20.00    -0.208 F 
HETATM    9  F7  UNL     1     -32.292   8.075   2.288  1.00 20.00    -0.208 F 
ENDBRANCH   1   7
TORSDOF 2
ENDMDL
MODEL 3
REMARK VINA RESULT:      -3.2      0.600      1.126
REMARK  2 active torsions:
REMARK  status: ('A' for Active; 'I' for Inactive)
REMARK    1  A    between atoms: C1_1  and  C3_3 
REMARK    2  A    between atoms: C2_2  and  C3_3 
ROOT
HETATM    1  C3  UNL     1     -33.799   7.373   3.508  1.00 20.00     0.358 C 
HETATM    2  F8  UNL     1     -33.320   7.631   4.751  1.00 20.00    -0.194 F 
HETATM    3  F9  UNL     1     -34.568   8.433   3.153  1.00 20.00    -0.194 F 
ENDROOT
BRANCH   1   4
HETATM    4  C1  UNL     1     -32.641   7.261   2.546  1.00 20.00     0.430 C 
HETATM    5  F4  UNL     1     -32.954   6.370   1.571  1.00 20.00    -0.208 F 
HETATM    6  F5  UNL     1     -32.426   8.451   1.935  1.00 20.00    -0.208 F 
ENDBRANCH   1   4
BRANCH   1   7
HETATM    7  C2  UNL     1     -34.657   6.132   3.558  1.00 20.00     0.430 C 
HETATM    8  F6  UNL     1     -33.882   5.066   3.883  1.00 20.00    -0.208 F 
HETATM    9  F7  UNL     1     -35.590   6.250   4.532  1.00 20.00    -0.208 F 
ENDBRANCH   1   7
TORSDOF 2
ENDMDL
MODEL 4
REMARK VINA RESULT:      -3.2      1.781      3.816
REMARK  2 active torsions:
REMARK  status: ('A' for Active; 'I' for Inactive)
REMARK    1  A    between atoms: C1_1  and  C3_3 
REMARK    2  A    between atoms: C2_2  and  C3_3 
ROOT
HETATM    1  C3  UNL     1     -32.110   7.864   1.939  1.00 20.00     0.358 C 
HETATM    2  F8  UNL     1     -31.343   8.488   2.868  1.00 20.00    -0.194 F 
HETATM    3  F9  UNL     1     -31.425   6.763   1.537  1.00 20.00    -0.194 F 
ENDROOT
BRANCH   1   4
HETATM    4  C1  UNL     1     -33.406   7.431   2.578  1.00 20.00     0.430 C 
HETATM    5  F4  UNL     1     -33.530   6.084   2.471  1.00 20.00    -0.208 F 
HETATM    6  F5  UNL     1     -33.393   7.720   3.901  1.00 20.00    -0.208 F 
ENDBRANCH   1   4
BRANCH   1   7
HETATM    7  C2  UNL     1     -32.302   8.786   0.759  1.00 20.00     0.430 C 
HETATM    8  F6  UNL     1     -32.648  10.019   1.208  1.00 20.00    -0.208 F 
HETATM    9  F7  UNL     1     -31.137   8.927   0.083  1.00 20.00    -0.208 F 
ENDBRANCH   1   7
TORSDOF 2
ENDMDL
MODEL 5
REMARK VINA RESULT:      -3.2      1.781      3.083
REMARK  2 active torsions:
REMARK  status: ('A' for Active; 'I' for Inactive)
REMARK    1  A    between atoms: C1_1  and  C3_3 
REMARK    2  A    between atoms: C2_2  and  C3_3 
ROOT
HETATM    1  C3  UNL     1     -32.109   7.864   1.939  1.00 20.00     0.358 C 
HETATM    2  F8  UNL     1     -31.425   6.764   1.537  1.00 20.00    -0.194 F 
HETATM    3  F9  UNL     1     -31.342   8.488   2.868  1.00 20.00    -0.194 F 
ENDROOT
BRANCH   1   4
HETATM    4  C1  UNL     1     -32.302   8.785   0.760  1.00 20.00     0.430 C 
HETATM    5  F4  UNL     1     -32.648  10.019   1.207  1.00 20.00    -0.208 F 
HETATM    6  F5  UNL     1     -31.137   8.926   0.083  1.00 20.00    -0.208 F 
ENDBRANCH   1   4
BRANCH   1   7
HETATM    7  C2  UNL     1     -33.407   7.431   2.578  1.00 20.00     0.430 C 
HETATM    8  F6  UNL     1     -33.529   6.084   2.471  1.00 20.00    -0.208 F 
HETATM    9  F7  UNL     1     -33.393   7.719   3.901  1.00 20.00    -0.208 F 
ENDBRANCH   1   7
TORSDOF 2
ENDMDL
MODEL 6
REMARK VINA RESULT:      -3.1      1.077      2.237
REMARK  2 active torsions:
REMARK  status: ('A' for Active; 'I' for Inactive)
REMARK    1  A    between atoms: C1_1  and  C3_3 
REMARK    2  A    between atoms: C2_2  and  C3_3 
ROOT
HETATM    1  C3  UNL     1     -34.323   6.151   3.476  1.00 20.00     0.358 C 
HETATM    2  F8  UNL     1     -35.598   6.584   3.304  1.00 20.00    -0.194 F 
HETATM    3  F9  UNL     1     -33.865   5.778   2.254  1.00 20.00    -0.194 F 
ENDROOT
BRANCH   1   4
HETATM    4  C1  UNL     1     -33.479   7.290   3.991  1.00 20.00     0.430 C 
HETATM    5  F4  UNL     1     -33.007   8.008   2.941  1.00 20.00    -0.208 F 
HETATM    6  F5  UNL     1     -34.236   8.133   4.734  1.00 20.00    -0.208 F 
ENDBRANCH   1   4
BRANCH   1   7
HETATM    7  C2  UNL     1     -34.331   4.950   4.390  1.00 20.00     0.430 C 
HETATM    8  F6  UNL     1     -35.604   4.697   4.785  1.00 20.00    -0.208 F 
HETATM    9  F7  UNL     1     -33.902   3.853   3.722  1.00 20.00    -0.208 F 
ENDBRANCH   1   7
TORSDOF 2
ENDMDL
MODEL 7
REMARK VINA RESULT:      -3.1      1.078      3.165
REMARK  2 active torsions:
REMARK  status: ('A' for Active; 'I' for Inactive)
REMARK    1  A    between atoms: C1_1  and  C3_3 
REMARK    2  A    between atoms: C2_2  and  C3_3 
ROOT
HETATM    1  C3  UNL     1     -34.324   6.149   3.476  1.00 20.00     0.358 C 
HETATM    2  F8  UNL     1     -33.864   5.776   2.255  1.00 20.00    -0.194 F 
HETATM    3  F9  UNL     1     -35.599   6.581   3.302  1.00 20.00    -0.194 F 
ENDROOT
BRANCH   1   4
HETATM    4  C1  UNL     1     -34.331   4.949   4.390  1.00 20.00     0.430 C 
HETATM    5  F4  UNL     1     -35.603   4.697   4.789  1.00 20.00    -0.208 F 
HETATM    6  F5  UNL     1     -33.906   3.850   3.721  1.00 20.00    -0.208 F 
ENDBRANCH   1   4
BRANCH   1   7
HETATM    7  C2  UNL     1     -33.480   7.290   3.992  1.00 20.00     0.430 C 
HETATM    8  F6  UNL     1     -33.008   8.006   2.942  1.00 20.00    -0.208 F 
HETATM    9  F7  UNL     1     -34.239   8.132   4.733  1.00 20.00    -0.208 F 
ENDBRANCH   1   7
TORSDOF 2
ENDMDL
MODEL 8
REMARK VINA RESULT:      -3.1      2.181      3.899
REMARK  2 active torsions:
REMARK  status: ('A' for Active; 'I' for Inactive)
REMARK    1  A    between atoms: C1_1  and  C3_3 
REMARK    2  A    between atoms: C2_2  and  C3_3 
ROOT
HETATM    1  C3  UNL     1     -32.192   7.805   1.771  1.00 20.00     0.358 C 
HETATM    2  F8  UNL     1     -32.889   8.323   2.813  1.00 20.00    -0.194 F 
HETATM    3  F9  UNL     1     -30.899   7.708   2.171  1.00 20.00    -0.194 F 
ENDROOT
BRANCH   1   4
HETATM    4  C1  UNL     1     -32.717   6.425   1.462  1.00 20.00     0.430 C 
HETATM    5  F4  UNL     1     -31.673   5.566   1.342  1.00 20.00    -0.208 F 
HETATM    6  F5  UNL     1     -33.479   5.975   2.487  1.00 20.00    -0.208 F 
ENDBRANCH   1   4
BRANCH   1   7
HETATM    7  C2  UNL     1     -32.278   8.755   0.600  1.00 20.00     0.430 C 
HETATM    8  F6  UNL     1     -32.637   9.984   1.048  1.00 20.00    -0.208 F 
HETATM    9  F7  UNL     1     -31.063   8.888   0.018  1.00 20.00    -0.208 F 
ENDBRANCH   1   7
TORSDOF 2
ENDMDL
MODEL 9
REMARK VINA RESULT:      -3.1      2.180      3.252
REMARK  2 active torsions:
REMARK  status: ('A' for Active; 'I' for Inactive)
REMARK    1  A    between atoms: C1_1  and  C3_3 
REMARK    2  A    between atoms: C2_2  and  C3_3 
ROOT
HETATM    1  C3  UNL     1     -32.195   7.807   1.771  1.00 20.00     0.358 C 
HETATM    2  F8  UNL     1     -30.900   7.712   2.166  1.00 20.00    -0.194 F 
HETATM    3  F9  UNL     1     -32.890   8.320   2.818  1.00 20.00    -0.194 F 
ENDROOT
BRANCH   1   4
HETATM    4  C1  UNL     1     -32.287   8.760   0.604  1.00 20.00     0.430 C 
HETATM    5  F4  UNL     1     -32.638   9.990   1.058  1.00 20.00    -0.208 F 
HETATM    6  F5  UNL     1     -31.077   8.890   0.011  1.00 20.00    -0.208 F 
ENDBRANCH   1   4
BRANCH   1   7
HETATM    7  C2  UNL     1     -32.717   6.426   1.459  1.00 20.00     0.430 C 
HETATM    8  F6  UNL     1     -31.671   5.569   1.342  1.00 20.00    -0.208 F 
HETATM    9  F7  UNL     1     -33.482   5.974   2.482  1.00 20.00    -0.208 F 
ENDBRANCH   1   7
TORSDOF 2
ENDMDL
