MODEL 1
REMARK VINA RESULT:      -3.7      0.000      0.000
REMARK  5 active torsions:
REMARK  status: ('A' for Active; 'I' for Inactive)
REMARK    1  A    between atoms: C3_3  and  C7_7 
REMARK    2  A    between atoms: C4_4  and  C8_8 
REMARK    3  A    between atoms: C7_7  and  C9_9 
REMARK    4  A    between atoms: C8_8  and  C10_10 
REMARK    5  A    between atoms: C9_9  and  C10_10 
ROOT
HETATM    1  C9  UNL     1     -33.232   6.402   2.096  1.00 20.00     0.004 C 
ENDROOT
BRANCH   1   2
HETATM    2  C7  UNL     1     -31.968   7.181   1.724  1.00 20.00     0.026 C 
BRANCH   2   3
HETATM    3  C3  UNL     1     -32.265   8.639   1.528  1.00 20.00    -0.031 C 
HETATM    4  C1  UNL     1     -32.275   9.245   0.332  1.00 20.00    -0.035 C 
HETATM    5  C5  UNL     1     -32.565  10.696   0.137  1.00 20.00     0.035 C 
ENDBRANCH   2   3
ENDBRANCH   1   2
BRANCH   1   6
HETATM    6  C10 UNL     1     -33.884   6.972   3.358  1.00 20.00     0.004 C 
BRANCH   6   7
HETATM    7  C8  UNL     1     -35.104   6.148   3.773  1.00 20.00     0.026 C 
BRANCH   7   8
HETATM    8  C4  UNL     1     -34.695   4.888   4.480  1.00 20.00    -0.031 C 
HETATM    9  C2  UNL     1     -33.763   4.042   4.018  1.00 20.00    -0.035 C 
HETATM   10  C6  UNL     1     -33.351   2.793   4.724  1.00 20.00     0.035 C 
ENDBRANCH   7   8
ENDBRANCH   6   7
ENDBRANCH   1   6
TORSDOF 5
ENDMDL
MODEL 2
REMARK VINA RESULT:      -3.7      0.043      5.898
REMARK  5 active torsions:
REMARK  status: ('A' for Active; 'I' for Inactive)
REMARK    1  A    between atoms: C3_3  and  C7_7 
REMARK    2  A    between atoms: C4_4  and  C8_8 
REMARK    3  A    between atoms: C7_7  and  C9_9 
REMARK    4  A    between atoms: C8_8  and  C10_10 
REMARK    5  A    between atoms: C9_9  and  C10_10 
ROOT
HETATM    1  C9  UNL     1     -33.879   6.962   3.416  1.00 20.00     0.004 C 
ENDROOT
BRANCH   1   2
HETATM    2  C7  UNL     1     -35.104   6.140   3.824  1.00 20.00     0.026 C 
BRANCH   2   3
HETATM    3  C3  UNL     1     -34.702   4.871   4.518  1.00 20.00    -0.031 C 
HETATM    4  C1  UNL     1     -33.774   4.025   4.048  1.00 20.00    -0.035 C 
HETATM    5  C5  UNL     1     -33.378   2.760   4.735  1.00 20.00     0.035 C 
ENDBRANCH   2   3
ENDBRANCH   1   2
BRANCH   1   6
HETATM    6  C10 UNL     1     -33.269   6.440   2.112  1.00 20.00     0.004 C 
BRANCH   6   7
HETATM    7  C8  UNL     1     -31.992   7.201   1.754  1.00 20.00     0.026 C 
BRANCH   7   8
HETATM    8  C4  UNL     1     -32.268   8.664   1.554  1.00 20.00    -0.031 C 
HETATM    9  C2  UNL     1     -32.283   9.263   0.355  1.00 20.00    -0.035 C 
HETATM   10  C6  UNL     1     -32.565  10.715   0.155  1.00 20.00     0.035 C 
ENDBRANCH   7   8
ENDBRANCH   6   7
ENDBRANCH   1   6
TORSDOF 5
ENDMDL
MODEL 3
REMARK VINA RESULT:      -3.1      1.514      2.440
REMARK  5 active torsions:
REMARK  status: ('A' for Active; 'I' for Inactive)
REMARK    1  A    between atoms: C3_3  and  C7_7 
REMARK    2  A    between atoms: C4_4  and  C8_8 
REMARK    3  A    between atoms: C7_7  and  C9_9 
REMARK    4  A    between atoms: C8_8  and  C10_10 
REMARK    5  A    between atoms: C9_9  and  C10_10 
ROOT
HETATM    1  C9  UNL     1     -33.117   7.505   3.867  1.00 20.00     0.004 C 
ENDROOT
BRANCH   1   2
HETATM    2  C7  UNL     1     -32.799   8.044   2.470  1.00 20.00     0.026 C 
BRANCH   2   3
HETATM    3  C3  UNL     1     -32.084   7.017   1.640  1.00 20.00    -0.031 C 
HETATM    4  C1  UNL     1     -32.565   5.790   1.395  1.00 20.00    -0.035 C 
HETATM    5  C5  UNL     1     -31.852   4.767   0.575  1.00 20.00     0.035 C 
ENDBRANCH   2   3
ENDBRANCH   1   2
BRANCH   1   6
HETATM    6  C10 UNL     1     -34.626   7.479   4.122  1.00 20.00     0.004 C 
BRANCH   6   7
HETATM    7  C8  UNL     1     -35.228   6.121   3.754  1.00 20.00     0.026 C 
BRANCH   7   8
HETATM    8  C4  UNL     1     -34.581   5.011   4.531  1.00 20.00    -0.031 C 
HETATM    9  C2  UNL     1     -33.928   3.986   3.964  1.00 20.00    -0.035 C 
HETATM   10  C6  UNL     1     -33.280   2.885   4.737  1.00 20.00     0.035 C 
ENDBRANCH   7   8
ENDBRANCH   6   7
ENDBRANCH   1   6
TORSDOF 5
ENDMDL
MODEL 4
REMARK VINA RESULT:      -3.1      1.510      4.931
REMARK  5 active torsions:
REMARK  status: ('A' for Active; 'I' for Inactive)
REMARK    1  A    between atoms: C3_3  and  C7_7 
REMARK    2  A    between atoms: C4_4  and  C8_8 
REMARK    3  A    between atoms: C7_7  and  C9_9 
REMARK    4  A    between atoms: C8_8  and  C10_10 
REMARK    5  A    between atoms: C9_9  and  C10_10 
ROOT
HETATM    1  C9  UNL     1     -34.663   7.468   4.086  1.00 20.00     0.004 C 
ENDROOT
BRANCH   1   2
HETATM    2  C7  UNL     1     -35.245   6.095   3.739  1.00 20.00     0.026 C 
BRANCH   2   3
HETATM    3  C3  UNL     1     -34.577   5.006   4.527  1.00 20.00    -0.031 C 
HETATM    4  C1  UNL     1     -33.932   3.971   3.971  1.00 20.00    -0.035 C 
HETATM    5  C5  UNL     1     -33.273   2.884   4.755  1.00 20.00     0.035 C 
ENDBRANCH   2   3
ENDBRANCH   1   2
BRANCH   1   6
HETATM    6  C10 UNL     1     -33.149   7.502   3.860  1.00 20.00     0.004 C 
BRANCH   6   7
HETATM    7  C8  UNL     1     -32.807   8.059   2.477  1.00 20.00     0.026 C 
BRANCH   7   8
HETATM    8  C4  UNL     1     -32.095   7.036   1.639  1.00 20.00    -0.031 C 
HETATM    9  C2  UNL     1     -32.563   5.799   1.415  1.00 20.00    -0.035 C 
HETATM   10  C6  UNL     1     -31.859   4.784   0.577  1.00 20.00     0.035 C 
ENDBRANCH   7   8
ENDBRANCH   6   7
ENDBRANCH   1   6
TORSDOF 5
ENDMDL
MODEL 5
REMARK VINA RESULT:      -1.7      1.388      2.467
REMARK  5 active torsions:
REMARK  status: ('A' for Active; 'I' for Inactive)
REMARK    1  A    between atoms: C3_3  and  C7_7 
REMARK    2  A    between atoms: C4_4  and  C8_8 
REMARK    3  A    between atoms: C7_7  and  C9_9 
REMARK    4  A    between atoms: C8_8  and  C10_10 
REMARK    5  A    between atoms: C9_9  and  C10_10 
ROOT
HETATM    1  C9  UNL     1     -33.056   5.926   1.532  1.00 20.00     0.004 C 
ENDROOT
BRANCH   1   2
HETATM    2  C7  UNL     1     -31.813   6.818   1.586  1.00 20.00     0.026 C 
BRANCH   2   3
HETATM    3  C3  UNL     1     -32.183   8.271   1.502  1.00 20.00    -0.031 C 
HETATM    4  C1  UNL     1     -32.173   8.978   0.363  1.00 20.00    -0.035 C 
HETATM    5  C5  UNL     1     -32.534  10.424   0.280  1.00 20.00     0.035 C 
ENDBRANCH   2   3
ENDBRANCH   1   2
BRANCH   1   6
HETATM    6  C10 UNL     1     -33.481   5.480   2.933  1.00 20.00     0.004 C 
BRANCH   6   7
HETATM    7  C8  UNL     1     -34.771   6.177   3.369  1.00 20.00     0.026 C 
BRANCH   7   8
HETATM    8  C4  UNL     1     -34.478   7.386   4.211  1.00 20.00    -0.031 C 
HETATM    9  C2  UNL     1     -33.309   7.596   4.832  1.00 20.00    -0.035 C 
HETATM   10  C6  UNL     1     -33.015   8.801   5.663  1.00 20.00     0.035 C 
ENDBRANCH   7   8
ENDBRANCH   6   7
ENDBRANCH   1   6
TORSDOF 5
ENDMDL
MODEL 6
REMARK VINA RESULT:      -1.7      1.451      5.070
REMARK  5 active torsions:
REMARK  status: ('A' for Active; 'I' for Inactive)
REMARK    1  A    between atoms: C3_3  and  C7_7 
REMARK    2  A    between atoms: C4_4  and  C8_8 
REMARK    3  A    between atoms: C7_7  and  C9_9 
REMARK    4  A    between atoms: C8_8  and  C10_10 
REMARK    5  A    between atoms: C9_9  and  C10_10 
ROOT
HETATM    1  C9  UNL     1     -33.386   5.558   2.784  1.00 20.00     0.004 C 
ENDROOT
BRANCH   1   2
HETATM    2  C7  UNL     1     -34.717   6.168   3.229  1.00 20.00     0.026 C 
BRANCH   2   3
HETATM    3  C3  UNL     1     -34.503   7.282   4.213  1.00 20.00    -0.031 C 
HETATM    4  C1  UNL     1     -33.299   7.647   4.677  1.00 20.00    -0.035 C 
HETATM    5  C5  UNL     1     -33.087   8.749   5.660  1.00 20.00     0.035 C 
ENDBRANCH   2   3
ENDBRANCH   1   2
BRANCH   1   6
HETATM    6  C10 UNL     1     -32.935   6.131   1.438  1.00 20.00     0.004 C 
BRANCH   6   7
HETATM    7  C8  UNL     1     -31.703   7.023   1.600  1.00 20.00     0.026 C 
BRANCH   7   8
HETATM    8  C4  UNL     1     -32.065   8.477   1.493  1.00 20.00    -0.031 C 
HETATM    9  C2  UNL     1     -32.245   9.117   0.328  1.00 20.00    -0.035 C 
HETATM   10  C6  UNL     1     -32.612  10.560   0.222  1.00 20.00     0.035 C 
ENDBRANCH   7   8
ENDBRANCH   6   7
ENDBRANCH   1   6
TORSDOF 5
ENDMDL
MODEL 7
REMARK VINA RESULT:      -1.3      1.498      4.938
REMARK  5 active torsions:
REMARK  status: ('A' for Active; 'I' for Inactive)
REMARK    1  A    between atoms: C3_3  and  C7_7 
REMARK    2  A    between atoms: C4_4  and  C8_8 
REMARK    3  A    between atoms: C7_7  and  C9_9 
REMARK    4  A    between atoms: C8_8  and  C10_10 
REMARK    5  A    between atoms: C9_9  and  C10_10 
ROOT
HETATM    1  C9  UNL     1     -34.275   7.641   3.659  1.00 20.00     0.004 C 
ENDROOT
BRANCH   1   2
HETATM    2  C7  UNL     1     -34.496   6.126   3.653  1.00 20.00     0.026 C 
BRANCH   2   3
HETATM    3  C3  UNL     1     -33.404   5.421   2.902  1.00 20.00    -0.031 C 
HETATM    4  C1  UNL     1     -33.160   5.600   1.596  1.00 20.00    -0.035 C 
HETATM    5  C5  UNL     1     -32.079   4.894   0.848  1.00 20.00     0.035 C 
ENDBRANCH   2   3
ENDBRANCH   1   2
BRANCH   1   6
HETATM    6  C10 UNL     1     -32.892   7.999   4.208  1.00 20.00     0.004 C 
BRANCH   6   7
HETATM    7  C8  UNL     1     -31.914   8.325   3.079  1.00 20.00     0.026 C 
BRANCH   7   8
HETATM    8  C4  UNL     1     -32.622   8.942   1.907  1.00 20.00    -0.031 C 
HETATM    9  C2  UNL     1     -32.011   9.292   0.766  1.00 20.00    -0.035 C 
HETATM   10  C6  UNL     1     -32.716   9.899  -0.402  1.00 20.00     0.035 C 
ENDBRANCH   7   8
ENDBRANCH   6   7
ENDBRANCH   1   6
TORSDOF 5
ENDMDL
MODEL 8
REMARK VINA RESULT:      -1.2      1.271      2.207
REMARK  5 active torsions:
REMARK  status: ('A' for Active; 'I' for Inactive)
REMARK    1  A    between atoms: C3_3  and  C7_7 
REMARK    2  A    between atoms: C4_4  and  C8_8 
REMARK    3  A    between atoms: C7_7  and  C9_9 
REMARK    4  A    between atoms: C8_8  and  C10_10 
REMARK    5  A    between atoms: C9_9  and  C10_10 
ROOT
HETATM    1  C9  UNL     1     -31.448   7.090   1.506  1.00 20.00     0.004 C 
ENDROOT
BRANCH   1   2
HETATM    2  C7  UNL     1     -31.917   8.287   2.337  1.00 20.00     0.026 C 
BRANCH   2   3
HETATM    3  C3  UNL     1     -32.582   9.321   1.476  1.00 20.00    -0.031 C 
HETATM    4  C1  UNL     1     -32.258   9.545   0.194  1.00 20.00    -0.035 C 
HETATM    5  C5  UNL     1     -32.915  10.577  -0.661  1.00 20.00     0.035 C 
ENDBRANCH   2   3
ENDBRANCH   1   2
BRANCH   1   6
HETATM    6  C10 UNL     1     -32.608   6.140   1.197  1.00 20.00     0.004 C 
BRANCH   6   7
HETATM    7  C8  UNL     1     -32.585   4.919   2.119  1.00 20.00     0.026 C 
BRANCH   7   8
HETATM    8  C4  UNL     1     -33.591   5.052   3.225  1.00 20.00    -0.031 C 
HETATM    9  C2  UNL     1     -34.463   6.067   3.322  1.00 20.00    -0.035 C 
HETATM   10  C6  UNL     1     -35.468   6.196   4.418  1.00 20.00     0.035 C 
ENDBRANCH   7   8
ENDBRANCH   6   7
ENDBRANCH   1   6
TORSDOF 5
ENDMDL
MODEL 9
REMARK VINA RESULT:      -1.2      1.426      2.168
REMARK  5 active torsions:
REMARK  status: ('A' for Active; 'I' for Inactive)
REMARK    1  A    between atoms: C3_3  and  C7_7 
REMARK    2  A    between atoms: C4_4  and  C8_8 
REMARK    3  A    between atoms: C7_7  and  C9_9 
REMARK    4  A    between atoms: C8_8  and  C10_10 
REMARK    5  A    between atoms: C9_9  and  C10_10 
ROOT
HETATM    1  C9  UNL     1     -33.141   8.191   4.005  1.00 20.00     0.004 C 
ENDROOT
BRANCH   1   2
HETATM    2  C7  UNL     1     -31.946   8.356   3.062  1.00 20.00     0.026 C 
BRANCH   2   3
HETATM    3  C3  UNL     1     -32.395   8.555   1.643  1.00 20.00    -0.031 C 
HETATM    4  C1  UNL     1     -32.269   9.711   0.975  1.00 20.00    -0.035 C 
HETATM    5  C5  UNL     1     -32.722   9.910  -0.433  1.00 20.00     0.035 C 
ENDBRANCH   2   3
ENDBRANCH   1   2
BRANCH   1   6
HETATM    6  C10 UNL     1     -34.315   7.510   3.298  1.00 20.00     0.004 C 
BRANCH   6   7
HETATM    7  C8  UNL     1     -34.387   6.023   3.649  1.00 20.00     0.026 C 
BRANCH   7   8
HETATM    8  C4  UNL     1     -33.421   5.222   2.824  1.00 20.00    -0.031 C 
HETATM    9  C2  UNL     1     -33.085   5.529   1.562  1.00 20.00    -0.035 C 
HETATM   10  C6  UNL     1     -32.120   4.737   0.744  1.00 20.00     0.035 C 
ENDBRANCH   7   8
ENDBRANCH   6   7
ENDBRANCH   1   6
TORSDOF 5
ENDMDL
