MODEL 1
REMARK VINA RESULT:      -2.4      0.000      0.000
REMARK  2 active torsions:
REMARK  status: ('A' for Active; 'I' for Inactive)
REMARK    1  A    between atoms: C2_2  and  C3_3 
REMARK    2  A    between atoms: C3_3  and  O9_9 
ROOT
HETATM    1  C1  UNL     1     -33.820   7.191   3.676  1.00 20.00    -0.013 C 
HETATM    2  C2  UNL     1     -33.830   5.912   3.283  1.00 20.00     0.013 C 
HETATM    3  C4  UNL     1     -33.083   8.058   2.710  1.00 20.00     0.028 C 
HETATM    4  C5  UNL     1     -33.101   5.722   1.992  1.00 20.00     0.045 C 
HETATM    5  C6  UNL     1     -32.348   7.043   1.836  1.00 20.00     0.009 C 
ENDROOT
BRANCH   2   6
HETATM    6  C3  UNL     1     -34.461   4.824   3.962  1.00 20.00     0.288 C 
HETATM    7  O8  UNL     1     -35.493   4.927   4.621  1.00 20.00    -0.260 OA
BRANCH   6   8
HETATM    8  O9  UNL     1     -33.739   3.688   3.757  1.00 20.00    -0.323 OA
HETATM    9  C7  UNL     1     -33.174   3.086   4.925  1.00 20.00     0.213 C 
ENDBRANCH   6   8
ENDBRANCH   2   6
TORSDOF 2
ENDMDL
MODEL 2
REMARK VINA RESULT:      -2.0      2.998      4.520
REMARK  2 active torsions:
REMARK  status: ('A' for Active; 'I' for Inactive)
REMARK    1  A    between atoms: C2_2  and  C3_3 
REMARK    2  A    between atoms: C3_3  and  O9_9 
ROOT
HETATM    1  C1  UNL     1     -33.651   8.075   3.699  1.00 20.00    -0.013 C 
HETATM    2  C2  UNL     1     -33.050   7.461   2.673  1.00 20.00     0.013 C 
HETATM    3  C4  UNL     1     -34.523   7.139   4.467  1.00 20.00     0.028 C 
HETATM    4  C5  UNL     1     -33.425   6.016   2.595  1.00 20.00     0.045 C 
HETATM    5  C6  UNL     1     -34.625   5.930   3.539  1.00 20.00     0.009 C 
ENDROOT
BRANCH   2   6
HETATM    6  C3  UNL     1     -32.138   8.057   1.749  1.00 20.00     0.288 C 
HETATM    7  O8  UNL     1     -31.128   7.503   1.321  1.00 20.00    -0.260 OA
BRANCH   6   8
HETATM    8  O9  UNL     1     -32.572   9.309   1.434  1.00 20.00    -0.323 OA
HETATM    9  C7  UNL     1     -32.368   9.719   0.079  1.00 20.00     0.213 C 
ENDBRANCH   6   8
ENDBRANCH   2   6
TORSDOF 2
ENDMDL
MODEL 3
REMARK VINA RESULT:      -1.9      1.767      2.347
REMARK  2 active torsions:
REMARK  status: ('A' for Active; 'I' for Inactive)
REMARK    1  A    between atoms: C2_2  and  C3_3 
REMARK    2  A    between atoms: C3_3  and  O9_9 
ROOT
HETATM    1  C1  UNL     1     -32.394   8.030   2.465  1.00 20.00    -0.013 C 
HETATM    2  C2  UNL     1     -33.288   7.121   2.870  1.00 20.00     0.013 C 
HETATM    3  C4  UNL     1     -31.625   7.554   1.277  1.00 20.00     0.028 C 
HETATM    4  C5  UNL     1     -33.258   5.894   2.018  1.00 20.00     0.045 C 
HETATM    5  C6  UNL     1     -31.957   6.064   1.233  1.00 20.00     0.009 C 
ENDROOT
BRANCH   2   6
HETATM    6  C3  UNL     1     -34.199   7.261   3.963  1.00 20.00     0.288 C 
HETATM    7  O8  UNL     1     -34.008   7.991   4.932  1.00 20.00    -0.260 OA
BRANCH   6   8
HETATM    8  O9  UNL     1     -35.283   6.466   3.748  1.00 20.00    -0.323 OA
HETATM    9  C7  UNL     1     -35.351   5.273   4.535  1.00 20.00     0.213 C 
ENDBRANCH   6   8
ENDBRANCH   2   6
TORSDOF 2
ENDMDL
MODEL 4
REMARK VINA RESULT:      -1.9      2.489      3.972
REMARK  2 active torsions:
REMARK  status: ('A' for Active; 'I' for Inactive)
REMARK    1  A    between atoms: C2_2  and  C3_3 
REMARK    2  A    between atoms: C3_3  and  O9_9 
ROOT
HETATM    1  C1  UNL     1     -33.459   7.833   3.593  1.00 20.00    -0.013 C 
HETATM    2  C2  UNL     1     -33.210   6.793   2.788  1.00 20.00     0.013 C 
HETATM    3  C4  UNL     1     -34.548   7.527   4.567  1.00 20.00     0.028 C 
HETATM    4  C5  UNL     1     -34.093   5.627   3.098  1.00 20.00     0.045 C 
HETATM    5  C6  UNL     1     -35.160   6.247   4.001  1.00 20.00     0.009 C 
ENDROOT
BRANCH   2   6
HETATM    6  C3  UNL     1     -32.221   6.740   1.758  1.00 20.00     0.288 C 
HETATM    7  O8  UNL     1     -31.983   5.743   1.080  1.00 20.00    -0.260 OA
BRANCH   6   8
HETATM    8  O9  UNL     1     -31.607   7.952   1.663  1.00 20.00    -0.323 OA
HETATM    9  C7  UNL     1     -32.076   8.811   0.619  1.00 20.00     0.213 C 
ENDBRANCH   6   8
ENDBRANCH   2   6
TORSDOF 2
ENDMDL
MODEL 5
REMARK VINA RESULT:      -1.8      1.768      2.552
REMARK  2 active torsions:
REMARK  status: ('A' for Active; 'I' for Inactive)
REMARK    1  A    between atoms: C2_2  and  C3_3 
REMARK    2  A    between atoms: C3_3  and  O9_9 
ROOT
HETATM    1  C1  UNL     1     -33.152   5.998   2.139  1.00 20.00    -0.013 C 
HETATM    2  C2  UNL     1     -33.278   7.083   2.913  1.00 20.00     0.013 C 
HETATM    3  C4  UNL     1     -32.054   6.158   1.142  1.00 20.00     0.028 C 
HETATM    4  C5  UNL     1     -32.282   8.139   2.555  1.00 20.00     0.045 C 
HETATM    5  C6  UNL     1     -31.752   7.654   1.205  1.00 20.00     0.009 C 
ENDROOT
BRANCH   2   6
HETATM    6  C3  UNL     1     -34.215   7.257   3.978  1.00 20.00     0.288 C 
HETATM    7  O8  UNL     1     -34.044   8.013   4.931  1.00 20.00    -0.260 OA
BRANCH   6   8
HETATM    8  O9  UNL     1     -35.298   6.462   3.757  1.00 20.00    -0.323 OA
HETATM    9  C7  UNL     1     -35.359   5.258   4.528  1.00 20.00     0.213 C 
ENDBRANCH   6   8
ENDBRANCH   2   6
TORSDOF 2
ENDMDL
MODEL 6
REMARK VINA RESULT:      -1.8      2.967      4.677
REMARK  2 active torsions:
REMARK  status: ('A' for Active; 'I' for Inactive)
REMARK    1  A    between atoms: C2_2  and  C3_3 
REMARK    2  A    between atoms: C3_3  and  O9_9 
ROOT
HETATM    1  C1  UNL     1     -33.440   6.086   2.550  1.00 20.00    -0.013 C 
HETATM    2  C2  UNL     1     -33.100   7.379   2.599  1.00 20.00     0.013 C 
HETATM    3  C4  UNL     1     -34.503   5.758   3.544  1.00 20.00     0.028 C 
HETATM    4  C5  UNL     1     -33.884   8.121   3.634  1.00 20.00     0.045 C 
HETATM    5  C6  UNL     1     -34.516   6.990   4.447  1.00 20.00     0.009 C 
ENDROOT
BRANCH   2   6
HETATM    6  C3  UNL     1     -32.131   8.030   1.774  1.00 20.00     0.288 C 
HETATM    7  O8  UNL     1     -31.076   7.517   1.412  1.00 20.00    -0.260 OA
BRANCH   6   8
HETATM    8  O9  UNL     1     -32.571   9.283   1.468  1.00 20.00    -0.323 OA
HETATM    9  C7  UNL     1     -32.362   9.707   0.119  1.00 20.00     0.213 C 
ENDBRANCH   6   8
ENDBRANCH   2   6
TORSDOF 2
ENDMDL
MODEL 7
REMARK VINA RESULT:      -1.7      2.526      4.093
REMARK  2 active torsions:
REMARK  status: ('A' for Active; 'I' for Inactive)
REMARK    1  A    between atoms: C2_2  and  C3_3 
REMARK    2  A    between atoms: C3_3  and  O9_9 
ROOT
HETATM    1  C1  UNL     1     -34.171   5.797   2.987  1.00 20.00    -0.013 C 
HETATM    2  C2  UNL     1     -33.270   6.752   2.731  1.00 20.00     0.013 C 
HETATM    3  C4  UNL     1     -35.128   6.216   4.054  1.00 20.00     0.028 C 
HETATM    4  C5  UNL     1     -33.483   7.961   3.585  1.00 20.00     0.045 C 
HETATM    5  C6  UNL     1     -34.454   7.450   4.650  1.00 20.00     0.009 C 
ENDROOT
BRANCH   2   6
HETATM    6  C3  UNL     1     -32.226   6.689   1.757  1.00 20.00     0.288 C 
HETATM    7  O8  UNL     1     -31.952   5.686   1.103  1.00 20.00    -0.260 OA
BRANCH   6   8
HETATM    8  O9  UNL     1     -31.606   7.899   1.684  1.00 20.00    -0.323 OA
HETATM    9  C7  UNL     1     -32.046   8.766   0.635  1.00 20.00     0.213 C 
ENDBRANCH   6   8
ENDBRANCH   2   6
TORSDOF 2
ENDMDL
MODEL 8
REMARK VINA RESULT:      -1.1      2.352      3.405
REMARK  2 active torsions:
REMARK  status: ('A' for Active; 'I' for Inactive)
REMARK    1  A    between atoms: C2_2  and  C3_3 
REMARK    2  A    between atoms: C3_3  and  O9_9 
ROOT
HETATM    1  C1  UNL     1     -33.456   7.849   3.648  1.00 20.00    -0.013 C 
HETATM    2  C2  UNL     1     -33.303   6.813   2.815  1.00 20.00     0.013 C 
HETATM    3  C4  UNL     1     -34.478   7.563   4.699  1.00 20.00     0.028 C 
HETATM    4  C5  UNL     1     -34.198   5.672   3.177  1.00 20.00     0.045 C 
HETATM    5  C6  UNL     1     -35.173   6.312   4.165  1.00 20.00     0.009 C 
ENDROOT
BRANCH   2   6
HETATM    6  C3  UNL     1     -32.397   6.743   1.712  1.00 20.00     0.288 C 
HETATM    7  O8  UNL     1     -31.559   7.603   1.452  1.00 20.00    -0.260 OA
BRANCH   6   8
HETATM    8  O9  UNL     1     -32.618   5.591   1.021  1.00 20.00    -0.323 OA
HETATM    9  C7  UNL     1     -31.497   4.712   0.893  1.00 20.00     0.213 C 
ENDBRANCH   6   8
ENDBRANCH   2   6
TORSDOF 2
ENDMDL
MODEL 9
REMARK VINA RESULT:      -1.0      1.847      2.834
REMARK  2 active torsions:
REMARK  status: ('A' for Active; 'I' for Inactive)
REMARK    1  A    between atoms: C2_2  and  C3_3 
REMARK    2  A    between atoms: C3_3  and  O9_9 
ROOT
HETATM    1  C1  UNL     1     -33.213   5.531   2.173  1.00 20.00    -0.013 C 
HETATM    2  C2  UNL     1     -33.475   6.676   2.813  1.00 20.00     0.013 C 
HETATM    3  C4  UNL     1     -32.073   5.680   1.222  1.00 20.00     0.028 C 
HETATM    4  C5  UNL     1     -32.550   7.772   2.391  1.00 20.00     0.045 C 
HETATM    5  C6  UNL     1     -31.900   7.195   1.133  1.00 20.00     0.009 C 
ENDROOT
BRANCH   2   6
HETATM    6  C3  UNL     1     -34.487   6.879   3.802  1.00 20.00     0.288 C 
HETATM    7  O8  UNL     1     -35.382   6.075   4.049  1.00 20.00    -0.260 OA
BRANCH   6   8
HETATM    8  O9  UNL     1     -34.290   8.084   4.404  1.00 20.00    -0.323 OA
HETATM    9  C7  UNL     1     -33.222   8.142   5.355  1.00 20.00     0.213 C 
ENDBRANCH   6   8
ENDBRANCH   2   6
TORSDOF 2
ENDMDL
