MODEL 1
REMARK VINA RESULT:      -2.2      0.000      0.000
REMARK  1 active torsions:
REMARK  status: ('A' for Active; 'I' for Inactive)
REMARK    1  A    between atoms: C2_2  and  C7_7 
ROOT
HETATM    1  C1  UNL     1     -32.222   7.844   1.829  1.00 20.00     0.127 C 
HETATM    2  C3  UNL     1     -32.396   6.359   1.599  1.00 20.00     0.079 C 
HETATM    3  C4  UNL     1     -32.464   8.344   3.236  1.00 20.00     0.079 C 
HETATM    4  C5  UNL     1     -33.724   5.880   2.169  1.00 20.00     0.019 C 
HETATM    5  C6  UNL     1     -33.791   7.822   3.771  1.00 20.00     0.019 C 
HETATM    6  C7  UNL     1     -33.897   6.302   3.629  1.00 20.00     0.048 C 
HETATM    7  O8  UNL     1     -31.804   8.590   0.943  1.00 20.00    -0.298 OA
ENDROOT
BRANCH   6   8
HETATM    8  C2  UNL     1     -35.232   5.838   4.123  1.00 20.00     0.235 C 
HETATM    9  O9  UNL     1     -35.429   4.721   4.591  1.00 20.00    -0.306 OA
ENDBRANCH   6   8
TORSDOF 1
ENDMDL
MODEL 2
REMARK VINA RESULT:      -2.2      0.831      4.180
REMARK  1 active torsions:
REMARK  status: ('A' for Active; 'I' for Inactive)
REMARK    1  A    between atoms: C2_2  and  C7_7 
ROOT
HETATM    1  C1  UNL     1     -34.470   6.317   3.732  1.00 20.00     0.127 C 
HETATM    2  C3  UNL     1     -33.888   7.637   4.186  1.00 20.00     0.079 C 
HETATM    3  C4  UNL     1     -33.577   5.443   2.880  1.00 20.00     0.079 C 
HETATM    4  C5  UNL     1     -33.284   8.391   3.009  1.00 20.00     0.019 C 
HETATM    5  C6  UNL     1     -32.980   6.244   1.730  1.00 20.00     0.019 C 
HETATM    6  C7  UNL     1     -32.299   7.520   2.227  1.00 20.00     0.048 C 
HETATM    7  O8  UNL     1     -35.571   5.928   4.122  1.00 20.00    -0.298 OA
ENDROOT
BRANCH   6   8
HETATM    8  C2  UNL     1     -31.767   8.299   1.064  1.00 20.00     0.235 C 
HETATM    9  O9  UNL     1     -32.297   9.318   0.633  1.00 20.00    -0.306 OA
ENDBRANCH   6   8
TORSDOF 1
ENDMDL
MODEL 3
REMARK VINA RESULT:      -1.8      0.894      3.909
REMARK  1 active torsions:
REMARK  status: ('A' for Active; 'I' for Inactive)
REMARK    1  A    between atoms: C2_2  and  C7_7 
ROOT
HETATM    1  C1  UNL     1     -34.231   5.065   3.633  1.00 20.00     0.127 C 
HETATM    2  C3  UNL     1     -33.641   4.828   2.261  1.00 20.00     0.079 C 
HETATM    3  C4  UNL     1     -34.711   6.469   3.929  1.00 20.00     0.079 C 
HETATM    4  C5  UNL     1     -32.592   5.884   1.937  1.00 20.00     0.019 C 
HETATM    5  C6  UNL     1     -33.639   7.490   3.570  1.00 20.00     0.019 C 
HETATM    6  C7  UNL     1     -33.137   7.300   2.137  1.00 20.00     0.048 C 
HETATM    7  O8  UNL     1     -34.408   4.143   4.428  1.00 20.00    -0.298 OA
ENDROOT
BRANCH   6   8
HETATM    8  C2  UNL     1     -32.054   8.291   1.842  1.00 20.00     0.235 C 
HETATM    9  O9  UNL     1     -32.070   9.040   0.870  1.00 20.00    -0.306 OA
ENDBRANCH   6   8
TORSDOF 1
ENDMDL
MODEL 4
REMARK VINA RESULT:      -1.8      0.689      1.820
REMARK  1 active torsions:
REMARK  status: ('A' for Active; 'I' for Inactive)
REMARK    1  A    between atoms: C2_2  and  C7_7 
ROOT
HETATM    1  C1  UNL     1     -32.206   7.433   2.026  1.00 20.00     0.127 C 
HETATM    2  C3  UNL     1     -33.098   8.361   2.821  1.00 20.00     0.079 C 
HETATM    3  C4  UNL     1     -32.842   6.162   1.510  1.00 20.00     0.079 C 
HETATM    4  C5  UNL     1     -33.836   7.594   3.909  1.00 20.00     0.019 C 
HETATM    5  C6  UNL     1     -33.585   5.441   2.627  1.00 20.00     0.019 C 
HETATM    6  C7  UNL     1     -34.564   6.373   3.344  1.00 20.00     0.048 C 
HETATM    7  O8  UNL     1     -31.054   7.746   1.726  1.00 20.00    -0.298 OA
ENDROOT
BRANCH   6   8
HETATM    8  C2  UNL     1     -35.239   5.640   4.462  1.00 20.00     0.235 C 
HETATM    9  O9  UNL     1     -35.140   4.429   4.633  1.00 20.00    -0.306 OA
ENDBRANCH   6   8
TORSDOF 1
ENDMDL
MODEL 5
REMARK VINA RESULT:      -0.8      2.007      3.279
REMARK  1 active torsions:
REMARK  status: ('A' for Active; 'I' for Inactive)
REMARK    1  A    between atoms: C2_2  and  C7_7 
ROOT
HETATM    1  C1  UNL     1     -33.532   7.760   3.978  1.00 20.00     0.127 C 
HETATM    2  C3  UNL     1     -34.464   6.606   3.683  1.00 20.00     0.079 C 
HETATM    3  C4  UNL     1     -32.789   8.347   2.799  1.00 20.00     0.079 C 
HETATM    4  C5  UNL     1     -33.756   5.544   2.851  1.00 20.00     0.019 C 
HETATM    5  C6  UNL     1     -32.117   7.248   1.986  1.00 20.00     0.019 C 
HETATM    6  C7  UNL     1     -33.106   6.145   1.604  1.00 20.00     0.048 C 
HETATM    7  O8  UNL     1     -33.463   8.264   5.099  1.00 20.00    -0.298 OA
ENDROOT
BRANCH   6   8
HETATM    8  C2  UNL     1     -32.396   5.065   0.848  1.00 20.00     0.235 C 
HETATM    9  O9  UNL     1     -31.222   4.765   1.040  1.00 20.00    -0.306 OA
ENDBRANCH   6   8
TORSDOF 1
ENDMDL
MODEL 6
REMARK VINA RESULT:      -0.7      2.290      3.141
REMARK  1 active torsions:
REMARK  status: ('A' for Active; 'I' for Inactive)
REMARK    1  A    between atoms: C2_2  and  C7_7 
ROOT
HETATM    1  C1  UNL     1     -34.305   6.978   3.511  1.00 20.00     0.127 C 
HETATM    2  C3  UNL     1     -35.422   6.139   4.090  1.00 20.00     0.079 C 
HETATM    3  C4  UNL     1     -33.342   6.272   2.582  1.00 20.00     0.079 C 
HETATM    4  C5  UNL     1     -34.873   4.852   4.688  1.00 20.00     0.019 C 
HETATM    5  C6  UNL     1     -32.836   4.981   3.213  1.00 20.00     0.019 C 
HETATM    6  C7  UNL     1     -33.991   4.098   3.691  1.00 20.00     0.048 C 
HETATM    7  O8  UNL     1     -34.243   8.192   3.700  1.00 20.00    -0.298 OA
ENDROOT
BRANCH   6   8
HETATM    8  C2  UNL     1     -33.450   2.864   4.344  1.00 20.00     0.235 C 
HETATM    9  O9  UNL     1     -32.708   2.885   5.321  1.00 20.00    -0.306 OA
ENDBRANCH   6   8
TORSDOF 1
ENDMDL
MODEL 7
REMARK VINA RESULT:      -0.5      1.997      2.724
REMARK  1 active torsions:
REMARK  status: ('A' for Active; 'I' for Inactive)
REMARK    1  A    between atoms: C2_2  and  C7_7 
ROOT
HETATM    1  C1  UNL     1     -32.266   5.877   1.401  1.00 20.00     0.127 C 
HETATM    2  C3  UNL     1     -32.045   7.373   1.442  1.00 20.00     0.079 C 
HETATM    3  C4  UNL     1     -33.587   5.374   1.939  1.00 20.00     0.079 C 
HETATM    4  C5  UNL     1     -32.360   7.924   2.826  1.00 20.00     0.019 C 
HETATM    5  C6  UNL     1     -33.869   5.968   3.313  1.00 20.00     0.019 C 
HETATM    6  C7  UNL     1     -33.748   7.493   3.302  1.00 20.00     0.048 C 
HETATM    7  O8  UNL     1     -31.459   5.119   0.863  1.00 20.00    -0.298 OA
ENDROOT
BRANCH   6   8
HETATM    8  C2  UNL     1     -33.987   8.032   4.679  1.00 20.00     0.235 C 
HETATM    9  O9  UNL     1     -33.085   8.333   5.453  1.00 20.00    -0.306 OA
ENDBRANCH   6   8
TORSDOF 1
ENDMDL
MODEL 8
REMARK VINA RESULT:       0.6      2.060      3.546
REMARK  1 active torsions:
REMARK  status: ('A' for Active; 'I' for Inactive)
REMARK    1  A    between atoms: C2_2  and  C7_7 
ROOT
HETATM    1  C1  UNL     1     -33.755   7.495   3.633  1.00 20.00     0.127 C 
HETATM    2  C3  UNL     1     -32.469   7.924   2.963  1.00 20.00     0.079 C 
HETATM    3  C4  UNL     1     -33.996   6.006   3.741  1.00 20.00     0.079 C 
HETATM    4  C5  UNL     1     -32.292   7.206   1.632  1.00 20.00     0.019 C 
HETATM    5  C6  UNL     1     -33.787   5.329   2.393  1.00 20.00     0.019 C 
HETATM    6  C7  UNL     1     -32.430   5.691   1.786  1.00 20.00     0.048 C 
HETATM    7  O8  UNL     1     -34.513   8.311   4.157  1.00 20.00    -0.298 OA
ENDROOT
BRANCH   6   8
HETATM    8  C2  UNL     1     -32.285   5.043   0.443  1.00 20.00     0.235 C 
HETATM    9  O9  UNL     1     -31.371   4.276   0.158  1.00 20.00    -0.306 OA
ENDBRANCH   6   8
TORSDOF 1
ENDMDL
MODEL 9
REMARK VINA RESULT:       0.6      2.050      2.639
REMARK  1 active torsions:
REMARK  status: ('A' for Active; 'I' for Inactive)
REMARK    1  A    between atoms: C2_2  and  C7_7 
ROOT
HETATM    1  C1  UNL     1     -32.833   5.543   1.361  1.00 20.00     0.127 C 
HETATM    2  C3  UNL     1     -33.459   5.000   2.626  1.00 20.00     0.079 C 
HETATM    3  C4  UNL     1     -31.959   6.768   1.511  1.00 20.00     0.079 C 
HETATM    4  C5  UNL     1     -34.144   6.114   3.407  1.00 20.00     0.019 C 
HETATM    5  C6  UNL     1     -32.676   7.844   2.316  1.00 20.00     0.019 C 
HETATM    6  C7  UNL     1     -33.204   7.297   3.643  1.00 20.00     0.048 C 
HETATM    7  O8  UNL     1     -32.943   4.958   0.284  1.00 20.00    -0.298 OA
ENDROOT
BRANCH   6   8
HETATM    8  C2  UNL     1     -33.941   8.373   4.380  1.00 20.00     0.235 C 
HETATM    9  O9  UNL     1     -33.940   8.478   5.602  1.00 20.00    -0.306 OA
ENDBRANCH   6   8
TORSDOF 1
ENDMDL
