MODEL 1
REMARK VINA RESULT:      -0.6      0.000      0.000
REMARK  0 active torsions:
REMARK  status: ('A' for Active; 'I' for Inactive)
ROOT
HETATM    1  C1  UNL     1     -33.135   5.917   2.554  1.00 20.00     0.131 C 
HETATM    2  C2  UNL     1     -32.394   6.630   1.447  1.00 20.00     0.087 C 
HETATM    3  C3  UNL     1     -33.641   8.205   2.788  1.00 20.00     0.021 C 
HETATM    4  C4  UNL     1     -33.752   6.880   3.546  1.00 20.00     0.052 C 
HETATM    5  C5  UNL     1     -32.359   8.087   1.942  1.00 20.00    -0.041 C 
HETATM    6  C6  UNL     1     -35.181   6.521   3.901  1.00 20.00     0.018 C 
HETATM    7  C7  UNL     1     -31.103   8.346   2.792  1.00 20.00     0.015 C 
HETATM    8  C8  UNL     1     -32.381   9.071   0.769  1.00 20.00     0.015 C 
HETATM    9  O9  UNL     1     -33.223   4.697   2.631  1.00 20.00    -0.298 OA
ENDROOT
TORSDOF 0
ENDMDL
MODEL 2
REMARK VINA RESULT:      -0.2      1.740      2.709
REMARK  0 active torsions:
REMARK  status: ('A' for Active; 'I' for Inactive)
ROOT
HETATM    1  C1  UNL     1     -34.611   5.984   3.713  1.00 20.00     0.131 C 
HETATM    2  C2  UNL     1     -33.959   7.213   3.123  1.00 20.00     0.087 C 
HETATM    3  C3  UNL     1     -32.647   5.242   2.646  1.00 20.00     0.021 C 
HETATM    4  C4  UNL     1     -33.944   4.705   3.256  1.00 20.00     0.052 C 
HETATM    5  C5  UNL     1     -33.009   6.623   2.066  1.00 20.00    -0.041 C 
HETATM    6  C6  UNL     1     -33.702   3.731   4.393  1.00 20.00     0.018 C 
HETATM    7  C7  UNL     1     -33.717   6.489   0.707  1.00 20.00     0.015 C 
HETATM    8  C8  UNL     1     -31.760   7.492   1.896  1.00 20.00     0.015 C 
HETATM    9  O9  UNL     1     -35.571   6.028   4.474  1.00 20.00    -0.298 OA
ENDROOT
TORSDOF 0
ENDMDL
MODEL 3
REMARK VINA RESULT:       0.1      1.765      2.346
REMARK  0 active torsions:
REMARK  status: ('A' for Active; 'I' for Inactive)
ROOT
HETATM    1  C1  UNL     1     -33.462   7.954   4.164  1.00 20.00     0.131 C 
HETATM    2  C2  UNL     1     -32.124   8.207   3.510  1.00 20.00     0.087 C 
HETATM    3  C3  UNL     1     -33.442   6.675   2.186  1.00 20.00     0.021 C 
HETATM    4  C4  UNL     1     -34.402   7.177   3.268  1.00 20.00     0.052 C 
HETATM    5  C5  UNL     1     -32.367   7.771   2.054  1.00 20.00    -0.041 C 
HETATM    6  C6  UNL     1     -35.111   6.051   3.995  1.00 20.00     0.018 C 
HETATM    7  C7  UNL     1     -32.873   8.951   1.206  1.00 20.00     0.015 C 
HETATM    8  C8  UNL     1     -31.088   7.213   1.422  1.00 20.00     0.015 C 
HETATM    9  O9  UNL     1     -33.745   8.338   5.293  1.00 20.00    -0.298 OA
ENDROOT
TORSDOF 0
ENDMDL
MODEL 4
REMARK VINA RESULT:       0.3      1.852      3.634
REMARK  0 active torsions:
REMARK  status: ('A' for Active; 'I' for Inactive)
ROOT
HETATM    1  C1  UNL     1     -32.419   8.072   3.501  1.00 20.00     0.131 C 
HETATM    2  C2  UNL     1     -33.628   7.626   4.290  1.00 20.00     0.087 C 
HETATM    3  C3  UNL     1     -33.761   6.834   2.012  1.00 20.00     0.021 C 
HETATM    4  C4  UNL     1     -32.352   7.420   2.136  1.00 20.00     0.052 C 
HETATM    5  C5  UNL     1     -34.176   6.461   3.447  1.00 20.00    -0.041 C 
HETATM    6  C6  UNL     1     -32.023   8.405   1.031  1.00 20.00     0.018 C 
HETATM    7  C7  UNL     1     -33.545   5.126   3.882  1.00 20.00     0.015 C 
HETATM    8  C8  UNL     1     -35.699   6.356   3.569  1.00 20.00     0.015 C 
HETATM    9  O9  UNL     1     -31.593   8.871   3.925  1.00 20.00    -0.298 OA
ENDROOT
TORSDOF 0
ENDMDL
MODEL 5
REMARK VINA RESULT:       0.5      1.624      3.521
REMARK  0 active torsions:
REMARK  status: ('A' for Active; 'I' for Inactive)
ROOT
HETATM    1  C1  UNL     1     -32.884   7.137   2.400  1.00 20.00     0.131 C 
HETATM    2  C2  UNL     1     -33.682   5.868   2.593  1.00 20.00     0.087 C 
HETATM    3  C3  UNL     1     -33.950   7.337   4.491  1.00 20.00     0.021 C 
HETATM    4  C4  UNL     1     -33.192   8.175   3.458  1.00 20.00     0.052 C 
HETATM    5  C5  UNL     1     -34.698   6.264   3.678  1.00 20.00    -0.041 C 
HETATM    6  C6  UNL     1     -31.944   8.823   4.025  1.00 20.00     0.018 C 
HETATM    7  C7  UNL     1     -35.979   6.835   3.046  1.00 20.00     0.015 C 
HETATM    8  C8  UNL     1     -35.066   5.065   4.558  1.00 20.00     0.015 C 
HETATM    9  O9  UNL     1     -32.081   7.297   1.489  1.00 20.00    -0.298 OA
ENDROOT
TORSDOF 0
ENDMDL
MODEL 6
REMARK VINA RESULT:       0.6      1.928      3.053
REMARK  0 active torsions:
REMARK  status: ('A' for Active; 'I' for Inactive)
ROOT
HETATM    1  C1  UNL     1     -32.665   7.966   2.142  1.00 20.00     0.131 C 
HETATM    2  C2  UNL     1     -31.810   7.024   1.327  1.00 20.00     0.087 C 
HETATM    3  C3  UNL     1     -33.289   5.786   2.781  1.00 20.00     0.021 C 
HETATM    4  C4  UNL     1     -33.753   7.240   2.904  1.00 20.00     0.052 C 
HETATM    5  C5  UNL     1     -32.583   5.697   1.415  1.00 20.00    -0.041 C 
HETATM    6  C6  UNL     1     -33.871   7.702   4.343  1.00 20.00     0.018 C 
HETATM    7  C7  UNL     1     -33.601   5.579   0.267  1.00 20.00     0.015 C 
HETATM    8  C8  UNL     1     -31.633   4.497   1.365  1.00 20.00     0.015 C 
HETATM    9  O9  UNL     1     -32.490   9.178   2.177  1.00 20.00    -0.298 OA
ENDROOT
TORSDOF 0
ENDMDL
MODEL 7
REMARK VINA RESULT:       0.6      1.164      3.435
REMARK  0 active torsions:
REMARK  status: ('A' for Active; 'I' for Inactive)
ROOT
HETATM    1  C1  UNL     1     -33.034   6.075   2.037  1.00 20.00     0.131 C 
HETATM    2  C2  UNL     1     -33.963   5.267   2.913  1.00 20.00     0.087 C 
HETATM    3  C3  UNL     1     -33.783   7.534   3.729  1.00 20.00     0.021 C 
HETATM    4  C4  UNL     1     -33.060   7.550   2.380  1.00 20.00     0.052 C 
HETATM    5  C5  UNL     1     -34.768   6.352   3.650  1.00 20.00    -0.041 C 
HETATM    6  C6  UNL     1     -31.673   8.158   2.461  1.00 20.00     0.018 C 
HETATM    7  C7  UNL     1     -36.032   6.730   2.858  1.00 20.00     0.015 C 
HETATM    8  C8  UNL     1     -35.177   5.884   5.050  1.00 20.00     0.015 C 
HETATM    9  O9  UNL     1     -32.341   5.584   1.154  1.00 20.00    -0.298 OA
ENDROOT
TORSDOF 0
ENDMDL
MODEL 8
REMARK VINA RESULT:       0.7      1.711      3.354
REMARK  0 active torsions:
REMARK  status: ('A' for Active; 'I' for Inactive)
ROOT
HETATM    1  C1  UNL     1     -32.630   7.764   1.754  1.00 20.00     0.131 C 
HETATM    2  C2  UNL     1     -33.866   8.164   2.526  1.00 20.00     0.087 C 
HETATM    3  C3  UNL     1     -33.359   5.829   2.883  1.00 20.00     0.021 C 
HETATM    4  C4  UNL     1     -32.151   6.375   2.117  1.00 20.00     0.052 C 
HETATM    5  C5  UNL     1     -33.986   7.051   3.582  1.00 20.00    -0.041 C 
HETATM    6  C6  UNL     1     -31.796   5.540   0.902  1.00 20.00     0.018 C 
HETATM    7  C7  UNL     1     -33.211   7.422   4.858  1.00 20.00     0.015 C 
HETATM    8  C8  UNL     1     -35.449   6.785   3.945  1.00 20.00     0.015 C 
HETATM    9  O9  UNL     1     -32.085   8.488   0.930  1.00 20.00    -0.298 OA
ENDROOT
TORSDOF 0
ENDMDL
MODEL 9
REMARK VINA RESULT:       1.2      1.696      3.175
REMARK  0 active torsions:
REMARK  status: ('A' for Active; 'I' for Inactive)
ROOT
HETATM    1  C1  UNL     1     -33.081   7.396   2.968  1.00 20.00     0.131 C 
HETATM    2  C2  UNL     1     -33.608   6.050   2.528  1.00 20.00     0.087 C 
HETATM    3  C3  UNL     1     -32.337   7.087   0.755  1.00 20.00     0.021 C 
HETATM    4  C4  UNL     1     -32.102   7.983   1.974  1.00 20.00     0.052 C 
HETATM    5  C5  UNL     1     -32.709   5.707   1.327  1.00 20.00    -0.041 C 
HETATM    6  C6  UNL     1     -32.363   9.449   1.688  1.00 20.00     0.018 C 
HETATM    7  C7  UNL     1     -31.457   4.936   1.784  1.00 20.00     0.015 C 
HETATM    8  C8  UNL     1     -33.462   4.867   0.292  1.00 20.00     0.015 C 
HETATM    9  O9  UNL     1     -33.414   7.943   4.013  1.00 20.00    -0.298 OA
ENDROOT
TORSDOF 0
ENDMDL
