MODEL 1
REMARK VINA RESULT:      -3.0      0.000      0.000
REMARK  3 active torsions:
REMARK  status: ('A' for Active; 'I' for Inactive)
REMARK    1  A    between atoms: C3_3  and  C5_5 
REMARK    2  A    between atoms: C4_4  and  C6_6 
REMARK    3  A    between atoms: C5_5  and  C6_6 
ROOT
HETATM    1  C1  UNL     1     -32.226   9.266   0.727  1.00 20.00     0.059 C 
HETATM    2  C4  UNL     1     -31.772   8.034   1.385  1.00 20.00     0.124 C 
HETATM    3  N7  UNL     1     -32.584  10.238   0.204  1.00 20.00    -0.197 NA
ENDROOT
BRANCH   2   4
HETATM    4  C6  UNL     1     -32.713   7.597   2.510  1.00 20.00     0.020 C 
BRANCH   4   5
HETATM    5  C5  UNL     1     -33.201   6.151   2.345  1.00 20.00     0.051 C 
BRANCH   5   6
HETATM    6  C3  UNL     1     -34.146   5.741   3.440  1.00 20.00     0.002 C 
HETATM    7  C2  UNL     1     -35.096   6.535   3.947  1.00 20.00     0.032 C 
HETATM    8 CL8  UNL     1     -33.990   4.111   4.006  1.00 20.00    -0.090 Cl
ENDBRANCH   5   6
ENDBRANCH   4   5
ENDBRANCH   2   4
TORSDOF 3
ENDMDL
MODEL 2
REMARK VINA RESULT:      -2.9      3.149      4.653
REMARK  3 active torsions:
REMARK  status: ('A' for Active; 'I' for Inactive)
REMARK    1  A    between atoms: C3_3  and  C5_5 
REMARK    2  A    between atoms: C4_4  and  C6_6 
REMARK    3  A    between atoms: C5_5  and  C6_6 
ROOT
HETATM    1  C1  UNL     1     -34.455   4.481   4.330  1.00 20.00     0.059 C 
HETATM    2  C4  UNL     1     -35.294   5.682   4.434  1.00 20.00     0.124 C 
HETATM    3  N7  UNL     1     -33.793   3.531   4.248  1.00 20.00    -0.197 NA
ENDROOT
BRANCH   2   4
HETATM    4  C6  UNL     1     -34.936   6.733   3.381  1.00 20.00     0.020 C 
BRANCH   4   5
HETATM    5  C5  UNL     1     -33.509   7.275   3.546  1.00 20.00     0.051 C 
BRANCH   5   6
HETATM    6  C3  UNL     1     -32.715   7.182   2.273  1.00 20.00     0.002 C 
HETATM    7  C2  UNL     1     -31.958   8.173   1.788  1.00 20.00     0.032 C 
HETATM    8 CL8  UNL     1     -32.774   5.659   1.452  1.00 20.00    -0.090 Cl
ENDBRANCH   5   6
ENDBRANCH   4   5
ENDBRANCH   2   4
TORSDOF 3
ENDMDL
MODEL 3
REMARK VINA RESULT:      -2.8      1.561      1.561
REMARK  3 active torsions:
REMARK  status: ('A' for Active; 'I' for Inactive)
REMARK    1  A    between atoms: C3_3  and  C5_5 
REMARK    2  A    between atoms: C4_4  and  C6_6 
REMARK    3  A    between atoms: C5_5  and  C6_6 
ROOT
HETATM    1  C1  UNL     1     -32.249   9.500   0.546  1.00 20.00     0.059 C 
HETATM    2  C4  UNL     1     -31.811   8.153   0.935  1.00 20.00     0.124 C 
HETATM    3  N7  UNL     1     -32.595  10.563   0.236  1.00 20.00    -0.197 NA
ENDROOT
BRANCH   2   4
HETATM    4  C6  UNL     1     -32.189   7.815   2.379  1.00 20.00     0.020 C 
BRANCH   4   5
HETATM    5  C5  UNL     1     -33.297   6.756   2.468  1.00 20.00     0.051 C 
BRANCH   5   6
HETATM    6  C3  UNL     1     -34.156   6.933   3.689  1.00 20.00     0.002 C 
HETATM    7  C2  UNL     1     -35.267   6.227   3.933  1.00 20.00     0.032 C 
HETATM    8 CL8  UNL     1     -33.601   8.097   4.845  1.00 20.00    -0.090 Cl
ENDBRANCH   5   6
ENDBRANCH   4   5
ENDBRANCH   2   4
TORSDOF 3
ENDMDL
MODEL 4
REMARK VINA RESULT:      -2.7      3.625      4.825
REMARK  3 active torsions:
REMARK  status: ('A' for Active; 'I' for Inactive)
REMARK    1  A    between atoms: C3_3  and  C5_5 
REMARK    2  A    between atoms: C4_4  and  C6_6 
REMARK    3  A    between atoms: C5_5  and  C6_6 
ROOT
HETATM    1  C1  UNL     1     -34.459   4.470   4.340  1.00 20.00     0.059 C 
HETATM    2  C4  UNL     1     -35.305   5.666   4.448  1.00 20.00     0.124 C 
HETATM    3  N7  UNL     1     -33.792   3.524   4.255  1.00 20.00    -0.197 NA
ENDROOT
BRANCH   2   4
HETATM    4  C6  UNL     1     -34.956   6.721   3.397  1.00 20.00     0.020 C 
BRANCH   4   5
HETATM    5  C5  UNL     1     -33.490   7.171   3.473  1.00 20.00     0.051 C 
BRANCH   5   6
HETATM    6  C3  UNL     1     -32.771   6.991   2.165  1.00 20.00     0.002 C 
HETATM    7  C2  UNL     1     -32.719   5.837   1.490  1.00 20.00     0.032 C 
HETATM    8 CL8  UNL     1     -32.026   8.410   1.509  1.00 20.00    -0.090 Cl
ENDBRANCH   5   6
ENDBRANCH   4   5
ENDBRANCH   2   4
TORSDOF 3
ENDMDL
MODEL 5
REMARK VINA RESULT:      -2.7      1.326      1.349
REMARK  3 active torsions:
REMARK  status: ('A' for Active; 'I' for Inactive)
REMARK    1  A    between atoms: C3_3  and  C5_5 
REMARK    2  A    between atoms: C4_4  and  C6_6 
REMARK    3  A    between atoms: C5_5  and  C6_6 
ROOT
HETATM    1  C1  UNL     1     -32.326   9.570   0.462  1.00 20.00     0.059 C 
HETATM    2  C4  UNL     1     -31.839   8.234   0.832  1.00 20.00     0.124 C 
HETATM    3  N7  UNL     1     -32.711  10.624   0.168  1.00 20.00    -0.197 NA
ENDROOT
BRANCH   2   4
HETATM    4  C6  UNL     1     -32.117   7.901   2.299  1.00 20.00     0.020 C 
BRANCH   4   5
HETATM    5  C5  UNL     1     -33.268   6.899   2.471  1.00 20.00     0.051 C 
BRANCH   5   6
HETATM    6  C3  UNL     1     -34.035   7.125   3.744  1.00 20.00     0.002 C 
HETATM    7  C2  UNL     1     -33.728   8.064   4.647  1.00 20.00     0.032 C 
HETATM    8 CL8  UNL     1     -35.424   6.119   3.982  1.00 20.00    -0.090 Cl
ENDBRANCH   5   6
ENDBRANCH   4   5
ENDBRANCH   2   4
TORSDOF 3
ENDMDL
MODEL 6
REMARK VINA RESULT:      -2.6      1.142      1.343
REMARK  3 active torsions:
REMARK  status: ('A' for Active; 'I' for Inactive)
REMARK    1  A    between atoms: C3_3  and  C5_5 
REMARK    2  A    between atoms: C4_4  and  C6_6 
REMARK    3  A    between atoms: C5_5  and  C6_6 
ROOT
HETATM    1  C1  UNL     1     -32.213   9.171   0.703  1.00 20.00     0.059 C 
HETATM    2  C4  UNL     1     -31.775   8.003   1.478  1.00 20.00     0.124 C 
HETATM    3  N7  UNL     1     -32.558  10.093   0.089  1.00 20.00    -0.197 NA
ENDROOT
BRANCH   2   4
HETATM    4  C6  UNL     1     -32.862   7.495   2.427  1.00 20.00     0.020 C 
BRANCH   4   5
HETATM    5  C5  UNL     1     -33.119   5.988   2.281  1.00 20.00     0.051 C 
BRANCH   5   6
HETATM    6  C3  UNL     1     -34.034   5.460   3.351  1.00 20.00     0.002 C 
HETATM    7  C2  UNL     1     -33.963   4.222   3.854  1.00 20.00     0.032 C 
HETATM    8 CL8  UNL     1     -35.196   6.582   3.976  1.00 20.00    -0.090 Cl
ENDBRANCH   5   6
ENDBRANCH   4   5
ENDBRANCH   2   4
TORSDOF 3
ENDMDL
MODEL 7
REMARK VINA RESULT:      -2.2      3.398      4.800
REMARK  3 active torsions:
REMARK  status: ('A' for Active; 'I' for Inactive)
REMARK    1  A    between atoms: C3_3  and  C5_5 
REMARK    2  A    between atoms: C4_4  and  C6_6 
REMARK    3  A    between atoms: C5_5  and  C6_6 
ROOT
HETATM    1  C1  UNL     1     -34.537   4.760   4.204  1.00 20.00     0.059 C 
HETATM    2  C4  UNL     1     -35.205   6.064   4.097  1.00 20.00     0.124 C 
HETATM    3  N7  UNL     1     -34.011   3.729   4.287  1.00 20.00    -0.197 NA
ENDROOT
BRANCH   2   4
HETATM    4  C6  UNL     1     -34.228   7.190   3.753  1.00 20.00     0.020 C 
BRANCH   4   5
HETATM    5  C5  UNL     1     -33.277   6.819   2.606  1.00 20.00     0.051 C 
BRANCH   5   6
HETATM    6  C3  UNL     1     -32.283   7.909   2.315  1.00 20.00     0.002 C 
HETATM    7  C2  UNL     1     -31.902   8.266   1.083  1.00 20.00     0.032 C 
HETATM    8 CL8  UNL     1     -31.666   8.760   3.691  1.00 20.00    -0.090 Cl
ENDBRANCH   5   6
ENDBRANCH   4   5
ENDBRANCH   2   4
TORSDOF 3
ENDMDL
MODEL 8
REMARK VINA RESULT:      -2.2      4.077      5.023
REMARK  3 active torsions:
REMARK  status: ('A' for Active; 'I' for Inactive)
REMARK    1  A    between atoms: C3_3  and  C5_5 
REMARK    2  A    between atoms: C4_4  and  C6_6 
REMARK    3  A    between atoms: C5_5  and  C6_6 
ROOT
HETATM    1  C1  UNL     1     -33.457   3.422   4.555  1.00 20.00     0.059 C 
HETATM    2  C4  UNL     1     -34.146   4.353   3.652  1.00 20.00     0.124 C 
HETATM    3  N7  UNL     1     -32.911   2.686   5.267  1.00 20.00    -0.197 NA
ENDROOT
BRANCH   2   4
HETATM    4  C6  UNL     1     -35.078   5.306   4.403  1.00 20.00     0.020 C 
BRANCH   4   5
HETATM    5  C5  UNL     1     -35.179   6.685   3.734  1.00 20.00     0.051 C 
BRANCH   5   6
HETATM    6  C3  UNL     1     -33.884   7.445   3.800  1.00 20.00     0.002 C 
HETATM    7  C2  UNL     1     -33.447   8.090   4.889  1.00 20.00     0.032 C 
HETATM    8 CL8  UNL     1     -32.908   7.407   2.370  1.00 20.00    -0.090 Cl
ENDBRANCH   5   6
ENDBRANCH   4   5
ENDBRANCH   2   4
TORSDOF 3
ENDMDL
MODEL 9
REMARK VINA RESULT:      -2.0      1.304      1.640
REMARK  3 active torsions:
REMARK  status: ('A' for Active; 'I' for Inactive)
REMARK    1  A    between atoms: C3_3  and  C5_5 
REMARK    2  A    between atoms: C4_4  and  C6_6 
REMARK    3  A    between atoms: C5_5  and  C6_6 
ROOT
HETATM    1  C1  UNL     1     -32.392   9.618   0.117  1.00 20.00     0.059 C 
HETATM    2  C4  UNL     1     -31.567   9.074   1.203  1.00 20.00     0.124 C 
HETATM    3  N7  UNL     1     -33.042  10.049  -0.742  1.00 20.00    -0.197 NA
ENDROOT
BRANCH   2   4
HETATM    4  C6  UNL     1     -32.031   7.684   1.644  1.00 20.00     0.020 C 
BRANCH   4   5
HETATM    5  C5  UNL     1     -33.006   7.734   2.829  1.00 20.00     0.051 C 
BRANCH   5   6
HETATM    6  C3  UNL     1     -33.766   6.448   2.996  1.00 20.00     0.002 C 
HETATM    7  C2  UNL     1     -33.404   5.286   2.440  1.00 20.00     0.032 C 
HETATM    8 CL8  UNL     1     -35.157   6.516   4.026  1.00 20.00    -0.090 Cl
ENDBRANCH   5   6
ENDBRANCH   4   5
ENDBRANCH   2   4
TORSDOF 3
ENDMDL
