MODEL 1
REMARK VINA RESULT:      -2.1      0.000      0.000
REMARK  2 active torsions:
REMARK  status: ('A' for Active; 'I' for Inactive)
REMARK    1  A    between atoms: C1_1  and  C4_4 
REMARK    2  A    between atoms: C1_1  and  O8_8 
ROOT
HETATM    1  C2  UNL     1     -34.702   5.619   4.099  1.00 20.00     0.020 A 
HETATM    2  C3  UNL     1     -35.524   6.653   3.394  1.00 20.00     0.020 A 
HETATM    3  C4  UNL     1     -34.060   6.922   3.672  1.00 20.00     0.044 A 
HETATM    4  C5  UNL     1     -33.739   7.917   4.759  1.00 20.00     0.026 C 
ENDROOT
BRANCH   3   5
HETATM    5  C1  UNL     1     -33.136   6.868   2.513  1.00 20.00     0.266 C 
HETATM    6  O7  UNL     1     -33.077   5.932   1.727  1.00 20.00    -0.264 OA
BRANCH   5   7
HETATM    7  O8  UNL     1     -32.384   8.006   2.476  1.00 20.00    -0.326 OA
HETATM    8  C6  UNL     1     -32.075   8.496   1.168  1.00 20.00     0.213 C 
ENDBRANCH   5   7
ENDBRANCH   3   5
TORSDOF 2
ENDMDL
MODEL 2
REMARK VINA RESULT:      -1.9      2.238      3.621
REMARK  2 active torsions:
REMARK  status: ('A' for Active; 'I' for Inactive)
REMARK    1  A    between atoms: C1_1  and  C4_4 
REMARK    2  A    between atoms: C1_1  and  O8_8 
ROOT
HETATM    1  C2  UNL     1     -34.053   7.332   4.245  1.00 20.00     0.020 A 
HETATM    2  C3  UNL     1     -35.214   7.143   3.318  1.00 20.00     0.020 A 
HETATM    3  C4  UNL     1     -34.126   6.091   3.381  1.00 20.00     0.044 A 
HETATM    4  C5  UNL     1     -33.178   6.014   2.210  1.00 20.00     0.026 C 
ENDROOT
BRANCH   3   5
HETATM    5  C1  UNL     1     -34.463   4.817   4.061  1.00 20.00     0.266 C 
HETATM    6  O7  UNL     1     -35.451   4.656   4.764  1.00 20.00    -0.264 OA
BRANCH   5   7
HETATM    7  O8  UNL     1     -33.509   3.884   3.778  1.00 20.00    -0.326 OA
HETATM    8  C6  UNL     1     -33.194   2.984   4.845  1.00 20.00     0.213 C 
ENDBRANCH   5   7
ENDBRANCH   3   5
TORSDOF 2
ENDMDL
MODEL 3
REMARK VINA RESULT:      -1.8      1.334      3.613
REMARK  2 active torsions:
REMARK  status: ('A' for Active; 'I' for Inactive)
REMARK    1  A    between atoms: C1_1  and  C4_4 
REMARK    2  A    between atoms: C1_1  and  O8_8 
ROOT
HETATM    1  C2  UNL     1     -31.409   8.064   2.109  1.00 20.00     0.020 A 
HETATM    2  C3  UNL     1     -32.597   8.434   1.277  1.00 20.00     0.020 A 
HETATM    3  C4  UNL     1     -32.619   7.155   2.086  1.00 20.00     0.044 A 
HETATM    4  C5  UNL     1     -32.490   5.859   1.324  1.00 20.00     0.026 C 
ENDROOT
BRANCH   3   5
HETATM    5  C1  UNL     1     -33.472   7.141   3.299  1.00 20.00     0.266 C 
HETATM    6  O7  UNL     1     -33.445   8.004   4.166  1.00 20.00    -0.264 OA
BRANCH   5   7
HETATM    7  O8  UNL     1     -34.268   6.033   3.284  1.00 20.00    -0.326 OA
HETATM    8  C6  UNL     1     -35.386   6.068   4.176  1.00 20.00     0.213 C 
ENDBRANCH   5   7
ENDBRANCH   3   5
TORSDOF 2
ENDMDL
MODEL 4
REMARK VINA RESULT:      -1.7      0.754      1.539
REMARK  2 active torsions:
REMARK  status: ('A' for Active; 'I' for Inactive)
REMARK    1  A    between atoms: C1_1  and  C4_4 
REMARK    2  A    between atoms: C1_1  and  O8_8 
ROOT
HETATM    1  C2  UNL     1     -35.450   6.696   3.483  1.00 20.00     0.020 A 
HETATM    2  C3  UNL     1     -34.391   7.070   4.474  1.00 20.00     0.020 A 
HETATM    3  C4  UNL     1     -34.110   5.992   3.448  1.00 20.00     0.044 A 
HETATM    4  C5  UNL     1     -34.069   4.568   3.944  1.00 20.00     0.026 C 
ENDROOT
BRANCH   3   5
HETATM    5  C1  UNL     1     -33.194   6.346   2.337  1.00 20.00     0.266 C 
HETATM    6  O7  UNL     1     -32.833   5.562   1.470  1.00 20.00    -0.264 OA
BRANCH   5   7
HETATM    7  O8  UNL     1     -32.833   7.658   2.443  1.00 20.00    -0.326 OA
HETATM    8  C6  UNL     1     -31.783   8.080   1.567  1.00 20.00     0.213 C 
ENDBRANCH   5   7
ENDBRANCH   3   5
TORSDOF 2
ENDMDL
MODEL 5
REMARK VINA RESULT:      -1.7      0.817      1.577
REMARK  2 active torsions:
REMARK  status: ('A' for Active; 'I' for Inactive)
REMARK    1  A    between atoms: C1_1  and  C4_4 
REMARK    2  A    between atoms: C1_1  and  O8_8 
ROOT
HETATM    1  C2  UNL     1     -34.656   5.748   4.109  1.00 20.00     0.020 A 
HETATM    2  C3  UNL     1     -35.484   6.819   3.469  1.00 20.00     0.020 A 
HETATM    3  C4  UNL     1     -34.011   7.062   3.723  1.00 20.00     0.044 A 
HETATM    4  C5  UNL     1     -33.655   8.007   4.845  1.00 20.00     0.026 C 
ENDROOT
BRANCH   3   5
HETATM    5  C1  UNL     1     -33.115   7.049   2.542  1.00 20.00     0.266 C 
HETATM    6  O7  UNL     1     -32.425   7.998   2.195  1.00 20.00    -0.264 OA
BRANCH   5   7
HETATM    7  O8  UNL     1     -33.189   5.834   1.926  1.00 20.00    -0.326 OA
HETATM    8  C6  UNL     1     -32.042   5.465   1.155  1.00 20.00     0.213 C 
ENDBRANCH   5   7
ENDBRANCH   3   5
TORSDOF 2
ENDMDL
MODEL 6
REMARK VINA RESULT:      -1.5      1.432      3.400
REMARK  2 active torsions:
REMARK  status: ('A' for Active; 'I' for Inactive)
REMARK    1  A    between atoms: C1_1  and  C4_4 
REMARK    2  A    between atoms: C1_1  and  O8_8 
ROOT
HETATM    1  C2  UNL     1     -33.123   5.931   0.972  1.00 20.00     0.020 A 
HETATM    2  C3  UNL     1     -31.864   5.666   1.739  1.00 20.00     0.020 A 
HETATM    3  C4  UNL     1     -32.651   6.932   2.005  1.00 20.00     0.044 A 
HETATM    4  C5  UNL     1     -32.064   8.224   1.490  1.00 20.00     0.026 C 
ENDROOT
BRANCH   3   5
HETATM    5  C1  UNL     1     -33.412   6.996   3.276  1.00 20.00     0.266 C 
HETATM    6  O7  UNL     1     -33.303   7.898   4.095  1.00 20.00    -0.264 OA
BRANCH   5   7
HETATM    7  O8  UNL     1     -34.229   5.909   3.372  1.00 20.00    -0.326 OA
HETATM    8  C6  UNL     1     -35.408   6.094   4.163  1.00 20.00     0.213 C 
ENDBRANCH   5   7
ENDBRANCH   3   5
TORSDOF 2
ENDMDL
MODEL 7
REMARK VINA RESULT:      -1.1      1.152      2.220
REMARK  2 active torsions:
REMARK  status: ('A' for Active; 'I' for Inactive)
REMARK    1  A    between atoms: C1_1  and  C4_4 
REMARK    2  A    between atoms: C1_1  and  O8_8 
ROOT
HETATM    1  C2  UNL     1     -35.387   6.859   3.468  1.00 20.00     0.020 A 
HETATM    2  C3  UNL     1     -34.323   7.223   4.456  1.00 20.00     0.020 A 
HETATM    3  C4  UNL     1     -34.039   6.173   3.403  1.00 20.00     0.044 A 
HETATM    4  C5  UNL     1     -33.977   4.738   3.865  1.00 20.00     0.026 C 
ENDROOT
BRANCH   3   5
HETATM    5  C1  UNL     1     -33.140   6.563   2.291  1.00 20.00     0.266 C 
HETATM    6  O7  UNL     1     -32.560   7.639   2.223  1.00 20.00    -0.264 OA
BRANCH   5   7
HETATM    7  O8  UNL     1     -33.071   5.548   1.382  1.00 20.00    -0.326 OA
HETATM    8  C6  UNL     1     -31.750   5.164   0.989  1.00 20.00     0.213 C 
ENDBRANCH   5   7
ENDBRANCH   3   5
TORSDOF 2
ENDMDL
MODEL 8
REMARK VINA RESULT:      -1.1      1.559      3.073
REMARK  2 active torsions:
REMARK  status: ('A' for Active; 'I' for Inactive)
REMARK    1  A    between atoms: C1_1  and  C4_4 
REMARK    2  A    between atoms: C1_1  and  O8_8 
ROOT
HETATM    1  C2  UNL     1     -33.102   5.623   0.753  1.00 20.00     0.020 A 
HETATM    2  C3  UNL     1     -31.951   5.246   1.633  1.00 20.00     0.020 A 
HETATM    3  C4  UNL     1     -32.730   6.512   1.921  1.00 20.00     0.044 A 
HETATM    4  C5  UNL     1     -32.055   7.822   1.599  1.00 20.00     0.026 C 
ENDROOT
BRANCH   3   5
HETATM    5  C1  UNL     1     -33.635   6.490   3.097  1.00 20.00     0.266 C 
HETATM    6  O7  UNL     1     -34.125   5.472   3.566  1.00 20.00    -0.264 OA
BRANCH   5   7
HETATM    7  O8  UNL     1     -33.822   7.763   3.551  1.00 20.00    -0.326 OA
HETATM    8  C6  UNL     1     -33.704   7.934   4.967  1.00 20.00     0.213 C 
ENDBRANCH   5   7
ENDBRANCH   3   5
TORSDOF 2
ENDMDL
MODEL 9
REMARK VINA RESULT:      -1.0      1.754      3.344
REMARK  2 active torsions:
REMARK  status: ('A' for Active; 'I' for Inactive)
REMARK    1  A    between atoms: C1_1  and  C4_4 
REMARK    2  A    between atoms: C1_1  and  O8_8 
ROOT
HETATM    1  C2  UNL     1     -33.673   7.619   2.986  1.00 20.00     0.020 A 
HETATM    2  C3  UNL     1     -33.541   7.395   4.460  1.00 20.00     0.020 A 
HETATM    3  C4  UNL     1     -34.330   6.412   3.622  1.00 20.00     0.044 A 
HETATM    4  C5  UNL     1     -35.832   6.442   3.761  1.00 20.00     0.026 C 
ENDROOT
BRANCH   3   5
HETATM    5  C1  UNL     1     -33.703   5.093   3.366  1.00 20.00     0.266 C 
HETATM    6  O7  UNL     1     -32.834   4.898   2.527  1.00 20.00    -0.264 OA
BRANCH   5   7
HETATM    7  O8  UNL     1     -34.245   4.161   4.201  1.00 20.00    -0.326 OA
HETATM    8  C6  UNL     1     -33.359   3.117   4.616  1.00 20.00     0.213 C 
ENDBRANCH   5   7
ENDBRANCH   3   5
TORSDOF 2
ENDMDL
