MODEL 1
REMARK VINA RESULT:      -2.5      0.000      0.000
REMARK  4 active torsions:
REMARK  status: ('A' for Active; 'I' for Inactive)
REMARK    1  A    between atoms: C3_3  and  C5_5 
REMARK    2  A    between atoms: C4_4  and  C6_6 
REMARK    3  A    between atoms: C5_5  and  C7_7 
REMARK    4  A    between atoms: C6_6  and  C7_7 
ROOT
HETATM    1  C1  UNL     1     -32.420   9.392   0.368  1.00 20.00     0.059 C 
HETATM    2  C4  UNL     1     -31.949   8.798   1.627  1.00 20.00     0.124 C 
HETATM    3  N8  UNL     1     -32.792   9.862  -0.625  1.00 20.00    -0.197 NA
ENDROOT
BRANCH   2   4
HETATM    4  C6  UNL     1     -31.752   7.285   1.514  1.00 20.00     0.014 C 
BRANCH   4   5
HETATM    5  C7  UNL     1     -33.077   6.511   1.528  1.00 20.00     0.006 C 
BRANCH   5   6
HETATM    6  C5  UNL     1     -33.344   5.796   2.860  1.00 20.00     0.050 C 
BRANCH   6   7
HETATM    7  C3  UNL     1     -34.336   6.488   3.752  1.00 20.00     0.002 C 
HETATM    8  C2  UNL     1     -35.547   6.001   4.045  1.00 20.00     0.032 C 
HETATM    9 CL9  UNL     1     -33.810   7.977   4.463  1.00 20.00    -0.090 Cl
ENDBRANCH   6   7
ENDBRANCH   5   6
ENDBRANCH   4   5
ENDBRANCH   2   4
TORSDOF 4
ENDMDL
MODEL 2
REMARK VINA RESULT:      -2.5      1.401      1.401
REMARK  4 active torsions:
REMARK  status: ('A' for Active; 'I' for Inactive)
REMARK    1  A    between atoms: C3_3  and  C5_5 
REMARK    2  A    between atoms: C4_4  and  C6_6 
REMARK    3  A    between atoms: C5_5  and  C7_7 
REMARK    4  A    between atoms: C6_6  and  C7_7 
ROOT
HETATM    1  C1  UNL     1     -32.394   9.382   0.500  1.00 20.00     0.059 C 
HETATM    2  C4  UNL     1     -31.998   8.519   1.620  1.00 20.00     0.124 C 
HETATM    3  N8  UNL     1     -32.707  10.065  -0.384  1.00 20.00    -0.197 NA
ENDROOT
BRANCH   2   4
HETATM    4  C6  UNL     1     -31.838   7.057   1.195  1.00 20.00     0.014 C 
BRANCH   4   5
HETATM    5  C7  UNL     1     -32.928   6.148   1.777  1.00 20.00     0.006 C 
BRANCH   5   6
HETATM    6  C5  UNL     1     -33.464   6.638   3.130  1.00 20.00     0.050 C 
BRANCH   6   7
HETATM    7  C3  UNL     1     -34.428   5.698   3.796  1.00 20.00     0.002 C 
HETATM    8  C2  UNL     1     -35.651   6.047   4.210  1.00 20.00     0.032 C 
HETATM    9 CL9  UNL     1     -33.896   4.058   3.967  1.00 20.00    -0.090 Cl
ENDBRANCH   6   7
ENDBRANCH   5   6
ENDBRANCH   4   5
ENDBRANCH   2   4
TORSDOF 4
ENDMDL
MODEL 3
REMARK VINA RESULT:      -2.4      3.207      4.905
REMARK  4 active torsions:
REMARK  status: ('A' for Active; 'I' for Inactive)
REMARK    1  A    between atoms: C3_3  and  C5_5 
REMARK    2  A    between atoms: C4_4  and  C6_6 
REMARK    3  A    between atoms: C5_5  and  C7_7 
REMARK    4  A    between atoms: C6_6  and  C7_7 
ROOT
HETATM    1  C1  UNL     1     -34.421   4.350   4.351  1.00 20.00     0.059 C 
HETATM    2  C4  UNL     1     -35.334   5.495   4.467  1.00 20.00     0.124 C 
HETATM    3  N8  UNL     1     -33.700   3.445   4.260  1.00 20.00    -0.197 NA
ENDROOT
BRANCH   2   4
HETATM    4  C6  UNL     1     -35.013   6.596   3.454  1.00 20.00     0.014 C 
BRANCH   4   5
HETATM    5  C7  UNL     1     -34.149   7.715   4.049  1.00 20.00     0.006 C 
BRANCH   5   6
HETATM    6  C5  UNL     1     -32.681   7.646   3.605  1.00 20.00     0.050 C 
BRANCH   6   7
HETATM    7  C3  UNL     1     -32.485   7.488   2.123  1.00 20.00     0.002 C 
HETATM    8  C2  UNL     1     -32.196   8.496   1.294  1.00 20.00     0.032 C 
HETATM    9 CL9  UNL     1     -32.599   5.872   1.509  1.00 20.00    -0.090 Cl
ENDBRANCH   6   7
ENDBRANCH   5   6
ENDBRANCH   4   5
ENDBRANCH   2   4
TORSDOF 4
ENDMDL
MODEL 4
REMARK VINA RESULT:      -2.4      1.138      1.263
REMARK  4 active torsions:
REMARK  status: ('A' for Active; 'I' for Inactive)
REMARK    1  A    between atoms: C3_3  and  C5_5 
REMARK    2  A    between atoms: C4_4  and  C6_6 
REMARK    3  A    between atoms: C5_5  and  C7_7 
REMARK    4  A    between atoms: C6_6  and  C7_7 
ROOT
HETATM    1  C1  UNL     1     -32.458   9.450   0.302  1.00 20.00     0.059 C 
HETATM    2  C4  UNL     1     -31.993   8.902   1.584  1.00 20.00     0.124 C 
HETATM    3  N8  UNL     1     -32.825   9.884  -0.709  1.00 20.00    -0.197 NA
ENDROOT
BRANCH   2   4
HETATM    4  C6  UNL     1     -31.805   7.384   1.529  1.00 20.00     0.014 C 
BRANCH   4   5
HETATM    5  C7  UNL     1     -33.137   6.623   1.493  1.00 20.00     0.006 C 
BRANCH   5   6
HETATM    6  C5  UNL     1     -33.378   5.770   2.746  1.00 20.00     0.050 C 
BRANCH   6   7
HETATM    7  C3  UNL     1     -34.300   6.392   3.756  1.00 20.00     0.002 C 
HETATM    8  C2  UNL     1     -34.261   7.681   4.112  1.00 20.00     0.032 C 
HETATM    9 CL9  UNL     1     -35.504   5.348   4.433  1.00 20.00    -0.090 Cl
ENDBRANCH   6   7
ENDBRANCH   5   6
ENDBRANCH   4   5
ENDBRANCH   2   4
TORSDOF 4
ENDMDL
MODEL 5
REMARK VINA RESULT:      -2.2      3.573      5.112
REMARK  4 active torsions:
REMARK  status: ('A' for Active; 'I' for Inactive)
REMARK    1  A    between atoms: C3_3  and  C5_5 
REMARK    2  A    between atoms: C4_4  and  C6_6 
REMARK    3  A    between atoms: C5_5  and  C7_7 
REMARK    4  A    between atoms: C6_6  and  C7_7 
ROOT
HETATM    1  C1  UNL     1     -33.492   3.442   4.616  1.00 20.00     0.059 C 
HETATM    2  C4  UNL     1     -34.338   4.254   3.732  1.00 20.00     0.124 C 
HETATM    3  N8  UNL     1     -32.823   2.799   5.314  1.00 20.00    -0.197 NA
ENDROOT
BRANCH   2   4
HETATM    4  C6  UNL     1     -34.903   5.485   4.443  1.00 20.00     0.014 C 
BRANCH   4   5
HETATM    5  C7  UNL     1     -34.828   6.754   3.583  1.00 20.00     0.006 C 
BRANCH   5   6
HETATM    6  C5  UNL     1     -33.410   7.335   3.488  1.00 20.00     0.050 C 
BRANCH   6   7
HETATM    7  C3  UNL     1     -32.753   7.159   2.148  1.00 20.00     0.002 C 
HETATM    8  C2  UNL     1     -32.664   5.989   1.505  1.00 20.00     0.032 C 
HETATM    9 CL9  UNL     1     -32.135   8.598   1.409  1.00 20.00    -0.090 Cl
ENDBRANCH   6   7
ENDBRANCH   5   6
ENDBRANCH   4   5
ENDBRANCH   2   4
TORSDOF 4
ENDMDL
MODEL 6
REMARK VINA RESULT:      -2.2      3.228      4.774
REMARK  4 active torsions:
REMARK  status: ('A' for Active; 'I' for Inactive)
REMARK    1  A    between atoms: C3_3  and  C5_5 
REMARK    2  A    between atoms: C4_4  and  C6_6 
REMARK    3  A    between atoms: C5_5  and  C7_7 
REMARK    4  A    between atoms: C6_6  and  C7_7 
ROOT
HETATM    1  C1  UNL     1     -34.316   4.334   4.322  1.00 20.00     0.059 C 
HETATM    2  C4  UNL     1     -35.261   5.454   4.429  1.00 20.00     0.124 C 
HETATM    3  N8  UNL     1     -33.570   3.450   4.237  1.00 20.00    -0.197 NA
ENDROOT
BRANCH   2   4
HETATM    4  C6  UNL     1     -34.954   6.569   3.427  1.00 20.00     0.014 C 
BRANCH   4   5
HETATM    5  C7  UNL     1     -34.120   7.703   4.038  1.00 20.00     0.006 C 
BRANCH   5   6
HETATM    6  C5  UNL     1     -32.665   7.713   3.549  1.00 20.00     0.050 C 
BRANCH   6   7
HETATM    7  C3  UNL     1     -32.500   7.450   2.079  1.00 20.00     0.002 C 
HETATM    8  C2  UNL     1     -32.520   6.230   1.529  1.00 20.00     0.032 C 
HETATM    9 CL9  UNL     1     -32.330   8.847   1.070  1.00 20.00    -0.090 Cl
ENDBRANCH   6   7
ENDBRANCH   5   6
ENDBRANCH   4   5
ENDBRANCH   2   4
TORSDOF 4
ENDMDL
MODEL 7
REMARK VINA RESULT:      -2.1      1.405      1.479
REMARK  4 active torsions:
REMARK  status: ('A' for Active; 'I' for Inactive)
REMARK    1  A    between atoms: C3_3  and  C5_5 
REMARK    2  A    between atoms: C4_4  and  C6_6 
REMARK    3  A    between atoms: C5_5  and  C7_7 
REMARK    4  A    between atoms: C6_6  and  C7_7 
ROOT
HETATM    1  C1  UNL     1     -32.300   9.613   0.426  1.00 20.00     0.059 C 
HETATM    2  C4  UNL     1     -31.677   8.321   0.744  1.00 20.00     0.124 C 
HETATM    3  N8  UNL     1     -32.792  10.633   0.174  1.00 20.00    -0.197 NA
ENDROOT
BRANCH   2   4
HETATM    4  C6  UNL     1     -31.902   7.913   2.201  1.00 20.00     0.014 C 
BRANCH   4   5
HETATM    5  C7  UNL     1     -33.284   7.288   2.435  1.00 20.00     0.006 C 
BRANCH   5   6
HETATM    6  C5  UNL     1     -33.249   5.755   2.504  1.00 20.00     0.050 C 
BRANCH   6   7
HETATM    7  C3  UNL     1     -34.114   5.159   3.579  1.00 20.00     0.002 C 
HETATM    8  C2  UNL     1     -33.898   3.962   4.137  1.00 20.00     0.032 C 
HETATM    9 CL9  UNL     1     -35.427   6.144   4.132  1.00 20.00    -0.090 Cl
ENDBRANCH   6   7
ENDBRANCH   5   6
ENDBRANCH   4   5
ENDBRANCH   2   4
TORSDOF 4
ENDMDL
MODEL 8
REMARK VINA RESULT:      -2.0      3.020      4.701
REMARK  4 active torsions:
REMARK  status: ('A' for Active; 'I' for Inactive)
REMARK    1  A    between atoms: C3_3  and  C5_5 
REMARK    2  A    between atoms: C4_4  and  C6_6 
REMARK    3  A    between atoms: C5_5  and  C7_7 
REMARK    4  A    between atoms: C6_6  and  C7_7 
ROOT
HETATM    1  C1  UNL     1     -34.345   4.463   4.264  1.00 20.00     0.059 C 
HETATM    2  C4  UNL     1     -34.967   5.778   4.058  1.00 20.00     0.124 C 
HETATM    3  N8  UNL     1     -33.855   3.424   4.428  1.00 20.00    -0.197 NA
ENDROOT
BRANCH   2   4
HETATM    4  C6  UNL     1     -34.048   6.740   3.300  1.00 20.00     0.014 C 
BRANCH   4   5
HETATM    5  C7  UNL     1     -33.456   6.116   2.029  1.00 20.00     0.006 C 
BRANCH   5   6
HETATM    6  C5  UNL     1     -32.073   6.678   1.669  1.00 20.00     0.050 C 
BRANCH   6   7
HETATM    7  C3  UNL     1     -31.959   8.172   1.783  1.00 20.00     0.002 C 
HETATM    8  C2  UNL     1     -32.273   9.025   0.802  1.00 20.00     0.032 C 
HETATM    9 CL9  UNL     1     -31.433   8.780   3.317  1.00 20.00    -0.090 Cl
ENDBRANCH   6   7
ENDBRANCH   5   6
ENDBRANCH   4   5
ENDBRANCH   2   4
TORSDOF 4
ENDMDL
MODEL 9
REMARK VINA RESULT:      -2.0      3.338      5.003
REMARK  4 active torsions:
REMARK  status: ('A' for Active; 'I' for Inactive)
REMARK    1  A    between atoms: C3_3  and  C5_5 
REMARK    2  A    between atoms: C4_4  and  C6_6 
REMARK    3  A    between atoms: C5_5  and  C7_7 
REMARK    4  A    between atoms: C6_6  and  C7_7 
ROOT
HETATM    1  C1  UNL     1     -34.524   5.024   4.096  1.00 20.00     0.059 C 
HETATM    2  C4  UNL     1     -34.997   6.395   3.862  1.00 20.00     0.124 C 
HETATM    3  N8  UNL     1     -34.151   3.941   4.280  1.00 20.00    -0.197 NA
ENDROOT
BRANCH   2   4
HETATM    4  C6  UNL     1     -33.843   7.381   3.675  1.00 20.00     0.014 C 
BRANCH   4   5
HETATM    5  C7  UNL     1     -33.205   7.290   2.282  1.00 20.00     0.006 C 
BRANCH   5   6
HETATM    6  C5  UNL     1     -32.000   8.224   2.108  1.00 20.00     0.050 C 
BRANCH   6   7
HETATM    7  C3  UNL     1     -32.034   9.061   0.860  1.00 20.00     0.002 C 
HETATM    8  C2  UNL     1     -32.799  10.148   0.709  1.00 20.00     0.032 C 
HETATM    9 CL9  UNL     1     -30.960   8.579  -0.410  1.00 20.00    -0.090 Cl
ENDBRANCH   6   7
ENDBRANCH   5   6
ENDBRANCH   4   5
ENDBRANCH   2   4
TORSDOF 4
ENDMDL
