MODEL 1
REMARK VINA RESULT:      -3.0      0.000      0.000
REMARK  2 active torsions:
REMARK  status: ('A' for Active; 'I' for Inactive)
REMARK    1  A    between atoms: C3_3  and  O6_6 
REMARK    2  A    between atoms: C4_4  and  O6_6 
ROOT
HETATM    1  C1  UNL     1     -32.605  10.245   0.111  1.00 20.00     0.014 C 
HETATM    2  C2  UNL     1     -32.234   9.286   0.731  1.00 20.00    -0.091 C 
HETATM    3  C4  UNL     1     -31.777   8.119   1.484  1.00 20.00     0.272 C 
ENDROOT
BRANCH   3   4
HETATM    4  O6  UNL     1     -32.650   7.860   2.577  1.00 20.00    -0.297 OA
BRANCH   4   5
HETATM    5  C3  UNL     1     -33.336   6.669   2.546  1.00 20.00     0.358 C 
HETATM    6  O5  UNL     1     -33.060   5.761   1.767  1.00 20.00    -0.245 OA
HETATM    7 CL7  UNL     1     -34.626   6.602   3.718  1.00 20.00    -0.012 Cl
ENDBRANCH   4   5
ENDBRANCH   3   4
TORSDOF 2
ENDMDL
MODEL 2
REMARK VINA RESULT:      -2.9      1.427      1.427
REMARK  2 active torsions:
REMARK  status: ('A' for Active; 'I' for Inactive)
REMARK    1  A    between atoms: C3_3  and  O6_6 
REMARK    2  A    between atoms: C4_4  and  O6_6 
ROOT
HETATM    1  C1  UNL     1     -32.578  10.144   0.101  1.00 20.00     0.014 C 
HETATM    2  C2  UNL     1     -32.248   9.204   0.771  1.00 20.00    -0.091 C 
HETATM    3  C4  UNL     1     -31.842   8.059   1.586  1.00 20.00     0.272 C 
ENDROOT
BRANCH   3   4
HETATM    4  O6  UNL     1     -32.727   7.893   2.687  1.00 20.00    -0.297 OA
BRANCH   4   5
HETATM    5  C3  UNL     1     -33.412   6.703   2.749  1.00 20.00     0.358 C 
HETATM    6  O5  UNL     1     -34.296   6.484   3.574  1.00 20.00    -0.245 OA
HETATM    7 CL7  UNL     1     -32.889   5.557   1.542  1.00 20.00    -0.012 Cl
ENDBRANCH   4   5
ENDBRANCH   3   4
TORSDOF 2
ENDMDL
MODEL 3
REMARK VINA RESULT:      -2.8      1.100      1.555
REMARK  2 active torsions:
REMARK  status: ('A' for Active; 'I' for Inactive)
REMARK    1  A    between atoms: C3_3  and  O6_6 
REMARK    2  A    between atoms: C4_4  and  O6_6 
ROOT
HETATM    1  C1  UNL     1     -32.367   9.721   0.273  1.00 20.00     0.014 C 
HETATM    2  C2  UNL     1     -32.212   8.875   1.111  1.00 20.00    -0.091 C 
HETATM    3  C4  UNL     1     -32.020   7.845   2.132  1.00 20.00     0.272 C 
ENDROOT
BRANCH   3   4
HETATM    4  O6  UNL     1     -33.240   7.159   2.383  1.00 20.00    -0.297 OA
BRANCH   4   5
HETATM    5  C3  UNL     1     -33.775   7.299   3.642  1.00 20.00     0.358 C 
HETATM    6  O5  UNL     1     -33.263   8.001   4.510  1.00 20.00    -0.245 OA
HETATM    7 CL7  UNL     1     -35.238   6.375   3.862  1.00 20.00    -0.012 Cl
ENDBRANCH   4   5
ENDBRANCH   3   4
TORSDOF 2
ENDMDL
MODEL 4
REMARK VINA RESULT:      -2.5      2.931      4.958
REMARK  2 active torsions:
REMARK  status: ('A' for Active; 'I' for Inactive)
REMARK    1  A    between atoms: C3_3  and  O6_6 
REMARK    2  A    between atoms: C4_4  and  O6_6 
ROOT
HETATM    1  C1  UNL     1     -33.185   2.841   4.666  1.00 20.00     0.014 C 
HETATM    2  C2  UNL     1     -33.814   3.822   4.376  1.00 20.00    -0.091 C 
HETATM    3  C4  UNL     1     -34.582   5.017   4.027  1.00 20.00     0.272 C 
ENDROOT
BRANCH   3   4
HETATM    4  O6  UNL     1     -33.892   5.783   3.048  1.00 20.00    -0.297 OA
BRANCH   4   5
HETATM    5  C3  UNL     1     -33.647   7.100   3.360  1.00 20.00     0.358 C 
HETATM    6  O5  UNL     1     -34.232   7.690   4.264  1.00 20.00    -0.245 OA
HETATM    7 CL7  UNL     1     -32.431   7.821   2.339  1.00 20.00    -0.012 Cl
ENDBRANCH   4   5
ENDBRANCH   3   4
TORSDOF 2
ENDMDL
MODEL 5
REMARK VINA RESULT:      -2.5      2.242      3.754
REMARK  2 active torsions:
REMARK  status: ('A' for Active; 'I' for Inactive)
REMARK    1  A    between atoms: C3_3  and  O6_6 
REMARK    2  A    between atoms: C4_4  and  O6_6 
ROOT
HETATM    1  C1  UNL     1     -35.324   5.719   4.195  1.00 20.00     0.014 C 
HETATM    2  C2  UNL     1     -34.683   6.718   4.006  1.00 20.00    -0.091 C 
HETATM    3  C4  UNL     1     -33.906   7.936   3.780  1.00 20.00     0.272 C 
ENDROOT
BRANCH   3   4
HETATM    4  O6  UNL     1     -32.596   7.613   3.329  1.00 20.00    -0.297 OA
BRANCH   4   5
HETATM    5  C3  UNL     1     -32.422   7.516   1.968  1.00 20.00     0.358 C 
HETATM    6  O5  UNL     1     -32.144   8.481   1.261  1.00 20.00    -0.245 OA
HETATM    7 CL7  UNL     1     -32.643   5.892   1.373  1.00 20.00    -0.012 Cl
ENDBRANCH   4   5
ENDBRANCH   3   4
TORSDOF 2
ENDMDL
MODEL 6
REMARK VINA RESULT:      -2.5      2.474      3.228
REMARK  2 active torsions:
REMARK  status: ('A' for Active; 'I' for Inactive)
REMARK    1  A    between atoms: C3_3  and  O6_6 
REMARK    2  A    between atoms: C4_4  and  O6_6 
ROOT
HETATM    1  C1  UNL     1     -32.027   7.896   1.843  1.00 20.00     0.014 C 
HETATM    2  C2  UNL     1     -32.856   7.305   2.479  1.00 20.00    -0.091 C 
HETATM    3  C4  UNL     1     -33.868   6.587   3.255  1.00 20.00     0.272 C 
ENDROOT
BRANCH   3   4
HETATM    4  O6  UNL     1     -33.613   5.189   3.232  1.00 20.00    -0.297 OA
BRANCH   4   5
HETATM    5  C3  UNL     1     -34.251   4.433   4.188  1.00 20.00     0.358 C 
HETATM    6  O5  UNL     1     -35.362   4.716   4.628  1.00 20.00    -0.245 OA
HETATM    7 CL7  UNL     1     -33.315   3.052   4.694  1.00 20.00    -0.012 Cl
ENDBRANCH   4   5
ENDBRANCH   3   4
TORSDOF 2
ENDMDL
MODEL 7
REMARK VINA RESULT:      -2.4      1.774      2.472
REMARK  2 active torsions:
REMARK  status: ('A' for Active; 'I' for Inactive)
REMARK    1  A    between atoms: C3_3  and  O6_6 
REMARK    2  A    between atoms: C4_4  and  O6_6 
ROOT
HETATM    1  C1  UNL     1     -31.743   8.166   1.625  1.00 20.00     0.014 C 
HETATM    2  C2  UNL     1     -32.408   7.173   1.747  1.00 20.00    -0.091 C 
HETATM    3  C4  UNL     1     -33.217   5.963   1.891  1.00 20.00     0.272 C 
ENDROOT
BRANCH   3   4
HETATM    4  O6  UNL     1     -33.534   5.736   3.259  1.00 20.00    -0.297 OA
BRANCH   4   5
HETATM    5  C3  UNL     1     -34.504   6.542   3.805  1.00 20.00     0.358 C 
HETATM    6  O5  UNL     1     -35.704   6.295   3.717  1.00 20.00    -0.245 OA
HETATM    7 CL7  UNL     1     -33.845   7.935   4.623  1.00 20.00    -0.012 Cl
ENDBRANCH   4   5
ENDBRANCH   3   4
TORSDOF 2
ENDMDL
MODEL 8
REMARK VINA RESULT:      -2.3      2.367      4.689
REMARK  2 active torsions:
REMARK  status: ('A' for Active; 'I' for Inactive)
REMARK    1  A    between atoms: C3_3  and  O6_6 
REMARK    2  A    between atoms: C4_4  and  O6_6 
ROOT
HETATM    1  C1  UNL     1     -33.239   2.839   4.723  1.00 20.00     0.014 C 
HETATM    2  C2  UNL     1     -33.750   3.832   4.283  1.00 20.00    -0.091 C 
HETATM    3  C4  UNL     1     -34.375   5.043   3.749  1.00 20.00     0.272 C 
ENDROOT
BRANCH   3   4
HETATM    4  O6  UNL     1     -33.559   5.620   2.738  1.00 20.00    -0.297 OA
BRANCH   4   5
HETATM    5  C3  UNL     1     -33.280   6.960   2.866  1.00 20.00     0.358 C 
HETATM    6  O5  UNL     1     -32.496   7.551   2.128  1.00 20.00    -0.245 OA
HETATM    7 CL7  UNL     1     -34.153   7.710   4.176  1.00 20.00    -0.012 Cl
ENDBRANCH   4   5
ENDBRANCH   3   4
TORSDOF 2
ENDMDL
MODEL 9
REMARK VINA RESULT:      -2.3      2.354      3.729
REMARK  2 active torsions:
REMARK  status: ('A' for Active; 'I' for Inactive)
REMARK    1  A    between atoms: C3_3  and  O6_6 
REMARK    2  A    between atoms: C4_4  and  O6_6 
ROOT
HETATM    1  C1  UNL     1     -35.327   5.780   4.149  1.00 20.00     0.014 C 
HETATM    2  C2  UNL     1     -34.664   6.768   3.987  1.00 20.00    -0.091 C 
HETATM    3  C4  UNL     1     -33.858   7.974   3.791  1.00 20.00     0.272 C 
ENDROOT
BRANCH   3   4
HETATM    4  O6  UNL     1     -32.569   7.635   3.295  1.00 20.00    -0.297 OA
BRANCH   4   5
HETATM    5  C3  UNL     1     -32.472   7.413   1.942  1.00 20.00     0.358 C 
HETATM    6  O5  UNL     1     -32.572   6.296   1.441  1.00 20.00    -0.245 OA
HETATM    7 CL7  UNL     1     -32.191   8.876   1.035  1.00 20.00    -0.012 Cl
ENDBRANCH   4   5
ENDBRANCH   3   4
TORSDOF 2
ENDMDL
