MODEL 1
REMARK VINA RESULT:       1.4      0.000      0.000
REMARK  0 active torsions:
REMARK  status: ('A' for Active; 'I' for Inactive)
ROOT
HETATM    1  C1  UNL     1     -34.256   5.232   3.749  1.00 20.00     0.135 C 
HETATM    2  C2  UNL     1     -33.161   4.626   2.910  1.00 20.00     0.088 C 
HETATM    3  C3  UNL     1     -33.333   7.005   2.454  1.00 20.00     0.025 C 
HETATM    4  C4  UNL     1     -34.415   6.725   3.518  1.00 20.00     0.014 C 
HETATM    5  C5  UNL     1     -32.973   5.658   1.790  1.00 20.00    -0.040 C 
HETATM    6  C6  UNL     1     -35.826   7.053   3.033  1.00 20.00     0.023 C 
HETATM    7  C7  UNL     1     -34.116   7.483   4.813  1.00 20.00     0.023 C 
HETATM    8  C8  UNL     1     -33.887   5.338   0.596  1.00 20.00     0.015 C 
HETATM    9  C9  UNL     1     -31.520   5.672   1.297  1.00 20.00     0.015 C 
HETATM   10  O10 UNL     1     -34.915   4.587   4.558  1.00 20.00    -0.297 OA
ENDROOT
TORSDOF 0
ENDMDL
MODEL 2
REMARK VINA RESULT:       1.5      1.809      2.823
REMARK  0 active torsions:
REMARK  status: ('A' for Active; 'I' for Inactive)
ROOT
HETATM    1  C1  UNL     1     -33.196   7.661   4.012  1.00 20.00     0.135 C 
HETATM    2  C2  UNL     1     -32.482   8.632   3.107  1.00 20.00     0.088 C 
HETATM    3  C3  UNL     1     -33.668   6.981   1.778  1.00 20.00     0.025 C 
HETATM    4  C4  UNL     1     -33.966   6.601   3.243  1.00 20.00     0.014 C 
HETATM    5  C5  UNL     1     -32.406   7.872   1.776  1.00 20.00    -0.040 C 
HETATM    6  C6  UNL     1     -33.475   5.201   3.607  1.00 20.00     0.023 C 
HETATM    7  C7  UNL     1     -35.461   6.727   3.547  1.00 20.00     0.023 C 
HETATM    8  C8  UNL     1     -31.114   7.045   1.693  1.00 20.00     0.015 C 
HETATM    9  C9  UNL     1     -32.436   8.844   0.588  1.00 20.00     0.015 C 
HETATM   10  O10 UNL     1     -33.182   7.751   5.234  1.00 20.00    -0.297 OA
ENDROOT
TORSDOF 0
ENDMDL
MODEL 3
REMARK VINA RESULT:       1.6      1.832      3.602
REMARK  0 active torsions:
REMARK  status: ('A' for Active; 'I' for Inactive)
ROOT
HETATM    1  C1  UNL     1     -32.853   7.363   2.549  1.00 20.00     0.135 C 
HETATM    2  C2  UNL     1     -33.652   7.343   3.826  1.00 20.00     0.088 C 
HETATM    3  C3  UNL     1     -33.960   5.255   2.625  1.00 20.00     0.025 C 
HETATM    4  C4  UNL     1     -32.995   6.080   1.748  1.00 20.00     0.014 C 
HETATM    5  C5  UNL     1     -34.686   6.238   3.570  1.00 20.00    -0.040 C 
HETATM    6  C6  UNL     1     -33.553   6.367   0.355  1.00 20.00     0.023 C 
HETATM    7  C7  UNL     1     -31.634   5.388   1.635  1.00 20.00     0.023 C 
HETATM    8  C8  UNL     1     -35.959   6.819   2.934  1.00 20.00     0.015 C 
HETATM    9  C9  UNL     1     -35.074   5.538   4.879  1.00 20.00     0.015 C 
HETATM   10  O10 UNL     1     -32.137   8.303   2.222  1.00 20.00    -0.297 OA
ENDROOT
TORSDOF 0
ENDMDL
MODEL 4
REMARK VINA RESULT:       1.6      1.841      2.478
REMARK  0 active torsions:
REMARK  status: ('A' for Active; 'I' for Inactive)
ROOT
HETATM    1  C1  UNL     1     -33.362   7.356   3.040  1.00 20.00     0.135 C 
HETATM    2  C2  UNL     1     -33.385   5.887   2.704  1.00 20.00     0.088 C 
HETATM    3  C3  UNL     1     -31.675   7.008   1.394  1.00 20.00     0.025 C 
HETATM    4  C4  UNL     1     -32.306   8.119   2.258  1.00 20.00     0.014 C 
HETATM    5  C5  UNL     1     -32.675   5.832   1.345  1.00 20.00    -0.040 C 
HETATM    6  C6  UNL     1     -32.943   9.231   1.426  1.00 20.00     0.023 C 
HETATM    7  C7  UNL     1     -31.276   8.711   3.223  1.00 20.00     0.023 C 
HETATM    8  C8  UNL     1     -33.685   5.979   0.196  1.00 20.00     0.015 C 
HETATM    9  C9  UNL     1     -31.933   4.501   1.169  1.00 20.00     0.015 C 
HETATM   10  O10 UNL     1     -34.093   7.861   3.884  1.00 20.00    -0.297 OA
ENDROOT
TORSDOF 0
ENDMDL
MODEL 5
REMARK VINA RESULT:       1.9      1.694      3.537
REMARK  0 active torsions:
REMARK  status: ('A' for Active; 'I' for Inactive)
ROOT
HETATM    1  C1  UNL     1     -33.412   6.354   2.614  1.00 20.00     0.135 C 
HETATM    2  C2  UNL     1     -33.431   7.859   2.696  1.00 20.00     0.088 C 
HETATM    3  C3  UNL     1     -32.185   7.152   0.735  1.00 20.00     0.025 C 
HETATM    4  C4  UNL     1     -32.652   5.842   1.403  1.00 20.00     0.014 C 
HETATM    5  C5  UNL     1     -32.254   8.268   1.801  1.00 20.00    -0.040 C 
HETATM    6  C6  UNL     1     -31.491   4.944   1.828  1.00 20.00     0.023 C 
HETATM    7  C7  UNL     1     -33.602   5.070   0.485  1.00 20.00     0.023 C 
HETATM    8  C8  UNL     1     -30.957   8.369   2.618  1.00 20.00     0.015 C 
HETATM    9  C9  UNL     1     -32.517   9.628   1.140  1.00 20.00     0.015 C 
HETATM   10  O10 UNL     1     -33.986   5.632   3.422  1.00 20.00    -0.297 OA
ENDROOT
TORSDOF 0
ENDMDL
MODEL 6
REMARK VINA RESULT:       2.0      2.191      3.897
REMARK  0 active torsions:
REMARK  status: ('A' for Active; 'I' for Inactive)
ROOT
HETATM    1  C1  UNL     1     -32.253   7.595   1.673  1.00 20.00     0.135 C 
HETATM    2  C2  UNL     1     -32.515   8.332   2.961  1.00 20.00     0.088 C 
HETATM    3  C3  UNL     1     -33.365   6.061   3.117  1.00 20.00     0.025 C 
HETATM    4  C4  UNL     1     -32.755   6.161   1.704  1.00 20.00     0.014 C 
HETATM    5  C5  UNL     1     -33.629   7.500   3.613  1.00 20.00    -0.040 C 
HETATM    6  C6  UNL     1     -33.777   5.919   0.595  1.00 20.00     0.023 C 
HETATM    7  C7  UNL     1     -31.576   5.198   1.548  1.00 20.00     0.023 C 
HETATM    8  C8  UNL     1     -35.013   8.014   3.188  1.00 20.00     0.015 C 
HETATM    9  C9  UNL     1     -33.537   7.567   5.143  1.00 20.00     0.015 C 
HETATM   10  O10 UNL     1     -31.662   8.097   0.723  1.00 20.00    -0.297 OA
ENDROOT
TORSDOF 0
ENDMDL
MODEL 7
REMARK VINA RESULT:       2.1      2.132      3.743
REMARK  0 active torsions:
REMARK  status: ('A' for Active; 'I' for Inactive)
ROOT
HETATM    1  C1  UNL     1     -32.351   6.449   1.813  1.00 20.00     0.135 C 
HETATM    2  C2  UNL     1     -33.573   5.827   2.438  1.00 20.00     0.088 C 
HETATM    3  C3  UNL     1     -33.669   8.244   2.660  1.00 20.00     0.025 C 
HETATM    4  C4  UNL     1     -32.350   7.965   1.910  1.00 20.00     0.014 C 
HETATM    5  C5  UNL     1     -34.089   6.935   3.366  1.00 20.00    -0.040 C 
HETATM    6  C6  UNL     1     -31.119   8.460   2.667  1.00 20.00     0.023 C 
HETATM    7  C7  UNL     1     -32.381   8.573   0.506  1.00 20.00     0.023 C 
HETATM    8  C8  UNL     1     -33.466   6.808   4.765  1.00 20.00     0.015 C 
HETATM    9  C9  UNL     1     -35.615   6.865   3.507  1.00 20.00     0.015 C 
HETATM   10  O10 UNL     1     -31.479   5.795   1.252  1.00 20.00    -0.297 OA
ENDROOT
TORSDOF 0
ENDMDL
MODEL 8
REMARK VINA RESULT:       2.4      2.132      3.605
REMARK  0 active torsions:
REMARK  status: ('A' for Active; 'I' for Inactive)
ROOT
HETATM    1  C1  UNL     1     -32.356   8.119   3.455  1.00 20.00     0.135 C 
HETATM    2  C2  UNL     1     -33.183   7.269   4.385  1.00 20.00     0.088 C 
HETATM    3  C3  UNL     1     -33.356   6.422   2.115  1.00 20.00     0.025 C 
HETATM    4  C4  UNL     1     -32.414   7.640   2.014  1.00 20.00     0.014 C 
HETATM    5  C5  UNL     1     -34.153   6.558   3.431  1.00 20.00    -0.040 C 
HETATM    6  C6  UNL     1     -32.953   8.736   1.098  1.00 20.00     0.023 C 
HETATM    7  C7  UNL     1     -31.018   7.213   1.555  1.00 20.00     0.023 C 
HETATM    8  C8  UNL     1     -35.438   7.380   3.248  1.00 20.00     0.015 C 
HETATM    9  C9  UNL     1     -34.537   5.174   3.973  1.00 20.00     0.015 C 
HETATM   10  O10 UNL     1     -31.681   9.068   3.838  1.00 20.00    -0.297 OA
ENDROOT
TORSDOF 0
ENDMDL
MODEL 9
REMARK VINA RESULT:       2.6      1.891      2.670
REMARK  0 active torsions:
REMARK  status: ('A' for Active; 'I' for Inactive)
ROOT
HETATM    1  C1  UNL     1     -33.191   5.968   1.743  1.00 20.00     0.135 C 
HETATM    2  C2  UNL     1     -31.951   6.789   1.497  1.00 20.00     0.088 C 
HETATM    3  C3  UNL     1     -33.044   7.529   3.536  1.00 20.00     0.025 C 
HETATM    4  C4  UNL     1     -33.922   6.375   3.011  1.00 20.00     0.014 C 
HETATM    5  C5  UNL     1     -32.190   8.039   2.354  1.00 20.00    -0.040 C 
HETATM    6  C6  UNL     1     -35.353   6.810   2.697  1.00 20.00     0.023 C 
HETATM    7  C7  UNL     1     -33.935   5.206   3.998  1.00 20.00     0.023 C 
HETATM    8  C8  UNL     1     -32.914   9.126   1.543  1.00 20.00     0.015 C 
HETATM    9  C9  UNL     1     -30.861   8.617   2.860  1.00 20.00     0.015 C 
HETATM   10  O10 UNL     1     -33.539   5.046   1.013  1.00 20.00    -0.297 OA
ENDROOT
TORSDOF 0
ENDMDL
