MODEL 1
REMARK VINA RESULT:       0.2      0.000      0.000
REMARK  1 active torsions:
REMARK  status: ('A' for Active; 'I' for Inactive)
REMARK    1  A    between atoms: C1_1  and  C6_6 
ROOT
HETATM    1  C2  UNL     1     -31.863   5.679   1.361  1.00 20.00     0.002 C 
HETATM    2  C3  UNL     1     -33.143   5.326   2.112  1.00 20.00     0.012 C 
HETATM    3  C4  UNL     1     -31.932   7.079   0.752  1.00 20.00     0.009 C 
HETATM    4  C5  UNL     1     -33.565   7.781   2.553  1.00 20.00     0.021 C 
HETATM    5  C6  UNL     1     -33.492   6.378   3.164  1.00 20.00     0.055 C 
HETATM    6  C7  UNL     1     -32.287   8.179   1.779  1.00 20.00    -0.047 C 
HETATM    7  C9  UNL     1     -32.547   9.499   1.027  1.00 20.00     0.015 C 
HETATM    8  C10 UNL     1     -31.115   8.413   2.751  1.00 20.00     0.015 C 
ENDROOT
BRANCH   5   9
HETATM    9  C1  UNL     1     -34.809   6.029   3.786  1.00 20.00     0.127 C 
HETATM   10  C8  UNL     1     -34.886   4.716   4.518  1.00 20.00     0.091 C 
HETATM   11  O11 UNL     1     -35.780   6.778   3.704  1.00 20.00    -0.298 OA
ENDBRANCH   5   9
TORSDOF 1
ENDMDL
MODEL 2
REMARK VINA RESULT:       0.4      2.159      3.454
REMARK  1 active torsions:
REMARK  status: ('A' for Active; 'I' for Inactive)
REMARK    1  A    between atoms: C1_1  and  C6_6 
ROOT
HETATM    1  C2  UNL     1     -35.344   6.263   3.831  1.00 20.00     0.002 C 
HETATM    2  C3  UNL     1     -34.847   5.036   4.589  1.00 20.00     0.012 C 
HETATM    3  C4  UNL     1     -34.185   7.089   3.271  1.00 20.00     0.009 C 
HETATM    4  C5  UNL     1     -32.749   5.007   3.176  1.00 20.00     0.021 C 
HETATM    5  C6  UNL     1     -33.913   4.181   3.734  1.00 20.00     0.055 C 
HETATM    6  C7  UNL     1     -33.208   6.265   2.402  1.00 20.00    -0.047 C 
HETATM    7  C9  UNL     1     -31.975   7.131   2.078  1.00 20.00     0.015 C 
HETATM    8  C10 UNL     1     -33.870   5.869   1.068  1.00 20.00     0.015 C 
ENDROOT
BRANCH   5   9
HETATM    9  C1  UNL     1     -33.378   3.057   4.569  1.00 20.00     0.127 C 
HETATM   10  C8  UNL     1     -32.567   3.437   5.777  1.00 20.00     0.091 C 
HETATM   11  O11 UNL     1     -33.593   1.881   4.280  1.00 20.00    -0.298 OA
ENDBRANCH   5   9
TORSDOF 1
ENDMDL
MODEL 3
REMARK VINA RESULT:       0.5      1.320      2.665
REMARK  1 active torsions:
REMARK  status: ('A' for Active; 'I' for Inactive)
REMARK    1  A    between atoms: C1_1  and  C6_6 
ROOT
HETATM    1  C2  UNL     1     -33.392   7.969   2.819  1.00 20.00     0.002 C 
HETATM    2  C3  UNL     1     -33.903   6.999   3.879  1.00 20.00     0.012 C 
HETATM    3  C4  UNL     1     -32.253   7.361   2.000  1.00 20.00     0.009 C 
HETATM    4  C5  UNL     1     -33.163   5.044   2.454  1.00 20.00     0.021 C 
HETATM    5  C6  UNL     1     -34.306   5.655   3.273  1.00 20.00     0.055 C 
HETATM    6  C7  UNL     1     -32.611   5.996   1.368  1.00 20.00    -0.047 C 
HETATM    7  C9  UNL     1     -31.338   5.378   0.760  1.00 20.00     0.015 C 
HETATM    8  C10 UNL     1     -33.637   6.175   0.233  1.00 20.00     0.015 C 
ENDROOT
BRANCH   5   9
HETATM    9  C1  UNL     1     -34.694   4.718   4.375  1.00 20.00     0.127 C 
HETATM   10  C8  UNL     1     -33.747   3.584   4.665  1.00 20.00     0.091 C 
HETATM   11  O11 UNL     1     -35.735   4.867   5.012  1.00 20.00    -0.298 OA
ENDBRANCH   5   9
TORSDOF 1
ENDMDL
MODEL 4
REMARK VINA RESULT:       0.8      1.235      2.728
REMARK  1 active torsions:
REMARK  status: ('A' for Active; 'I' for Inactive)
REMARK    1  A    between atoms: C1_1  and  C6_6 
ROOT
HETATM    1  C2  UNL     1     -32.093   8.314   1.525  1.00 20.00     0.002 C 
HETATM    2  C3  UNL     1     -32.829   8.257   2.860  1.00 20.00     0.012 C 
HETATM    3  C4  UNL     1     -31.468   6.965   1.167  1.00 20.00     0.009 C 
HETATM    4  C5  UNL     1     -33.238   5.782   2.534  1.00 20.00     0.021 C 
HETATM    5  C6  UNL     1     -33.865   7.134   2.890  1.00 20.00     0.055 C 
HETATM    6  C7  UNL     1     -32.477   5.795   1.188  1.00 20.00    -0.047 C 
HETATM    7  C9  UNL     1     -31.708   4.469   1.033  1.00 20.00     0.015 C 
HETATM    8  C10 UNL     1     -33.464   5.908   0.010  1.00 20.00     0.015 C 
ENDROOT
BRANCH   5   9
HETATM    9  C1  UNL     1     -34.471   7.064   4.258  1.00 20.00     0.127 C 
HETATM   10  C8  UNL     1     -35.429   5.934   4.518  1.00 20.00     0.091 C 
HETATM   11  O11 UNL     1     -34.200   7.891   5.127  1.00 20.00    -0.298 OA
ENDBRANCH   5   9
TORSDOF 1
ENDMDL
MODEL 5
REMARK VINA RESULT:       0.9      2.216      4.136
REMARK  1 active torsions:
REMARK  status: ('A' for Active; 'I' for Inactive)
REMARK    1  A    between atoms: C1_1  and  C6_6 
ROOT
HETATM    1  C2  UNL     1     -33.094   5.489   1.990  1.00 20.00     0.002 C 
HETATM    2  C3  UNL     1     -32.301   6.531   1.208  1.00 20.00     0.012 C 
HETATM    3  C4  UNL     1     -33.249   5.883   3.459  1.00 20.00     0.009 C 
HETATM    4  C5  UNL     1     -33.055   8.325   2.824  1.00 20.00     0.021 C 
HETATM    5  C6  UNL     1     -32.903   7.929   1.352  1.00 20.00     0.055 C 
HETATM    6  C7  UNL     1     -33.850   7.293   3.657  1.00 20.00    -0.047 C 
HETATM    7  C9  UNL     1     -33.756   7.672   5.148  1.00 20.00     0.015 C 
HETATM    8  C10 UNL     1     -35.339   7.309   3.260  1.00 20.00     0.015 C 
ENDROOT
BRANCH   5   9
HETATM    9  C1  UNL     1     -32.020   8.916   0.652  1.00 20.00     0.127 C 
HETATM   10  C8  UNL     1     -32.639  10.239   0.288  1.00 20.00     0.091 C 
HETATM   11  O11 UNL     1     -30.847   8.659   0.388  1.00 20.00    -0.298 OA
ENDBRANCH   5   9
TORSDOF 1
ENDMDL
MODEL 6
REMARK VINA RESULT:       1.3      2.195      4.390
REMARK  1 active torsions:
REMARK  status: ('A' for Active; 'I' for Inactive)
REMARK    1  A    between atoms: C1_1  and  C6_6 
ROOT
HETATM    1  C2  UNL     1     -32.657   8.120   4.806  1.00 20.00     0.002 C 
HETATM    2  C3  UNL     1     -32.149   8.731   3.504  1.00 20.00     0.012 C 
HETATM    3  C4  UNL     1     -34.104   7.645   4.682  1.00 20.00     0.009 C 
HETATM    4  C5  UNL     1     -33.777   7.304   2.196  1.00 20.00     0.021 C 
HETATM    5  C6  UNL     1     -32.326   7.777   2.323  1.00 20.00     0.055 C 
HETATM    6  C7  UNL     1     -34.334   6.680   3.497  1.00 20.00    -0.047 C 
HETATM    7  C9  UNL     1     -35.848   6.443   3.331  1.00 20.00     0.015 C 
HETATM    8  C10 UNL     1     -33.671   5.316   3.770  1.00 20.00     0.015 C 
ENDROOT
BRANCH   5   9
HETATM    9  C1  UNL     1     -31.910   8.475   1.065  1.00 20.00     0.127 C 
HETATM   10  C8  UNL     1     -32.647   9.741   0.717  1.00 20.00     0.091 C 
HETATM   11  O11 UNL     1     -31.011   8.036   0.350  1.00 20.00    -0.298 OA
ENDBRANCH   5   9
TORSDOF 1
ENDMDL
MODEL 7
REMARK VINA RESULT:       1.6      1.029      2.202
REMARK  1 active torsions:
REMARK  status: ('A' for Active; 'I' for Inactive)
REMARK    1  A    between atoms: C1_1  and  C6_6 
ROOT
HETATM    1  C2  UNL     1     -32.179   8.814   4.254  1.00 20.00     0.002 C 
HETATM    2  C3  UNL     1     -33.195   7.727   4.587  1.00 20.00     0.012 C 
HETATM    3  C4  UNL     1     -31.301   8.422   3.065  1.00 20.00     0.009 C 
HETATM    4  C5  UNL     1     -33.159   6.949   2.180  1.00 20.00     0.021 C 
HETATM    5  C6  UNL     1     -34.038   7.346   3.370  1.00 20.00     0.055 C 
HETATM    6  C7  UNL     1     -32.110   8.023   1.809  1.00 20.00    -0.047 C 
HETATM    7  C9  UNL     1     -31.145   7.441   0.759  1.00 20.00     0.015 C 
HETATM    8  C10 UNL     1     -32.793   9.257   1.190  1.00 20.00     0.015 C 
ENDROOT
BRANCH   5   9
HETATM    9  C1  UNL     1     -34.936   6.204   3.736  1.00 20.00     0.127 C 
HETATM   10  C8  UNL     1     -34.268   4.901   4.084  1.00 20.00     0.091 C 
HETATM   11  O11 UNL     1     -36.160   6.324   3.751  1.00 20.00    -0.298 OA
ENDBRANCH   5   9
TORSDOF 1
ENDMDL
MODEL 8
REMARK VINA RESULT:       1.9      2.093      4.240
REMARK  1 active torsions:
REMARK  status: ('A' for Active; 'I' for Inactive)
REMARK    1  A    between atoms: C1_1  and  C6_6 
ROOT
HETATM    1  C2  UNL     1     -33.248   7.236   3.554  1.00 20.00     0.002 C 
HETATM    2  C3  UNL     1     -33.211   8.543   2.769  1.00 20.00     0.012 C 
HETATM    3  C4  UNL     1     -33.696   6.064   2.680  1.00 20.00     0.009 C 
HETATM    4  C5  UNL     1     -32.804   7.252   0.632  1.00 20.00     0.021 C 
HETATM    5  C6  UNL     1     -32.354   8.425   1.510  1.00 20.00     0.055 C 
HETATM    6  C7  UNL     1     -32.859   5.906   1.390  1.00 20.00    -0.047 C 
HETATM    7  C9  UNL     1     -33.527   4.850   0.488  1.00 20.00     0.015 C 
HETATM    8  C10 UNL     1     -31.438   5.412   1.721  1.00 20.00     0.015 C 
ENDROOT
BRANCH   5   9
HETATM    9  C1  UNL     1     -32.447   9.702   0.732  1.00 20.00     0.127 C 
HETATM   10  C8  UNL     1     -32.440   9.584  -0.768  1.00 20.00     0.091 C 
HETATM   11  O11 UNL     1     -32.525  10.794   1.293  1.00 20.00    -0.298 OA
ENDBRANCH   5   9
TORSDOF 1
ENDMDL
MODEL 9
REMARK VINA RESULT:       2.0      1.320      1.655
REMARK  1 active torsions:
REMARK  status: ('A' for Active; 'I' for Inactive)
REMARK    1  A    between atoms: C1_1  and  C6_6 
ROOT
HETATM    1  C2  UNL     1     -32.124   6.046   1.463  1.00 20.00     0.002 C 
HETATM    2  C3  UNL     1     -32.903   4.959   2.196  1.00 20.00     0.012 C 
HETATM    3  C4  UNL     1     -32.868   7.381   1.474  1.00 20.00     0.009 C 
HETATM    4  C5  UNL     1     -34.020   6.720   3.628  1.00 20.00     0.021 C 
HETATM    5  C6  UNL     1     -33.270   5.384   3.617  1.00 20.00     0.055 C 
HETATM    6  C7  UNL     1     -33.266   7.851   2.892  1.00 20.00    -0.047 C 
HETATM    7  C9  UNL     1     -34.193   9.076   2.770  1.00 20.00     0.015 C 
HETATM    8  C10 UNL     1     -32.020   8.280   3.690  1.00 20.00     0.015 C 
ENDROOT
BRANCH   5   9
HETATM    9  C1  UNL     1     -34.123   4.322   4.240  1.00 20.00     0.127 C 
HETATM   10  C8  UNL     1     -33.471   2.988   4.488  1.00 20.00     0.091 C 
HETATM   11  O11 UNL     1     -35.299   4.529   4.535  1.00 20.00    -0.298 OA
ENDBRANCH   5   9
TORSDOF 1
ENDMDL
