MODEL 1
REMARK VINA RESULT:      -3.2      0.000      0.000
REMARK  5 active torsions:
REMARK  status: ('A' for Active; 'I' for Inactive)
REMARK    1  A    between atoms: C2_2  and  C3_3 
REMARK    2  A    between atoms: C3_3  and  C4_4 
REMARK    3  A    between atoms: C4_4  and  C5_5 
REMARK    4  A    between atoms: C5_5  and  C6_6 
REMARK    5  A    between atoms: C6_6  and  C7_7 
ROOT
HETATM    1  C1  UNL     1     -32.248   8.991   0.915  1.00 20.00     0.059 C 
HETATM    2  C2  UNL     1     -31.964   7.957   1.918  1.00 20.00     0.124 C 
HETATM    3  N8  UNL     1     -32.471   9.810   0.123  1.00 20.00    -0.197 NA
ENDROOT
BRANCH   2   4
HETATM    4  C3  UNL     1     -33.166   7.045   2.167  1.00 20.00     0.014 C 
BRANCH   4   5
HETATM    5  C4  UNL     1     -33.697   7.140   3.601  1.00 20.00     0.001 C 
BRANCH   5   6
HETATM    6  C5  UNL     1     -35.049   6.433   3.739  1.00 20.00     0.001 C 
BRANCH   6   7
HETATM    7  C6  UNL     1     -34.901   5.092   4.465  1.00 20.00     0.015 C 
BRANCH   7   8
HETATM    8  C7  UNL     1     -33.915   4.146   3.790  1.00 20.00     0.114 C 
HETATM    9 CL9  UNL     1     -33.232   2.965   4.931  1.00 20.00    -0.130 Cl
ENDBRANCH   7   8
ENDBRANCH   6   7
ENDBRANCH   5   6
ENDBRANCH   4   5
ENDBRANCH   2   4
TORSDOF 5
ENDMDL
MODEL 2
REMARK VINA RESULT:      -3.0      0.844      1.084
REMARK  5 active torsions:
REMARK  status: ('A' for Active; 'I' for Inactive)
REMARK    1  A    between atoms: C2_2  and  C3_3 
REMARK    2  A    between atoms: C3_3  and  C4_4 
REMARK    3  A    between atoms: C4_4  and  C5_5 
REMARK    4  A    between atoms: C5_5  and  C6_6 
REMARK    5  A    between atoms: C6_6  and  C7_7 
ROOT
HETATM    1  C1  UNL     1     -32.192   9.135   0.705  1.00 20.00     0.059 C 
HETATM    2  C2  UNL     1     -31.752   7.970   1.483  1.00 20.00     0.124 C 
HETATM    3  N8  UNL     1     -32.538  10.056   0.089  1.00 20.00    -0.197 NA
ENDROOT
BRANCH   2   4
HETATM    4  C3  UNL     1     -32.896   7.335   2.274  1.00 20.00     0.014 C 
BRANCH   4   5
HETATM    5  C4  UNL     1     -32.998   7.871   3.707  1.00 20.00     0.001 C 
BRANCH   5   6
HETATM    6  C5  UNL     1     -34.336   7.491   4.347  1.00 20.00     0.001 C 
BRANCH   6   7
HETATM    7  C6  UNL     1     -34.994   6.325   3.603  1.00 20.00     0.015 C 
BRANCH   7   8
HETATM    8  C7  UNL     1     -35.175   5.083   4.468  1.00 20.00     0.114 C 
HETATM    9 CL9  UNL     1     -33.885   3.887   4.201  1.00 20.00    -0.130 Cl
ENDBRANCH   7   8
ENDBRANCH   6   7
ENDBRANCH   5   6
ENDBRANCH   4   5
ENDBRANCH   2   4
TORSDOF 5
ENDMDL
MODEL 3
REMARK VINA RESULT:      -2.9      3.973      5.513
REMARK  5 active torsions:
REMARK  status: ('A' for Active; 'I' for Inactive)
REMARK    1  A    between atoms: C2_2  and  C3_3 
REMARK    2  A    between atoms: C3_3  and  C4_4 
REMARK    3  A    between atoms: C4_4  and  C5_5 
REMARK    4  A    between atoms: C5_5  and  C6_6 
REMARK    5  A    between atoms: C6_6  and  C7_7 
ROOT
HETATM    1  C1  UNL     1     -34.363   4.541   4.230  1.00 20.00     0.059 C 
HETATM    2  C2  UNL     1     -34.943   5.876   4.038  1.00 20.00     0.124 C 
HETATM    3  N8  UNL     1     -33.907   3.485   4.383  1.00 20.00    -0.197 NA
ENDROOT
BRANCH   2   4
HETATM    4  C3  UNL     1     -33.997   6.817   3.291  1.00 20.00     0.014 C 
BRANCH   4   5
HETATM    5  C4  UNL     1     -33.394   6.181   2.035  1.00 20.00     0.001 C 
BRANCH   5   6
HETATM    6  C5  UNL     1     -31.998   6.740   1.746  1.00 20.00     0.001 C 
BRANCH   6   7
HETATM    7  C6  UNL     1     -31.992   8.271   1.805  1.00 20.00     0.015 C 
BRANCH   7   8
HETATM    8  C7  UNL     1     -31.957   8.928   0.430  1.00 20.00     0.114 C 
HETATM    9 CL9  UNL     1     -32.707  10.541   0.440  1.00 20.00    -0.130 Cl
ENDBRANCH   7   8
ENDBRANCH   6   7
ENDBRANCH   5   6
ENDBRANCH   4   5
ENDBRANCH   2   4
TORSDOF 5
ENDMDL
MODEL 4
REMARK VINA RESULT:      -2.9      0.881      1.338
REMARK  5 active torsions:
REMARK  status: ('A' for Active; 'I' for Inactive)
REMARK    1  A    between atoms: C2_2  and  C3_3 
REMARK    2  A    between atoms: C3_3  and  C4_4 
REMARK    3  A    between atoms: C4_4  and  C5_5 
REMARK    4  A    between atoms: C5_5  and  C6_6 
REMARK    5  A    between atoms: C6_6  and  C7_7 
ROOT
HETATM    1  C1  UNL     1     -32.307   9.290   0.669  1.00 20.00     0.059 C 
HETATM    2  C2  UNL     1     -31.982   8.412   1.800  1.00 20.00     0.124 C 
HETATM    3  N8  UNL     1     -32.564   9.986  -0.223  1.00 20.00    -0.197 NA
ENDROOT
BRANCH   2   4
HETATM    4  C3  UNL     1     -32.019   6.932   1.415  1.00 20.00     0.014 C 
BRANCH   4   5
HETATM    5  C4  UNL     1     -33.247   6.203   1.970  1.00 20.00     0.001 C 
BRANCH   5   6
HETATM    6  C5  UNL     1     -33.608   6.711   3.369  1.00 20.00     0.001 C 
BRANCH   6   7
HETATM    7  C6  UNL     1     -35.070   6.404   3.709  1.00 20.00     0.015 C 
BRANCH   7   8
HETATM    8  C7  UNL     1     -35.242   5.138   4.542  1.00 20.00     0.114 C 
HETATM    9 CL9  UNL     1     -33.967   3.942   4.211  1.00 20.00    -0.130 Cl
ENDBRANCH   7   8
ENDBRANCH   6   7
ENDBRANCH   5   6
ENDBRANCH   4   5
ENDBRANCH   2   4
TORSDOF 5
ENDMDL
MODEL 5
REMARK VINA RESULT:      -2.5      3.391      4.853
REMARK  5 active torsions:
REMARK  status: ('A' for Active; 'I' for Inactive)
REMARK    1  A    between atoms: C2_2  and  C3_3 
REMARK    2  A    between atoms: C3_3  and  C4_4 
REMARK    3  A    between atoms: C4_4  and  C5_5 
REMARK    4  A    between atoms: C5_5  and  C6_6 
REMARK    5  A    between atoms: C6_6  and  C7_7 
ROOT
HETATM    1  C1  UNL     1     -33.522   3.502   4.464  1.00 20.00     0.059 C 
HETATM    2  C2  UNL     1     -34.177   4.475   3.581  1.00 20.00     0.124 C 
HETATM    3  N8  UNL     1     -33.002   2.732   5.160  1.00 20.00    -0.197 NA
ENDROOT
BRANCH   2   4
HETATM    4  C3  UNL     1     -35.099   5.425   4.348  1.00 20.00     0.014 C 
BRANCH   4   5
HETATM    5  C4  UNL     1     -34.989   6.877   3.869  1.00 20.00     0.001 C 
BRANCH   5   6
HETATM    6  C5  UNL     1     -33.527   7.326   3.792  1.00 20.00     0.001 C 
BRANCH   6   7
HETATM    7  C6  UNL     1     -33.206   7.930   2.421  1.00 20.00     0.015 C 
BRANCH   7   8
HETATM    8  C7  UNL     1     -31.903   7.409   1.824  1.00 20.00     0.114 C 
HETATM    9 CL9  UNL     1     -32.047   5.724   1.272  1.00 20.00    -0.130 Cl
ENDBRANCH   7   8
ENDBRANCH   6   7
ENDBRANCH   5   6
ENDBRANCH   4   5
ENDBRANCH   2   4
TORSDOF 5
ENDMDL
MODEL 6
REMARK VINA RESULT:      -2.4      1.693      1.833
REMARK  5 active torsions:
REMARK  status: ('A' for Active; 'I' for Inactive)
REMARK    1  A    between atoms: C2_2  and  C3_3 
REMARK    2  A    between atoms: C3_3  and  C4_4 
REMARK    3  A    between atoms: C4_4  and  C5_5 
REMARK    4  A    between atoms: C5_5  and  C6_6 
REMARK    5  A    between atoms: C6_6  and  C7_7 
ROOT
HETATM    1  C1  UNL     1     -32.298   6.406   1.561  1.00 20.00     0.059 C 
HETATM    2  C2  UNL     1     -32.322   7.739   2.175  1.00 20.00     0.124 C 
HETATM    3  N8  UNL     1     -32.277   5.352   1.074  1.00 20.00    -0.197 NA
ENDROOT
BRANCH   2   4
HETATM    4  C3  UNL     1     -33.664   8.048   2.839  1.00 20.00     0.014 C 
BRANCH   4   5
HETATM    5  C4  UNL     1     -33.932   7.177   4.071  1.00 20.00     0.001 C 
BRANCH   5   6
HETATM    6  C5  UNL     1     -35.201   6.338   3.891  1.00 20.00     0.001 C 
BRANCH   6   7
HETATM    7  C6  UNL     1     -35.035   4.945   4.508  1.00 20.00     0.015 C 
BRANCH   7   8
HETATM    8  C7  UNL     1     -33.940   4.118   3.844  1.00 20.00     0.114 C 
HETATM    9 CL9  UNL     1     -33.162   2.998   4.986  1.00 20.00    -0.130 Cl
ENDBRANCH   7   8
ENDBRANCH   6   7
ENDBRANCH   5   6
ENDBRANCH   4   5
ENDBRANCH   2   4
TORSDOF 5
ENDMDL
MODEL 7
REMARK VINA RESULT:      -2.4      3.097      4.644
REMARK  5 active torsions:
REMARK  status: ('A' for Active; 'I' for Inactive)
REMARK    1  A    between atoms: C2_2  and  C3_3 
REMARK    2  A    between atoms: C3_3  and  C4_4 
REMARK    3  A    between atoms: C4_4  and  C5_5 
REMARK    4  A    between atoms: C5_5  and  C6_6 
REMARK    5  A    between atoms: C6_6  and  C7_7 
ROOT
HETATM    1  C1  UNL     1     -34.408   4.311   4.350  1.00 20.00     0.059 C 
HETATM    2  C2  UNL     1     -35.346   5.435   4.462  1.00 20.00     0.124 C 
HETATM    3  N8  UNL     1     -33.668   3.421   4.263  1.00 20.00    -0.197 NA
ENDROOT
BRANCH   2   4
HETATM    4  C3  UNL     1     -34.975   6.594   3.535  1.00 20.00     0.014 C 
BRANCH   4   5
HETATM    5  C4  UNL     1     -34.196   7.702   4.251  1.00 20.00     0.001 C 
BRANCH   5   6
HETATM    6  C5  UNL     1     -32.742   7.755   3.774  1.00 20.00     0.001 C 
BRANCH   6   7
HETATM    7  C6  UNL     1     -32.658   8.164   2.300  1.00 20.00     0.015 C 
BRANCH   7   8
HETATM    8  C7  UNL     1     -31.788   7.232   1.464  1.00 20.00     0.114 C 
HETATM    9 CL9  UNL     1     -32.451   5.583   1.391  1.00 20.00    -0.130 Cl
ENDBRANCH   7   8
ENDBRANCH   6   7
ENDBRANCH   5   6
ENDBRANCH   4   5
ENDBRANCH   2   4
TORSDOF 5
ENDMDL
MODEL 8
REMARK VINA RESULT:      -2.3      1.914      2.376
REMARK  5 active torsions:
REMARK  status: ('A' for Active; 'I' for Inactive)
REMARK    1  A    between atoms: C2_2  and  C3_3 
REMARK    2  A    between atoms: C3_3  and  C4_4 
REMARK    3  A    between atoms: C4_4  and  C5_5 
REMARK    4  A    between atoms: C5_5  and  C6_6 
REMARK    5  A    between atoms: C6_6  and  C7_7 
ROOT
HETATM    1  C1  UNL     1     -32.276   9.223   0.663  1.00 20.00     0.059 C 
HETATM    2  C2  UNL     1     -31.875   8.388   1.802  1.00 20.00     0.124 C 
HETATM    3  N8  UNL     1     -32.593   9.886  -0.235  1.00 20.00    -0.197 NA
ENDROOT
BRANCH   2   4
HETATM    4  C3  UNL     1     -31.874   6.897   1.456  1.00 20.00     0.014 C 
BRANCH   4   5
HETATM    5  C4  UNL     1     -33.252   6.248   1.621  1.00 20.00     0.001 C 
BRANCH   5   6
HETATM    6  C5  UNL     1     -33.364   5.521   2.964  1.00 20.00     0.001 C 
BRANCH   6   7
HETATM    7  C6  UNL     1     -34.592   5.995   3.749  1.00 20.00     0.015 C 
BRANCH   7   8
HETATM    8  C7  UNL     1     -34.616   7.502   3.978  1.00 20.00     0.114 C 
HETATM    9 CL9  UNL     1     -33.315   8.035   5.067  1.00 20.00    -0.130 Cl
ENDBRANCH   7   8
ENDBRANCH   6   7
ENDBRANCH   5   6
ENDBRANCH   4   5
ENDBRANCH   2   4
TORSDOF 5
ENDMDL
MODEL 9
REMARK VINA RESULT:      -2.1      3.999      5.620
REMARK  5 active torsions:
REMARK  status: ('A' for Active; 'I' for Inactive)
REMARK    1  A    between atoms: C2_2  and  C3_3 
REMARK    2  A    between atoms: C3_3  and  C4_4 
REMARK    3  A    between atoms: C4_4  and  C5_5 
REMARK    4  A    between atoms: C5_5  and  C6_6 
REMARK    5  A    between atoms: C6_6  and  C7_7 
ROOT
HETATM    1  C1  UNL     1     -34.827   5.784   4.017  1.00 20.00     0.059 C 
HETATM    2  C2  UNL     1     -33.932   6.659   3.249  1.00 20.00     0.124 C 
HETATM    3  N8  UNL     1     -35.534   5.095   4.626  1.00 20.00    -0.197 NA
ENDROOT
BRANCH   2   4
HETATM    4  C3  UNL     1     -33.354   5.960   2.017  1.00 20.00     0.014 C 
BRANCH   4   5
HETATM    5  C4  UNL     1     -32.006   6.542   1.581  1.00 20.00     0.001 C 
BRANCH   5   6
HETATM    6  C5  UNL     1     -31.979   8.064   1.747  1.00 20.00     0.001 C 
BRANCH   6   7
HETATM    7  C6  UNL     1     -31.487   8.752   0.470  1.00 20.00     0.015 C 
BRANCH   7   8
HETATM    8  C7  UNL     1     -32.522   9.682  -0.153  1.00 20.00     0.114 C 
HETATM    9 CL9  UNL     1     -32.735  11.173   0.793  1.00 20.00    -0.130 Cl
ENDBRANCH   7   8
ENDBRANCH   6   7
ENDBRANCH   5   6
ENDBRANCH   4   5
ENDBRANCH   2   4
TORSDOF 5
ENDMDL
