MODEL 1
REMARK VINA RESULT:      -2.9      0.000      0.000
REMARK  3 active torsions:
REMARK  status: ('A' for Active; 'I' for Inactive)
REMARK    1  A    between atoms: C3_3  and  C4_4 
REMARK    2  A    between atoms: C4_4  and  C6_6 
REMARK    3  A    between atoms: C5_5  and  C6_6 
ROOT
HETATM    1  C2  UNL     1     -32.775   5.759   1.592  1.00 20.00     0.011 C 
HETATM    2  C6  UNL     1     -33.099   7.177   2.080  1.00 20.00    -0.005 C 
ENDROOT
BRANCH   2   3
HETATM    3  C4  UNL     1     -33.546   7.131   3.555  1.00 20.00     0.005 C 
BRANCH   3   4
HETATM    4  C3  UNL     1     -35.017   6.755   3.738  1.00 20.00    -0.004 C 
HETATM    5  C1  UNL     1     -35.164   5.372   4.355  1.00 20.00     0.005 C 
ENDBRANCH   3   4
ENDBRANCH   2   3
BRANCH   2   6
HETATM    6  C5  UNL     1     -31.938   8.143   1.797  1.00 20.00     0.119 C 
HETATM    7 CL7  UNL     1     -32.331   9.394   0.592  1.00 20.00    -0.130 Cl
ENDBRANCH   2   6
TORSDOF 3
ENDMDL
MODEL 2
REMARK VINA RESULT:      -2.5      2.371      3.939
REMARK  3 active torsions:
REMARK  status: ('A' for Active; 'I' for Inactive)
REMARK    1  A    between atoms: C3_3  and  C4_4 
REMARK    2  A    between atoms: C4_4  and  C6_6 
REMARK    3  A    between atoms: C5_5  and  C6_6 
ROOT
HETATM    1  C2  UNL     1     -33.144   6.188   1.749  1.00 20.00     0.011 C 
HETATM    2  C6  UNL     1     -32.792   7.167   2.876  1.00 20.00    -0.005 C 
ENDROOT
BRANCH   2   3
HETATM    3  C4  UNL     1     -32.031   8.377   2.297  1.00 20.00     0.005 C 
BRANCH   3   4
HETATM    4  C3  UNL     1     -32.115   8.481   0.773  1.00 20.00    -0.004 C 
HETATM    5  C1  UNL     1     -32.468   9.894   0.332  1.00 20.00     0.005 C 
ENDBRANCH   3   4
ENDBRANCH   2   3
BRANCH   2   6
HETATM    6  C5  UNL     1     -34.032   7.534   3.705  1.00 20.00     0.119 C 
HETATM    7 CL7  UNL     1     -35.157   6.175   3.945  1.00 20.00    -0.130 Cl
ENDBRANCH   2   6
TORSDOF 3
ENDMDL
MODEL 3
REMARK VINA RESULT:      -2.5      2.508      4.151
REMARK  3 active torsions:
REMARK  status: ('A' for Active; 'I' for Inactive)
REMARK    1  A    between atoms: C3_3  and  C4_4 
REMARK    2  A    between atoms: C4_4  and  C6_6 
REMARK    3  A    between atoms: C5_5  and  C6_6 
ROOT
HETATM    1  C2  UNL     1     -33.545   7.990   4.618  1.00 20.00     0.011 C 
HETATM    2  C6  UNL     1     -34.232   7.239   3.470  1.00 20.00    -0.005 C 
ENDROOT
BRANCH   2   3
HETATM    3  C4  UNL     1     -33.180   6.805   2.429  1.00 20.00     0.005 C 
BRANCH   3   4
HETATM    4  C3  UNL     1     -32.051   7.819   2.239  1.00 20.00    -0.004 C 
HETATM    5  C1  UNL     1     -32.308   8.718   1.039  1.00 20.00     0.005 C 
ENDBRANCH   3   4
ENDBRANCH   2   3
BRANCH   2   6
HETATM    6  C5  UNL     1     -35.112   6.096   3.998  1.00 20.00     0.119 C 
HETATM    7 CL7  UNL     1     -34.277   4.524   4.060  1.00 20.00    -0.130 Cl
ENDBRANCH   2   6
TORSDOF 3
ENDMDL
MODEL 4
REMARK VINA RESULT:      -2.3      1.853      2.768
REMARK  3 active torsions:
REMARK  status: ('A' for Active; 'I' for Inactive)
REMARK    1  A    between atoms: C3_3  and  C4_4 
REMARK    2  A    between atoms: C4_4  and  C6_6 
REMARK    3  A    between atoms: C5_5  and  C6_6 
ROOT
HETATM    1  C2  UNL     1     -34.537   7.415   3.897  1.00 20.00     0.011 C 
HETATM    2  C6  UNL     1     -33.684   6.172   3.613  1.00 20.00    -0.005 C 
ENDROOT
BRANCH   2   3
HETATM    3  C4  UNL     1     -34.436   4.907   4.076  1.00 20.00     0.005 C 
BRANCH   3   4
HETATM    4  C3  UNL     1     -33.689   3.607   3.774  1.00 20.00    -0.004 C 
HETATM    5  C1  UNL     1     -33.111   2.992   5.041  1.00 20.00     0.005 C 
ENDBRANCH   3   4
ENDBRANCH   2   3
BRANCH   2   6
HETATM    6  C5  UNL     1     -33.220   6.135   2.149  1.00 20.00     0.119 C 
HETATM    7 CL7  UNL     1     -32.141   7.482   1.710  1.00 20.00    -0.130 Cl
ENDBRANCH   2   6
TORSDOF 3
ENDMDL
MODEL 5
REMARK VINA RESULT:      -2.2      1.657      2.498
REMARK  3 active torsions:
REMARK  status: ('A' for Active; 'I' for Inactive)
REMARK    1  A    between atoms: C3_3  and  C4_4 
REMARK    2  A    between atoms: C4_4  and  C6_6 
REMARK    3  A    between atoms: C5_5  and  C6_6 
ROOT
HETATM    1  C2  UNL     1     -33.474   8.165   4.671  1.00 20.00     0.011 C 
HETATM    2  C6  UNL     1     -33.618   6.954   3.741  1.00 20.00    -0.005 C 
ENDROOT
BRANCH   2   3
HETATM    3  C4  UNL     1     -35.075   6.447   3.767  1.00 20.00     0.005 C 
BRANCH   3   4
HETATM    4  C3  UNL     1     -35.241   5.097   4.466  1.00 20.00    -0.004 C 
HETATM    5  C1  UNL     1     -34.073   4.168   4.164  1.00 20.00     0.005 C 
ENDBRANCH   3   4
ENDBRANCH   2   3
BRANCH   2   6
HETATM    6  C5  UNL     1     -33.079   7.262   2.335  1.00 20.00     0.119 C 
HETATM    7 CL7  UNL     1     -32.624   5.808   1.413  1.00 20.00    -0.130 Cl
ENDBRANCH   2   6
TORSDOF 3
ENDMDL
MODEL 6
REMARK VINA RESULT:      -2.2      2.702      4.109
REMARK  3 active torsions:
REMARK  status: ('A' for Active; 'I' for Inactive)
REMARK    1  A    between atoms: C3_3  and  C4_4 
REMARK    2  A    between atoms: C4_4  and  C6_6 
REMARK    3  A    between atoms: C5_5  and  C6_6 
ROOT
HETATM    1  C2  UNL     1     -35.028   6.581   4.048  1.00 20.00     0.011 C 
HETATM    2  C6  UNL     1     -33.986   6.471   2.929  1.00 20.00    -0.005 C 
ENDROOT
BRANCH   2   3
HETATM    3  C4  UNL     1     -33.011   7.664   3.006  1.00 20.00     0.005 C 
BRANCH   3   4
HETATM    4  C3  UNL     1     -32.009   7.711   1.851  1.00 20.00    -0.004 C 
HETATM    5  C1  UNL     1     -32.214   8.948   0.989  1.00 20.00     0.005 C 
ENDBRANCH   3   4
ENDBRANCH   2   3
BRANCH   2   6
HETATM    6  C5  UNL     1     -33.306   5.094   2.931  1.00 20.00     0.119 C 
HETATM    7 CL7  UNL     1     -33.972   3.972   4.143  1.00 20.00    -0.130 Cl
ENDBRANCH   2   6
TORSDOF 3
ENDMDL
MODEL 7
REMARK VINA RESULT:      -2.1      1.994      3.886
REMARK  3 active torsions:
REMARK  status: ('A' for Active; 'I' for Inactive)
REMARK    1  A    between atoms: C3_3  and  C4_4 
REMARK    2  A    between atoms: C4_4  and  C6_6 
REMARK    3  A    between atoms: C5_5  and  C6_6 
ROOT
HETATM    1  C2  UNL     1     -33.712   7.580   3.728  1.00 20.00     0.011 C 
HETATM    2  C6  UNL     1     -33.275   7.317   2.281  1.00 20.00    -0.005 C 
ENDROOT
BRANCH   2   3
HETATM    3  C4  UNL     1     -31.976   8.092   1.980  1.00 20.00     0.005 C 
BRANCH   3   4
HETATM    4  C3  UNL     1     -31.935   8.695   0.575  1.00 20.00    -0.004 C 
HETATM    5  C1  UNL     1     -32.580  10.073   0.542  1.00 20.00     0.005 C 
ENDBRANCH   3   4
ENDBRANCH   2   3
BRANCH   2   6
HETATM    6  C5  UNL     1     -33.199   5.811   1.986  1.00 20.00     0.119 C 
HETATM    7 CL7  UNL     1     -31.692   5.320   1.174  1.00 20.00    -0.130 Cl
ENDBRANCH   2   6
TORSDOF 3
ENDMDL
MODEL 8
REMARK VINA RESULT:      -2.1      2.014      3.612
REMARK  3 active torsions:
REMARK  status: ('A' for Active; 'I' for Inactive)
REMARK    1  A    between atoms: C3_3  and  C4_4 
REMARK    2  A    between atoms: C4_4  and  C6_6 
REMARK    3  A    between atoms: C5_5  and  C6_6 
ROOT
HETATM    1  C2  UNL     1     -33.981   4.168   3.836  1.00 20.00     0.011 C 
HETATM    2  C6  UNL     1     -33.633   5.595   3.392  1.00 20.00    -0.005 C 
ENDROOT
BRANCH   2   3
HETATM    3  C4  UNL     1     -33.353   5.615   1.876  1.00 20.00     0.005 C 
BRANCH   3   4
HETATM    4  C3  UNL     1     -31.993   6.215   1.512  1.00 20.00    -0.004 C 
HETATM    5  C1  UNL     1     -31.987   7.726   1.691  1.00 20.00     0.005 C 
ENDBRANCH   3   4
ENDBRANCH   2   3
BRANCH   2   6
HETATM    6  C5  UNL     1     -34.699   6.600   3.855  1.00 20.00     0.119 C 
HETATM    7 CL7  UNL     1     -34.022   8.034   4.664  1.00 20.00    -0.130 Cl
ENDBRANCH   2   6
TORSDOF 3
ENDMDL
MODEL 9
REMARK VINA RESULT:      -2.0      2.344      3.079
REMARK  3 active torsions:
REMARK  status: ('A' for Active; 'I' for Inactive)
REMARK    1  A    between atoms: C3_3  and  C4_4 
REMARK    2  A    between atoms: C4_4  and  C6_6 
REMARK    3  A    between atoms: C5_5  and  C6_6 
ROOT
HETATM    1  C2  UNL     1     -33.232   6.046   2.539  1.00 20.00     0.011 C 
HETATM    2  C6  UNL     1     -34.489   6.133   3.414  1.00 20.00    -0.005 C 
ENDROOT
BRANCH   2   3
HETATM    3  C4  UNL     1     -34.568   4.899   4.335  1.00 20.00     0.005 C 
BRANCH   3   4
HETATM    4  C3  UNL     1     -33.730   3.716   3.848  1.00 20.00    -0.004 C 
HETATM    5  C1  UNL     1     -33.082   2.978   5.011  1.00 20.00     0.005 C 
ENDBRANCH   3   4
ENDBRANCH   2   3
BRANCH   2   6
HETATM    6  C5  UNL     1     -34.567   7.480   4.148  1.00 20.00     0.119 C 
HETATM    7 CL7  UNL     1     -32.991   8.058   4.746  1.00 20.00    -0.130 Cl
ENDBRANCH   2   6
TORSDOF 3
ENDMDL
