MODEL 1
REMARK VINA RESULT:       0.3      0.000      0.000
REMARK  1 active torsions:
REMARK  status: ('A' for Active; 'I' for Inactive)
REMARK    1  A    between atoms: C1_1  and  C6_6 
ROOT
HETATM    1  C2  UNL     1     -31.524   6.973   1.484  1.00 20.00     0.005 C 
HETATM    2  C3  UNL     1     -32.311   8.007   2.307  1.00 20.00     0.006 C 
HETATM    3  C4  UNL     1     -32.741   5.099   2.625  1.00 20.00     0.020 C 
HETATM    4  C5  UNL     1     -33.853   6.611   1.163  1.00 20.00     0.010 C 
HETATM    5  C6  UNL     1     -33.477   6.140   3.486  1.00 20.00     0.091 C 
HETATM    6  C7  UNL     1     -32.543   5.837   1.287  1.00 20.00    -0.013 C 
HETATM    7  C8  UNL     1     -33.672   7.319   2.509  1.00 20.00     0.000 C 
ENDROOT
BRANCH   5   8
HETATM    8  C1  UNL     1     -34.829   5.630   3.948  1.00 20.00     0.177 C 
HETATM    9  O9  UNL     1     -34.847   4.433   4.346  1.00 20.00    -0.648 OA
HETATM   10  O10 UNL     1     -35.766   6.474   3.874  1.00 20.00    -0.648 OA
ENDBRANCH   5   8
TORSDOF 1
ENDMDL
MODEL 2
REMARK VINA RESULT:       0.4      0.023      1.023
REMARK  1 active torsions:
REMARK  status: ('A' for Active; 'I' for Inactive)
REMARK    1  A    between atoms: C1_1  and  C6_6 
ROOT
HETATM    1  C2  UNL     1     -31.515   6.959   1.480  1.00 20.00     0.005 C 
HETATM    2  C3  UNL     1     -32.301   7.994   2.301  1.00 20.00     0.006 C 
HETATM    3  C4  UNL     1     -32.727   5.087   2.629  1.00 20.00     0.020 C 
HETATM    4  C5  UNL     1     -33.844   6.594   1.165  1.00 20.00     0.010 C 
HETATM    5  C6  UNL     1     -33.462   6.129   3.489  1.00 20.00     0.091 C 
HETATM    6  C7  UNL     1     -32.533   5.821   1.288  1.00 20.00    -0.013 C 
HETATM    7  C8  UNL     1     -33.660   7.305   2.509  1.00 20.00     0.000 C 
ENDROOT
BRANCH   5   8
HETATM    8  C1  UNL     1     -34.813   5.619   3.955  1.00 20.00     0.177 C 
HETATM    9  O9  UNL     1     -35.760   6.449   3.873  1.00 20.00    -0.648 OA
HETATM   10  O10 UNL     1     -34.813   4.425   4.367  1.00 20.00    -0.648 OA
ENDBRANCH   5   8
TORSDOF 1
ENDMDL
MODEL 3
REMARK VINA RESULT:       0.5      2.421      3.743
REMARK  1 active torsions:
REMARK  status: ('A' for Active; 'I' for Inactive)
REMARK    1  A    between atoms: C1_1  and  C6_6 
ROOT
HETATM    1  C2  UNL     1     -35.007   5.439   4.508  1.00 20.00     0.005 C 
HETATM    2  C3  UNL     1     -33.962   4.726   3.633  1.00 20.00     0.006 C 
HETATM    3  C4  UNL     1     -33.932   7.656   4.032  1.00 20.00     0.020 C 
HETATM    4  C5  UNL     1     -35.029   6.401   2.333  1.00 20.00     0.010 C 
HETATM    5  C6  UNL     1     -32.856   6.925   3.210  1.00 20.00     0.091 C 
HETATM    6  C7  UNL     1     -35.188   6.793   3.800  1.00 20.00    -0.013 C 
HETATM    7  C8  UNL     1     -33.648   5.775   2.553  1.00 20.00     0.000 C 
ENDROOT
BRANCH   5   8
HETATM    8  C1  UNL     1     -32.268   7.820   2.135  1.00 20.00     0.177 C 
HETATM    9  O9  UNL     1     -32.732   8.992   2.096  1.00 20.00    -0.648 OA
HETATM   10  O10 UNL     1     -31.385   7.272   1.417  1.00 20.00    -0.648 OA
ENDBRANCH   5   8
TORSDOF 1
ENDMDL
MODEL 4
REMARK VINA RESULT:       0.7      2.401      3.701
REMARK  1 active torsions:
REMARK  status: ('A' for Active; 'I' for Inactive)
REMARK    1  A    between atoms: C1_1  and  C6_6 
ROOT
HETATM    1  C2  UNL     1     -35.387   5.725   3.952  1.00 20.00     0.005 C 
HETATM    2  C3  UNL     1     -35.658   7.112   3.346  1.00 20.00     0.006 C 
HETATM    3  C4  UNL     1     -33.214   5.576   2.708  1.00 20.00     0.020 C 
HETATM    4  C5  UNL     1     -33.557   7.161   4.450  1.00 20.00     0.010 C 
HETATM    5  C6  UNL     1     -33.525   6.936   2.060  1.00 20.00     0.091 C 
HETATM    6  C7  UNL     1     -33.856   5.704   4.103  1.00 20.00    -0.013 C 
HETATM    7  C8  UNL     1     -34.245   7.700   3.192  1.00 20.00     0.000 C 
ENDROOT
BRANCH   5   8
HETATM    8  C1  UNL     1     -32.258   7.675   1.671  1.00 20.00     0.177 C 
HETATM    9  O9  UNL     1     -32.410   8.895   1.389  1.00 20.00    -0.648 OA
HETATM   10  O10 UNL     1     -31.211   6.969   1.680  1.00 20.00    -0.648 OA
ENDBRANCH   5   8
TORSDOF 1
ENDMDL
MODEL 5
REMARK VINA RESULT:       1.0      1.028      1.823
REMARK  1 active torsions:
REMARK  status: ('A' for Active; 'I' for Inactive)
REMARK    1  A    between atoms: C1_1  and  C6_6 
ROOT
HETATM    1  C2  UNL     1     -32.011   8.635   1.208  1.00 20.00     0.005 C 
HETATM    2  C3  UNL     1     -33.058   7.756   0.504  1.00 20.00     0.006 C 
HETATM    3  C4  UNL     1     -32.867   7.907   3.450  1.00 20.00     0.020 C 
HETATM    4  C5  UNL     1     -31.781   6.394   1.970  1.00 20.00     0.010 C 
HETATM    5  C6  UNL     1     -33.950   7.080   2.736  1.00 20.00     0.091 C 
HETATM    6  C7  UNL     1     -31.676   7.831   2.476  1.00 20.00    -0.013 C 
HETATM    7  C8  UNL     1     -33.219   6.573   1.474  1.00 20.00     0.000 C 
ENDROOT
BRANCH   5   8
HETATM    8  C1  UNL     1     -34.397   5.898   3.576  1.00 20.00     0.177 C 
HETATM    9  O9  UNL     1     -33.654   4.880   3.514  1.00 20.00    -0.648 OA
HETATM   10  O10 UNL     1     -35.460   6.088   4.232  1.00 20.00    -0.648 OA
ENDBRANCH   5   8
TORSDOF 1
ENDMDL
MODEL 6
REMARK VINA RESULT:       1.0      1.023      2.011
REMARK  1 active torsions:
REMARK  status: ('A' for Active; 'I' for Inactive)
REMARK    1  A    between atoms: C1_1  and  C6_6 
ROOT
HETATM    1  C2  UNL     1     -32.020   8.615   1.204  1.00 20.00     0.005 C 
HETATM    2  C3  UNL     1     -33.075   7.741   0.506  1.00 20.00     0.006 C 
HETATM    3  C4  UNL     1     -32.871   7.895   3.451  1.00 20.00     0.020 C 
HETATM    4  C5  UNL     1     -31.800   6.373   1.968  1.00 20.00     0.010 C 
HETATM    5  C6  UNL     1     -33.962   7.073   2.743  1.00 20.00     0.091 C 
HETATM    6  C7  UNL     1     -31.685   7.810   2.472  1.00 20.00    -0.013 C 
HETATM    7  C8  UNL     1     -33.239   6.561   1.479  1.00 20.00     0.000 C 
ENDROOT
BRANCH   5   8
HETATM    8  C1  UNL     1     -34.413   5.896   3.586  1.00 20.00     0.177 C 
HETATM    9  O9  UNL     1     -35.475   6.078   4.243  1.00 20.00    -0.648 OA
HETATM   10  O10 UNL     1     -33.664   4.881   3.522  1.00 20.00    -0.648 OA
ENDBRANCH   5   8
TORSDOF 1
ENDMDL
MODEL 7
REMARK VINA RESULT:       1.1      1.309      2.325
REMARK  1 active torsions:
REMARK  status: ('A' for Active; 'I' for Inactive)
REMARK    1  A    between atoms: C1_1  and  C6_6 
ROOT
HETATM    1  C2  UNL     1     -33.522   8.415   2.379  1.00 20.00     0.005 C 
HETATM    2  C3  UNL     1     -32.621   7.202   2.091  1.00 20.00     0.006 C 
HETATM    3  C4  UNL     1     -35.200   6.934   3.512  1.00 20.00     0.020 C 
HETATM    4  C5  UNL     1     -33.035   7.308   4.426  1.00 20.00     0.010 C 
HETATM    5  C6  UNL     1     -34.321   5.721   3.165  1.00 20.00     0.091 C 
HETATM    6  C7  UNL     1     -34.167   8.057   3.729  1.00 20.00    -0.013 C 
HETATM    7  C8  UNL     1     -32.890   6.284   3.296  1.00 20.00     0.000 C 
ENDROOT
BRANCH   5   8
HETATM    8  C1  UNL     1     -34.516   4.586   4.154  1.00 20.00     0.177 C 
HETATM    9  O9  UNL     1     -33.616   3.701   4.143  1.00 20.00    -0.648 OA
HETATM   10  O10 UNL     1     -35.558   4.675   4.861  1.00 20.00    -0.648 OA
ENDBRANCH   5   8
TORSDOF 1
ENDMDL
MODEL 8
REMARK VINA RESULT:       1.2      2.778      3.914
REMARK  1 active torsions:
REMARK  status: ('A' for Active; 'I' for Inactive)
REMARK    1  A    between atoms: C1_1  and  C6_6 
ROOT
HETATM    1  C2  UNL     1     -33.038   5.288   3.046  1.00 20.00     0.005 C 
HETATM    2  C3  UNL     1     -31.997   5.205   1.917  1.00 20.00     0.006 C 
HETATM    3  C4  UNL     1     -33.001   7.794   2.934  1.00 20.00     0.020 C 
HETATM    4  C5  UNL     1     -33.853   6.470   1.149  1.00 20.00     0.010 C 
HETATM    5  C6  UNL     1     -31.914   7.700   1.849  1.00 20.00     0.091 C 
HETATM    6  C7  UNL     1     -33.855   6.538   2.674  1.00 20.00    -0.013 C 
HETATM    7  C8  UNL     1     -32.325   6.439   1.059  1.00 20.00     0.000 C 
ENDROOT
BRANCH   5   8
HETATM    8  C1  UNL     1     -31.934   8.908   0.930  1.00 20.00     0.177 C 
HETATM    9  O9  UNL     1     -32.752   9.814   1.248  1.00 20.00    -0.648 OA
HETATM   10  O10 UNL     1     -31.125   8.849  -0.038  1.00 20.00    -0.648 OA
ENDBRANCH   5   8
TORSDOF 1
ENDMDL
MODEL 9
REMARK VINA RESULT:       1.4      3.261      4.146
REMARK  1 active torsions:
REMARK  status: ('A' for Active; 'I' for Inactive)
REMARK    1  A    between atoms: C1_1  and  C6_6 
ROOT
HETATM    1  C2  UNL     1     -33.381   6.155   2.692  1.00 20.00     0.005 C 
HETATM    2  C3  UNL     1     -33.288   7.516   3.401  1.00 20.00     0.006 C 
HETATM    3  C4  UNL     1     -33.114   7.268   0.460  1.00 20.00     0.020 C 
HETATM    4  C5  UNL     1     -31.352   7.222   2.059  1.00 20.00     0.010 C 
HETATM    5  C6  UNL     1     -33.084   8.630   1.175  1.00 20.00     0.091 C 
HETATM    6  C7  UNL     1     -32.446   6.328   1.482  1.00 20.00    -0.013 C 
HETATM    7  C8  UNL     1     -32.338   8.312   2.489  1.00 20.00     0.000 C 
ENDROOT
BRANCH   5   8
HETATM    8  C1  UNL     1     -32.305   9.662   0.383  1.00 20.00     0.177 C 
HETATM    9  O9  UNL     1     -31.550   9.196  -0.514  1.00 20.00    -0.648 OA
HETATM   10  O10 UNL     1     -32.514  10.860   0.725  1.00 20.00    -0.648 OA
ENDBRANCH   5   8
TORSDOF 1
ENDMDL
