MODEL 1
REMARK VINA RESULT:       1.0      0.000      0.000
REMARK  1 active torsions:
REMARK  status: ('A' for Active; 'I' for Inactive)
REMARK    1  A    between atoms: C1_1  and  C3_3 
ROOT
HETATM    1  C2  UNL     1     -31.661   6.690   1.575  1.00 20.00     0.110 C 
HETATM    2  C3  UNL     1     -32.056   8.146   1.957  1.00 20.00     0.110 C 
HETATM    3  C4  UNL     1     -33.115   6.259   1.851  1.00 20.00     0.310 C 
HETATM    4  C5  UNL     1     -33.268   7.527   2.729  1.00 20.00     0.323 C 
HETATM    5  C6  UNL     1     -31.032   8.813   2.874  1.00 20.00     0.031 C 
HETATM    6  F8  UNL     1     -33.263   5.082   2.498  1.00 20.00    -0.200 F 
HETATM    7  F9  UNL     1     -33.920   6.210   0.765  1.00 20.00    -0.200 F 
HETATM    8  F10 UNL     1     -34.443   8.182   2.603  1.00 20.00    -0.198 F 
HETATM    9  F11 UNL     1     -33.082   7.321   4.055  1.00 20.00    -0.198 F 
ENDROOT
BRANCH   2  10
HETATM   10  C1  UNL     1     -32.430   9.070   0.756  1.00 20.00     0.233 C 
HETATM   11  O7  UNL     1     -32.424   8.658  -0.401  1.00 20.00    -0.279 OA
HETATM   12 CL12 UNL     1     -32.834  10.679   1.270  1.00 20.00    -0.043 Cl
ENDBRANCH   2  10
TORSDOF 1
ENDMDL
MODEL 2
REMARK VINA RESULT:       1.1      2.741      3.472
REMARK  1 active torsions:
REMARK  status: ('A' for Active; 'I' for Inactive)
REMARK    1  A    between atoms: C1_1  and  C3_3 
ROOT
HETATM    1  C2  UNL     1     -33.697   8.979   2.382  1.00 20.00     0.110 C 
HETATM    2  C3  UNL     1     -33.116   7.759   3.153  1.00 20.00     0.110 C 
HETATM    3  C4  UNL     1     -32.649   8.738   1.278  1.00 20.00     0.310 C 
HETATM    4  C5  UNL     1     -31.806   7.962   2.323  1.00 20.00     0.323 C 
HETATM    5  C6  UNL     1     -32.935   8.036   4.645  1.00 20.00     0.031 C 
HETATM    6  F8  UNL     1     -32.068   9.848   0.771  1.00 20.00    -0.200 F 
HETATM    7  F9  UNL     1     -33.075   8.005   0.224  1.00 20.00    -0.200 F 
HETATM    8  F10 UNL     1     -31.215   6.834   1.869  1.00 20.00    -0.198 F 
HETATM    9  F11 UNL     1     -30.834   8.693   2.919  1.00 20.00    -0.198 F 
ENDROOT
BRANCH   2  10
HETATM   10  C1  UNL     1     -33.857   6.406   2.913  1.00 20.00     0.233 C 
HETATM   11  O7  UNL     1     -33.432   5.570   2.119  1.00 20.00    -0.279 OA
HETATM   12 CL12 UNL     1     -35.292   6.265   3.881  1.00 20.00    -0.043 Cl
ENDBRANCH   2  10
TORSDOF 1
ENDMDL
MODEL 3
REMARK VINA RESULT:       1.4      2.587      3.530
REMARK  1 active torsions:
REMARK  status: ('A' for Active; 'I' for Inactive)
REMARK    1  A    between atoms: C1_1  and  C3_3 
ROOT
HETATM    1  C2  UNL     1     -32.107   6.818   3.239  1.00 20.00     0.110 C 
HETATM    2  C3  UNL     1     -33.450   6.046   3.086  1.00 20.00     0.110 C 
HETATM    3  C4  UNL     1     -32.291   7.355   1.806  1.00 20.00     0.310 C 
HETATM    4  C5  UNL     1     -33.246   6.163   1.539  1.00 20.00     0.323 C 
HETATM    5  C6  UNL     1     -33.366   4.610   3.600  1.00 20.00     0.031 C 
HETATM    6  F8  UNL     1     -31.174   7.387   1.046  1.00 20.00    -0.200 F 
HETATM    7  F9  UNL     1     -32.860   8.579   1.715  1.00 20.00    -0.200 F 
HETATM    8  F10 UNL     1     -34.352   6.454   0.819  1.00 20.00    -0.198 F 
HETATM    9  F11 UNL     1     -32.664   5.098   0.937  1.00 20.00    -0.198 F 
ENDROOT
BRANCH   2  10
HETATM   10  C1  UNL     1     -34.706   6.779   3.652  1.00 20.00     0.233 C 
HETATM   11  O7  UNL     1     -35.843   6.360   3.451  1.00 20.00    -0.279 OA
HETATM   12 CL12 UNL     1     -34.283   8.199   4.558  1.00 20.00    -0.043 Cl
ENDBRANCH   2  10
TORSDOF 1
ENDMDL
MODEL 4
REMARK VINA RESULT:       1.5      3.105      3.964
REMARK  1 active torsions:
REMARK  status: ('A' for Active; 'I' for Inactive)
REMARK    1  A    between atoms: C1_1  and  C3_3 
ROOT
HETATM    1  C2  UNL     1     -33.879   6.884   1.649  1.00 20.00     0.110 C 
HETATM    2  C3  UNL     1     -34.112   6.340   3.087  1.00 20.00     0.110 C 
HETATM    3  C4  UNL     1     -32.716   7.736   2.196  1.00 20.00     0.310 C 
HETATM    4  C5  UNL     1     -33.356   7.609   3.603  1.00 20.00     0.323 C 
HETATM    5  C6  UNL     1     -35.590   6.318   3.476  1.00 20.00     0.031 C 
HETATM    6  F8  UNL     1     -32.632   8.993   1.707  1.00 20.00    -0.200 F 
HETATM    7  F9  UNL     1     -31.487   7.186   2.072  1.00 20.00    -0.200 F 
HETATM    8  F10 UNL     1     -32.489   7.406   4.619  1.00 20.00    -0.198 F 
HETATM    9  F11 UNL     1     -34.135   8.656   3.964  1.00 20.00    -0.198 F 
ENDROOT
BRANCH   2  10
HETATM   10  C1  UNL     1     -33.422   4.976   3.403  1.00 20.00     0.233 C 
HETATM   11  O7  UNL     1     -32.437   4.592   2.777  1.00 20.00    -0.279 OA
HETATM   12 CL12 UNL     1     -34.208   4.129   4.699  1.00 20.00    -0.043 Cl
ENDBRANCH   2  10
TORSDOF 1
ENDMDL
MODEL 5
REMARK VINA RESULT:       1.5      1.865      2.790
REMARK  1 active torsions:
REMARK  status: ('A' for Active; 'I' for Inactive)
REMARK    1  A    between atoms: C1_1  and  C3_3 
ROOT
HETATM    1  C2  UNL     1     -34.495   6.810   1.821  1.00 20.00     0.110 C 
HETATM    2  C3  UNL     1     -32.993   6.673   2.201  1.00 20.00     0.110 C 
HETATM    3  C4  UNL     1     -34.829   6.928   3.321  1.00 20.00     0.310 C 
HETATM    4  C5  UNL     1     -33.477   6.232   3.622  1.00 20.00     0.323 C 
HETATM    5  C6  UNL     1     -32.290   5.557   1.429  1.00 20.00     0.031 C 
HETATM    6  F8  UNL     1     -35.930   6.260   3.729  1.00 20.00    -0.200 F 
HETATM    7  F9  UNL     1     -34.943   8.191   3.792  1.00 20.00    -0.200 F 
HETATM    8  F10 UNL     1     -32.782   6.740   4.664  1.00 20.00    -0.198 F 
HETATM    9  F11 UNL     1     -33.564   4.897   3.831  1.00 20.00    -0.198 F 
ENDROOT
BRANCH   2  10
HETATM   10  C1  UNL     1     -32.171   7.999   2.155  1.00 20.00     0.233 C 
HETATM   11  O7  UNL     1     -31.487   8.367   3.107  1.00 20.00    -0.279 OA
HETATM   12 CL12 UNL     1     -32.356   8.832   0.642  1.00 20.00    -0.043 Cl
ENDBRANCH   2  10
TORSDOF 1
ENDMDL
MODEL 6
REMARK VINA RESULT:       1.9      2.339      2.782
REMARK  1 active torsions:
REMARK  status: ('A' for Active; 'I' for Inactive)
REMARK    1  A    between atoms: C1_1  and  C3_3 
ROOT
HETATM    1  C2  UNL     1     -32.998   5.502   4.326  1.00 20.00     0.110 C 
HETATM    2  C3  UNL     1     -33.425   6.746   3.496  1.00 20.00     0.110 C 
HETATM    3  C4  UNL     1     -34.349   4.847   3.976  1.00 20.00     0.310 C 
HETATM    4  C5  UNL     1     -34.902   6.266   3.688  1.00 20.00     0.323 C 
HETATM    5  C6  UNL     1     -33.121   8.063   4.209  1.00 20.00     0.031 C 
HETATM    6  F8  UNL     1     -34.955   4.181   4.984  1.00 20.00    -0.200 F 
HETATM    7  F9  UNL     1     -34.329   4.011   2.913  1.00 20.00    -0.200 F 
HETATM    8  F10 UNL     1     -35.701   6.369   2.602  1.00 20.00    -0.198 F 
HETATM    9  F11 UNL     1     -35.578   6.828   4.718  1.00 20.00    -0.198 F 
ENDROOT
BRANCH   2  10
HETATM   10  C1  UNL     1     -32.916   6.768   2.021  1.00 20.00     0.233 C 
HETATM   11  O7  UNL     1     -33.019   5.788   1.288  1.00 20.00    -0.279 OA
HETATM   12 CL12 UNL     1     -32.219   8.301   1.592  1.00 20.00    -0.043 Cl
ENDBRANCH   2  10
TORSDOF 1
ENDMDL
MODEL 7
REMARK VINA RESULT:       2.0      2.512      3.110
REMARK  1 active torsions:
REMARK  status: ('A' for Active; 'I' for Inactive)
REMARK    1  A    between atoms: C1_1  and  C3_3 
ROOT
HETATM    1  C2  UNL     1     -32.950   5.258   2.830  1.00 20.00     0.110 C 
HETATM    2  C3  UNL     1     -33.613   6.666   2.809  1.00 20.00     0.110 C 
HETATM    3  C4  UNL     1     -32.299   5.581   1.471  1.00 20.00     0.310 C 
HETATM    4  C5  UNL     1     -33.399   6.653   1.259  1.00 20.00     0.323 C 
HETATM    5  C6  UNL     1     -35.085   6.630   3.215  1.00 20.00     0.031 C 
HETATM    6  F8  UNL     1     -32.289   4.572   0.573  1.00 20.00    -0.200 F 
HETATM    7  F9  UNL     1     -31.035   6.058   1.533  1.00 20.00    -0.200 F 
HETATM    8  F10 UNL     1     -32.978   7.816   0.713  1.00 20.00    -0.198 F 
HETATM    9  F11 UNL     1     -34.454   6.239   0.519  1.00 20.00    -0.198 F 
ENDROOT
BRANCH   2  10
HETATM   10  C1  UNL     1     -32.837   7.778   3.582  1.00 20.00     0.233 C 
HETATM   11  O7  UNL     1     -31.857   8.337   3.096  1.00 20.00    -0.279 OA
HETATM   12 CL12 UNL     1     -33.526   8.090   5.145  1.00 20.00    -0.043 Cl
ENDBRANCH   2  10
TORSDOF 1
ENDMDL
MODEL 8
REMARK VINA RESULT:       2.0      2.317      3.355
REMARK  1 active torsions:
REMARK  status: ('A' for Active; 'I' for Inactive)
REMARK    1  A    between atoms: C1_1  and  C3_3 
ROOT
HETATM    1  C2  UNL     1     -33.823   8.049   2.515  1.00 20.00     0.110 C 
HETATM    2  C3  UNL     1     -33.513   6.609   2.014  1.00 20.00     0.110 C 
HETATM    3  C4  UNL     1     -33.718   7.532   3.963  1.00 20.00     0.310 C 
HETATM    4  C5  UNL     1     -33.989   6.106   3.417  1.00 20.00     0.323 C 
HETATM    5  C6  UNL     1     -34.430   6.171   0.873  1.00 20.00     0.031 C 
HETATM    6  F8  UNL     1     -34.642   8.011   4.824  1.00 20.00    -0.200 F 
HETATM    7  F9  UNL     1     -32.512   7.702   4.553  1.00 20.00    -0.200 F 
HETATM    8  F10 UNL     1     -33.248   5.121   3.972  1.00 20.00    -0.198 F 
HETATM    9  F11 UNL     1     -35.281   5.708   3.497  1.00 20.00    -0.198 F 
ENDROOT
BRANCH   2  10
HETATM   10  C1  UNL     1     -32.015   6.330   1.677  1.00 20.00     0.233 C 
HETATM   11  O7  UNL     1     -31.601   5.193   1.465  1.00 20.00    -0.279 OA
HETATM   12 CL12 UNL     1     -31.069   7.787   1.648  1.00 20.00    -0.043 Cl
ENDBRANCH   2  10
TORSDOF 1
ENDMDL
MODEL 9
REMARK VINA RESULT:       2.2      2.891      3.782
REMARK  1 active torsions:
REMARK  status: ('A' for Active; 'I' for Inactive)
REMARK    1  A    between atoms: C1_1  and  C3_3 
ROOT
HETATM    1  C2  UNL     1     -31.641   6.438   1.771  1.00 20.00     0.110 C 
HETATM    2  C3  UNL     1     -33.186   6.607   1.830  1.00 20.00     0.110 C 
HETATM    3  C4  UNL     1     -31.502   7.967   1.917  1.00 20.00     0.310 C 
HETATM    4  C5  UNL     1     -32.959   8.094   1.401  1.00 20.00     0.323 C 
HETATM    5  C6  UNL     1     -33.911   5.777   0.771  1.00 20.00     0.031 C 
HETATM    6  F8  UNL     1     -30.558   8.545   1.143  1.00 20.00    -0.200 F 
HETATM    7  F9  UNL     1     -31.298   8.412   3.178  1.00 20.00    -0.200 F 
HETATM    8  F10 UNL     1     -33.721   9.013   2.034  1.00 20.00    -0.198 F 
HETATM    9  F11 UNL     1     -33.067   8.352   0.076  1.00 20.00    -0.198 F 
ENDROOT
BRANCH   2  10
HETATM   10  C1  UNL     1     -33.824   6.408   3.240  1.00 20.00     0.233 C 
HETATM   11  O7  UNL     1     -34.176   7.362   3.930  1.00 20.00    -0.279 OA
HETATM   12 CL12 UNL     1     -33.955   4.730   3.669  1.00 20.00    -0.043 Cl
ENDBRANCH   2  10
TORSDOF 1
ENDMDL
