MODEL 1
REMARK VINA RESULT:      -0.9      0.000      0.000
REMARK  2 active torsions:
REMARK  status: ('A' for Active; 'I' for Inactive)
REMARK    1  A    between atoms: C7_7  and  O9_9 
REMARK    2  A    between atoms: C8_8  and  O9_9 
ROOT
HETATM    1  C1  UNL     1     -33.530   3.241   4.535  1.00 20.00     0.015 C 
HETATM    2  C2  UNL     1     -33.846   4.253   3.972  1.00 20.00    -0.086 C 
HETATM    3  C3  UNL     1     -35.319   6.230   4.044  1.00 20.00     0.053 C 
HETATM    4  C7  UNL     1     -34.234   5.488   3.278  1.00 20.00     0.196 C 
ENDROOT
BRANCH   4   5
HETATM    5  O9  UNL     1     -33.097   6.326   3.150  1.00 20.00    -0.364 OA
BRANCH   5   6
HETATM    6  C8  UNL     1     -32.656   6.397   1.795  1.00 20.00     0.051 C 
HETATM    7  C4  UNL     1     -33.871   6.248   0.879  1.00 20.00     0.045 C 
HETATM    8  C5  UNL     1     -31.998   7.761   1.595  1.00 20.00     0.045 C 
HETATM    9  C6  UNL     1     -31.649   5.274   1.551  1.00 20.00     0.045 C 
ENDBRANCH   5   6
ENDBRANCH   4   5
TORSDOF 2
ENDMDL
MODEL 2
REMARK VINA RESULT:      -0.9      0.024      1.455
REMARK  2 active torsions:
REMARK  status: ('A' for Active; 'I' for Inactive)
REMARK    1  A    between atoms: C7_7  and  O9_9 
REMARK    2  A    between atoms: C8_8  and  O9_9 
ROOT
HETATM    1  C1  UNL     1     -33.550   3.256   4.534  1.00 20.00     0.015 C 
HETATM    2  C2  UNL     1     -33.861   4.268   3.967  1.00 20.00    -0.086 C 
HETATM    3  C3  UNL     1     -35.329   6.249   4.028  1.00 20.00     0.053 C 
HETATM    4  C7  UNL     1     -34.241   5.503   3.269  1.00 20.00     0.196 C 
ENDROOT
BRANCH   4   5
HETATM    5  O9  UNL     1     -33.100   6.337   3.147  1.00 20.00    -0.364 OA
BRANCH   5   6
HETATM    6  C8  UNL     1     -32.665   6.424   1.791  1.00 20.00     0.051 C 
HETATM    7  C4  UNL     1     -31.990   7.781   1.582  1.00 20.00     0.045 C 
HETATM    8  C5  UNL     1     -31.673   5.289   1.551  1.00 20.00     0.045 C 
HETATM    9  C6  UNL     1     -33.882   6.275   0.879  1.00 20.00     0.045 C 
ENDBRANCH   5   6
ENDBRANCH   4   5
TORSDOF 2
ENDMDL
MODEL 3
REMARK VINA RESULT:      -0.4      1.163      3.538
REMARK  2 active torsions:
REMARK  status: ('A' for Active; 'I' for Inactive)
REMARK    1  A    between atoms: C7_7  and  O9_9 
REMARK    2  A    between atoms: C8_8  and  O9_9 
ROOT
HETATM    1  C1  UNL     1     -31.747   4.696   0.635  1.00 20.00     0.015 C 
HETATM    2  C2  UNL     1     -32.091   5.618   1.324  1.00 20.00    -0.086 C 
HETATM    3  C3  UNL     1     -32.014   8.067   1.609  1.00 20.00     0.053 C 
HETATM    4  C7  UNL     1     -32.510   6.742   2.171  1.00 20.00     0.196 C 
ENDROOT
BRANCH   4   5
HETATM    5  O9  UNL     1     -33.926   6.767   2.244  1.00 20.00    -0.364 OA
BRANCH   5   6
HETATM    6  C8  UNL     1     -34.381   6.483   3.567  1.00 20.00     0.051 C 
HETATM    7  C4  UNL     1     -33.801   7.531   4.517  1.00 20.00     0.045 C 
HETATM    8  C5  UNL     1     -35.906   6.556   3.554  1.00 20.00     0.045 C 
HETATM    9  C6  UNL     1     -33.914   5.080   3.951  1.00 20.00     0.045 C 
ENDBRANCH   5   6
ENDBRANCH   4   5
TORSDOF 2
ENDMDL
MODEL 4
REMARK VINA RESULT:      -0.3      1.333      3.892
REMARK  2 active torsions:
REMARK  status: ('A' for Active; 'I' for Inactive)
REMARK    1  A    between atoms: C7_7  and  O9_9 
REMARK    2  A    between atoms: C8_8  and  O9_9 
ROOT
HETATM    1  C1  UNL     1     -31.598   8.408   1.803  1.00 20.00     0.015 C 
HETATM    2  C2  UNL     1     -32.317   7.445   1.812  1.00 20.00    -0.086 C 
HETATM    3  C3  UNL     1     -32.617   5.140   0.986  1.00 20.00     0.053 C 
HETATM    4  C7  UNL     1     -33.199   6.272   1.822  1.00 20.00     0.196 C 
ENDROOT
BRANCH   4   5
HETATM    5  O9  UNL     1     -33.366   5.827   3.158  1.00 20.00    -0.364 OA
BRANCH   5   6
HETATM    6  C8  UNL     1     -34.521   6.412   3.759  1.00 20.00     0.051 C 
HETATM    7  C4  UNL     1     -35.450   6.903   2.649  1.00 20.00     0.045 C 
HETATM    8  C5  UNL     1     -35.205   5.331   4.592  1.00 20.00     0.045 C 
HETATM    9  C6  UNL     1     -34.072   7.571   4.647  1.00 20.00     0.045 C 
ENDBRANCH   5   6
ENDBRANCH   4   5
TORSDOF 2
ENDMDL
MODEL 5
REMARK VINA RESULT:      -0.1      1.876      3.249
REMARK  2 active torsions:
REMARK  status: ('A' for Active; 'I' for Inactive)
REMARK    1  A    between atoms: C7_7  and  O9_9 
REMARK    2  A    between atoms: C8_8  and  O9_9 
ROOT
HETATM    1  C1  UNL     1     -34.820   6.538   3.894  1.00 20.00     0.015 C 
HETATM    2  C2  UNL     1     -33.918   6.625   3.105  1.00 20.00    -0.086 C 
HETATM    3  C3  UNL     1     -32.596   5.422   1.406  1.00 20.00     0.053 C 
HETATM    4  C7  UNL     1     -32.813   6.735   2.145  1.00 20.00     0.196 C 
ENDROOT
BRANCH   4   5
HETATM    5  O9  UNL     1     -33.114   7.755   1.206  1.00 20.00    -0.364 OA
BRANCH   5   6
HETATM    6  C8  UNL     1     -32.091   8.750   1.177  1.00 20.00     0.051 C 
HETATM    7  C4  UNL     1     -31.335   8.710   2.506  1.00 20.00     0.045 C 
HETATM    8  C5  UNL     1     -31.155   8.415   0.017  1.00 20.00     0.045 C 
HETATM    9  C6  UNL     1     -32.745  10.113   0.962  1.00 20.00     0.045 C 
ENDBRANCH   5   6
ENDBRANCH   4   5
TORSDOF 2
ENDMDL
MODEL 6
REMARK VINA RESULT:      -0.1      1.888      3.034
REMARK  2 active torsions:
REMARK  status: ('A' for Active; 'I' for Inactive)
REMARK    1  A    between atoms: C7_7  and  O9_9 
REMARK    2  A    between atoms: C8_8  and  O9_9 
ROOT
HETATM    1  C1  UNL     1     -34.839   6.550   3.883  1.00 20.00     0.015 C 
HETATM    2  C2  UNL     1     -33.932   6.644   3.102  1.00 20.00    -0.086 C 
HETATM    3  C3  UNL     1     -32.580   5.446   1.422  1.00 20.00     0.053 C 
HETATM    4  C7  UNL     1     -32.820   6.761   2.150  1.00 20.00     0.196 C 
ENDROOT
BRANCH   4   5
HETATM    5  O9  UNL     1     -33.124   7.771   1.202  1.00 20.00    -0.364 OA
BRANCH   5   6
HETATM    6  C8  UNL     1     -32.105   8.770   1.164  1.00 20.00     0.051 C 
HETATM    7  C4  UNL     1     -32.768  10.133   0.963  1.00 20.00     0.045 C 
HETATM    8  C5  UNL     1     -31.366   8.725   2.499  1.00 20.00     0.045 C 
HETATM    9  C6  UNL     1     -31.154   8.450   0.012  1.00 20.00     0.045 C 
ENDBRANCH   5   6
ENDBRANCH   4   5
TORSDOF 2
ENDMDL
MODEL 7
REMARK VINA RESULT:       0.1      1.418      4.250
REMARK  2 active torsions:
REMARK  status: ('A' for Active; 'I' for Inactive)
REMARK    1  A    between atoms: C7_7  and  O9_9 
REMARK    2  A    between atoms: C8_8  and  O9_9 
ROOT
HETATM    1  C1  UNL     1     -32.448   9.921  -0.044  1.00 20.00     0.015 C 
HETATM    2  C2  UNL     1     -32.257   9.053   0.763  1.00 20.00    -0.086 C 
HETATM    3  C3  UNL     1     -31.581   8.565   3.085  1.00 20.00     0.053 C 
HETATM    4  C7  UNL     1     -32.020   7.989   1.746  1.00 20.00     0.196 C 
ENDROOT
BRANCH   4   5
HETATM    5  O9  UNL     1     -33.215   7.248   1.927  1.00 20.00    -0.364 OA
BRANCH   5   6
HETATM    6  C8  UNL     1     -32.995   5.851   1.730  1.00 20.00     0.051 C 
HETATM    7  C4  UNL     1     -31.492   5.613   1.577  1.00 20.00     0.045 C 
HETATM    8  C5  UNL     1     -33.531   5.123   2.960  1.00 20.00     0.045 C 
HETATM    9  C6  UNL     1     -33.746   5.412   0.475  1.00 20.00     0.045 C 
ENDBRANCH   5   6
ENDBRANCH   4   5
TORSDOF 2
ENDMDL
MODEL 8
REMARK VINA RESULT:       0.2      1.213      2.058
REMARK  2 active torsions:
REMARK  status: ('A' for Active; 'I' for Inactive)
REMARK    1  A    between atoms: C7_7  and  O9_9 
REMARK    2  A    between atoms: C8_8  and  O9_9 
ROOT
HETATM    1  C1  UNL     1     -35.642   5.016   4.721  1.00 20.00     0.015 C 
HETATM    2  C2  UNL     1     -34.961   5.791   4.107  1.00 20.00    -0.086 C 
HETATM    3  C3  UNL     1     -33.818   7.976   4.180  1.00 20.00     0.053 C 
HETATM    4  C7  UNL     1     -34.131   6.738   3.351  1.00 20.00     0.196 C 
ENDROOT
BRANCH   4   5
HETATM    5  O9  UNL     1     -32.918   6.103   2.984  1.00 20.00    -0.364 OA
BRANCH   5   6
HETATM    6  C8  UNL     1     -32.599   6.346   1.614  1.00 20.00     0.051 C 
HETATM    7  C4  UNL     1     -31.906   7.705   1.510  1.00 20.00     0.045 C 
HETATM    8  C5  UNL     1     -31.664   5.230   1.153  1.00 20.00     0.045 C 
HETATM    9  C6  UNL     1     -33.894   6.331   0.804  1.00 20.00     0.045 C 
ENDBRANCH   5   6
ENDBRANCH   4   5
TORSDOF 2
ENDMDL
MODEL 9
REMARK VINA RESULT:       0.2      1.214      1.436
REMARK  2 active torsions:
REMARK  status: ('A' for Active; 'I' for Inactive)
REMARK    1  A    between atoms: C7_7  and  O9_9 
REMARK    2  A    between atoms: C8_8  and  O9_9 
ROOT
HETATM    1  C1  UNL     1     -35.639   5.020   4.717  1.00 20.00     0.015 C 
HETATM    2  C2  UNL     1     -34.956   5.794   4.104  1.00 20.00    -0.086 C 
HETATM    3  C3  UNL     1     -33.813   7.979   4.179  1.00 20.00     0.053 C 
HETATM    4  C7  UNL     1     -34.125   6.741   3.350  1.00 20.00     0.196 C 
ENDROOT
BRANCH   4   5
HETATM    5  O9  UNL     1     -32.910   6.105   2.987  1.00 20.00    -0.364 OA
BRANCH   5   6
HETATM    6  C8  UNL     1     -32.596   6.332   1.613  1.00 20.00     0.051 C 
HETATM    7  C4  UNL     1     -33.899   6.337   0.812  1.00 20.00     0.045 C 
HETATM    8  C5  UNL     1     -31.901   7.688   1.517  1.00 20.00     0.045 C 
HETATM    9  C6  UNL     1     -31.668   5.217   1.136  1.00 20.00     0.045 C 
ENDBRANCH   5   6
ENDBRANCH   4   5
TORSDOF 2
ENDMDL
