MODEL 1
REMARK VINA RESULT:      -2.5      0.000      0.000
REMARK  3 active torsions:
REMARK  status: ('A' for Active; 'I' for Inactive)
REMARK    1  A    between atoms: C4_4  and  C5_5 
REMARK    2  A    between atoms: C4_4  and  C6_6 
REMARK    3  A    between atoms: C5_5  and  N7_7 
ROOT
HETATM    1  C1  UNL     1     -32.127   8.640   1.083  1.00 20.00     0.157 C 
HETATM    2  N7  UNL     1     -31.854   7.688   1.714  1.00 20.00    -0.276 NA
HETATM    3  S8  UNL     1     -32.474   9.945   0.238  1.00 20.00    -0.055 SA
ENDROOT
BRANCH   2   4
HETATM    4  C5  UNL     1     -32.746   6.543   1.520  1.00 20.00     0.151 C 
BRANCH   4   5
HETATM    5  C4  UNL     1     -33.245   6.038   2.870  1.00 20.00     0.026 C 
BRANCH   5   6
HETATM    6  C6  UNL     1     -34.378   6.873   3.499  1.00 20.00    -0.021 C 
HETATM    7  C2  UNL     1     -35.394   5.944   4.170  1.00 20.00     0.009 C 
HETATM    8  C3  UNL     1     -33.860   7.890   4.517  1.00 20.00     0.009 C 
ENDBRANCH   5   6
ENDBRANCH   4   5
ENDBRANCH   2   4
TORSDOF 3
ENDMDL
MODEL 2
REMARK VINA RESULT:      -2.2      0.947      1.453
REMARK  3 active torsions:
REMARK  status: ('A' for Active; 'I' for Inactive)
REMARK    1  A    between atoms: C4_4  and  C5_5 
REMARK    2  A    between atoms: C4_4  and  C6_6 
REMARK    3  A    between atoms: C5_5  and  N7_7 
ROOT
HETATM    1  C1  UNL     1     -32.244   8.775   1.192  1.00 20.00     0.157 C 
HETATM    2  N7  UNL     1     -32.070   7.990   2.049  1.00 20.00    -0.276 NA
HETATM    3  S8  UNL     1     -32.477   9.860   0.050  1.00 20.00    -0.055 SA
ENDROOT
BRANCH   2   4
HETATM    4  C5  UNL     1     -32.107   6.591   1.622  1.00 20.00     0.151 C 
BRANCH   4   5
HETATM    5  C4  UNL     1     -33.466   5.981   1.951  1.00 20.00     0.026 C 
BRANCH   5   6
HETATM    6  C6  UNL     1     -33.758   5.817   3.455  1.00 20.00    -0.021 C 
HETATM    7  C2  UNL     1     -34.978   6.659   3.840  1.00 20.00     0.009 C 
HETATM    8  C3  UNL     1     -33.994   4.358   3.850  1.00 20.00     0.009 C 
ENDBRANCH   5   6
ENDBRANCH   4   5
ENDBRANCH   2   4
TORSDOF 3
ENDMDL
MODEL 3
REMARK VINA RESULT:      -2.1      0.498      1.346
REMARK  3 active torsions:
REMARK  status: ('A' for Active; 'I' for Inactive)
REMARK    1  A    between atoms: C4_4  and  C5_5 
REMARK    2  A    between atoms: C4_4  and  C6_6 
REMARK    3  A    between atoms: C5_5  and  N7_7 
ROOT
HETATM    1  C1  UNL     1     -32.030   8.735   1.074  1.00 20.00     0.157 C 
HETATM    2  N7  UNL     1     -31.632   7.898   1.795  1.00 20.00    -0.276 NA
HETATM    3  S8  UNL     1     -32.550   9.888   0.105  1.00 20.00    -0.055 SA
ENDROOT
BRANCH   2   4
HETATM    4  C5  UNL     1     -32.346   6.623   1.715  1.00 20.00     0.151 C 
BRANCH   4   5
HETATM    5  C4  UNL     1     -33.785   6.802   2.189  1.00 20.00     0.026 C 
BRANCH   5   6
HETATM    6  C6  UNL     1     -34.000   6.609   3.703  1.00 20.00    -0.021 C 
HETATM    7  C2  UNL     1     -33.843   7.951   4.423  1.00 20.00     0.009 C 
HETATM    8  C3  UNL     1     -35.369   6.007   4.028  1.00 20.00     0.009 C 
ENDBRANCH   5   6
ENDBRANCH   4   5
ENDBRANCH   2   4
TORSDOF 3
ENDMDL
MODEL 4
REMARK VINA RESULT:      -2.0      1.098      1.268
REMARK  3 active torsions:
REMARK  status: ('A' for Active; 'I' for Inactive)
REMARK    1  A    between atoms: C4_4  and  C5_5 
REMARK    2  A    between atoms: C4_4  and  C6_6 
REMARK    3  A    between atoms: C5_5  and  N7_7 
ROOT
HETATM    1  C1  UNL     1     -32.113   8.826   1.010  1.00 20.00     0.157 C 
HETATM    2  N7  UNL     1     -31.782   7.964   1.736  1.00 20.00    -0.276 NA
HETATM    3  S8  UNL     1     -32.535   9.994   0.013  1.00 20.00    -0.055 SA
ENDROOT
BRANCH   2   4
HETATM    4  C5  UNL     1     -32.818   7.507   2.664  1.00 20.00     0.151 C 
BRANCH   4   5
HETATM    5  C4  UNL     1     -33.161   6.048   2.384  1.00 20.00     0.026 C 
BRANCH   5   6
HETATM    6  C6  UNL     1     -34.357   5.495   3.184  1.00 20.00    -0.021 C 
HETATM    7  C2  UNL     1     -33.909   4.294   4.022  1.00 20.00     0.009 C 
HETATM    8  C3  UNL     1     -34.990   6.550   4.094  1.00 20.00     0.009 C 
ENDBRANCH   5   6
ENDBRANCH   4   5
ENDBRANCH   2   4
TORSDOF 3
ENDMDL
MODEL 5
REMARK VINA RESULT:      -1.8      3.411      4.636
REMARK  3 active torsions:
REMARK  status: ('A' for Active; 'I' for Inactive)
REMARK    1  A    between atoms: C4_4  and  C5_5 
REMARK    2  A    between atoms: C4_4  and  C6_6 
REMARK    3  A    between atoms: C5_5  and  N7_7 
ROOT
HETATM    1  C1  UNL     1     -34.527   4.527   4.418  1.00 20.00     0.157 C 
HETATM    2  N7  UNL     1     -35.311   5.398   4.497  1.00 20.00    -0.276 NA
HETATM    3  S8  UNL     1     -33.478   3.332   4.332  1.00 20.00    -0.055 SA
ENDROOT
BRANCH   2   4
HETATM    4  C5  UNL     1     -35.116   6.492   3.544  1.00 20.00     0.151 C 
BRANCH   4   5
HETATM    5  C4  UNL     1     -33.633   6.832   3.439  1.00 20.00     0.026 C 
BRANCH   5   6
HETATM    6  C6  UNL     1     -33.094   6.954   1.999  1.00 20.00    -0.021 C 
HETATM    7  C2  UNL     1     -31.998   8.022   1.946  1.00 20.00     0.009 C 
HETATM    8  C3  UNL     1     -32.548   5.629   1.465  1.00 20.00     0.009 C 
ENDBRANCH   5   6
ENDBRANCH   4   5
ENDBRANCH   2   4
TORSDOF 3
ENDMDL
MODEL 6
REMARK VINA RESULT:      -1.6      3.371      4.476
REMARK  3 active torsions:
REMARK  status: ('A' for Active; 'I' for Inactive)
REMARK    1  A    between atoms: C4_4  and  C5_5 
REMARK    2  A    between atoms: C4_4  and  C6_6 
REMARK    3  A    between atoms: C5_5  and  N7_7 
ROOT
HETATM    1  C1  UNL     1     -34.441   4.609   4.304  1.00 20.00     0.157 C 
HETATM    2  N7  UNL     1     -35.133   5.549   4.174  1.00 20.00    -0.276 NA
HETATM    3  S8  UNL     1     -33.525   3.317   4.477  1.00 20.00    -0.055 SA
ENDROOT
BRANCH   2   4
HETATM    4  C5  UNL     1     -34.437   6.836   4.191  1.00 20.00     0.151 C 
BRANCH   4   5
HETATM    5  C4  UNL     1     -34.084   7.256   2.768  1.00 20.00     0.026 C 
BRANCH   5   6
HETATM    6  C6  UNL     1     -32.639   6.940   2.335  1.00 20.00    -0.021 C 
HETATM    7  C2  UNL     1     -32.637   5.755   1.366  1.00 20.00     0.009 C 
HETATM    8  C3  UNL     1     -31.948   8.139   1.684  1.00 20.00     0.009 C 
ENDBRANCH   5   6
ENDBRANCH   4   5
ENDBRANCH   2   4
TORSDOF 3
ENDMDL
MODEL 7
REMARK VINA RESULT:      -1.3      3.583      4.546
REMARK  3 active torsions:
REMARK  status: ('A' for Active; 'I' for Inactive)
REMARK    1  A    between atoms: C4_4  and  C5_5 
REMARK    2  A    between atoms: C4_4  and  C6_6 
REMARK    3  A    between atoms: C5_5  and  N7_7 
ROOT
HETATM    1  C1  UNL     1     -34.359   4.149   4.517  1.00 20.00     0.157 C 
HETATM    2  N7  UNL     1     -35.321   4.820   4.452  1.00 20.00    -0.276 NA
HETATM    3  S8  UNL     1     -33.071   3.217   4.610  1.00 20.00    -0.055 SA
ENDROOT
BRANCH   2   4
HETATM    4  C5  UNL     1     -35.072   6.229   4.142  1.00 20.00     0.151 C 
BRANCH   4   5
HETATM    5  C4  UNL     1     -33.940   6.346   3.127  1.00 20.00     0.026 C 
BRANCH   5   6
HETATM    6  C6  UNL     1     -33.294   7.743   3.031  1.00 20.00    -0.021 C 
HETATM    7  C2  UNL     1     -32.847   8.203   4.421  1.00 20.00     0.009 C 
HETATM    8  C3  UNL     1     -32.103   7.773   2.071  1.00 20.00     0.009 C 
ENDBRANCH   5   6
ENDBRANCH   4   5
ENDBRANCH   2   4
TORSDOF 3
ENDMDL
MODEL 8
REMARK VINA RESULT:      -1.0      2.438      4.167
REMARK  3 active torsions:
REMARK  status: ('A' for Active; 'I' for Inactive)
REMARK    1  A    between atoms: C4_4  and  C5_5 
REMARK    2  A    between atoms: C4_4  and  C6_6 
REMARK    3  A    between atoms: C5_5  and  N7_7 
ROOT
HETATM    1  C1  UNL     1     -33.593   6.360   2.647  1.00 20.00     0.157 C 
HETATM    2  N7  UNL     1     -32.876   6.174   1.736  1.00 20.00    -0.276 NA
HETATM    3  S8  UNL     1     -34.580   6.589   3.876  1.00 20.00    -0.055 SA
ENDROOT
BRANCH   2   4
HETATM    4  C5  UNL     1     -31.825   7.177   1.562  1.00 20.00     0.151 C 
BRANCH   4   5
HETATM    5  C4  UNL     1     -32.408   8.576   1.730  1.00 20.00     0.026 C 
BRANCH   5   6
HETATM    6  C6  UNL     1     -32.076   9.560   0.590  1.00 20.00    -0.021 C 
HETATM    7  C2  UNL     1     -32.477   8.947  -0.755  1.00 20.00     0.009 C 
HETATM    8  C3  UNL     1     -32.767  10.913   0.765  1.00 20.00     0.009 C 
ENDBRANCH   5   6
ENDBRANCH   4   5
ENDBRANCH   2   4
TORSDOF 3
ENDMDL
MODEL 9
REMARK VINA RESULT:      -1.0      2.445      4.316
REMARK  3 active torsions:
REMARK  status: ('A' for Active; 'I' for Inactive)
REMARK    1  A    between atoms: C4_4  and  C5_5 
REMARK    2  A    between atoms: C4_4  and  C6_6 
REMARK    3  A    between atoms: C5_5  and  N7_7 
ROOT
HETATM    1  C1  UNL     1     -33.699   6.352   2.694  1.00 20.00     0.157 C 
HETATM    2  N7  UNL     1     -32.981   6.182   1.780  1.00 20.00    -0.276 NA
HETATM    3  S8  UNL     1     -34.689   6.562   3.924  1.00 20.00    -0.055 SA
ENDROOT
BRANCH   2   4
HETATM    4  C5  UNL     1     -31.813   7.063   1.741  1.00 20.00     0.151 C 
BRANCH   4   5
HETATM    5  C4  UNL     1     -32.260   8.522   1.755  1.00 20.00     0.026 C 
BRANCH   5   6
HETATM    6  C6  UNL     1     -32.377   9.180   0.366  1.00 20.00    -0.021 C 
HETATM    7  C2  UNL     1     -32.703  10.668   0.525  1.00 20.00     0.009 C 
HETATM    8  C3  UNL     1     -31.105   9.018  -0.468  1.00 20.00     0.009 C 
ENDBRANCH   5   6
ENDBRANCH   4   5
ENDBRANCH   2   4
TORSDOF 3
ENDMDL
