MODEL 1
REMARK VINA RESULT:      -2.5      0.000      0.000
REMARK  4 active torsions:
REMARK  status: ('A' for Active; 'I' for Inactive)
REMARK    1  A    between atoms: C1_1  and  C4_4 
REMARK    2  A    between atoms: C2_2  and  C6_6 
REMARK    3  A    between atoms: C6_6  and  C7_7 
REMARK    4  A    between atoms: C7_7  and  O8_8 
ROOT
HETATM    1  C1  UNL     1     -33.331   6.849   2.615  1.00 20.00    -0.072 C 
HETATM    2  C2  UNL     1     -32.631   7.529   1.915  1.00 20.00    -0.099 C 
ENDROOT
BRANCH   2   3
HETATM    3  C6  UNL     1     -31.773   8.362   1.058  1.00 20.00     0.120 C 
BRANCH   3   4
HETATM    4  C7  UNL     1     -32.461   9.667   0.680  1.00 20.00     0.176 C 
BRANCH   4   5
HETATM    5  O8  UNL     1     -32.817   9.637  -0.697  1.00 20.00    -0.400 OA
HETATM    6  H18 UNL     1     -33.577  10.231  -0.801  1.00 20.00     0.209 HD
ENDBRANCH   4   5
ENDBRANCH   3   4
ENDBRANCH   2   3
BRANCH   1   7
HETATM    7  C4  UNL     1     -34.163   6.039   3.443  1.00 20.00    -0.018 C 
HETATM    8  C3  UNL     1     -35.255   6.578   4.006  1.00 20.00     0.028 C 
HETATM    9  C5  UNL     1     -33.791   4.601   3.660  1.00 20.00     0.057 C 
ENDBRANCH   1   7
TORSDOF 4
ENDMDL
MODEL 2
REMARK VINA RESULT:      -2.4      0.352      1.285
REMARK  4 active torsions:
REMARK  status: ('A' for Active; 'I' for Inactive)
REMARK    1  A    between atoms: C1_1  and  C4_4 
REMARK    2  A    between atoms: C2_2  and  C6_6 
REMARK    3  A    between atoms: C6_6  and  C7_7 
REMARK    4  A    between atoms: C7_7  and  O8_8 
ROOT
HETATM    1  C1  UNL     1     -33.131   7.080   2.456  1.00 20.00    -0.072 C 
HETATM    2  C2  UNL     1     -32.475   7.826   1.781  1.00 20.00    -0.099 C 
ENDROOT
BRANCH   2   3
HETATM    3  C6  UNL     1     -31.673   8.740   0.953  1.00 20.00     0.120 C 
BRANCH   3   4
HETATM    4  C7  UNL     1     -32.487   9.946   0.505  1.00 20.00     0.176 C 
BRANCH   4   5
HETATM    5  O8  UNL     1     -32.937   9.749  -0.830  1.00 20.00    -0.400 OA
HETATM    6  H18 UNL     1     -32.468  10.396  -1.381  1.00 20.00     0.209 HD
ENDBRANCH   4   5
ENDBRANCH   3   4
ENDBRANCH   2   3
BRANCH   1   7
HETATM    7  C4  UNL     1     -33.911   6.196   3.260  1.00 20.00    -0.018 C 
HETATM    8  C3  UNL     1     -33.568   4.901   3.335  1.00 20.00     0.028 C 
HETATM    9  C5  UNL     1     -35.095   6.745   4.002  1.00 20.00     0.057 C 
ENDBRANCH   1   7
TORSDOF 4
ENDMDL
MODEL 3
REMARK VINA RESULT:      -2.4      1.294      1.484
REMARK  4 active torsions:
REMARK  status: ('A' for Active; 'I' for Inactive)
REMARK    1  A    between atoms: C1_1  and  C4_4 
REMARK    2  A    between atoms: C2_2  and  C6_6 
REMARK    3  A    between atoms: C6_6  and  C7_7 
REMARK    4  A    between atoms: C7_7  and  O8_8 
ROOT
HETATM    1  C1  UNL     1     -33.116   7.780   2.778  1.00 20.00    -0.072 C 
HETATM    2  C2  UNL     1     -32.454   8.090   1.824  1.00 20.00    -0.099 C 
ENDROOT
BRANCH   2   3
HETATM    3  C6  UNL     1     -31.645   8.469   0.656  1.00 20.00     0.120 C 
BRANCH   3   4
HETATM    4  C7  UNL     1     -32.316   9.572  -0.152  1.00 20.00     0.176 C 
BRANCH   4   5
HETATM    5  O8  UNL     1     -32.629  10.666   0.702  1.00 20.00    -0.400 OA
HETATM    6  H18 UNL     1     -33.281  11.209   0.232  1.00 20.00     0.209 HD
ENDBRANCH   4   5
ENDBRANCH   3   4
ENDBRANCH   2   3
BRANCH   1   7
HETATM    7  C4  UNL     1     -33.900   7.415   3.912  1.00 20.00    -0.018 C 
HETATM    8  C3  UNL     1     -33.682   8.028   5.086  1.00 20.00     0.028 C 
HETATM    9  C5  UNL     1     -34.950   6.353   3.758  1.00 20.00     0.057 C 
ENDBRANCH   1   7
TORSDOF 4
ENDMDL
MODEL 4
REMARK VINA RESULT:      -1.8      1.203      1.572
REMARK  4 active torsions:
REMARK  status: ('A' for Active; 'I' for Inactive)
REMARK    1  A    between atoms: C1_1  and  C4_4 
REMARK    2  A    between atoms: C2_2  and  C6_6 
REMARK    3  A    between atoms: C6_6  and  C7_7 
REMARK    4  A    between atoms: C7_7  and  O8_8 
ROOT
HETATM    1  C1  UNL     1     -33.536   5.408   3.061  1.00 20.00    -0.072 C 
HETATM    2  C2  UNL     1     -32.959   6.062   2.235  1.00 20.00    -0.099 C 
ENDROOT
BRANCH   2   3
HETATM    3  C6  UNL     1     -32.251   6.861   1.223  1.00 20.00     0.120 C 
BRANCH   3   4
HETATM    4  C7  UNL     1     -32.026   8.290   1.699  1.00 20.00     0.176 C 
BRANCH   4   5
HETATM    5  O8  UNL     1     -32.207   9.189   0.612  1.00 20.00    -0.400 OA
HETATM    6  H18 UNL     1     -31.321   9.476   0.337  1.00 20.00     0.209 HD
ENDBRANCH   4   5
ENDBRANCH   3   4
ENDBRANCH   2   3
BRANCH   1   7
HETATM    7  C4  UNL     1     -34.225   4.634   4.041  1.00 20.00    -0.018 C 
HETATM    8  C3  UNL     1     -35.380   5.091   4.547  1.00 20.00     0.028 C 
HETATM    9  C5  UNL     1     -33.635   3.324   4.478  1.00 20.00     0.057 C 
ENDBRANCH   1   7
TORSDOF 4
ENDMDL
MODEL 5
REMARK VINA RESULT:      -1.8      2.888      4.951
REMARK  4 active torsions:
REMARK  status: ('A' for Active; 'I' for Inactive)
REMARK    1  A    between atoms: C1_1  and  C4_4 
REMARK    2  A    between atoms: C2_2  and  C6_6 
REMARK    3  A    between atoms: C6_6  and  C7_7 
REMARK    4  A    between atoms: C7_7  and  O8_8 
ROOT
HETATM    1  C1  UNL     1     -32.920   8.058   2.298  1.00 20.00    -0.072 C 
HETATM    2  C2  UNL     1     -33.545   7.593   3.214  1.00 20.00    -0.099 C 
ENDROOT
BRANCH   2   3
HETATM    3  C6  UNL     1     -34.308   7.026   4.335  1.00 20.00     0.120 C 
BRANCH   3   4
HETATM    4  C7  UNL     1     -35.476   6.181   3.843  1.00 20.00     0.176 C 
BRANCH   4   5
HETATM    5  O8  UNL     1     -35.576   5.000   4.632  1.00 20.00    -0.400 OA
HETATM    6  H18 UNL     1     -35.364   5.255   5.544  1.00 20.00     0.209 HD
ENDBRANCH   4   5
ENDBRANCH   3   4
ENDBRANCH   2   3
BRANCH   1   7
HETATM    7  C4  UNL     1     -32.181   8.612   1.211  1.00 20.00    -0.018 C 
HETATM    8  C3  UNL     1     -31.115   7.950   0.736  1.00 20.00     0.028 C 
HETATM    9  C5  UNL     1     -32.622   9.922   0.627  1.00 20.00     0.057 C 
ENDBRANCH   1   7
TORSDOF 4
ENDMDL
MODEL 6
REMARK VINA RESULT:      -1.7      2.914      4.751
REMARK  4 active torsions:
REMARK  status: ('A' for Active; 'I' for Inactive)
REMARK    1  A    between atoms: C1_1  and  C4_4 
REMARK    2  A    between atoms: C2_2  and  C6_6 
REMARK    3  A    between atoms: C6_6  and  C7_7 
REMARK    4  A    between atoms: C7_7  and  O8_8 
ROOT
HETATM    1  C1  UNL     1     -33.340   6.623   2.562  1.00 20.00    -0.072 C 
HETATM    2  C2  UNL     1     -34.252   6.474   3.331  1.00 20.00    -0.099 C 
ENDROOT
BRANCH   2   3
HETATM    3  C6  UNL     1     -35.367   6.292   4.272  1.00 20.00     0.120 C 
BRANCH   3   4
HETATM    4  C7  UNL     1     -35.433   4.860   4.787  1.00 20.00     0.176 C 
BRANCH   4   5
HETATM    5  O8  UNL     1     -34.348   4.111   4.254  1.00 20.00    -0.400 OA
HETATM    6  H18 UNL     1     -34.267   4.362   3.320  1.00 20.00     0.209 HD
ENDBRANCH   4   5
ENDBRANCH   3   4
ENDBRANCH   2   3
BRANCH   1   7
HETATM    7  C4  UNL     1     -32.260   6.804   1.649  1.00 20.00    -0.018 C 
HETATM    8  C3  UNL     1     -31.761   8.034   1.456  1.00 20.00     0.028 C 
HETATM    9  C5  UNL     1     -31.710   5.607   0.929  1.00 20.00     0.057 C 
ENDBRANCH   1   7
TORSDOF 4
ENDMDL
MODEL 7
REMARK VINA RESULT:      -1.7      2.913      4.896
REMARK  4 active torsions:
REMARK  status: ('A' for Active; 'I' for Inactive)
REMARK    1  A    between atoms: C1_1  and  C4_4 
REMARK    2  A    between atoms: C2_2  and  C6_6 
REMARK    3  A    between atoms: C6_6  and  C7_7 
REMARK    4  A    between atoms: C7_7  and  O8_8 
ROOT
HETATM    1  C1  UNL     1     -33.353   6.579   2.534  1.00 20.00    -0.072 C 
HETATM    2  C2  UNL     1     -34.267   6.427   3.299  1.00 20.00    -0.099 C 
ENDROOT
BRANCH   2   3
HETATM    3  C6  UNL     1     -35.386   6.240   4.234  1.00 20.00     0.120 C 
BRANCH   3   4
HETATM    4  C7  UNL     1     -35.384   4.841   4.834  1.00 20.00     0.176 C 
BRANCH   4   5
HETATM    5  O8  UNL     1     -34.347   4.069   4.241  1.00 20.00    -0.400 OA
HETATM    6  H18 UNL     1     -34.362   4.264   3.291  1.00 20.00     0.209 HD
ENDBRANCH   4   5
ENDBRANCH   3   4
ENDBRANCH   2   3
BRANCH   1   7
HETATM    7  C4  UNL     1     -32.268   6.757   1.625  1.00 20.00    -0.018 C 
HETATM    8  C3  UNL     1     -31.765   5.690   0.985  1.00 20.00     0.028 C 
HETATM    9  C5  UNL     1     -31.721   8.138   1.408  1.00 20.00     0.057 C 
ENDBRANCH   1   7
TORSDOF 4
ENDMDL
MODEL 8
REMARK VINA RESULT:      -1.6      2.644      4.802
REMARK  4 active torsions:
REMARK  status: ('A' for Active; 'I' for Inactive)
REMARK    1  A    between atoms: C1_1  and  C4_4 
REMARK    2  A    between atoms: C2_2  and  C6_6 
REMARK    3  A    between atoms: C6_6  and  C7_7 
REMARK    4  A    between atoms: C7_7  and  O8_8 
ROOT
HETATM    1  C1  UNL     1     -32.654   8.149   1.621  1.00 20.00    -0.072 C 
HETATM    2  C2  UNL     1     -33.075   7.305   2.365  1.00 20.00    -0.099 C 
ENDROOT
BRANCH   2   3
HETATM    3  C6  UNL     1     -33.593   6.274   3.277  1.00 20.00     0.120 C 
BRANCH   3   4
HETATM    4  C7  UNL     1     -34.934   6.679   3.873  1.00 20.00     0.176 C 
BRANCH   4   5
HETATM    5  O8  UNL     1     -35.599   5.527   4.378  1.00 20.00    -0.400 OA
HETATM    6  H18 UNL     1     -35.327   5.431   5.305  1.00 20.00     0.209 HD
ENDBRANCH   4   5
ENDBRANCH   3   4
ENDBRANCH   2   3
BRANCH   1   7
HETATM    7  C4  UNL     1     -32.154   9.149   0.734  1.00 20.00    -0.018 C 
HETATM    8  C3  UNL     1     -32.709  10.371   0.742  1.00 20.00     0.028 C 
HETATM    9  C5  UNL     1     -31.018   8.803  -0.183  1.00 20.00     0.057 C 
ENDBRANCH   1   7
TORSDOF 4
ENDMDL
MODEL 9
REMARK VINA RESULT:      -0.7      2.896      4.124
REMARK  4 active torsions:
REMARK  status: ('A' for Active; 'I' for Inactive)
REMARK    1  A    between atoms: C1_1  and  C4_4 
REMARK    2  A    between atoms: C2_2  and  C6_6 
REMARK    3  A    between atoms: C6_6  and  C7_7 
REMARK    4  A    between atoms: C7_7  and  O8_8 
ROOT
HETATM    1  C1  UNL     1     -33.937   4.182   4.572  1.00 20.00    -0.072 C 
HETATM    2  C2  UNL     1     -34.529   5.154   4.188  1.00 20.00    -0.099 C 
ENDROOT
BRANCH   2   3
HETATM    3  C6  UNL     1     -35.254   6.343   3.717  1.00 20.00     0.120 C 
BRANCH   3   4
HETATM    4  C7  UNL     1     -34.440   7.613   3.927  1.00 20.00     0.176 C 
BRANCH   4   5
HETATM    5  O8  UNL     1     -33.262   7.561   3.130  1.00 20.00    -0.400 OA
HETATM    6  H18 UNL     1     -32.647   8.214   3.499  1.00 20.00     0.209 HD
ENDBRANCH   4   5
ENDBRANCH   3   4
ENDBRANCH   2   3
BRANCH   1   7
HETATM    7  C4  UNL     1     -33.236   3.027   5.030  1.00 20.00    -0.018 C 
HETATM    8  C3  UNL     1     -33.321   1.886   4.330  1.00 20.00     0.028 C 
HETATM    9  C5  UNL     1     -32.419   3.124   6.286  1.00 20.00     0.057 C 
ENDBRANCH   1   7
TORSDOF 4
ENDMDL
