MODEL 1
REMARK VINA RESULT:      -1.3      0.000      0.000
REMARK  1 active torsions:
REMARK  status: ('A' for Active; 'I' for Inactive)
REMARK    1  A    between atoms: C1_1  and  C5_5 
ROOT
HETATM    1  C2  UNL     1     -31.767   6.564   1.440  1.00 20.00     0.040 C 
HETATM    2  C3  UNL     1     -33.133   6.001   1.768  1.00 20.00     0.168 C 
HETATM    3  C4  UNL     1     -32.852   7.949   3.024  1.00 20.00     0.179 C 
HETATM    4  C5  UNL     1     -31.880   8.005   1.866  1.00 20.00     0.073 C 
HETATM    5  O7  UNL     1     -33.646   6.763   2.867  1.00 20.00    -0.390 OA
ENDROOT
BRANCH   4   6
HETATM    6  C1  UNL     1     -32.479   8.819   0.732  1.00 20.00     0.237 C 
HETATM    7  O6  UNL     1     -32.481  10.046   0.708  1.00 20.00    -0.306 OA
ENDBRANCH   4   6
TORSDOF 1
ENDMDL
MODEL 2
REMARK VINA RESULT:      -1.2      2.418      4.171
REMARK  1 active torsions:
REMARK  status: ('A' for Active; 'I' for Inactive)
REMARK    1  A    between atoms: C1_1  and  C5_5 
ROOT
HETATM    1  C2  UNL     1     -33.326   6.393   2.387  1.00 20.00     0.040 C 
HETATM    2  C3  UNL     1     -33.059   7.509   3.374  1.00 20.00     0.168 C 
HETATM    3  C4  UNL     1     -35.075   6.498   3.979  1.00 20.00     0.179 C 
HETATM    4  C5  UNL     1     -34.308   5.517   3.120  1.00 20.00     0.073 C 
HETATM    5  O7  UNL     1     -34.238   7.648   4.175  1.00 20.00    -0.390 OA
ENDROOT
BRANCH   4   6
HETATM    6  C1  UNL     1     -33.551   4.542   4.005  1.00 20.00     0.237 C 
HETATM    7  O6  UNL     1     -33.980   3.435   4.314  1.00 20.00    -0.306 OA
ENDBRANCH   4   6
TORSDOF 1
ENDMDL
MODEL 3
REMARK VINA RESULT:      -1.0      2.737      3.553
REMARK  1 active torsions:
REMARK  status: ('A' for Active; 'I' for Inactive)
REMARK    1  A    between atoms: C1_1  and  C5_5 
ROOT
HETATM    1  C2  UNL     1     -35.445   5.816   4.168  1.00 20.00     0.040 C 
HETATM    2  C3  UNL     1     -34.448   4.689   4.337  1.00 20.00     0.168 C 
HETATM    3  C4  UNL     1     -33.597   6.148   2.727  1.00 20.00     0.179 C 
HETATM    4  C5  UNL     1     -34.620   6.909   3.541  1.00 20.00     0.073 C 
HETATM    5  O7  UNL     1     -33.467   4.841   3.306  1.00 20.00    -0.390 OA
ENDROOT
BRANCH   4   6
HETATM    6  C1  UNL     1     -33.921   7.702   4.633  1.00 20.00     0.237 C 
HETATM    7  O6  UNL     1     -32.748   8.055   4.566  1.00 20.00    -0.306 OA
ENDBRANCH   4   6
TORSDOF 1
ENDMDL
MODEL 4
REMARK VINA RESULT:      -0.6      2.507      3.080
REMARK  1 active torsions:
REMARK  status: ('A' for Active; 'I' for Inactive)
REMARK    1  A    between atoms: C1_1  and  C5_5 
ROOT
HETATM    1  C2  UNL     1     -34.258   5.239   3.801  1.00 20.00     0.040 C 
HETATM    2  C3  UNL     1     -35.417   6.209   3.891  1.00 20.00     0.168 C 
HETATM    3  C4  UNL     1     -33.452   7.465   3.775  1.00 20.00     0.179 C 
HETATM    4  C5  UNL     1     -33.148   6.086   3.233  1.00 20.00     0.073 C 
HETATM    5  O7  UNL     1     -34.856   7.514   4.073  1.00 20.00    -0.390 OA
ENDROOT
BRANCH   4   6
HETATM    6  C1  UNL     1     -33.247   6.095   1.717  1.00 20.00     0.237 C 
HETATM    7  O6  UNL     1     -32.615   5.332   0.994  1.00 20.00    -0.306 OA
ENDBRANCH   4   6
TORSDOF 1
ENDMDL
MODEL 5
REMARK VINA RESULT:      -0.6      1.650      2.957
REMARK  1 active torsions:
REMARK  status: ('A' for Active; 'I' for Inactive)
REMARK    1  A    between atoms: C1_1  and  C5_5 
ROOT
HETATM    1  C2  UNL     1     -33.196   5.747   1.430  1.00 20.00     0.040 C 
HETATM    2  C3  UNL     1     -31.699   5.752   1.659  1.00 20.00     0.168 C 
HETATM    3  C4  UNL     1     -32.458   7.945   1.910  1.00 20.00     0.179 C 
HETATM    4  C5  UNL     1     -33.645   7.025   2.090  1.00 20.00     0.073 C 
HETATM    5  O7  UNL     1     -31.294   7.123   1.742  1.00 20.00    -0.390 OA
ENDROOT
BRANCH   4   6
HETATM    6  C1  UNL     1     -33.879   6.772   3.570  1.00 20.00     0.237 C 
HETATM    7  O6  UNL     1     -34.985   6.546   4.050  1.00 20.00    -0.306 OA
ENDBRANCH   4   6
TORSDOF 1
ENDMDL
MODEL 6
REMARK VINA RESULT:      -0.5      1.749      3.334
REMARK  1 active torsions:
REMARK  status: ('A' for Active; 'I' for Inactive)
REMARK    1  A    between atoms: C1_1  and  C5_5 
ROOT
HETATM    1  C2  UNL     1     -32.525   7.901   3.208  1.00 20.00     0.040 C 
HETATM    2  C3  UNL     1     -32.546   7.932   1.694  1.00 20.00     0.168 C 
HETATM    3  C4  UNL     1     -32.975   5.737   2.362  1.00 20.00     0.179 C 
HETATM    4  C5  UNL     1     -33.285   6.642   3.534  1.00 20.00     0.073 C 
HETATM    5  O7  UNL     1     -32.620   6.572   1.250  1.00 20.00    -0.390 OA
ENDROOT
BRANCH   4   6
HETATM    6  C1  UNL     1     -34.773   6.947   3.569  1.00 20.00     0.237 C 
HETATM    7  O6  UNL     1     -35.611   6.170   4.015  1.00 20.00    -0.306 OA
ENDBRANCH   4   6
TORSDOF 1
ENDMDL
MODEL 7
REMARK VINA RESULT:      -0.2      1.805      2.862
REMARK  1 active torsions:
REMARK  status: ('A' for Active; 'I' for Inactive)
REMARK    1  A    between atoms: C1_1  and  C5_5 
ROOT
HETATM    1  C2  UNL     1     -32.361   7.942   1.700  1.00 20.00     0.040 C 
HETATM    2  C3  UNL     1     -32.148   8.230   3.172  1.00 20.00     0.168 C 
HETATM    3  C4  UNL     1     -33.930   6.733   2.996  1.00 20.00     0.179 C 
HETATM    4  C5  UNL     1     -33.131   6.647   1.715  1.00 20.00     0.073 C 
HETATM    5  O7  UNL     1     -33.243   7.636   3.876  1.00 20.00    -0.390 OA
ENDROOT
BRANCH   4   6
HETATM    6  C1  UNL     1     -32.157   5.484   1.793  1.00 20.00     0.237 C 
HETATM    7  O6  UNL     1     -31.675   4.939   0.806  1.00 20.00    -0.306 OA
ENDBRANCH   4   6
TORSDOF 1
ENDMDL
MODEL 8
REMARK VINA RESULT:      -0.0      1.864      2.586
REMARK  1 active torsions:
REMARK  status: ('A' for Active; 'I' for Inactive)
REMARK    1  A    between atoms: C1_1  and  C5_5 
ROOT
HETATM    1  C2  UNL     1     -34.666   6.870   3.443  1.00 20.00     0.040 C 
HETATM    2  C3  UNL     1     -34.185   5.635   4.175  1.00 20.00     0.168 C 
HETATM    3  C4  UNL     1     -33.312   5.558   2.011  1.00 20.00     0.179 C 
HETATM    4  C5  UNL     1     -33.687   6.994   2.304  1.00 20.00     0.073 C 
HETATM    5  O7  UNL     1     -33.550   4.796   3.204  1.00 20.00    -0.390 OA
ENDROOT
BRANCH   4   6
HETATM    6  C1  UNL     1     -32.462   7.759   2.774  1.00 20.00     0.237 C 
HETATM    7  O6  UNL     1     -31.535   8.071   2.034  1.00 20.00    -0.306 OA
ENDBRANCH   4   6
TORSDOF 1
ENDMDL
MODEL 9
REMARK VINA RESULT:       0.5      1.762      3.021
REMARK  1 active torsions:
REMARK  status: ('A' for Active; 'I' for Inactive)
REMARK    1  A    between atoms: C1_1  and  C5_5 
ROOT
HETATM    1  C2  UNL     1     -33.432   5.793   3.098  1.00 20.00     0.040 C 
HETATM    2  C3  UNL     1     -33.884   7.237   3.173  1.00 20.00     0.168 C 
HETATM    3  C4  UNL     1     -31.956   7.167   1.857  1.00 20.00     0.179 C 
HETATM    4  C5  UNL     1     -32.549   5.775   1.878  1.00 20.00     0.073 C 
HETATM    5  O7  UNL     1     -32.849   8.029   2.580  1.00 20.00    -0.390 OA
ENDROOT
BRANCH   4   6
HETATM    6  C1  UNL     1     -33.405   5.563   0.640  1.00 20.00     0.237 C 
HETATM    7  O6  UNL     1     -33.383   4.535  -0.028  1.00 20.00    -0.306 OA
ENDBRANCH   4   6
TORSDOF 1
ENDMDL
