MODEL 1
REMARK VINA RESULT:      -1.9      0.000      0.000
REMARK  0 active torsions:
REMARK  status: ('A' for Active; 'I' for Inactive)
ROOT
HETATM    1  C1  UNL     1     -31.937   7.275   1.792  1.00 20.00     0.000 C 
HETATM    2  C2  UNL     1     -32.708   8.296   2.629  1.00 20.00     0.001 C 
HETATM    3  C3  UNL     1     -32.819   6.086   1.410  1.00 20.00     0.001 C 
HETATM    4  C4  UNL     1     -33.335   7.649   3.863  1.00 20.00     0.009 C 
HETATM    5  C5  UNL     1     -33.445   5.434   2.641  1.00 20.00     0.009 C 
HETATM    6  C6  UNL     1     -35.655   6.684   3.201  1.00 20.00     0.010 A 
HETATM    7  C7  UNL     1     -35.220   5.971   4.450  1.00 20.00     0.010 A 
HETATM    8  C8  UNL     1     -34.183   6.462   3.467  1.00 20.00    -0.040 A 
ENDROOT
TORSDOF 0
ENDMDL
MODEL 2
REMARK VINA RESULT:      -1.4      1.071      3.547
REMARK  0 active torsions:
REMARK  status: ('A' for Active; 'I' for Inactive)
ROOT
HETATM    1  C1  UNL     1     -34.012   5.892   3.322  1.00 20.00     0.000 C 
HETATM    2  C2  UNL     1     -33.559   5.662   1.880  1.00 20.00     0.001 C 
HETATM    3  C3  UNL     1     -34.047   7.381   3.666  1.00 20.00     0.001 C 
HETATM    4  C4  UNL     1     -32.213   6.329   1.604  1.00 20.00     0.009 C 
HETATM    5  C5  UNL     1     -32.702   8.051   3.394  1.00 20.00     0.009 C 
HETATM    6  C6  UNL     1     -32.639   8.795   0.904  1.00 20.00     0.010 A 
HETATM    7  C7  UNL     1     -31.216   8.710   1.377  1.00 20.00     0.010 A 
HETATM    8  C8  UNL     1     -32.259   7.794   1.972  1.00 20.00    -0.040 A 
ENDROOT
TORSDOF 0
ENDMDL
MODEL 3
REMARK VINA RESULT:      -1.3      0.950      3.102
REMARK  0 active torsions:
REMARK  status: ('A' for Active; 'I' for Inactive)
ROOT
HETATM    1  C1  UNL     1     -34.536   5.922   3.791  1.00 20.00     0.000 C 
HETATM    2  C2  UNL     1     -34.235   7.366   4.193  1.00 20.00     0.001 C 
HETATM    3  C3  UNL     1     -33.405   5.329   2.950  1.00 20.00     0.001 C 
HETATM    4  C4  UNL     1     -33.934   8.235   2.973  1.00 20.00     0.009 C 
HETATM    5  C5  UNL     1     -33.103   6.194   1.728  1.00 20.00     0.009 C 
HETATM    6  C6  UNL     1     -31.404   8.035   2.420  1.00 20.00     0.010 A 
HETATM    7  C7  UNL     1     -32.091   8.514   1.174  1.00 20.00     0.010 A 
HETATM    8  C8  UNL     1     -32.831   7.622   2.142  1.00 20.00    -0.040 A 
ENDROOT
TORSDOF 0
ENDMDL
MODEL 4
REMARK VINA RESULT:      -1.2      0.854      2.044
REMARK  0 active torsions:
REMARK  status: ('A' for Active; 'I' for Inactive)
ROOT
HETATM    1  C1  UNL     1     -32.019   7.936   2.144  1.00 20.00     0.000 C 
HETATM    2  C2  UNL     1     -32.409   6.540   1.658  1.00 20.00     0.001 C 
HETATM    3  C3  UNL     1     -32.371   8.133   3.619  1.00 20.00     0.001 C 
HETATM    4  C4  UNL     1     -33.885   6.247   1.922  1.00 20.00     0.009 C 
HETATM    5  C5  UNL     1     -33.847   7.843   3.886  1.00 20.00     0.009 C 
HETATM    6  C6  UNL     1     -34.122   5.297   4.328  1.00 20.00     0.010 A 
HETATM    7  C7  UNL     1     -35.470   5.824   3.927  1.00 20.00     0.010 A 
HETATM    8  C8  UNL     1     -34.219   6.469   3.379  1.00 20.00    -0.040 A 
ENDROOT
TORSDOF 0
ENDMDL
MODEL 5
REMARK VINA RESULT:      -1.2      0.812      3.093
REMARK  0 active torsions:
REMARK  status: ('A' for Active; 'I' for Inactive)
ROOT
HETATM    1  C1  UNL     1     -34.027   7.568   4.075  1.00 20.00     0.000 C 
HETATM    2  C2  UNL     1     -34.603   6.193   3.735  1.00 20.00     0.001 C 
HETATM    3  C3  UNL     1     -33.343   8.202   2.864  1.00 20.00     0.001 C 
HETATM    4  C4  UNL     1     -33.537   5.268   3.151  1.00 20.00     0.009 C 
HETATM    5  C5  UNL     1     -32.274   7.282   2.279  1.00 20.00     0.009 C 
HETATM    6  C6  UNL     1     -33.411   5.668   0.587  1.00 20.00     0.010 A 
HETATM    7  C7  UNL     1     -32.113   5.035   0.999  1.00 20.00     0.010 A 
HETATM    8  C8  UNL     1     -32.856   5.921   1.970  1.00 20.00    -0.040 A 
ENDROOT
TORSDOF 0
ENDMDL
MODEL 6
REMARK VINA RESULT:      -0.6      0.948      2.922
REMARK  0 active torsions:
REMARK  status: ('A' for Active; 'I' for Inactive)
ROOT
HETATM    1  C1  UNL     1     -33.769   7.999   4.047  1.00 20.00     0.000 C 
HETATM    2  C2  UNL     1     -32.419   8.208   3.360  1.00 20.00     0.001 C 
HETATM    3  C3  UNL     1     -34.223   6.542   3.955  1.00 20.00     0.001 C 
HETATM    4  C4  UNL     1     -32.448   7.725   1.911  1.00 20.00     0.009 C 
HETATM    5  C5  UNL     1     -34.256   6.056   2.507  1.00 20.00     0.009 C 
HETATM    6  C6  UNL     1     -31.890   5.188   1.874  1.00 20.00     0.010 A 
HETATM    7  C7  UNL     1     -32.604   5.501   0.590  1.00 20.00     0.010 A 
HETATM    8  C8  UNL     1     -32.922   6.292   1.837  1.00 20.00    -0.040 A 
ENDROOT
TORSDOF 0
ENDMDL
MODEL 7
REMARK VINA RESULT:      -0.4      0.830      2.384
REMARK  0 active torsions:
REMARK  status: ('A' for Active; 'I' for Inactive)
ROOT
HETATM    1  C1  UNL     1     -32.617   5.685   1.441  1.00 20.00     0.000 C 
HETATM    2  C2  UNL     1     -33.260   5.136   2.715  1.00 20.00     0.001 C 
HETATM    3  C3  UNL     1     -31.959   7.042   1.688  1.00 20.00     0.001 C 
HETATM    4  C4  UNL     1     -34.250   6.133   3.316  1.00 20.00     0.009 C 
HETATM    5  C5  UNL     1     -32.945   8.043   2.287  1.00 20.00     0.009 C 
HETATM    6  C6  UNL     1     -32.946   7.756   4.870  1.00 20.00     0.010 A 
HETATM    7  C7  UNL     1     -34.232   8.437   4.501  1.00 20.00     0.010 A 
HETATM    8  C8  UNL     1     -33.588   7.475   3.531  1.00 20.00    -0.040 A 
ENDROOT
TORSDOF 0
ENDMDL
MODEL 8
REMARK VINA RESULT:      -0.0      1.235      2.915
REMARK  0 active torsions:
REMARK  status: ('A' for Active; 'I' for Inactive)
ROOT
HETATM    1  C1  UNL     1     -34.097   4.007   3.630  1.00 20.00     0.000 C 
HETATM    2  C2  UNL     1     -34.945   4.756   4.658  1.00 20.00     0.001 C 
HETATM    3  C3  UNL     1     -32.908   4.850   3.167  1.00 20.00     0.001 C 
HETATM    4  C4  UNL     1     -35.400   6.114   4.126  1.00 20.00     0.009 C 
HETATM    5  C5  UNL     1     -33.358   6.208   2.633  1.00 20.00     0.009 C 
HETATM    6  C6  UNL     1     -33.543   7.861   4.629  1.00 20.00     0.010 A 
HETATM    7  C7  UNL     1     -34.383   8.417   3.515  1.00 20.00     0.010 A 
HETATM    8  C8  UNL     1     -34.214   6.923   3.652  1.00 20.00    -0.040 A 
ENDROOT
TORSDOF 0
ENDMDL
MODEL 9
REMARK VINA RESULT:       0.1      1.819      3.229
REMARK  0 active torsions:
REMARK  status: ('A' for Active; 'I' for Inactive)
ROOT
HETATM    1  C1  UNL     1     -34.462   6.841   3.131  1.00 20.00     0.000 C 
HETATM    2  C2  UNL     1     -33.141   6.193   2.717  1.00 20.00     0.001 C 
HETATM    3  C3  UNL     1     -34.962   6.288   4.466  1.00 20.00     0.001 C 
HETATM    4  C4  UNL     1     -33.251   4.670   2.682  1.00 20.00     0.009 C 
HETATM    5  C5  UNL     1     -35.075   4.765   4.434  1.00 20.00     0.009 C 
HETATM    6  C6  UNL     1     -32.767   3.752   5.064  1.00 20.00     0.010 A 
HETATM    7  C7  UNL     1     -33.530   2.688   4.328  1.00 20.00     0.010 A 
HETATM    8  C8  UNL     1     -33.768   4.144   4.001  1.00 20.00    -0.040 A 
ENDROOT
TORSDOF 0
ENDMDL
