MODEL 1
REMARK VINA RESULT:      -3.3      0.000      0.000
REMARK  2 active torsions:
REMARK  status: ('A' for Active; 'I' for Inactive)
REMARK    1  A    between atoms: C1_1  and  C2_2 
REMARK    2  A    between atoms: C1_1  and  C3_3 
ROOT
HETATM    1  C3  UNL     1     -34.901   6.318   3.845  1.00 20.00     0.390 C 
HETATM    2  F5  UNL     1     -36.103   6.615   3.302  1.00 20.00    -0.171 F 
HETATM    3  F6  UNL     1     -34.590   7.302   4.715  1.00 20.00    -0.171 F 
HETATM    4  F7  UNL     1     -33.989   6.335   2.851  1.00 20.00    -0.171 F 
ENDROOT
BRANCH   1   5
HETATM    5  C1  UNL     1     -34.949   4.970   4.532  1.00 20.00     0.148 C 
BRANCH   5   6
HETATM    6  C2  UNL     1     -33.897   4.017   3.995  1.00 20.00     0.230 C 
HETATM    7  F4  UNL     1     -33.527   3.154   4.978  1.00 20.00    -0.255 F 
ENDBRANCH   5   6
ENDBRANCH   1   5
TORSDOF 2
ENDMDL
MODEL 2
REMARK VINA RESULT:      -3.3      0.011      1.429
REMARK  2 active torsions:
REMARK  status: ('A' for Active; 'I' for Inactive)
REMARK    1  A    between atoms: C1_1  and  C2_2 
REMARK    2  A    between atoms: C1_1  and  C3_3 
ROOT
HETATM    1  C3  UNL     1     -34.917   6.318   3.850  1.00 20.00     0.390 C 
HETATM    2  F5  UNL     1     -33.993   6.322   2.863  1.00 20.00    -0.171 F 
HETATM    3  F6  UNL     1     -36.110   6.620   3.297  1.00 20.00    -0.171 F 
HETATM    4  F7  UNL     1     -34.595   7.304   4.714  1.00 20.00    -0.171 F 
ENDROOT
BRANCH   1   5
HETATM    5  C1  UNL     1     -34.952   4.969   4.536  1.00 20.00     0.148 C 
BRANCH   5   6
HETATM    6  C2  UNL     1     -33.896   4.023   3.993  1.00 20.00     0.230 C 
HETATM    7  F4  UNL     1     -33.524   3.156   4.971  1.00 20.00    -0.255 F 
ENDBRANCH   5   6
ENDBRANCH   1   5
TORSDOF 2
ENDMDL
MODEL 3
REMARK VINA RESULT:      -3.0      2.733      3.923
REMARK  2 active torsions:
REMARK  status: ('A' for Active; 'I' for Inactive)
REMARK    1  A    between atoms: C1_1  and  C2_2 
REMARK    2  A    between atoms: C1_1  and  C3_3 
ROOT
HETATM    1  C3  UNL     1     -32.171   7.899   2.131  1.00 20.00     0.390 C 
HETATM    2  F5  UNL     1     -31.238   7.171   1.478  1.00 20.00    -0.171 F 
HETATM    3  F6  UNL     1     -32.559   8.898   1.311  1.00 20.00    -0.171 F 
HETATM    4  F7  UNL     1     -31.576   8.450   3.211  1.00 20.00    -0.171 F 
ENDROOT
BRANCH   1   5
HETATM    5  C1  UNL     1     -33.342   7.026   2.528  1.00 20.00     0.148 C 
BRANCH   5   6
HETATM    6  C2  UNL     1     -33.958   7.459   3.846  1.00 20.00     0.230 C 
HETATM    7  F4  UNL     1     -35.089   6.740   4.071  1.00 20.00    -0.255 F 
ENDBRANCH   5   6
ENDBRANCH   1   5
TORSDOF 2
ENDMDL
MODEL 4
REMARK VINA RESULT:      -3.0      2.728      3.929
REMARK  2 active torsions:
REMARK  status: ('A' for Active; 'I' for Inactive)
REMARK    1  A    between atoms: C1_1  and  C2_2 
REMARK    2  A    between atoms: C1_1  and  C3_3 
ROOT
HETATM    1  C3  UNL     1     -32.177   7.888   2.114  1.00 20.00     0.390 C 
HETATM    2  F5  UNL     1     -31.598   8.436   3.207  1.00 20.00    -0.171 F 
HETATM    3  F6  UNL     1     -31.240   7.153   1.479  1.00 20.00    -0.171 F 
HETATM    4  F7  UNL     1     -32.543   8.898   1.296  1.00 20.00    -0.171 F 
ENDROOT
BRANCH   1   5
HETATM    5  C1  UNL     1     -33.366   7.040   2.515  1.00 20.00     0.148 C 
BRANCH   5   6
HETATM    6  C2  UNL     1     -33.954   7.472   3.846  1.00 20.00     0.230 C 
HETATM    7  F4  UNL     1     -35.064   6.732   4.107  1.00 20.00    -0.255 F 
ENDBRANCH   5   6
ENDBRANCH   1   5
TORSDOF 2
ENDMDL
MODEL 5
REMARK VINA RESULT:      -3.0      1.784      2.762
REMARK  2 active torsions:
REMARK  status: ('A' for Active; 'I' for Inactive)
REMARK    1  A    between atoms: C1_1  and  C2_2 
REMARK    2  A    between atoms: C1_1  and  C3_3 
ROOT
HETATM    1  C3  UNL     1     -34.478   6.611   3.686  1.00 20.00     0.390 C 
HETATM    2  F5  UNL     1     -34.195   5.353   4.091  1.00 20.00    -0.171 F 
HETATM    3  F6  UNL     1     -34.354   7.424   4.756  1.00 20.00    -0.171 F 
HETATM    4  F7  UNL     1     -35.768   6.633   3.290  1.00 20.00    -0.171 F 
ENDROOT
BRANCH   1   5
HETATM    5  C1  UNL     1     -33.547   7.028   2.567  1.00 20.00     0.148 C 
BRANCH   5   6
HETATM    6  C2  UNL     1     -32.991   5.835   1.811  1.00 20.00     0.230 C 
HETATM    7  F4  UNL     1     -31.724   6.112   1.404  1.00 20.00    -0.255 F 
ENDBRANCH   5   6
ENDBRANCH   1   5
TORSDOF 2
ENDMDL
MODEL 6
REMARK VINA RESULT:      -3.0      1.790      2.844
REMARK  2 active torsions:
REMARK  status: ('A' for Active; 'I' for Inactive)
REMARK    1  A    between atoms: C1_1  and  C2_2 
REMARK    2  A    between atoms: C1_1  and  C3_3 
ROOT
HETATM    1  C3  UNL     1     -34.479   6.593   3.683  1.00 20.00     0.390 C 
HETATM    2  F5  UNL     1     -34.363   7.411   4.752  1.00 20.00    -0.171 F 
HETATM    3  F6  UNL     1     -35.766   6.627   3.279  1.00 20.00    -0.171 F 
HETATM    4  F7  UNL     1     -34.202   5.338   4.096  1.00 20.00    -0.171 F 
ENDROOT
BRANCH   1   5
HETATM    5  C1  UNL     1     -33.543   7.032   2.577  1.00 20.00     0.148 C 
BRANCH   5   6
HETATM    6  C2  UNL     1     -32.970   5.853   1.810  1.00 20.00     0.230 C 
HETATM    7  F4  UNL     1     -31.707   6.150   1.407  1.00 20.00    -0.255 F 
ENDBRANCH   5   6
ENDBRANCH   1   5
TORSDOF 2
ENDMDL
MODEL 7
REMARK VINA RESULT:      -3.0      1.793      2.754
REMARK  2 active torsions:
REMARK  status: ('A' for Active; 'I' for Inactive)
REMARK    1  A    between atoms: C1_1  and  C2_2 
REMARK    2  A    between atoms: C1_1  and  C3_3 
ROOT
HETATM    1  C3  UNL     1     -34.462   6.593   3.675  1.00 20.00     0.390 C 
HETATM    2  F5  UNL     1     -35.756   6.633   3.288  1.00 20.00    -0.171 F 
HETATM    3  F6  UNL     1     -34.196   5.337   4.089  1.00 20.00    -0.171 F 
HETATM    4  F7  UNL     1     -34.327   7.420   4.734  1.00 20.00    -0.171 F 
ENDROOT
BRANCH   1   5
HETATM    5  C1  UNL     1     -33.555   7.002   2.534  1.00 20.00     0.148 C 
BRANCH   5   6
HETATM    6  C2  UNL     1     -32.995   5.803   1.791  1.00 20.00     0.230 C 
HETATM    7  F4  UNL     1     -31.717   6.068   1.409  1.00 20.00    -0.255 F 
ENDBRANCH   5   6
ENDBRANCH   1   5
TORSDOF 2
ENDMDL
MODEL 8
REMARK VINA RESULT:      -3.0      2.010      3.261
REMARK  2 active torsions:
REMARK  status: ('A' for Active; 'I' for Inactive)
REMARK    1  A    between atoms: C1_1  and  C2_2 
REMARK    2  A    between atoms: C1_1  and  C3_3 
ROOT
HETATM    1  C3  UNL     1     -34.305   6.520   3.565  1.00 20.00     0.390 C 
HETATM    2  F5  UNL     1     -34.164   5.307   4.145  1.00 20.00    -0.171 F 
HETATM    3  F6  UNL     1     -33.938   7.452   4.470  1.00 20.00    -0.171 F 
HETATM    4  F7  UNL     1     -35.616   6.693   3.294  1.00 20.00    -0.171 F 
ENDROOT
BRANCH   1   5
HETATM    5  C1  UNL     1     -33.463   6.608   2.310  1.00 20.00     0.148 C 
BRANCH   5   6
HETATM    6  C2  UNL     1     -32.505   7.785   2.345  1.00 20.00     0.230 C 
HETATM    7  F4  UNL     1     -31.468   7.546   1.500  1.00 20.00    -0.255 F 
ENDBRANCH   5   6
ENDBRANCH   1   5
TORSDOF 2
ENDMDL
MODEL 9
REMARK VINA RESULT:      -2.9      2.134      3.395
REMARK  2 active torsions:
REMARK  status: ('A' for Active; 'I' for Inactive)
REMARK    1  A    between atoms: C1_1  and  C2_2 
REMARK    2  A    between atoms: C1_1  and  C3_3 
ROOT
HETATM    1  C3  UNL     1     -32.828   6.072   1.678  1.00 20.00     0.390 C 
HETATM    2  F5  UNL     1     -32.459   7.368   1.777  1.00 20.00    -0.171 F 
HETATM    3  F6  UNL     1     -31.713   5.344   1.456  1.00 20.00    -0.171 F 
HETATM    4  F7  UNL     1     -33.627   5.955   0.597  1.00 20.00    -0.171 F 
ENDROOT
BRANCH   1   5
HETATM    5  C1  UNL     1     -33.534   5.625   2.941  1.00 20.00     0.148 C 
BRANCH   5   6
HETATM    6  C2  UNL     1     -34.307   6.756   3.594  1.00 20.00     0.230 C 
HETATM    7  F4  UNL     1     -35.502   6.285   4.041  1.00 20.00    -0.255 F 
ENDBRANCH   5   6
ENDBRANCH   1   5
TORSDOF 2
ENDMDL
