MODEL 1
REMARK VINA RESULT:       1.0      0.000      0.000
REMARK  0 active torsions:
REMARK  status: ('A' for Active; 'I' for Inactive)
ROOT
HETATM    1  C1  UNL     1     -32.423   9.509   0.526  1.00 20.00     0.064 C 
HETATM    2  C2  UNL     1     -33.695   7.057   2.879  1.00 20.00     0.005 C 
HETATM    3  C3  UNL     1     -32.520   8.013   3.126  1.00 20.00     0.006 C 
HETATM    4  C4  UNL     1     -33.281   7.151   0.413  1.00 20.00     0.024 C 
HETATM    5  C5  UNL     1     -31.723   6.136   1.914  1.00 20.00     0.010 C 
HETATM    6  C6  UNL     1     -32.073   8.088   0.613  1.00 20.00     0.097 C 
HETATM    7  C7  UNL     1     -33.227   6.246   1.659  1.00 20.00    -0.013 C 
HETATM    8  C8  UNL     1     -31.534   7.654   1.995  1.00 20.00     0.003 C 
HETATM    9  N9  UNL     1     -32.699  10.634   0.458  1.00 20.00    -0.197 NA
ENDROOT
TORSDOF 0
ENDMDL
MODEL 2
REMARK VINA RESULT:       1.0      3.296      4.403
REMARK  0 active torsions:
REMARK  status: ('A' for Active; 'I' for Inactive)
ROOT
HETATM    1  C1  UNL     1     -33.864   4.342   4.024  1.00 20.00     0.064 C 
HETATM    2  C2  UNL     1     -32.828   7.817   4.165  1.00 20.00     0.005 C 
HETATM    3  C3  UNL     1     -33.996   7.196   4.943  1.00 20.00     0.006 C 
HETATM    4  C4  UNL     1     -33.053   6.068   2.389  1.00 20.00     0.024 C 
HETATM    5  C5  UNL     1     -34.742   7.719   2.753  1.00 20.00     0.010 C 
HETATM    6  C6  UNL     1     -34.251   5.428   3.118  1.00 20.00     0.097 C 
HETATM    7  C7  UNL     1     -33.221   7.569   2.700  1.00 20.00    -0.013 C 
HETATM    8  C8  UNL     1     -34.902   6.638   3.826  1.00 20.00     0.003 C 
HETATM    9  N9  UNL     1     -33.559   3.483   4.741  1.00 20.00    -0.197 NA
ENDROOT
TORSDOF 0
ENDMDL
MODEL 3
REMARK VINA RESULT:       1.2      1.249      1.866
REMARK  0 active torsions:
REMARK  status: ('A' for Active; 'I' for Inactive)
ROOT
HETATM    1  C1  UNL     1     -32.394   8.393   1.451  1.00 20.00     0.064 C 
HETATM    2  C2  UNL     1     -35.178   6.830   3.175  1.00 20.00     0.005 C 
HETATM    3  C3  UNL     1     -34.322   7.984   3.714  1.00 20.00     0.006 C 
HETATM    4  C4  UNL     1     -33.276   6.059   1.743  1.00 20.00     0.024 C 
HETATM    5  C5  UNL     1     -33.185   5.944   4.129  1.00 20.00     0.010 C 
HETATM    6  C6  UNL     1     -32.367   7.183   2.279  1.00 20.00     0.097 C 
HETATM    7  C7  UNL     1     -34.148   5.708   2.965  1.00 20.00    -0.013 C 
HETATM    8  C8  UNL     1     -32.898   7.391   3.716  1.00 20.00     0.003 C 
HETATM    9  N9  UNL     1     -32.414   9.350   0.797  1.00 20.00    -0.197 NA
ENDROOT
TORSDOF 0
ENDMDL
MODEL 4
REMARK VINA RESULT:       1.3      2.655      3.653
REMARK  0 active torsions:
REMARK  status: ('A' for Active; 'I' for Inactive)
ROOT
HETATM    1  C1  UNL     1     -33.653   4.996   3.204  1.00 20.00     0.064 C 
HETATM    2  C2  UNL     1     -31.759   8.087   3.359  1.00 20.00     0.005 C 
HETATM    3  C3  UNL     1     -33.232   7.916   3.755  1.00 20.00     0.006 C 
HETATM    4  C4  UNL     1     -31.936   6.152   1.782  1.00 20.00     0.024 C 
HETATM    5  C5  UNL     1     -33.112   8.198   1.403  1.00 20.00     0.010 C 
HETATM    6  C6  UNL     1     -33.427   5.960   2.123  1.00 20.00     0.097 C 
HETATM    7  C7  UNL     1     -31.753   7.680   1.876  1.00 20.00    -0.013 C 
HETATM    8  C8  UNL     1     -33.885   7.399   2.456  1.00 20.00     0.003 C 
HETATM    9  N9  UNL     1     -33.833   4.232   4.059  1.00 20.00    -0.197 NA
ENDROOT
TORSDOF 0
ENDMDL
MODEL 5
REMARK VINA RESULT:       1.4      2.118      3.117
REMARK  0 active torsions:
REMARK  status: ('A' for Active; 'I' for Inactive)
ROOT
HETATM    1  C1  UNL     1     -33.691   7.566   4.167  1.00 20.00     0.064 C 
HETATM    2  C2  UNL     1     -31.421   6.139   1.721  1.00 20.00     0.005 C 
HETATM    3  C3  UNL     1     -31.942   7.583   1.728  1.00 20.00     0.006 C 
HETATM    4  C4  UNL     1     -33.458   5.376   2.958  1.00 20.00     0.024 C 
HETATM    5  C5  UNL     1     -33.579   6.197   0.717  1.00 20.00     0.010 C 
HETATM    6  C6  UNL     1     -34.037   6.805   2.963  1.00 20.00     0.097 C 
HETATM    7  C7  UNL     1     -32.711   5.311   1.611  1.00 20.00    -0.013 C 
HETATM    8  C8  UNL     1     -33.472   7.404   1.655  1.00 20.00     0.003 C 
HETATM    9  N9  UNL     1     -33.417   8.169   5.120  1.00 20.00    -0.197 NA
ENDROOT
TORSDOF 0
ENDMDL
MODEL 6
REMARK VINA RESULT:       1.5      2.217      3.423
REMARK  0 active torsions:
REMARK  status: ('A' for Active; 'I' for Inactive)
ROOT
HETATM    1  C1  UNL     1     -34.555   6.443   3.578  1.00 20.00     0.064 C 
HETATM    2  C2  UNL     1     -33.017   7.994   0.680  1.00 20.00     0.005 C 
HETATM    3  C3  UNL     1     -33.588   6.570   0.739  1.00 20.00     0.006 C 
HETATM    4  C4  UNL     1     -32.592   7.949   3.145  1.00 20.00     0.024 C 
HETATM    5  C5  UNL     1     -31.392   6.539   1.634  1.00 20.00     0.010 C 
HETATM    6  C6  UNL     1     -33.127   6.508   3.251  1.00 20.00     0.097 C 
HETATM    7  C7  UNL     1     -31.921   7.969   1.758  1.00 20.00    -0.013 C 
HETATM    8  C8  UNL     1     -32.769   5.912   1.869  1.00 20.00     0.003 C 
HETATM    9  N9  UNL     1     -35.684   6.391   3.837  1.00 20.00    -0.197 NA
ENDROOT
TORSDOF 0
ENDMDL
MODEL 7
REMARK VINA RESULT:       1.5      1.915      3.236
REMARK  0 active torsions:
REMARK  status: ('A' for Active; 'I' for Inactive)
ROOT
HETATM    1  C1  UNL     1     -32.344   7.857   2.300  1.00 20.00     0.064 C 
HETATM    2  C2  UNL     1     -33.874   5.111   4.113  1.00 20.00     0.005 C 
HETATM    3  C3  UNL     1     -33.807   5.252   2.586  1.00 20.00     0.006 C 
HETATM    4  C4  UNL     1     -33.744   7.597   4.370  1.00 20.00     0.024 C 
HETATM    5  C5  UNL     1     -35.640   6.530   3.381  1.00 20.00     0.010 C 
HETATM    6  C6  UNL     1     -33.705   7.791   2.841  1.00 20.00     0.097 C 
HETATM    7  C7  UNL     1     -34.655   6.365   4.539  1.00 20.00    -0.013 C 
HETATM    8  C8  UNL     1     -34.530   6.589   2.327  1.00 20.00     0.003 C 
HETATM    9  N9  UNL     1     -31.268   7.910   1.871  1.00 20.00    -0.197 NA
ENDROOT
TORSDOF 0
ENDMDL
MODEL 8
REMARK VINA RESULT:       1.8      0.957      2.034
REMARK  0 active torsions:
REMARK  status: ('A' for Active; 'I' for Inactive)
ROOT
HETATM    1  C1  UNL     1     -32.416   9.042   0.825  1.00 20.00     0.064 C 
HETATM    2  C2  UNL     1     -32.758   5.439   0.562  1.00 20.00     0.005 C 
HETATM    3  C3  UNL     1     -33.911   6.442   0.706  1.00 20.00     0.006 C 
HETATM    4  C4  UNL     1     -31.203   7.027   1.710  1.00 20.00     0.024 C 
HETATM    5  C5  UNL     1     -33.026   5.996   2.861  1.00 20.00     0.010 C 
HETATM    6  C6  UNL     1     -32.335   8.055   1.906  1.00 20.00     0.097 C 
HETATM    7  C7  UNL     1     -31.935   5.677   1.838  1.00 20.00    -0.013 C 
HETATM    8  C8  UNL     1     -33.587   7.157   2.034  1.00 20.00     0.003 C 
HETATM    9  N9  UNL     1     -32.479   9.823  -0.030  1.00 20.00    -0.197 NA
ENDROOT
TORSDOF 0
ENDMDL
MODEL 9
REMARK VINA RESULT:       2.2      2.193      3.265
REMARK  0 active torsions:
REMARK  status: ('A' for Active; 'I' for Inactive)
ROOT
HETATM    1  C1  UNL     1     -34.454   6.999   3.674  1.00 20.00     0.064 C 
HETATM    2  C2  UNL     1     -32.910   7.143   0.393  1.00 20.00     0.005 C 
HETATM    3  C3  UNL     1     -32.741   6.011   1.416  1.00 20.00     0.006 C 
HETATM    4  C4  UNL     1     -33.393   8.765   2.236  1.00 20.00     0.024 C 
HETATM    5  C5  UNL     1     -31.241   7.761   1.975  1.00 20.00     0.010 C 
HETATM    6  C6  UNL     1     -33.203   7.669   3.303  1.00 20.00     0.097 C 
HETATM    7  C7  UNL     1     -32.374   8.370   1.149  1.00 20.00    -0.013 C 
HETATM    8  C8  UNL     1     -32.160   6.736   2.647  1.00 20.00     0.003 C 
HETATM    9  N9  UNL     1     -35.443   6.469   3.968  1.00 20.00    -0.197 NA
ENDROOT
TORSDOF 0
ENDMDL
