MODEL 1
REMARK VINA RESULT:       0.3      0.000      0.000
REMARK  0 active torsions:
REMARK  status: ('A' for Active; 'I' for Inactive)
ROOT
HETATM    1  C1  UNL     1     -34.394   6.373   3.256  1.00 20.00     0.018 A 
HETATM    2  C2  UNL     1     -33.291   5.398   3.583  1.00 20.00     0.018 A 
HETATM    3  C3  UNL     1     -33.271   6.146   2.265  1.00 20.00     0.083 A 
HETATM    4  C4  UNL     1     -34.540   7.622   4.056  1.00 20.00     0.012 C 
HETATM    5  C5  UNL     1     -33.597   3.944   3.694  1.00 20.00     0.012 C 
HETATM    6 BR6  UNL     1     -33.698   5.258   0.627  1.00 20.00    -0.072 Br
HETATM    7 BR7  UNL     1     -31.905   7.460   2.012  1.00 20.00    -0.072 Br
ENDROOT
TORSDOF 0
ENDMDL
MODEL 2
REMARK VINA RESULT:       0.3      0.007      2.768
REMARK  0 active torsions:
REMARK  status: ('A' for Active; 'I' for Inactive)
ROOT
HETATM    1  C1  UNL     1     -33.296   5.403   3.580  1.00 20.00     0.018 A 
HETATM    2  C2  UNL     1     -34.396   6.380   3.252  1.00 20.00     0.018 A 
HETATM    3  C3  UNL     1     -33.273   6.149   2.263  1.00 20.00     0.083 A 
HETATM    4  C4  UNL     1     -33.605   3.948   3.692  1.00 20.00     0.012 C 
HETATM    5  C5  UNL     1     -34.539   7.629   4.052  1.00 20.00     0.012 C 
HETATM    6 BR6  UNL     1     -31.904   7.461   2.009  1.00 20.00    -0.072 Br
HETATM    7 BR7  UNL     1     -33.702   5.262   0.624  1.00 20.00    -0.072 Br
ENDROOT
TORSDOF 0
ENDMDL
MODEL 3
REMARK VINA RESULT:       0.3      2.232      2.819
REMARK  0 active torsions:
REMARK  status: ('A' for Active; 'I' for Inactive)
ROOT
HETATM    1  C1  UNL     1     -32.319   6.468   2.112  1.00 20.00     0.018 A 
HETATM    2  C2  UNL     1     -33.467   5.949   1.284  1.00 20.00     0.018 A 
HETATM    3  C3  UNL     1     -33.533   5.875   2.796  1.00 20.00     0.083 A 
HETATM    4  C4  UNL     1     -32.008   7.926   2.115  1.00 20.00     0.012 C 
HETATM    5  C5  UNL     1     -33.272   4.755   0.414  1.00 20.00     0.012 C 
HETATM    6 BR6  UNL     1     -33.314   4.208   3.707  1.00 20.00    -0.072 Br
HETATM    7 BR7  UNL     1     -34.804   6.995   3.683  1.00 20.00    -0.072 Br
ENDROOT
TORSDOF 0
ENDMDL
MODEL 4
REMARK VINA RESULT:       0.3      2.230      3.438
REMARK  0 active torsions:
REMARK  status: ('A' for Active; 'I' for Inactive)
ROOT
HETATM    1  C1  UNL     1     -33.461   5.941   1.275  1.00 20.00     0.018 A 
HETATM    2  C2  UNL     1     -32.307   6.456   2.096  1.00 20.00     0.018 A 
HETATM    3  C3  UNL     1     -33.521   5.869   2.787  1.00 20.00     0.083 A 
HETATM    4  C4  UNL     1     -33.276   4.744   0.405  1.00 20.00     0.012 C 
HETATM    5  C5  UNL     1     -31.990   7.913   2.096  1.00 20.00     0.012 C 
HETATM    6 BR6  UNL     1     -34.781   6.996   3.681  1.00 20.00    -0.072 Br
HETATM    7 BR7  UNL     1     -33.302   4.203   3.700  1.00 20.00    -0.072 Br
ENDROOT
TORSDOF 0
ENDMDL
MODEL 5
REMARK VINA RESULT:       0.4      2.155      3.150
REMARK  0 active torsions:
REMARK  status: ('A' for Active; 'I' for Inactive)
ROOT
HETATM    1  C1  UNL     1     -32.473   6.297   2.261  1.00 20.00     0.018 A 
HETATM    2  C2  UNL     1     -33.821   6.949   2.442  1.00 20.00     0.018 A 
HETATM    3  C3  UNL     1     -32.579   7.808   2.310  1.00 20.00     0.083 A 
HETATM    4  C4  UNL     1     -32.180   5.538   1.012  1.00 20.00     0.012 C 
HETATM    5  C5  UNL     1     -34.562   6.773   3.723  1.00 20.00     0.012 C 
HETATM    6 BR6  UNL     1     -31.838   8.701   3.830  1.00 20.00    -0.072 Br
HETATM    7 BR7  UNL     1     -32.392   8.857   0.723  1.00 20.00    -0.072 Br
ENDROOT
TORSDOF 0
ENDMDL
MODEL 6
REMARK VINA RESULT:       0.4      2.166      2.398
REMARK  0 active torsions:
REMARK  status: ('A' for Active; 'I' for Inactive)
ROOT
HETATM    1  C1  UNL     1     -33.803   6.957   2.437  1.00 20.00     0.018 A 
HETATM    2  C2  UNL     1     -32.455   6.310   2.242  1.00 20.00     0.018 A 
HETATM    3  C3  UNL     1     -32.567   7.820   2.291  1.00 20.00     0.083 A 
HETATM    4  C4  UNL     1     -34.530   6.778   3.727  1.00 20.00     0.012 C 
HETATM    5  C5  UNL     1     -32.173   5.551   0.990  1.00 20.00     0.012 C 
HETATM    6 BR6  UNL     1     -32.400   8.870   0.702  1.00 20.00    -0.072 Br
HETATM    7 BR7  UNL     1     -31.812   8.717   3.803  1.00 20.00    -0.072 Br
ENDROOT
TORSDOF 0
ENDMDL
MODEL 7
REMARK VINA RESULT:       0.5      2.658      3.585
REMARK  0 active torsions:
REMARK  status: ('A' for Active; 'I' for Inactive)
ROOT
HETATM    1  C1  UNL     1     -32.658   8.681   1.562  1.00 20.00     0.018 A 
HETATM    2  C2  UNL     1     -31.655   8.226   2.593  1.00 20.00     0.018 A 
HETATM    3  C3  UNL     1     -32.785   7.304   2.181  1.00 20.00     0.083 A 
HETATM    4  C4  UNL     1     -32.222   8.909   0.155  1.00 20.00     0.012 C 
HETATM    5  C5  UNL     1     -31.595   8.907   3.917  1.00 20.00     0.012 C 
HETATM    6 BR6  UNL     1     -34.267   6.988   3.348  1.00 20.00    -0.072 Br
HETATM    7 BR7  UNL     1     -32.332   5.735   1.187  1.00 20.00    -0.072 Br
ENDROOT
TORSDOF 0
ENDMDL
MODEL 8
REMARK VINA RESULT:       0.5      2.659      3.540
REMARK  0 active torsions:
REMARK  status: ('A' for Active; 'I' for Inactive)
ROOT
HETATM    1  C1  UNL     1     -31.649   8.223   2.586  1.00 20.00     0.018 A 
HETATM    2  C2  UNL     1     -32.650   8.678   1.555  1.00 20.00     0.018 A 
HETATM    3  C3  UNL     1     -32.781   7.304   2.179  1.00 20.00     0.083 A 
HETATM    4  C4  UNL     1     -31.586   8.908   3.910  1.00 20.00     0.012 C 
HETATM    5  C5  UNL     1     -32.214   8.900   0.147  1.00 20.00     0.012 C 
HETATM    6 BR6  UNL     1     -32.334   5.730   1.188  1.00 20.00    -0.072 Br
HETATM    7 BR7  UNL     1     -34.265   6.997   3.345  1.00 20.00    -0.072 Br
ENDROOT
TORSDOF 0
ENDMDL
MODEL 9
REMARK VINA RESULT:       1.4      1.634      2.782
REMARK  0 active torsions:
REMARK  status: ('A' for Active; 'I' for Inactive)
ROOT
HETATM    1  C1  UNL     1     -33.297   6.431   2.900  1.00 20.00     0.018 A 
HETATM    2  C2  UNL     1     -32.828   7.448   1.891  1.00 20.00     0.018 A 
HETATM    3  C3  UNL     1     -32.940   5.990   1.496  1.00 20.00     0.083 A 
HETATM    4  C4  UNL     1     -34.697   6.485   3.411  1.00 20.00     0.012 C 
HETATM    5  C5  UNL     1     -31.526   8.145   2.091  1.00 20.00     0.012 C 
HETATM    6 BR6  UNL     1     -31.377   4.911   1.274  1.00 20.00    -0.072 Br
HETATM    7 BR7  UNL     1     -34.302   5.513   0.241  1.00 20.00    -0.072 Br
ENDROOT
TORSDOF 0
ENDMDL
