MODEL 1
REMARK VINA RESULT:      -2.3      0.000      0.000
REMARK  3 active torsions:
REMARK  status: ('A' for Active; 'I' for Inactive)
REMARK    1  A    between atoms: C1_1  and  C3_3 
REMARK    2  A    between atoms: C1_1  and  N4_4 
REMARK    3  A    between atoms: C2_2  and  C3_3 
ROOT
HETATM    1  C1  UNL     1     -33.451   7.100   3.570  1.00 20.00     0.222 C 
ENDROOT
BRANCH   1   2
HETATM    2  C3  UNL     1     -33.083   7.180   2.092  1.00 20.00     0.120 C 
HETATM    3 CL8  UNL     1     -32.648   5.556   1.458  1.00 20.00    -0.122 Cl
BRANCH   2   4
HETATM    4  C2  UNL     1     -31.950   8.174   1.817  1.00 20.00     0.136 C 
HETATM    5 CL7  UNL     1     -32.359   9.399   0.589  1.00 20.00    -0.129 Cl
ENDBRANCH   2   4
ENDBRANCH   1   2
BRANCH   1   6
HETATM    6  N4  UNL     1     -34.525   6.101   3.739  1.00 20.00    -0.154 N 
HETATM    7  O5  UNL     1     -34.183   4.934   3.987  1.00 20.00    -0.536 OA
HETATM    8  O6  UNL     1     -35.698   6.495   3.640  1.00 20.00    -0.536 OA
ENDBRANCH   1   6
TORSDOF 3
ENDMDL
MODEL 2
REMARK VINA RESULT:      -2.3      0.013      1.101
REMARK  3 active torsions:
REMARK  status: ('A' for Active; 'I' for Inactive)
REMARK    1  A    between atoms: C1_1  and  C3_3 
REMARK    2  A    between atoms: C1_1  and  N4_4 
REMARK    3  A    between atoms: C2_2  and  C3_3 
ROOT
HETATM    1  C1  UNL     1     -33.458   7.117   3.571  1.00 20.00     0.222 C 
ENDROOT
BRANCH   1   2
HETATM    2  C3  UNL     1     -33.089   7.187   2.093  1.00 20.00     0.120 C 
HETATM    3 CL8  UNL     1     -32.661   5.557   1.468  1.00 20.00    -0.122 Cl
BRANCH   2   4
HETATM    4  C2  UNL     1     -31.951   8.173   1.812  1.00 20.00     0.136 C 
HETATM    5 CL7  UNL     1     -32.360   9.405   0.590  1.00 20.00    -0.129 Cl
ENDBRANCH   2   4
ENDBRANCH   1   2
BRANCH   1   6
HETATM    6  N4  UNL     1     -34.527   6.114   3.747  1.00 20.00    -0.154 N 
HETATM    7  O5  UNL     1     -35.700   6.506   3.629  1.00 20.00    -0.536 OA
HETATM    8  O6  UNL     1     -34.187   4.944   3.985  1.00 20.00    -0.536 OA
ENDBRANCH   1   6
TORSDOF 3
ENDMDL
MODEL 3
REMARK VINA RESULT:      -2.2      1.013      1.241
REMARK  3 active torsions:
REMARK  status: ('A' for Active; 'I' for Inactive)
REMARK    1  A    between atoms: C1_1  and  C3_3 
REMARK    2  A    between atoms: C1_1  and  N4_4 
REMARK    3  A    between atoms: C2_2  and  C3_3 
ROOT
HETATM    1  C1  UNL     1     -33.377   6.007   3.245  1.00 20.00     0.222 C 
ENDROOT
BRANCH   1   2
HETATM    2  C3  UNL     1     -33.048   6.570   1.867  1.00 20.00     0.120 C 
HETATM    3 CL8  UNL     1     -32.537   5.257   0.751  1.00 20.00    -0.122 Cl
BRANCH   2   4
HETATM    4  C2  UNL     1     -31.979   7.666   1.915  1.00 20.00     0.136 C 
HETATM    5 CL7  UNL     1     -32.332   9.054   0.854  1.00 20.00    -0.129 Cl
ENDBRANCH   2   4
ENDBRANCH   1   2
BRANCH   1   6
HETATM    6  N4  UNL     1     -34.463   6.810   3.840  1.00 20.00    -0.154 N 
HETATM    7  O5  UNL     1     -35.617   6.359   3.758  1.00 20.00    -0.536 OA
HETATM    8  O6  UNL     1     -34.153   7.875   4.398  1.00 20.00    -0.536 OA
ENDBRANCH   1   6
TORSDOF 3
ENDMDL
MODEL 4
REMARK VINA RESULT:      -1.6      3.293      4.033
REMARK  3 active torsions:
REMARK  status: ('A' for Active; 'I' for Inactive)
REMARK    1  A    between atoms: C1_1  and  C3_3 
REMARK    2  A    between atoms: C1_1  and  N4_4 
REMARK    3  A    between atoms: C2_2  and  C3_3 
ROOT
HETATM    1  C1  UNL     1     -33.159   6.683   2.354  1.00 20.00     0.222 C 
ENDROOT
BRANCH   1   2
HETATM    2  C3  UNL     1     -34.068   7.302   3.410  1.00 20.00     0.120 C 
HETATM    3 CL8  UNL     1     -33.097   8.029   4.736  1.00 20.00    -0.122 Cl
BRANCH   2   4
HETATM    4  C2  UNL     1     -35.077   6.302   3.983  1.00 20.00     0.136 C 
HETATM    5 CL7  UNL     1     -34.434   4.647   4.134  1.00 20.00    -0.129 Cl
ENDBRANCH   2   4
ENDBRANCH   1   2
BRANCH   1   6
HETATM    6  N4  UNL     1     -32.274   7.734   1.813  1.00 20.00    -0.154 N 
HETATM    7  O5  UNL     1     -31.062   7.473   1.735  1.00 20.00    -0.536 OA
HETATM    8  O6  UNL     1     -32.798   8.801   1.457  1.00 20.00    -0.536 OA
ENDBRANCH   1   6
TORSDOF 3
ENDMDL
MODEL 5
REMARK VINA RESULT:      -1.5      3.281      4.192
REMARK  3 active torsions:
REMARK  status: ('A' for Active; 'I' for Inactive)
REMARK    1  A    between atoms: C1_1  and  C3_3 
REMARK    2  A    between atoms: C1_1  and  N4_4 
REMARK    3  A    between atoms: C2_2  and  C3_3 
ROOT
HETATM    1  C1  UNL     1     -32.939   5.636   2.874  1.00 20.00     0.222 C 
ENDROOT
BRANCH   1   2
HETATM    2  C3  UNL     1     -34.324   5.978   3.415  1.00 20.00     0.120 C 
HETATM    3 CL8  UNL     1     -34.308   7.579   4.230  1.00 20.00    -0.122 Cl
BRANCH   2   4
HETATM    4  C2  UNL     1     -34.869   4.907   4.365  1.00 20.00     0.136 C 
HETATM    5 CL7  UNL     1     -33.810   3.482   4.516  1.00 20.00    -0.129 Cl
ENDBRANCH   2   4
ENDBRANCH   1   2
BRANCH   1   6
HETATM    6  N4  UNL     1     -32.759   6.306   1.571  1.00 20.00    -0.154 N 
HETATM    7  O5  UNL     1     -32.173   7.401   1.570  1.00 20.00    -0.536 OA
HETATM    8  O6  UNL     1     -33.188   5.727   0.561  1.00 20.00    -0.536 OA
ENDBRANCH   1   6
TORSDOF 3
ENDMDL
MODEL 6
REMARK VINA RESULT:      -1.5      3.346      3.684
REMARK  3 active torsions:
REMARK  status: ('A' for Active; 'I' for Inactive)
REMARK    1  A    between atoms: C1_1  and  C3_3 
REMARK    2  A    between atoms: C1_1  and  N4_4 
REMARK    3  A    between atoms: C2_2  and  C3_3 
ROOT
HETATM    1  C1  UNL     1     -33.602   5.524   1.929  1.00 20.00     0.222 C 
ENDROOT
BRANCH   1   2
HETATM    2  C3  UNL     1     -33.691   5.558   3.451  1.00 20.00     0.120 C 
HETATM    3 CL8  UNL     1     -34.015   3.915   4.104  1.00 20.00    -0.122 Cl
BRANCH   2   4
HETATM    4  C2  UNL     1     -34.746   6.544   3.961  1.00 20.00     0.136 C 
HETATM    5 CL7  UNL     1     -34.057   8.063   4.590  1.00 20.00    -0.129 Cl
ENDBRANCH   2   4
ENDBRANCH   1   2
BRANCH   1   6
HETATM    6  N4  UNL     1     -32.303   6.091   1.516  1.00 20.00    -0.154 N 
HETATM    7  O5  UNL     1     -32.147   7.315   1.652  1.00 20.00    -0.536 OA
HETATM    8  O6  UNL     1     -31.446   5.308   1.075  1.00 20.00    -0.536 OA
ENDBRANCH   1   6
TORSDOF 3
ENDMDL
MODEL 7
REMARK VINA RESULT:      -1.5      1.878      2.470
REMARK  3 active torsions:
REMARK  status: ('A' for Active; 'I' for Inactive)
REMARK    1  A    between atoms: C1_1  and  C3_3 
REMARK    2  A    between atoms: C1_1  and  N4_4 
REMARK    3  A    between atoms: C2_2  and  C3_3 
ROOT
HETATM    1  C1  UNL     1     -34.755   6.548   3.654  1.00 20.00     0.222 C 
ENDROOT
BRANCH   1   2
HETATM    2  C3  UNL     1     -33.331   7.090   3.709  1.00 20.00     0.120 C 
HETATM    3 CL8  UNL     1     -33.199   8.402   4.930  1.00 20.00    -0.122 Cl
BRANCH   2   4
HETATM    4  C2  UNL     1     -32.833   7.585   2.348  1.00 20.00     0.136 C 
HETATM    5 CL7  UNL     1     -32.113   6.302   1.342  1.00 20.00    -0.129 Cl
ENDBRANCH   2   4
ENDBRANCH   1   2
BRANCH   1   6
HETATM    6  N4  UNL     1     -34.747   5.144   4.110  1.00 20.00    -0.154 N 
HETATM    7  O5  UNL     1     -35.703   4.766   4.806  1.00 20.00    -0.536 OA
HETATM    8  O6  UNL     1     -33.796   4.428   3.756  1.00 20.00    -0.536 OA
ENDBRANCH   1   6
TORSDOF 3
ENDMDL
MODEL 8
REMARK VINA RESULT:      -1.5      4.082      4.601
REMARK  3 active torsions:
REMARK  status: ('A' for Active; 'I' for Inactive)
REMARK    1  A    between atoms: C1_1  and  C3_3 
REMARK    2  A    between atoms: C1_1  and  N4_4 
REMARK    3  A    between atoms: C2_2  and  C3_3 
ROOT
HETATM    1  C1  UNL     1     -31.722   8.690   0.759  1.00 20.00     0.222 C 
ENDROOT
BRANCH   1   2
HETATM    2  C3  UNL     1     -32.492   8.167   1.968  1.00 20.00     0.120 C 
HETATM    3 CL8  UNL     1     -31.653   8.611   3.494  1.00 20.00    -0.122 Cl
BRANCH   2   4
HETATM    4  C2  UNL     1     -32.722   6.654   1.914  1.00 20.00     0.136 C 
HETATM    5 CL7  UNL     1     -33.885   6.065   3.130  1.00 20.00    -0.129 Cl
ENDBRANCH   2   4
ENDBRANCH   1   2
BRANCH   1   6
HETATM    6  N4  UNL     1     -32.460   9.831   0.182  1.00 20.00    -0.154 N 
HETATM    7  O5  UNL     1     -32.548  10.859   0.872  1.00 20.00    -0.536 OA
HETATM    8  O6  UNL     1     -32.931   9.695  -0.958  1.00 20.00    -0.536 OA
ENDBRANCH   1   6
TORSDOF 3
ENDMDL
MODEL 9
REMARK VINA RESULT:      -1.5      3.497      4.125
REMARK  3 active torsions:
REMARK  status: ('A' for Active; 'I' for Inactive)
REMARK    1  A    between atoms: C1_1  and  C3_3 
REMARK    2  A    between atoms: C1_1  and  N4_4 
REMARK    3  A    between atoms: C2_2  and  C3_3 
ROOT
HETATM    1  C1  UNL     1     -32.946   7.615   3.181  1.00 20.00     0.222 C 
ENDROOT
BRANCH   1   2
HETATM    2  C3  UNL     1     -33.909   6.466   2.899  1.00 20.00     0.120 C 
HETATM    3 CL8  UNL     1     -35.319   6.532   4.010  1.00 20.00    -0.122 Cl
BRANCH   2   4
HETATM    4  C2  UNL     1     -33.234   5.094   2.984  1.00 20.00     0.136 C 
HETATM    5 CL7  UNL     1     -33.999   3.995   4.160  1.00 20.00    -0.129 Cl
ENDBRANCH   2   4
ENDBRANCH   1   2
BRANCH   1   6
HETATM    6  N4  UNL     1     -32.234   7.957   1.934  1.00 20.00    -0.154 N 
HETATM    7  O5  UNL     1     -32.562   9.009   1.361  1.00 20.00    -0.536 OA
HETATM    8  O6  UNL     1     -31.344   7.183   1.548  1.00 20.00    -0.536 OA
ENDBRANCH   1   6
TORSDOF 3
ENDMDL
