MODEL 1
REMARK VINA RESULT:      -2.1      0.000      0.000
REMARK  5 active torsions:
REMARK  status: ('A' for Active; 'I' for Inactive)
REMARK    1  A    between atoms: C1_1  and  C2_2 
REMARK    2  A    between atoms: C1_1  and  C3_3 
REMARK    3  A    between atoms: C2_2  and  C7_7 
REMARK    4  A    between atoms: C7_7  and  C8_8 
REMARK    5  A    between atoms: C8_8  and  O9_9 
ROOT
HETATM    1  C2  UNL     1     -32.907   5.859   1.726  1.00 20.00     0.070 C 
ENDROOT
BRANCH   1   2
HETATM    2  C1  UNL     1     -33.651   6.132   2.759  1.00 20.00    -0.166 C 
BRANCH   2   3
HETATM    3  C3  UNL     1     -34.394   6.412   3.795  1.00 20.00     0.022 C 
HETATM    4  C4  UNL     1     -34.279   7.713   4.535  1.00 20.00     0.029 C 
HETATM    5  C5  UNL     1     -35.423   5.456   4.327  1.00 20.00     0.029 C 
ENDBRANCH   2   3
ENDBRANCH   1   2
BRANCH   1   6
HETATM    6  C7  UNL     1     -31.953   6.821   1.078  1.00 20.00     0.048 C 
BRANCH   6   7
HETATM    7  C8  UNL     1     -32.174   8.255   1.566  1.00 20.00     0.115 C 
HETATM    8  C6  UNL     1     -32.004   9.254   0.429  1.00 20.00     0.039 C 
BRANCH   7   9
HETATM    9  O9  UNL     1     -31.211   8.551   2.576  1.00 20.00    -0.396 OA
HETATM   10  H23 UNL     1     -31.705   8.683   3.399  1.00 20.00     0.210 HD
ENDBRANCH   7   9
ENDBRANCH   6   7
ENDBRANCH   1   6
TORSDOF 5
ENDMDL
MODEL 2
REMARK VINA RESULT:      -2.1      0.837      1.351
REMARK  5 active torsions:
REMARK  status: ('A' for Active; 'I' for Inactive)
REMARK    1  A    between atoms: C1_1  and  C2_2 
REMARK    2  A    between atoms: C1_1  and  C3_3 
REMARK    3  A    between atoms: C2_2  and  C7_7 
REMARK    4  A    between atoms: C7_7  and  C8_8 
REMARK    5  A    between atoms: C8_8  and  O9_9 
ROOT
HETATM    1  C2  UNL     1     -32.670   5.739   1.394  1.00 20.00     0.070 C 
ENDROOT
BRANCH   1   2
HETATM    2  C1  UNL     1     -33.416   5.570   2.447  1.00 20.00    -0.166 C 
BRANCH   2   3
HETATM    3  C3  UNL     1     -34.159   5.402   3.507  1.00 20.00     0.022 C 
HETATM    4  C4  UNL     1     -34.130   4.136   4.313  1.00 20.00     0.029 C 
HETATM    5  C5  UNL     1     -35.100   6.463   4.004  1.00 20.00     0.029 C 
ENDBRANCH   2   3
ENDBRANCH   1   2
BRANCH   1   6
HETATM    6  C7  UNL     1     -31.753   6.909   1.172  1.00 20.00     0.048 C 
BRANCH   6   7
HETATM    7  C8  UNL     1     -32.337   8.204   1.741  1.00 20.00     0.115 C 
HETATM    8  C6  UNL     1     -32.226   9.344   0.736  1.00 20.00     0.039 C 
BRANCH   7   9
HETATM    9  O9  UNL     1     -31.607   8.563   2.913  1.00 20.00    -0.396 OA
HETATM   10  H23 UNL     1     -31.176   7.754   3.227  1.00 20.00     0.210 HD
ENDBRANCH   7   9
ENDBRANCH   6   7
ENDBRANCH   1   6
TORSDOF 5
ENDMDL
MODEL 3
REMARK VINA RESULT:      -2.1      1.497      1.771
REMARK  5 active torsions:
REMARK  status: ('A' for Active; 'I' for Inactive)
REMARK    1  A    between atoms: C1_1  and  C2_2 
REMARK    2  A    between atoms: C1_1  and  C3_3 
REMARK    3  A    between atoms: C2_2  and  C7_7 
REMARK    4  A    between atoms: C7_7  and  C8_8 
REMARK    5  A    between atoms: C8_8  and  O9_9 
ROOT
HETATM    1  C2  UNL     1     -32.253   7.523   1.748  1.00 20.00     0.070 C 
ENDROOT
BRANCH   1   2
HETATM    2  C1  UNL     1     -33.066   7.425   2.759  1.00 20.00    -0.166 C 
BRANCH   2   3
HETATM    3  C3  UNL     1     -33.877   7.329   3.778  1.00 20.00     0.022 C 
HETATM    4  C4  UNL     1     -33.694   8.142   5.027  1.00 20.00     0.029 C 
HETATM    5  C5  UNL     1     -35.057   6.399   3.781  1.00 20.00     0.029 C 
ENDBRANCH   2   3
ENDBRANCH   1   2
BRANCH   1   6
HETATM    6  C7  UNL     1     -31.690   8.813   1.222  1.00 20.00     0.048 C 
BRANCH   6   7
HETATM    7  C8  UNL     1     -32.782   9.712   0.638  1.00 20.00     0.115 C 
HETATM    8  C6  UNL     1     -32.612   9.874  -0.867  1.00 20.00     0.039 C 
BRANCH   7   9
HETATM    9  O9  UNL     1     -32.691  11.000   1.244  1.00 20.00    -0.396 OA
HETATM   10  H23 UNL     1     -31.820  11.354   1.009  1.00 20.00     0.210 HD
ENDBRANCH   7   9
ENDBRANCH   6   7
ENDBRANCH   1   6
TORSDOF 5
ENDMDL
MODEL 4
REMARK VINA RESULT:      -2.1      1.468      2.067
REMARK  5 active torsions:
REMARK  status: ('A' for Active; 'I' for Inactive)
REMARK    1  A    between atoms: C1_1  and  C2_2 
REMARK    2  A    between atoms: C1_1  and  C3_3 
REMARK    3  A    between atoms: C2_2  and  C7_7 
REMARK    4  A    between atoms: C7_7  and  C8_8 
REMARK    5  A    between atoms: C8_8  and  O9_9 
ROOT
HETATM    1  C2  UNL     1     -32.277   7.474   1.764  1.00 20.00     0.070 C 
ENDROOT
BRANCH   1   2
HETATM    2  C1  UNL     1     -33.096   7.389   2.772  1.00 20.00    -0.166 C 
BRANCH   2   3
HETATM    3  C3  UNL     1     -33.913   7.301   3.787  1.00 20.00     0.022 C 
HETATM    4  C4  UNL     1     -35.088   6.366   3.790  1.00 20.00     0.029 C 
HETATM    5  C5  UNL     1     -33.741   8.126   5.030  1.00 20.00     0.029 C 
ENDBRANCH   2   3
ENDBRANCH   1   2
BRANCH   1   6
HETATM    6  C7  UNL     1     -31.696   8.755   1.237  1.00 20.00     0.048 C 
BRANCH   6   7
HETATM    7  C8  UNL     1     -32.774   9.662   0.638  1.00 20.00     0.115 C 
HETATM    8  C6  UNL     1     -32.582   9.825  -0.864  1.00 20.00     0.039 C 
BRANCH   7   9
HETATM    9  O9  UNL     1     -32.683  10.949   1.247  1.00 20.00    -0.396 OA
HETATM   10  H23 UNL     1     -33.170  11.561   0.675  1.00 20.00     0.210 HD
ENDBRANCH   7   9
ENDBRANCH   6   7
ENDBRANCH   1   6
TORSDOF 5
ENDMDL
MODEL 5
REMARK VINA RESULT:      -1.9      1.593      1.872
REMARK  5 active torsions:
REMARK  status: ('A' for Active; 'I' for Inactive)
REMARK    1  A    between atoms: C1_1  and  C2_2 
REMARK    2  A    between atoms: C1_1  and  C3_3 
REMARK    3  A    between atoms: C2_2  and  C7_7 
REMARK    4  A    between atoms: C7_7  and  C8_8 
REMARK    5  A    between atoms: C8_8  and  O9_9 
ROOT
HETATM    1  C2  UNL     1     -32.579   7.532   1.533  1.00 20.00     0.070 C 
ENDROOT
BRANCH   1   2
HETATM    2  C1  UNL     1     -33.258   7.415   2.637  1.00 20.00    -0.166 C 
BRANCH   2   3
HETATM    3  C3  UNL     1     -33.945   7.297   3.741  1.00 20.00     0.022 C 
HETATM    4  C4  UNL     1     -33.625   8.094   4.972  1.00 20.00     0.029 C 
HETATM    5  C5  UNL     1     -35.109   6.355   3.866  1.00 20.00     0.029 C 
ENDBRANCH   2   3
ENDBRANCH   1   2
BRANCH   1   6
HETATM    6  C7  UNL     1     -31.561   8.603   1.261  1.00 20.00     0.048 C 
BRANCH   6   7
HETATM    7  C8  UNL     1     -32.060   9.610   0.222  1.00 20.00     0.115 C 
HETATM    8  C6  UNL     1     -32.875  10.717   0.879  1.00 20.00     0.039 C 
BRANCH   7   9
HETATM    9  O9  UNL     1     -32.894   8.930  -0.714  1.00 20.00    -0.396 OA
HETATM   10  H23 UNL     1     -33.371   8.250  -0.216  1.00 20.00     0.210 HD
ENDBRANCH   7   9
ENDBRANCH   6   7
ENDBRANCH   1   6
TORSDOF 5
ENDMDL
MODEL 6
REMARK VINA RESULT:      -1.8      1.830      4.373
REMARK  5 active torsions:
REMARK  status: ('A' for Active; 'I' for Inactive)
REMARK    1  A    between atoms: C1_1  and  C2_2 
REMARK    2  A    between atoms: C1_1  and  C3_3 
REMARK    3  A    between atoms: C2_2  and  C7_7 
REMARK    4  A    between atoms: C7_7  and  C8_8 
REMARK    5  A    between atoms: C8_8  and  O9_9 
ROOT
HETATM    1  C2  UNL     1     -32.139   7.583   2.142  1.00 20.00     0.070 C 
ENDROOT
BRANCH   1   2
HETATM    2  C1  UNL     1     -32.279   8.576   1.313  1.00 20.00    -0.166 C 
BRANCH   2   3
HETATM    3  C3  UNL     1     -32.426   9.573   0.483  1.00 20.00     0.022 C 
HETATM    4  C4  UNL     1     -32.750  10.963   0.949  1.00 20.00     0.029 C 
HETATM    5  C5  UNL     1     -32.281   9.409  -1.004  1.00 20.00     0.029 C 
ENDBRANCH   2   3
ENDBRANCH   1   2
BRANCH   1   6
HETATM    6  C7  UNL     1     -32.969   6.330   2.126  1.00 20.00     0.048 C 
BRANCH   6   7
HETATM    7  C8  UNL     1     -34.140   6.412   3.109  1.00 20.00     0.115 C 
HETATM    8  C6  UNL     1     -33.954   7.565   4.087  1.00 20.00     0.039 C 
BRANCH   7   9
HETATM    9  O9  UNL     1     -34.204   5.196   3.851  1.00 20.00    -0.396 OA
HETATM   10  H23 UNL     1     -33.605   5.301   4.606  1.00 20.00     0.210 HD
ENDBRANCH   7   9
ENDBRANCH   6   7
ENDBRANCH   1   6
TORSDOF 5
ENDMDL
MODEL 7
REMARK VINA RESULT:      -1.8      2.108      4.138
REMARK  5 active torsions:
REMARK  status: ('A' for Active; 'I' for Inactive)
REMARK    1  A    between atoms: C1_1  and  C2_2 
REMARK    2  A    between atoms: C1_1  and  C3_3 
REMARK    3  A    between atoms: C2_2  and  C7_7 
REMARK    4  A    between atoms: C7_7  and  C8_8 
REMARK    5  A    between atoms: C8_8  and  O9_9 
ROOT
HETATM    1  C2  UNL     1     -33.105   5.790   1.867  1.00 20.00     0.070 C 
ENDROOT
BRANCH   1   2
HETATM    2  C1  UNL     1     -32.558   6.967   1.773  1.00 20.00    -0.166 C 
BRANCH   2   3
HETATM    3  C3  UNL     1     -32.010   8.149   1.685  1.00 20.00     0.022 C 
HETATM    4  C4  UNL     1     -31.204   8.743   2.803  1.00 20.00     0.029 C 
HETATM    5  C5  UNL     1     -32.142   9.006   0.458  1.00 20.00     0.029 C 
ENDBRANCH   2   3
ENDBRANCH   1   2
BRANCH   1   6
HETATM    6  C7  UNL     1     -33.681   5.211   3.129  1.00 20.00     0.048 C 
BRANCH   6   7
HETATM    7  C8  UNL     1     -34.883   6.019   3.627  1.00 20.00     0.115 C 
HETATM    8  C6  UNL     1     -34.432   7.275   4.361  1.00 20.00     0.039 C 
BRANCH   7   9
HETATM    9  O9  UNL     1     -35.636   5.213   4.531  1.00 20.00    -0.396 OA
HETATM   10  H23 UNL     1     -35.875   4.407   4.049  1.00 20.00     0.210 HD
ENDBRANCH   7   9
ENDBRANCH   6   7
ENDBRANCH   1   6
TORSDOF 5
ENDMDL
MODEL 8
REMARK VINA RESULT:      -1.8      1.928      4.487
REMARK  5 active torsions:
REMARK  status: ('A' for Active; 'I' for Inactive)
REMARK    1  A    between atoms: C1_1  and  C2_2 
REMARK    2  A    between atoms: C1_1  and  C3_3 
REMARK    3  A    between atoms: C2_2  and  C7_7 
REMARK    4  A    between atoms: C7_7  and  C8_8 
REMARK    5  A    between atoms: C8_8  and  O9_9 
ROOT
HETATM    1  C2  UNL     1     -32.161   7.533   2.162  1.00 20.00     0.070 C 
ENDROOT
BRANCH   1   2
HETATM    2  C1  UNL     1     -32.301   8.535   1.343  1.00 20.00    -0.166 C 
BRANCH   2   3
HETATM    3  C3  UNL     1     -32.439   9.536   0.517  1.00 20.00     0.022 C 
HETATM    4  C4  UNL     1     -32.338   9.366  -0.971  1.00 20.00     0.029 C 
HETATM    5  C5  UNL     1     -32.710  10.937   0.990  1.00 20.00     0.029 C 
ENDBRANCH   2   3
ENDBRANCH   1   2
BRANCH   1   6
HETATM    6  C7  UNL     1     -33.262   6.592   2.562  1.00 20.00     0.048 C 
BRANCH   6   7
HETATM    7  C8  UNL     1     -34.267   7.261   3.503  1.00 20.00     0.115 C 
HETATM    8  C6  UNL     1     -33.561   7.903   4.691  1.00 20.00     0.039 C 
BRANCH   7   9
HETATM    9  O9  UNL     1     -35.168   6.271   3.994  1.00 20.00    -0.396 OA
HETATM   10  H23 UNL     1     -35.347   5.670   3.255  1.00 20.00     0.210 HD
ENDBRANCH   7   9
ENDBRANCH   6   7
ENDBRANCH   1   6
TORSDOF 5
ENDMDL
MODEL 9
REMARK VINA RESULT:      -1.7      1.423      4.472
REMARK  5 active torsions:
REMARK  status: ('A' for Active; 'I' for Inactive)
REMARK    1  A    between atoms: C1_1  and  C2_2 
REMARK    2  A    between atoms: C1_1  and  C3_3 
REMARK    3  A    between atoms: C2_2  and  C7_7 
REMARK    4  A    between atoms: C7_7  and  C8_8 
REMARK    5  A    between atoms: C8_8  and  O9_9 
ROOT
HETATM    1  C2  UNL     1     -32.240   7.505   2.065  1.00 20.00     0.070 C 
ENDROOT
BRANCH   1   2
HETATM    2  C1  UNL     1     -32.328   8.538   1.278  1.00 20.00    -0.166 C 
BRANCH   2   3
HETATM    3  C3  UNL     1     -32.420   9.577   0.494  1.00 20.00     0.022 C 
HETATM    4  C4  UNL     1     -32.285   9.470  -0.998  1.00 20.00     0.029 C 
HETATM    5  C5  UNL     1     -32.669  10.962   1.021  1.00 20.00     0.029 C 
ENDBRANCH   2   3
ENDBRANCH   1   2
BRANCH   1   6
HETATM    6  C7  UNL     1     -33.348   6.522   2.316  1.00 20.00     0.048 C 
BRANCH   6   7
HETATM    7  C8  UNL     1     -33.866   6.607   3.755  1.00 20.00     0.115 C 
HETATM    8  C6  UNL     1     -35.322   6.166   3.840  1.00 20.00     0.039 C 
BRANCH   7   9
HETATM    9  O9  UNL     1     -33.777   7.960   4.197  1.00 20.00    -0.396 OA
HETATM   10  H23 UNL     1     -33.135   8.398   3.617  1.00 20.00     0.210 HD
ENDBRANCH   7   9
ENDBRANCH   6   7
ENDBRANCH   1   6
TORSDOF 5
ENDMDL
