MODEL 1
REMARK VINA RESULT:      -2.3      0.000      0.000
REMARK  1 active torsions:
REMARK  status: ('A' for Active; 'I' for Inactive)
REMARK    1  A    between atoms: C6_6  and  C7_7 
ROOT
HETATM    1  C1  UNL     1     -33.582   7.892   3.680  1.00 20.00     0.051 A 
HETATM    2  C2  UNL     1     -33.508   5.776   2.285  1.00 20.00     0.051 A 
HETATM    3  C3  UNL     1     -32.560   8.380   2.969  1.00 20.00    -0.013 A 
HETATM    4  C4  UNL     1     -32.486   6.287   1.590  1.00 20.00    -0.013 A 
HETATM    5  C5  UNL     1     -34.138   6.555   3.375  1.00 20.00     0.171 A 
HETATM    6  C6  UNL     1     -31.899   7.653   1.829  1.00 20.00     0.044 A 
HETATM    7  O8  UNL     1     -35.087   6.104   4.007  1.00 20.00    -0.289 OA
ENDROOT
BRANCH   6   8
HETATM    8  C7  UNL     1     -31.979   8.490   0.553  1.00 20.00     0.127 C 
HETATM    9 CL9  UNL     1     -32.656  10.087   0.914  1.00 20.00    -0.130 Cl
ENDBRANCH   6   8
TORSDOF 1
ENDMDL
MODEL 2
REMARK VINA RESULT:      -2.1      3.041      3.932
REMARK  1 active torsions:
REMARK  status: ('A' for Active; 'I' for Inactive)
REMARK    1  A    between atoms: C6_6  and  C7_7 
ROOT
HETATM    1  C1  UNL     1     -33.240   8.007   3.444  1.00 20.00     0.051 A 
HETATM    2  C2  UNL     1     -32.750   6.140   1.798  1.00 20.00     0.051 A 
HETATM    3  C3  UNL     1     -34.266   7.296   3.923  1.00 20.00    -0.013 A 
HETATM    4  C4  UNL     1     -33.783   5.451   2.296  1.00 20.00    -0.013 A 
HETATM    5  C5  UNL     1     -32.398   7.467   2.352  1.00 20.00     0.171 A 
HETATM    6  C6  UNL     1     -34.654   5.929   3.427  1.00 20.00     0.044 A 
HETATM    7  O8  UNL     1     -31.443   8.101   1.916  1.00 20.00    -0.289 OA
ENDROOT
BRANCH   6   8
HETATM    8  C7  UNL     1     -34.622   4.923   4.577  1.00 20.00     0.127 C 
HETATM    9 CL9  UNL     1     -33.658   3.508   4.122  1.00 20.00    -0.130 Cl
ENDBRANCH   6   8
TORSDOF 1
ENDMDL
MODEL 3
REMARK VINA RESULT:      -1.7      1.258      2.238
REMARK  1 active torsions:
REMARK  status: ('A' for Active; 'I' for Inactive)
REMARK    1  A    between atoms: C6_6  and  C7_7 
ROOT
HETATM    1  C1  UNL     1     -33.179   4.719   2.402  1.00 20.00     0.051 A 
HETATM    2  C2  UNL     1     -34.419   6.242   4.006  1.00 20.00     0.051 A 
HETATM    3  C3  UNL     1     -32.879   5.782   1.647  1.00 20.00    -0.013 A 
HETATM    4  C4  UNL     1     -34.105   7.287   3.233  1.00 20.00    -0.013 A 
HETATM    5  C5  UNL     1     -33.961   4.880   3.648  1.00 20.00     0.171 A 
HETATM    6  C6  UNL     1     -33.285   7.194   1.974  1.00 20.00     0.044 A 
HETATM    7  O8  UNL     1     -34.227   3.916   4.358  1.00 20.00    -0.289 OA
ENDROOT
BRANCH   6   8
HETATM    8  C7  UNL     1     -32.048   8.085   2.085  1.00 20.00     0.127 C 
HETATM    9 CL9  UNL     1     -32.038   9.278   0.777  1.00 20.00    -0.130 Cl
ENDBRANCH   6   8
TORSDOF 1
ENDMDL
MODEL 4
REMARK VINA RESULT:      -1.3      3.008      4.126
REMARK  1 active torsions:
REMARK  status: ('A' for Active; 'I' for Inactive)
REMARK    1  A    between atoms: C6_6  and  C7_7 
ROOT
HETATM    1  C1  UNL     1     -32.504   6.468   1.329  1.00 20.00     0.051 A 
HETATM    2  C2  UNL     1     -32.449   8.506   2.837  1.00 20.00     0.051 A 
HETATM    3  C3  UNL     1     -33.209   5.816   2.260  1.00 20.00    -0.013 A 
HETATM    4  C4  UNL     1     -33.154   7.830   3.751  1.00 20.00    -0.013 A 
HETATM    5  C5  UNL     1     -32.086   7.870   1.550  1.00 20.00     0.171 A 
HETATM    6  C6  UNL     1     -33.638   6.416   3.571  1.00 20.00     0.044 A 
HETATM    7  O8  UNL     1     -31.455   8.485   0.697  1.00 20.00    -0.289 OA
ENDROOT
BRANCH   6   8
HETATM    8  C7  UNL     1     -35.160   6.360   3.704  1.00 20.00     0.127 C 
HETATM    9 CL9  UNL     1     -35.632   4.987   4.718  1.00 20.00    -0.130 Cl
ENDBRANCH   6   8
TORSDOF 1
ENDMDL
MODEL 5
REMARK VINA RESULT:      -1.1      1.777      2.803
REMARK  1 active torsions:
REMARK  status: ('A' for Active; 'I' for Inactive)
REMARK    1  A    between atoms: C6_6  and  C7_7 
ROOT
HETATM    1  C1  UNL     1     -33.120   4.528   2.736  1.00 20.00     0.051 A 
HETATM    2  C2  UNL     1     -34.820   5.377   4.415  1.00 20.00     0.051 A 
HETATM    3  C3  UNL     1     -33.108   5.734   2.159  1.00 20.00    -0.013 A 
HETATM    4  C4  UNL     1     -34.789   6.574   3.819  1.00 20.00    -0.013 A 
HETATM    5  C5  UNL     1     -33.971   4.270   3.919  1.00 20.00     0.171 A 
HETATM    6  C6  UNL     1     -33.920   6.908   2.636  1.00 20.00     0.044 A 
HETATM    7  O8  UNL     1     -33.978   3.173   4.468  1.00 20.00    -0.289 OA
ENDROOT
BRANCH   6   8
HETATM    8  C7  UNL     1     -33.001   8.082   2.974  1.00 20.00     0.127 C 
HETATM    9 CL9  UNL     1     -31.650   8.146   1.831  1.00 20.00    -0.130 Cl
ENDBRANCH   6   8
TORSDOF 1
ENDMDL
MODEL 6
REMARK VINA RESULT:      -0.6      2.296      3.028
REMARK  1 active torsions:
REMARK  status: ('A' for Active; 'I' for Inactive)
REMARK    1  A    between atoms: C6_6  and  C7_7 
ROOT
HETATM    1  C1  UNL     1     -34.161   6.241   3.503  1.00 20.00     0.051 A 
HETATM    2  C2  UNL     1     -32.610   8.145   2.871  1.00 20.00     0.051 A 
HETATM    3  C3  UNL     1     -33.717   5.549   2.448  1.00 20.00    -0.013 A 
HETATM    4  C4  UNL     1     -32.184   7.431   1.823  1.00 20.00    -0.013 A 
HETATM    5  C5  UNL     1     -33.623   7.588   3.796  1.00 20.00     0.171 A 
HETATM    6  C6  UNL     1     -32.666   6.044   1.492  1.00 20.00     0.044 A 
HETATM    7  O8  UNL     1     -34.009   8.226   4.770  1.00 20.00    -0.289 OA
ENDROOT
BRANCH   6   8
HETATM    8  C7  UNL     1     -31.486   5.073   1.456  1.00 20.00     0.127 C 
HETATM    9 CL9  UNL     1     -31.527   4.121  -0.036  1.00 20.00    -0.130 Cl
ENDBRANCH   6   8
TORSDOF 1
ENDMDL
MODEL 7
REMARK VINA RESULT:      -0.3      2.238      3.155
REMARK  1 active torsions:
REMARK  status: ('A' for Active; 'I' for Inactive)
REMARK    1  A    between atoms: C6_6  and  C7_7 
ROOT
HETATM    1  C1  UNL     1     -32.234   7.295   1.818  1.00 20.00     0.051 A 
HETATM    2  C2  UNL     1     -33.567   5.276   2.576  1.00 20.00     0.051 A 
HETATM    3  C3  UNL     1     -32.971   8.067   2.624  1.00 20.00    -0.013 A 
HETATM    4  C4  UNL     1     -34.289   6.071   3.373  1.00 20.00    -0.013 A 
HETATM    5  C5  UNL     1     -32.474   5.837   1.750  1.00 20.00     0.171 A 
HETATM    6  C6  UNL     1     -34.072   7.553   3.513  1.00 20.00     0.044 A 
HETATM    7  O8  UNL     1     -31.793   5.116   1.028  1.00 20.00    -0.289 OA
ENDROOT
BRANCH   6   8
HETATM    8  C7  UNL     1     -33.779   7.907   4.971  1.00 20.00     0.127 C 
HETATM    9 CL9  UNL     1     -32.227   8.751   5.093  1.00 20.00    -0.130 Cl
ENDBRANCH   6   8
TORSDOF 1
ENDMDL
MODEL 8
REMARK VINA RESULT:       0.1      2.183      2.531
REMARK  1 active torsions:
REMARK  status: ('A' for Active; 'I' for Inactive)
REMARK    1  A    between atoms: C6_6  and  C7_7 
ROOT
HETATM    1  C1  UNL     1     -35.021   6.689   4.049  1.00 20.00     0.051 A 
HETATM    2  C2  UNL     1     -33.955   4.398   3.845  1.00 20.00     0.051 A 
HETATM    3  C3  UNL     1     -34.009   7.208   3.345  1.00 20.00    -0.013 A 
HETATM    4  C4  UNL     1     -32.955   4.942   3.143  1.00 20.00    -0.013 A 
HETATM    5  C5  UNL     1     -35.070   5.238   4.336  1.00 20.00     0.171 A 
HETATM    6  C6  UNL     1     -32.865   6.403   2.790  1.00 20.00     0.044 A 
HETATM    7  O8  UNL     1     -36.002   4.748   4.966  1.00 20.00    -0.289 OA
ENDROOT
BRANCH   6   8
HETATM    8  C7  UNL     1     -32.790   6.573   1.272  1.00 20.00     0.127 C 
HETATM    9 CL9  UNL     1     -32.498   5.007   0.498  1.00 20.00    -0.130 Cl
ENDBRANCH   6   8
TORSDOF 1
ENDMDL
MODEL 9
REMARK VINA RESULT:       0.2      2.382      2.857
REMARK  1 active torsions:
REMARK  status: ('A' for Active; 'I' for Inactive)
REMARK    1  A    between atoms: C6_6  and  C7_7 
ROOT
HETATM    1  C1  UNL     1     -32.528   7.988   2.824  1.00 20.00     0.051 A 
HETATM    2  C2  UNL     1     -34.187   6.286   3.707  1.00 20.00     0.051 A 
HETATM    3  C3  UNL     1     -32.214   7.147   1.832  1.00 20.00    -0.013 A 
HETATM    4  C4  UNL     1     -33.855   5.465   2.705  1.00 20.00    -0.013 A 
HETATM    5  C5  UNL     1     -33.552   7.618   3.826  1.00 20.00     0.171 A 
HETATM    6  C6  UNL     1     -32.848   5.796   1.637  1.00 20.00     0.044 A 
HETATM    7  O8  UNL     1     -33.861   8.388   4.730  1.00 20.00    -0.289 OA
ENDROOT
BRANCH   6   8
HETATM    8  C7  UNL     1     -33.500   5.715   0.256  1.00 20.00     0.127 C 
HETATM    9 CL9  UNL     1     -33.480   4.043  -0.328  1.00 20.00    -0.130 Cl
ENDBRANCH   6   8
TORSDOF 1
ENDMDL
