MODEL 1
REMARK VINA RESULT:      -0.1      0.000      0.000
REMARK  2 active torsions:
REMARK  status: ('A' for Active; 'I' for Inactive)
REMARK    1  A    between atoms: C7_7  and  C8_8 
REMARK    2  A    between atoms: C9_9  and  C10_10 
ROOT
HETATM    1  C1  UNL     1     -35.435   5.584   4.191  1.00 20.00     0.047 C 
HETATM    2  C2  UNL     1     -35.298   6.916   4.023  1.00 20.00    -0.017 C 
HETATM    3  C5  UNL     1     -34.110   5.000   3.786  1.00 20.00     0.154 C 
HETATM    4  C7  UNL     1     -33.862   7.256   3.816  1.00 20.00     0.028 C 
HETATM    5  C10 UNL     1     -33.450   6.041   2.951  1.00 20.00     0.075 C 
HETATM    6  O11 UNL     1     -33.729   3.869   4.015  1.00 20.00    -0.293 OA
ENDROOT
BRANCH   5   7
HETATM    7  C9  UNL     1     -32.069   6.436   2.450  1.00 20.00     0.021 C 
HETATM    8  C4  UNL     1     -31.999   7.787   1.777  1.00 20.00    -0.025 C 
HETATM    9  C3  UNL     1     -32.699   7.713   0.629  1.00 20.00    -0.025 C 
HETATM   10  C8  UNL     1     -33.363   6.337   0.590  1.00 20.00     0.017 C 
HETATM   11  C6  UNL     1     -32.146   5.582   1.147  1.00 20.00     0.018 C 
ENDBRANCH   5   7
TORSDOF 2
ENDMDL
MODEL 2
REMARK VINA RESULT:       0.0      1.800      2.544
REMARK  2 active torsions:
REMARK  status: ('A' for Active; 'I' for Inactive)
REMARK    1  A    between atoms: C7_7  and  C8_8 
REMARK    2  A    between atoms: C9_9  and  C10_10 
ROOT
HETATM    1  C1  UNL     1     -33.826   5.912   2.680  1.00 20.00     0.047 C 
HETATM    2  C2  UNL     1     -34.148   7.008   3.400  1.00 20.00    -0.017 C 
HETATM    3  C5  UNL     1     -32.619   6.312   1.877  1.00 20.00     0.154 C 
HETATM    4  C7  UNL     1     -33.040   8.002   3.333  1.00 20.00     0.028 C 
HETATM    5  C10 UNL     1     -32.626   7.801   1.855  1.00 20.00     0.075 C 
HETATM    6  O11 UNL     1     -31.873   5.556   1.287  1.00 20.00    -0.293 OA
ENDROOT
BRANCH   5   7
HETATM    7  C9  UNL     1     -31.686   8.970   1.606  1.00 20.00     0.021 C 
HETATM    8  C4  UNL     1     -32.367  10.259   1.203  1.00 20.00    -0.025 C 
HETATM    9  C3  UNL     1     -32.911  10.075  -0.015  1.00 20.00    -0.025 C 
HETATM   10  C8  UNL     1     -32.713   8.605  -0.384  1.00 20.00     0.017 C 
HETATM   11  C6  UNL     1     -31.281   8.517   0.168  1.00 20.00     0.018 C 
ENDBRANCH   5   7
TORSDOF 2
ENDMDL
MODEL 3
REMARK VINA RESULT:       1.0      1.471      2.806
REMARK  2 active torsions:
REMARK  status: ('A' for Active; 'I' for Inactive)
REMARK    1  A    between atoms: C7_7  and  C8_8 
REMARK    2  A    between atoms: C9_9  and  C10_10 
ROOT
HETATM    1  C1  UNL     1     -33.666   3.531   4.728  1.00 20.00     0.047 C 
HETATM    2  C2  UNL     1     -32.652   3.588   3.839  1.00 20.00    -0.017 C 
HETATM    3  C5  UNL     1     -34.577   4.667   4.356  1.00 20.00     0.154 C 
HETATM    4  C7  UNL     1     -33.005   4.512   2.725  1.00 20.00     0.028 C 
HETATM    5  C10 UNL     1     -33.747   5.598   3.542  1.00 20.00     0.075 C 
HETATM    6  O11 UNL     1     -35.718   4.823   4.745  1.00 20.00    -0.293 OA
ENDROOT
BRANCH   5   7
HETATM    7  C9  UNL     1     -33.904   6.728   2.537  1.00 20.00     0.021 C 
HETATM    8  C4  UNL     1     -32.632   7.482   2.223  1.00 20.00    -0.025 C 
HETATM    9  C3  UNL     1     -32.263   8.148   3.334  1.00 20.00    -0.025 C 
HETATM   10  C8  UNL     1     -33.220   7.734   4.451  1.00 20.00     0.017 C 
HETATM   11  C6  UNL     1     -34.478   7.750   3.567  1.00 20.00     0.018 C 
ENDBRANCH   5   7
TORSDOF 2
ENDMDL
MODEL 4
REMARK VINA RESULT:       1.3      1.807      4.005
REMARK  2 active torsions:
REMARK  status: ('A' for Active; 'I' for Inactive)
REMARK    1  A    between atoms: C7_7  and  C8_8 
REMARK    2  A    between atoms: C9_9  and  C10_10 
ROOT
HETATM    1  C1  UNL     1     -31.999   7.195   0.681  1.00 20.00     0.047 C 
HETATM    2  C2  UNL     1     -32.526   5.953   0.639  1.00 20.00    -0.017 C 
HETATM    3  C5  UNL     1     -32.065   7.600   2.127  1.00 20.00     0.154 C 
HETATM    4  C7  UNL     1     -32.656   5.411   2.020  1.00 20.00     0.028 C 
HETATM    5  C10 UNL     1     -33.083   6.708   2.748  1.00 20.00     0.075 C 
HETATM    6  O11 UNL     1     -31.479   8.537   2.633  1.00 20.00    -0.293 OA
ENDROOT
BRANCH   5   7
HETATM    7  C9  UNL     1     -33.514   6.202   4.116  1.00 20.00     0.021 C 
HETATM    8  C4  UNL     1     -34.800   5.407   4.123  1.00 20.00    -0.025 C 
HETATM    9  C3  UNL     1     -35.806   6.246   3.808  1.00 20.00    -0.025 C 
HETATM   10  C8  UNL     1     -35.179   7.593   3.451  1.00 20.00     0.017 C 
HETATM   11  C6  UNL     1     -34.132   7.560   4.576  1.00 20.00     0.018 C 
ENDBRANCH   5   7
TORSDOF 2
ENDMDL
MODEL 5
REMARK VINA RESULT:       1.5      2.091      3.678
REMARK  2 active torsions:
REMARK  status: ('A' for Active; 'I' for Inactive)
REMARK    1  A    between atoms: C7_7  and  C8_8 
REMARK    2  A    between atoms: C9_9  and  C10_10 
ROOT
HETATM    1  C1  UNL     1     -31.764   8.700   3.839  1.00 20.00     0.047 C 
HETATM    2  C2  UNL     1     -32.576   8.577   4.910  1.00 20.00    -0.017 C 
HETATM    3  C5  UNL     1     -32.470   7.975   2.728  1.00 20.00     0.154 C 
HETATM    4  C7  UNL     1     -33.910   8.070   4.480  1.00 20.00     0.028 C 
HETATM    5  C10 UNL     1     -33.447   7.070   3.394  1.00 20.00     0.075 C 
HETATM    6  O11 UNL     1     -32.203   8.050   1.544  1.00 20.00    -0.293 OA
ENDROOT
BRANCH   5   7
HETATM    7  C9  UNL     1     -34.717   6.292   3.087  1.00 20.00     0.021 C 
HETATM    8  C4  UNL     1     -35.237   5.448   4.228  1.00 20.00    -0.025 C 
HETATM    9  C3  UNL     1     -34.351   4.457   4.445  1.00 20.00    -0.025 C 
HETATM   10  C8  UNL     1     -33.153   4.711   3.532  1.00 20.00     0.017 C 
HETATM   11  C6  UNL     1     -33.993   5.142   2.319  1.00 20.00     0.018 C 
ENDBRANCH   5   7
TORSDOF 2
ENDMDL
MODEL 6
REMARK VINA RESULT:       1.8      2.855      4.741
REMARK  2 active torsions:
REMARK  status: ('A' for Active; 'I' for Inactive)
REMARK    1  A    between atoms: C7_7  and  C8_8 
REMARK    2  A    between atoms: C9_9  and  C10_10 
ROOT
HETATM    1  C1  UNL     1     -32.861  10.311  -0.648  1.00 20.00     0.047 C 
HETATM    2  C2  UNL     1     -32.298   9.213  -1.195  1.00 20.00    -0.017 C 
HETATM    3  C5  UNL     1     -32.605  10.189   0.828  1.00 20.00     0.154 C 
HETATM    4  C7  UNL     1     -31.431   8.534  -0.191  1.00 20.00     0.028 C 
HETATM    5  C10 UNL     1     -32.307   8.750   1.067  1.00 20.00     0.075 C 
HETATM    6  O11 UNL     1     -32.730  11.076   1.649  1.00 20.00    -0.293 OA
ENDROOT
BRANCH   5   7
HETATM    7  C9  UNL     1     -31.646   7.849   2.098  1.00 20.00     0.021 C 
HETATM    8  C4  UNL     1     -31.651   6.377   1.752  1.00 20.00    -0.025 C 
HETATM    9  C3  UNL     1     -32.927   5.949   1.788  1.00 20.00    -0.025 C 
HETATM   10  C8  UNL     1     -33.810   7.172   2.027  1.00 20.00     0.017 C 
HETATM   11  C6  UNL     1     -32.873   7.818   3.061  1.00 20.00     0.018 C 
ENDBRANCH   5   7
TORSDOF 2
ENDMDL
MODEL 7
REMARK VINA RESULT:       1.9      1.471      2.340
REMARK  2 active torsions:
REMARK  status: ('A' for Active; 'I' for Inactive)
REMARK    1  A    between atoms: C7_7  and  C8_8 
REMARK    2  A    between atoms: C9_9  and  C10_10 
ROOT
HETATM    1  C1  UNL     1     -34.705   4.769   4.837  1.00 20.00     0.047 C 
HETATM    2  C2  UNL     1     -33.807   3.903   4.319  1.00 20.00    -0.017 C 
HETATM    3  C5  UNL     1     -34.897   5.815   3.774  1.00 20.00     0.154 C 
HETATM    4  C7  UNL     1     -33.631   4.166   2.864  1.00 20.00     0.028 C 
HETATM    5  C10 UNL     1     -33.706   5.712   2.888  1.00 20.00     0.075 C 
HETATM    6  O11 UNL     1     -35.794   6.635   3.735  1.00 20.00    -0.293 OA
ENDROOT
BRANCH   5   7
HETATM    7  C9  UNL     1     -33.255   6.094   1.487  1.00 20.00     0.021 C 
HETATM    8  C4  UNL     1     -31.759   6.223   1.313  1.00 20.00    -0.025 C 
HETATM    9  C3  UNL     1     -31.350   7.284   2.035  1.00 20.00    -0.025 C 
HETATM   10  C8  UNL     1     -32.560   7.798   2.814  1.00 20.00     0.017 C 
HETATM   11  C6  UNL     1     -33.555   7.616   1.656  1.00 20.00     0.018 C 
ENDBRANCH   5   7
TORSDOF 2
ENDMDL
MODEL 8
REMARK VINA RESULT:       2.1      1.522      2.633
REMARK  2 active torsions:
REMARK  status: ('A' for Active; 'I' for Inactive)
REMARK    1  A    between atoms: C7_7  and  C8_8 
REMARK    2  A    between atoms: C9_9  and  C10_10 
ROOT
HETATM    1  C1  UNL     1     -34.252   4.507   4.304  1.00 20.00     0.047 C 
HETATM    2  C2  UNL     1     -33.181   4.290   3.511  1.00 20.00    -0.017 C 
HETATM    3  C5  UNL     1     -34.810   5.829   3.854  1.00 20.00     0.154 C 
HETATM    4  C7  UNL     1     -33.187   5.254   2.375  1.00 20.00     0.028 C 
HETATM    5  C10 UNL     1     -33.702   6.506   3.125  1.00 20.00     0.075 C 
HETATM    6  O11 UNL     1     -35.905   6.274   4.138  1.00 20.00    -0.293 OA
ENDROOT
BRANCH   5   7
HETATM    7  C9  UNL     1     -33.478   7.621   2.115  1.00 20.00     0.021 C 
HETATM    8  C4  UNL     1     -32.030   7.881   1.767  1.00 20.00    -0.025 C 
HETATM    9  C3  UNL     1     -31.425   8.375   2.864  1.00 20.00    -0.025 C 
HETATM   10  C8  UNL     1     -32.439   8.321   4.006  1.00 20.00     0.017 C 
HETATM   11  C6  UNL     1     -33.632   8.778   3.151  1.00 20.00     0.018 C 
ENDBRANCH   5   7
TORSDOF 2
ENDMDL
MODEL 9
REMARK VINA RESULT:       2.3      1.805      3.760
REMARK  2 active torsions:
REMARK  status: ('A' for Active; 'I' for Inactive)
REMARK    1  A    between atoms: C7_7  and  C8_8 
REMARK    2  A    between atoms: C9_9  and  C10_10 
ROOT
HETATM    1  C1  UNL     1     -32.777   7.571   2.656  1.00 20.00     0.047 C 
HETATM    2  C2  UNL     1     -33.538   7.794   3.749  1.00 20.00    -0.017 C 
HETATM    3  C5  UNL     1     -33.048   6.142   2.275  1.00 20.00     0.154 C 
HETATM    4  C7  UNL     1     -34.514   6.681   3.922  1.00 20.00     0.028 C 
HETATM    5  C10 UNL     1     -33.610   5.500   3.495  1.00 20.00     0.075 C 
HETATM    6  O11 UNL     1     -32.756   5.619   1.217  1.00 20.00    -0.293 OA
ENDROOT
BRANCH   5   7
HETATM    7  C9  UNL     1     -34.426   4.284   3.905  1.00 20.00     0.021 C 
HETATM    8  C4  UNL     1     -34.229   3.839   5.336  1.00 20.00    -0.025 C 
HETATM    9  C3  UNL     1     -32.968   3.380   5.455  1.00 20.00    -0.025 C 
HETATM   10  C8  UNL     1     -32.262   3.641   4.126  1.00 20.00     0.017 C 
HETATM   11  C6  UNL     1     -33.463   3.244   3.252  1.00 20.00     0.018 C 
ENDBRANCH   5   7
TORSDOF 2
ENDMDL
