MODEL 1
REMARK VINA RESULT:       6.0      0.000      0.000
REMARK  0 active torsions:
REMARK  status: ('A' for Active; 'I' for Inactive)
ROOT
HETATM    1  C1  UNL     1     -33.681   6.830   0.593  1.00 20.00     0.009 C 
HETATM    2  C2  UNL     1     -31.760   8.373   1.061  1.00 20.00     0.012 C 
HETATM    3  C3  UNL     1     -31.607   5.952   1.702  1.00 20.00     0.012 C 
HETATM    4  C4  UNL     1     -33.888   8.589   2.369  1.00 20.00     0.051 C 
HETATM    5  C5  UNL     1     -33.738   6.169   3.010  1.00 20.00     0.051 C 
HETATM    6  C6  UNL     1     -33.294   8.267   0.987  1.00 20.00    -0.010 C 
HETATM    7  C7  UNL     1     -33.141   5.830   1.634  1.00 20.00    -0.010 C 
HETATM    8  C8  UNL     1     -31.208   7.382   2.106  1.00 20.00     0.024 C 
HETATM    9  C9  UNL     1     -31.818   7.702   3.479  1.00 20.00     0.213 C 
HETATM   10  C10 UNL     1     -33.345   7.599   3.408  1.00 20.00     0.135 C 
HETATM   11  F11 UNL     1     -31.472   8.970   3.834  1.00 20.00    -0.246 F 
HETATM   12  F12 UNL     1     -33.871   7.885   4.624  1.00 20.00    -0.240 F 
ENDROOT
TORSDOF 0
ENDMDL
MODEL 2
REMARK VINA RESULT:       6.0      0.932      2.544
REMARK  0 active torsions:
REMARK  status: ('A' for Active; 'I' for Inactive)
ROOT
HETATM    1  C1  UNL     1     -31.714   8.409   1.294  1.00 20.00     0.009 C 
HETATM    2  C2  UNL     1     -31.679   5.963   1.844  1.00 20.00     0.012 C 
HETATM    3  C3  UNL     1     -33.574   6.919   0.507  1.00 20.00     0.012 C 
HETATM    4  C4  UNL     1     -32.099   7.648   3.653  1.00 20.00     0.051 C 
HETATM    5  C5  UNL     1     -33.993   8.607   2.317  1.00 20.00     0.051 C 
HETATM    6  C6  UNL     1     -31.318   7.368   2.357  1.00 20.00    -0.010 C 
HETATM    7  C7  UNL     1     -33.226   8.332   1.012  1.00 20.00    -0.010 C 
HETATM    8  C8  UNL     1     -33.193   5.870   1.566  1.00 20.00     0.024 C 
HETATM    9  C9  UNL     1     -33.965   6.166   2.861  1.00 20.00     0.213 C 
HETATM   10  C10 UNL     1     -33.606   7.564   3.375  1.00 20.00     0.135 C 
HETATM   11  F11 UNL     1     -33.623   5.243   3.801  1.00 20.00    -0.246 F 
HETATM   12  F12 UNL     1     -34.291   7.812   4.517  1.00 20.00    -0.240 F 
ENDROOT
TORSDOF 0
ENDMDL
MODEL 3
REMARK VINA RESULT:       6.2      2.136      3.573
REMARK  0 active torsions:
REMARK  status: ('A' for Active; 'I' for Inactive)
ROOT
HETATM    1  C1  UNL     1     -34.625   8.383   2.969  1.00 20.00     0.009 C 
HETATM    2  C2  UNL     1     -35.334   6.210   4.000  1.00 20.00     0.012 C 
HETATM    3  C3  UNL     1     -33.248   7.353   4.797  1.00 20.00     0.012 C 
HETATM    4  C4  UNL     1     -34.464   6.256   1.648  1.00 20.00     0.051 C 
HETATM    5  C5  UNL     1     -32.380   7.401   2.443  1.00 20.00     0.051 C 
HETATM    6  C6  UNL     1     -35.292   7.023   2.693  1.00 20.00    -0.010 C 
HETATM    7  C7  UNL     1     -33.193   8.174   3.495  1.00 20.00    -0.010 C 
HETATM    8  C8  UNL     1     -33.904   5.986   4.533  1.00 20.00     0.024 C 
HETATM    9  C9  UNL     1     -33.081   5.234   3.477  1.00 20.00     0.213 C 
HETATM   10  C10 UNL     1     -33.040   6.041   2.175  1.00 20.00     0.135 C 
HETATM   11  F11 UNL     1     -33.664   4.028   3.236  1.00 20.00    -0.246 F 
HETATM   12  F12 UNL     1     -32.313   5.366   1.251  1.00 20.00    -0.240 F 
ENDROOT
TORSDOF 0
ENDMDL
MODEL 4
REMARK VINA RESULT:       6.2      1.514      2.871
REMARK  0 active torsions:
REMARK  status: ('A' for Active; 'I' for Inactive)
ROOT
HETATM    1  C1  UNL     1     -31.968   8.869   1.080  1.00 20.00     0.009 C 
HETATM    2  C2  UNL     1     -34.011   8.775   2.530  1.00 20.00     0.012 C 
HETATM    3  C3  UNL     1     -31.752   8.308   3.516  1.00 20.00     0.012 C 
HETATM    4  C4  UNL     1     -33.624   7.006   0.795  1.00 20.00     0.051 C 
HETATM    5  C5  UNL     1     -31.365   6.539   1.778  1.00 20.00     0.051 C 
HETATM    6  C6  UNL     1     -33.463   8.501   1.118  1.00 20.00    -0.010 C 
HETATM    7  C7  UNL     1     -31.188   8.030   2.110  1.00 20.00    -0.010 C 
HETATM    8  C8  UNL     1     -33.244   7.935   3.571  1.00 20.00     0.024 C 
HETATM    9  C9  UNL     1     -33.398   6.444   3.232  1.00 20.00     0.213 C 
HETATM   10  C10 UNL     1     -32.855   6.170   1.826  1.00 20.00     0.135 C 
HETATM   11  F11 UNL     1     -34.718   6.115   3.272  1.00 20.00    -0.246 F 
HETATM   12  F12 UNL     1     -32.998   4.853   1.538  1.00 20.00    -0.240 F 
ENDROOT
TORSDOF 0
ENDMDL
MODEL 5
REMARK VINA RESULT:       6.6      2.036      2.987
REMARK  0 active torsions:
REMARK  status: ('A' for Active; 'I' for Inactive)
ROOT
HETATM    1  C1  UNL     1     -33.712   6.889   2.698  1.00 20.00     0.009 C 
HETATM    2  C2  UNL     1     -31.483   6.426   1.649  1.00 20.00     0.012 C 
HETATM    3  C3  UNL     1     -31.704   8.234   3.373  1.00 20.00     0.012 C 
HETATM    4  C4  UNL     1     -33.308   7.487   0.296  1.00 20.00     0.051 C 
HETATM    5  C5  UNL     1     -33.532   9.294   2.019  1.00 20.00     0.051 C 
HETATM    6  C6  UNL     1     -33.001   6.462   1.400  1.00 20.00    -0.010 C 
HETATM    7  C7  UNL     1     -33.226   8.282   3.136  1.00 20.00    -0.010 C 
HETATM    8  C8  UNL     1     -30.981   7.818   2.081  1.00 20.00     0.024 C 
HETATM    9  C9  UNL     1     -31.304   8.839   0.978  1.00 20.00     0.213 C 
HETATM   10  C10 UNL     1     -32.816   8.874   0.728  1.00 20.00     0.135 C 
HETATM   11  F11 UNL     1     -30.671   8.468  -0.169  1.00 20.00    -0.246 F 
HETATM   12  F12 UNL     1     -33.088   9.776  -0.247  1.00 20.00    -0.240 F 
ENDROOT
TORSDOF 0
ENDMDL
MODEL 6
REMARK VINA RESULT:       6.6      1.539      2.482
REMARK  0 active torsions:
REMARK  status: ('A' for Active; 'I' for Inactive)
ROOT
HETATM    1  C1  UNL     1     -35.285   5.594   4.009  1.00 20.00     0.009 C 
HETATM    2  C2  UNL     1     -34.770   6.654   1.796  1.00 20.00     0.012 C 
HETATM    3  C3  UNL     1     -33.247   4.890   2.725  1.00 20.00     0.012 C 
HETATM    4  C4  UNL     1     -34.526   7.983   3.908  1.00 20.00     0.051 C 
HETATM    5  C5  UNL     1     -33.006   6.220   4.840  1.00 20.00     0.051 C 
HETATM    6  C6  UNL     1     -35.357   6.901   3.198  1.00 20.00    -0.010 C 
HETATM    7  C7  UNL     1     -33.824   5.126   4.135  1.00 20.00    -0.010 C 
HETATM    8  C8  UNL     1     -33.303   6.192   1.907  1.00 20.00     0.024 C 
HETATM    9  C9  UNL     1     -32.485   7.272   2.631  1.00 20.00     0.213 C 
HETATM   10  C10 UNL     1     -33.068   7.520   4.026  1.00 20.00     0.135 C 
HETATM   11  F11 UNL     1     -32.540   8.427   1.912  1.00 20.00    -0.246 F 
HETATM   12  F12 UNL     1     -32.340   8.476   4.654  1.00 20.00    -0.240 F 
ENDROOT
TORSDOF 0
ENDMDL
MODEL 7
REMARK VINA RESULT:       6.6      1.913      3.294
REMARK  0 active torsions:
REMARK  status: ('A' for Active; 'I' for Inactive)
ROOT
HETATM    1  C1  UNL     1     -35.172   5.951   4.184  1.00 20.00     0.009 C 
HETATM    2  C2  UNL     1     -33.094   7.263   4.682  1.00 20.00     0.012 C 
HETATM    3  C3  UNL     1     -34.910   8.278   3.279  1.00 20.00     0.012 C 
HETATM    4  C4  UNL     1     -32.992   5.294   3.132  1.00 20.00     0.051 C 
HETATM    5  C5  UNL     1     -34.808   6.306   1.730  1.00 20.00     0.051 C 
HETATM    6  C6  UNL     1     -33.651   5.855   4.403  1.00 20.00    -0.010 C 
HETATM    7  C7  UNL     1     -35.479   6.875   2.991  1.00 20.00    -0.010 C 
HETATM    8  C8  UNL     1     -33.388   8.197   3.490  1.00 20.00     0.024 C 
HETATM    9  C9  UNL     1     -32.738   7.621   2.223  1.00 20.00     0.213 C 
HETATM   10  C10 UNL     1     -33.290   6.219   1.945  1.00 20.00     0.135 C 
HETATM   11  F11 UNL     1     -31.392   7.542   2.411  1.00 20.00    -0.246 F 
HETATM   12  F12 UNL     1     -32.709   5.721   0.826  1.00 20.00    -0.240 F 
ENDROOT
TORSDOF 0
ENDMDL
MODEL 8
REMARK VINA RESULT:       6.7      1.866      3.039
REMARK  0 active torsions:
REMARK  status: ('A' for Active; 'I' for Inactive)
ROOT
HETATM    1  C1  UNL     1     -31.643   6.263   1.663  1.00 20.00     0.009 C 
HETATM    2  C2  UNL     1     -31.272   8.441   2.850  1.00 20.00     0.012 C 
HETATM    3  C3  UNL     1     -33.559   7.410   2.810  1.00 20.00     0.012 C 
HETATM    4  C4  UNL     1     -31.182   8.347   0.345  1.00 20.00     0.051 C 
HETATM    5  C5  UNL     1     -33.467   7.315   0.303  1.00 20.00     0.051 C 
HETATM    6  C6  UNL     1     -30.854   7.585   1.640  1.00 20.00    -0.010 C 
HETATM    7  C7  UNL     1     -33.156   6.547   1.599  1.00 20.00    -0.010 C 
HETATM    8  C8  UNL     1     -32.784   8.739   2.793  1.00 20.00     0.024 C 
HETATM    9  C9  UNL     1     -33.105   9.487   1.490  1.00 20.00     0.213 C 
HETATM   10  C10 UNL     1     -32.688   8.637   0.285  1.00 20.00     0.135 C 
HETATM   11  F11 UNL     1     -32.414  10.660   1.470  1.00 20.00    -0.246 F 
HETATM   12  F12 UNL     1     -32.973   9.308  -0.858  1.00 20.00    -0.240 F 
ENDROOT
TORSDOF 0
ENDMDL
MODEL 9
REMARK VINA RESULT:       6.7      2.294      3.417
REMARK  0 active torsions:
REMARK  status: ('A' for Active; 'I' for Inactive)
ROOT
HETATM    1  C1  UNL     1     -34.462   7.655   4.580  1.00 20.00     0.009 C 
HETATM    2  C2  UNL     1     -32.920   7.619   2.603  1.00 20.00     0.012 C 
HETATM    3  C3  UNL     1     -35.329   6.977   2.325  1.00 20.00     0.012 C 
HETATM    4  C4  UNL     1     -32.670   5.907   4.419  1.00 20.00     0.051 C 
HETATM    5  C5  UNL     1     -35.078   5.265   4.143  1.00 20.00     0.051 C 
HETATM    6  C6  UNL     1     -33.019   7.375   4.120  1.00 20.00    -0.010 C 
HETATM    7  C7  UNL     1     -35.445   6.728   3.841  1.00 20.00    -0.010 C 
HETATM    8  C8  UNL     1     -33.894   6.690   1.850  1.00 20.00     0.024 C 
HETATM    9  C9  UNL     1     -33.546   5.227   2.166  1.00 20.00     0.213 C 
HETATM   10  C10 UNL     1     -33.643   4.983   3.676  1.00 20.00     0.135 C 
HETATM   11  F11 UNL     1     -32.274   4.974   1.754  1.00 20.00    -0.246 F 
HETATM   12  F12 UNL     1     -33.333   3.691   3.942  1.00 20.00    -0.240 F 
ENDROOT
TORSDOF 0
ENDMDL
