MODEL 1
REMARK VINA RESULT:       1.5      0.000      0.000
REMARK  1 active torsions:
REMARK  status: ('A' for Active; 'I' for Inactive)
REMARK    1  A    between atoms: C1_1  and  C3_3 
ROOT
HETATM    1  C1  UNL     1     -32.945   6.250   2.197  1.00 20.00     0.038 A 
HETATM    2  C2  UNL     1     -32.697   7.725   2.272  1.00 20.00     0.160 A 
HETATM    3  C4  UNL     1     -33.241   8.238   3.592  1.00 20.00     0.090 A 
HETATM    4  C5  UNL     1     -33.593   5.778   3.430  1.00 20.00     0.039 A 
HETATM    5  C6  UNL     1     -33.778   7.014   4.301  1.00 20.00     0.011 A 
HETATM    6  C7  UNL     1     -34.986   6.215   3.838  1.00 20.00    -0.035 A 
HETATM    7  C9  UNL     1     -35.936   6.794   2.819  1.00 20.00     0.016 C 
HETATM    8  C10 UNL     1     -35.683   5.372   4.879  1.00 20.00     0.016 C 
HETATM    9  O12 UNL     1     -32.156   8.405   1.416  1.00 20.00    -0.293 OA
ENDROOT
BRANCH   1  10
HETATM   10  C3  UNL     1     -32.597   5.550   1.114  1.00 20.00     0.155 C 
HETATM   11  C8  UNL     1     -33.687   5.187   0.118  1.00 20.00     0.096 C 
HETATM   12  O11 UNL     1     -31.470   5.108   0.739  1.00 20.00    -0.293 OA
ENDBRANCH   1  10
TORSDOF 1
ENDMDL
MODEL 2
REMARK VINA RESULT:       1.6      2.050      3.844
REMARK  1 active torsions:
REMARK  status: ('A' for Active; 'I' for Inactive)
REMARK    1  A    between atoms: C1_1  and  C3_3 
ROOT
HETATM    1  C1  UNL     1     -33.762   6.212   2.944  1.00 20.00     0.038 A 
HETATM    2  C2  UNL     1     -32.963   7.436   3.270  1.00 20.00     0.160 A 
HETATM    3  C4  UNL     1     -32.060   7.749   2.092  1.00 20.00     0.090 A 
HETATM    4  C5  UNL     1     -33.443   5.740   1.589  1.00 20.00     0.039 A 
HETATM    5  C6  UNL     1     -32.384   6.695   1.055  1.00 20.00     0.011 A 
HETATM    6  C7  UNL     1     -32.073   5.215   1.209  1.00 20.00    -0.035 A 
HETATM    7  C9  UNL     1     -31.111   4.747   2.273  1.00 20.00     0.016 C 
HETATM    8  C10 UNL     1     -31.986   4.402  -0.060  1.00 20.00     0.016 C 
HETATM    9  O12 UNL     1     -33.020   8.074   4.308  1.00 20.00    -0.293 OA
ENDROOT
BRANCH   1  10
HETATM   10  C3  UNL     1     -34.615   5.693   3.832  1.00 20.00     0.155 C 
HETATM   11  C8  UNL     1     -34.305   4.316   4.399  1.00 20.00     0.096 C 
HETATM   12  O11 UNL     1     -35.690   6.156   4.319  1.00 20.00    -0.293 OA
ENDBRANCH   1  10
TORSDOF 1
ENDMDL
MODEL 3
REMARK VINA RESULT:       1.8      1.796      3.726
REMARK  1 active torsions:
REMARK  status: ('A' for Active; 'I' for Inactive)
REMARK    1  A    between atoms: C1_1  and  C3_3 
ROOT
HETATM    1  C1  UNL     1     -33.382   7.242   2.871  1.00 20.00     0.038 A 
HETATM    2  C2  UNL     1     -32.161   8.106   2.785  1.00 20.00     0.160 A 
HETATM    3  C4  UNL     1     -31.502   7.874   1.439  1.00 20.00     0.090 A 
HETATM    4  C5  UNL     1     -33.564   6.489   1.622  1.00 20.00     0.039 A 
HETATM    5  C6  UNL     1     -32.396   6.881   0.727  1.00 20.00     0.011 A 
HETATM    6  C7  UNL     1     -32.581   5.434   1.155  1.00 20.00    -0.035 A 
HETATM    7  C9  UNL     1     -31.619   4.799   2.129  1.00 20.00     0.016 C 
HETATM    8  C10 UNL     1     -33.071   4.470   0.101  1.00 20.00     0.016 C 
HETATM    9  O12 UNL     1     -31.757   8.863   3.651  1.00 20.00    -0.293 OA
ENDROOT
BRANCH   1  10
HETATM   10  C3  UNL     1     -34.132   7.224   3.977  1.00 20.00     0.155 C 
HETATM   11  C8  UNL     1     -35.266   6.213   4.053  1.00 20.00     0.096 C 
HETATM   12  O11 UNL     1     -34.073   7.925   5.031  1.00 20.00    -0.293 OA
ENDBRANCH   1  10
TORSDOF 1
ENDMDL
MODEL 4
REMARK VINA RESULT:       2.3      2.671      4.007
REMARK  1 active torsions:
REMARK  status: ('A' for Active; 'I' for Inactive)
REMARK    1  A    between atoms: C1_1  and  C3_3 
ROOT
HETATM    1  C1  UNL     1     -33.999   4.789   3.895  1.00 20.00     0.038 A 
HETATM    2  C2  UNL     1     -35.332   5.262   4.387  1.00 20.00     0.160 A 
HETATM    3  C4  UNL     1     -35.672   6.560   3.680  1.00 20.00     0.090 A 
HETATM    4  C5  UNL     1     -33.478   5.706   2.870  1.00 20.00     0.039 A 
HETATM    5  C6  UNL     1     -34.518   6.809   2.733  1.00 20.00     0.011 A 
HETATM    6  C7  UNL     1     -33.102   7.142   3.176  1.00 20.00    -0.035 A 
HETATM    7  C9  UNL     1     -32.831   7.577   4.595  1.00 20.00     0.016 C 
HETATM    8  C10 UNL     1     -32.221   7.841   2.169  1.00 20.00     0.016 C 
HETATM    9  O12 UNL     1     -36.027   4.705   5.220  1.00 20.00    -0.293 OA
ENDROOT
BRANCH   1  10
HETATM   10  C3  UNL     1     -33.441   3.680   4.388  1.00 20.00     0.155 C 
HETATM   11  C8  UNL     1     -32.481   3.823   5.559  1.00 20.00     0.096 C 
HETATM   12  O11 UNL     1     -33.566   2.465   4.047  1.00 20.00    -0.293 OA
ENDBRANCH   1  10
TORSDOF 1
ENDMDL
MODEL 5
REMARK VINA RESULT:       2.5      1.976      4.220
REMARK  1 active torsions:
REMARK  status: ('A' for Active; 'I' for Inactive)
REMARK    1  A    between atoms: C1_1  and  C3_3 
ROOT
HETATM    1  C1  UNL     1     -33.143   7.114   3.011  1.00 20.00     0.038 A 
HETATM    2  C2  UNL     1     -32.918   5.745   2.446  1.00 20.00     0.160 A 
HETATM    3  C4  UNL     1     -31.824   5.831   1.398  1.00 20.00     0.090 A 
HETATM    4  C5  UNL     1     -32.215   8.077   2.400  1.00 20.00     0.039 A 
HETATM    5  C6  UNL     1     -31.392   7.282   1.396  1.00 20.00     0.011 A 
HETATM    6  C7  UNL     1     -32.263   8.436   0.928  1.00 20.00    -0.035 A 
HETATM    7  C9  UNL     1     -33.507   8.170   0.116  1.00 20.00     0.016 C 
HETATM    8  C10 UNL     1     -31.552   9.702   0.515  1.00 20.00     0.016 C 
HETATM    9  O12 UNL     1     -33.514   4.731   2.766  1.00 20.00    -0.293 OA
ENDROOT
BRANCH   1  10
HETATM   10  C3  UNL     1     -34.086   7.329   3.932  1.00 20.00     0.155 C 
HETATM   11  C8  UNL     1     -35.385   6.546   3.819  1.00 20.00     0.096 C 
HETATM   12  O11 UNL     1     -34.105   8.102   4.936  1.00 20.00    -0.293 OA
ENDBRANCH   1  10
TORSDOF 1
ENDMDL
MODEL 6
REMARK VINA RESULT:       2.6      1.887      3.519
REMARK  1 active torsions:
REMARK  status: ('A' for Active; 'I' for Inactive)
REMARK    1  A    between atoms: C1_1  and  C3_3 
ROOT
HETATM    1  C1  UNL     1     -32.545   7.158   2.405  1.00 20.00     0.038 A 
HETATM    2  C2  UNL     1     -33.704   6.936   3.327  1.00 20.00     0.160 A 
HETATM    3  C4  UNL     1     -34.109   5.476   3.249  1.00 20.00     0.090 A 
HETATM    4  C5  UNL     1     -32.157   5.895   1.760  1.00 20.00     0.039 A 
HETATM    5  C6  UNL     1     -33.128   4.845   2.284  1.00 20.00     0.011 A 
HETATM    6  C7  UNL     1     -33.066   5.157   0.798  1.00 20.00    -0.035 A 
HETATM    7  C9  UNL     1     -34.209   5.874   0.122  1.00 20.00     0.016 C 
HETATM    8  C10 UNL     1     -32.417   4.121  -0.088  1.00 20.00     0.016 C 
HETATM    9  O12 UNL     1     -34.239   7.784   4.021  1.00 20.00    -0.293 OA
ENDROOT
BRANCH   1  10
HETATM   10  C3  UNL     1     -32.013   8.374   2.252  1.00 20.00     0.155 C 
HETATM   11  C8  UNL     1     -32.262   9.101   0.940  1.00 20.00     0.096 C 
HETATM   12  O11 UNL     1     -31.304   9.074   3.035  1.00 20.00    -0.293 OA
ENDBRANCH   1  10
TORSDOF 1
ENDMDL
MODEL 7
REMARK VINA RESULT:       2.9      1.799      3.271
REMARK  1 active torsions:
REMARK  status: ('A' for Active; 'I' for Inactive)
REMARK    1  A    between atoms: C1_1  and  C3_3 
ROOT
HETATM    1  C1  UNL     1     -32.744   8.500   1.319  1.00 20.00     0.038 A 
HETATM    2  C2  UNL     1     -31.494   7.680   1.235  1.00 20.00     0.160 A 
HETATM    3  C4  UNL     1     -31.760   6.330   1.874  1.00 20.00     0.090 A 
HETATM    4  C5  UNL     1     -33.822   7.724   1.951  1.00 20.00     0.039 A 
HETATM    5  C6  UNL     1     -33.213   6.372   2.297  1.00 20.00     0.011 A 
HETATM    6  C7  UNL     1     -33.761   7.269   3.395  1.00 20.00    -0.035 A 
HETATM    7  C9  UNL     1     -32.823   7.938   4.369  1.00 20.00     0.016 C 
HETATM    8  C10 UNL     1     -35.065   6.849   4.029  1.00 20.00     0.016 C 
HETATM    9  O12 UNL     1     -30.435   8.035   0.744  1.00 20.00    -0.293 OA
ENDROOT
BRANCH   1  10
HETATM   10  C3  UNL     1     -32.773   9.755   0.862  1.00 20.00     0.155 C 
HETATM   11  C8  UNL     1     -32.806   9.966  -0.643  1.00 20.00     0.096 C 
HETATM   12  O11 UNL     1     -32.778  10.863   1.479  1.00 20.00    -0.293 OA
ENDBRANCH   1  10
TORSDOF 1
ENDMDL
MODEL 8
REMARK VINA RESULT:       3.0      1.555      2.866
REMARK  1 active torsions:
REMARK  status: ('A' for Active; 'I' for Inactive)
REMARK    1  A    between atoms: C1_1  and  C3_3 
ROOT
HETATM    1  C1  UNL     1     -33.542   5.516   2.583  1.00 20.00     0.038 A 
HETATM    2  C2  UNL     1     -33.921   4.544   3.657  1.00 20.00     0.160 A 
HETATM    3  C4  UNL     1     -34.987   5.181   4.528  1.00 20.00     0.090 A 
HETATM    4  C5  UNL     1     -34.344   6.742   2.698  1.00 20.00     0.039 A 
HETATM    5  C6  UNL     1     -35.246   6.537   3.908  1.00 20.00     0.011 A 
HETATM    6  C7  UNL     1     -34.240   7.677   3.887  1.00 20.00    -0.035 A 
HETATM    7  C9  UNL     1     -33.029   7.639   4.786  1.00 20.00     0.016 C 
HETATM    8  C10 UNL     1     -34.794   9.070   3.705  1.00 20.00     0.016 C 
HETATM    9  O12 UNL     1     -33.452   3.429   3.813  1.00 20.00    -0.293 OA
ENDROOT
BRANCH   1  10
HETATM   10  C3  UNL     1     -32.588   5.219   1.695  1.00 20.00     0.155 C 
HETATM   11  C8  UNL     1     -33.014   4.627   0.361  1.00 20.00     0.096 C 
HETATM   12  O11 UNL     1     -31.328   5.345   1.758  1.00 20.00    -0.293 OA
ENDBRANCH   1  10
TORSDOF 1
ENDMDL
MODEL 9
REMARK VINA RESULT:       3.0      1.960      3.422
REMARK  1 active torsions:
REMARK  status: ('A' for Active; 'I' for Inactive)
REMARK    1  A    between atoms: C1_1  and  C3_3 
ROOT
HETATM    1  C1  UNL     1     -33.067   5.969   1.566  1.00 20.00     0.038 A 
HETATM    2  C2  UNL     1     -33.486   5.808   2.995  1.00 20.00     0.160 A 
HETATM    3  C4  UNL     1     -33.859   7.172   3.543  1.00 20.00     0.090 A 
HETATM    4  C5  UNL     1     -33.190   7.375   1.153  1.00 20.00     0.039 A 
HETATM    5  C6  UNL     1     -33.683   8.127   2.382  1.00 20.00     0.011 A 
HETATM    6  C7  UNL     1     -32.343   8.479   1.756  1.00 20.00    -0.035 A 
HETATM    7  C9  UNL     1     -31.058   8.151   2.475  1.00 20.00     0.016 C 
HETATM    8  C10 UNL     1     -32.272   9.775   0.985  1.00 20.00     0.016 C 
HETATM    9  O12 UNL     1     -33.517   4.761   3.619  1.00 20.00    -0.293 OA
ENDROOT
BRANCH   1  10
HETATM   10  C3  UNL     1     -32.649   4.920   0.852  1.00 20.00     0.155 C 
HETATM   11  C8  UNL     1     -31.205   4.472   1.021  1.00 20.00     0.096 C 
HETATM   12  O11 UNL     1     -33.259   4.188   0.016  1.00 20.00    -0.293 OA
ENDBRANCH   1  10
TORSDOF 1
ENDMDL
