MODEL 1
REMARK VINA RESULT:       3.7      0.000      0.000
REMARK  1 active torsions:
REMARK  status: ('A' for Active; 'I' for Inactive)
REMARK    1  A    between atoms: C8_8  and  C12_12 
ROOT
HETATM    1  C1  UNL     1     -33.527   5.873   3.921  1.00 20.00    -0.023 C 
HETATM    2  C2  UNL     1     -33.737   7.170   3.632  1.00 20.00    -0.081 C 
HETATM    3  C3  UNL     1     -33.269   4.825   2.871  1.00 20.00     0.034 C 
HETATM    4  C4  UNL     1     -34.156   6.520   1.258  1.00 20.00     0.018 C 
HETATM    5  C5  UNL     1     -31.757   5.876   1.090  1.00 20.00     0.173 C 
HETATM    6  C6  UNL     1     -33.716   7.660   2.189  1.00 20.00     0.043 C 
HETATM    7  C7  UNL     1     -33.168   5.368   1.427  1.00 20.00     0.014 C 
HETATM    8  C8  UNL     1     -32.281   8.114   1.839  1.00 20.00     0.133 C 
HETATM    9  C9  UNL     1     -33.995   8.194   4.696  1.00 20.00     0.043 C 
HETATM   10  O13 UNL     1     -31.367   7.008   1.869  1.00 20.00    -0.384 OA
ENDROOT
BRANCH   8  11
HETATM   11  C12 UNL     1     -32.185   8.861   0.508  1.00 20.00     0.007 C 
HETATM   12  C10 UNL     1     -32.722  10.282   0.650  1.00 20.00     0.012 C 
HETATM   13  C11 UNL     1     -30.742   8.879   0.008  1.00 20.00     0.012 C 
ENDBRANCH   8  11
TORSDOF 1
ENDMDL
MODEL 2
REMARK VINA RESULT:       3.8      1.222      3.893
REMARK  1 active torsions:
REMARK  status: ('A' for Active; 'I' for Inactive)
REMARK    1  A    between atoms: C8_8  and  C12_12 
ROOT
HETATM    1  C1  UNL     1     -31.946   9.089  -0.003  1.00 20.00    -0.023 C 
HETATM    2  C2  UNL     1     -32.638   9.519   1.067  1.00 20.00    -0.081 C 
HETATM    3  C3  UNL     1     -31.058   7.873   0.022  1.00 20.00     0.034 C 
HETATM    4  C4  UNL     1     -31.198   8.080   2.513  1.00 20.00     0.018 C 
HETATM    5  C5  UNL     1     -32.236   6.090   1.434  1.00 20.00     0.173 C 
HETATM    6  C6  UNL     1     -32.564   8.773   2.395  1.00 20.00     0.043 C 
HETATM    7  C7  UNL     1     -31.073   7.090   1.355  1.00 20.00     0.014 C 
HETATM    8  C8  UNL     1     -33.701   7.728   2.441  1.00 20.00     0.133 C 
HETATM    9  C9  UNL     1     -33.514  10.735   1.017  1.00 20.00     0.043 C 
HETATM   10  O13 UNL     1     -33.518   6.719   1.437  1.00 20.00    -0.384 OA
ENDROOT
BRANCH   8  11
HETATM   11  C12 UNL     1     -33.890   7.092   3.819  1.00 20.00     0.007 C 
HETATM   12  C10 UNL     1     -33.773   8.147   4.917  1.00 20.00     0.012 C 
HETATM   13  C11 UNL     1     -35.238   6.380   3.900  1.00 20.00     0.012 C 
ENDBRANCH   8  11
TORSDOF 1
ENDMDL
MODEL 3
REMARK VINA RESULT:       5.2      1.754      3.222
REMARK  1 active torsions:
REMARK  status: ('A' for Active; 'I' for Inactive)
REMARK    1  A    between atoms: C8_8  and  C12_12 
ROOT
HETATM    1  C1  UNL     1     -33.178   7.981   4.300  1.00 20.00    -0.023 C 
HETATM    2  C2  UNL     1     -32.698   7.911   3.045  1.00 20.00    -0.081 C 
HETATM    3  C3  UNL     1     -34.375   7.198   4.770  1.00 20.00     0.034 C 
HETATM    4  C4  UNL     1     -34.846   6.856   2.336  1.00 20.00     0.018 C 
HETATM    5  C5  UNL     1     -34.236   4.871   3.710  1.00 20.00     0.173 C 
HETATM    6  C6  UNL     1     -33.353   7.005   2.009  1.00 20.00     0.043 C 
HETATM    7  C7  UNL     1     -34.962   6.225   3.723  1.00 20.00     0.014 C 
HETATM    8  C8  UNL     1     -32.656   5.626   2.044  1.00 20.00     0.133 C 
HETATM    9  C9  UNL     1     -31.505   8.704   2.601  1.00 20.00     0.043 C 
HETATM   10  O13 UNL     1     -32.871   4.969   3.302  1.00 20.00    -0.384 OA
ENDROOT
BRANCH   8  11
HETATM   11  C12 UNL     1     -33.050   4.714   0.882  1.00 20.00     0.007 C 
HETATM   12  C10 UNL     1     -33.980   5.445  -0.082  1.00 20.00     0.012 C 
HETATM   13  C11 UNL     1     -31.807   4.210   0.152  1.00 20.00     0.012 C 
ENDBRANCH   8  11
TORSDOF 1
ENDMDL
MODEL 4
REMARK VINA RESULT:       5.7      1.320      2.908
REMARK  1 active torsions:
REMARK  status: ('A' for Active; 'I' for Inactive)
REMARK    1  A    between atoms: C8_8  and  C12_12 
ROOT
HETATM    1  C1  UNL     1     -33.719   5.741   2.807  1.00 20.00    -0.023 C 
HETATM    2  C2  UNL     1     -32.769   5.966   1.881  1.00 20.00    -0.081 C 
HETATM    3  C3  UNL     1     -34.070   6.731   3.886  1.00 20.00     0.034 C 
HETATM    4  C4  UNL     1     -31.894   7.822   3.304  1.00 20.00     0.018 C 
HETATM    5  C5  UNL     1     -34.000   9.067   2.839  1.00 20.00     0.173 C 
HETATM    6  C6  UNL     1     -31.983   7.272   1.873  1.00 20.00     0.043 C 
HETATM    7  C7  UNL     1     -33.318   8.078   3.797  1.00 20.00     0.014 C 
HETATM    8  C8  UNL     1     -32.707   8.281   0.954  1.00 20.00     0.133 C 
HETATM    9  C9  UNL     1     -32.436   4.962   0.818  1.00 20.00     0.043 C 
HETATM   10  O13 UNL     1     -33.997   8.627   1.481  1.00 20.00    -0.384 OA
ENDROOT
BRANCH   8  11
HETATM   11  C12 UNL     1     -31.887   9.538   0.662  1.00 20.00     0.007 C 
HETATM   12  C10 UNL     1     -30.756   9.225  -0.315  1.00 20.00     0.012 C 
HETATM   13  C11 UNL     1     -32.783  10.646   0.111  1.00 20.00     0.012 C 
ENDBRANCH   8  11
TORSDOF 1
ENDMDL
MODEL 5
REMARK VINA RESULT:       6.2      1.599      4.272
REMARK  1 active torsions:
REMARK  status: ('A' for Active; 'I' for Inactive)
REMARK    1  A    between atoms: C8_8  and  C12_12 
ROOT
HETATM    1  C1  UNL     1     -31.262   7.022   1.492  1.00 20.00    -0.023 C 
HETATM    2  C2  UNL     1     -32.337   6.215   1.424  1.00 20.00    -0.081 C 
HETATM    3  C3  UNL     1     -31.294   8.386   2.127  1.00 20.00     0.034 C 
HETATM    4  C4  UNL     1     -33.782   8.180   1.955  1.00 20.00     0.018 C 
HETATM    5  C5  UNL     1     -32.757   8.225   4.224  1.00 20.00     0.173 C 
HETATM    6  C6  UNL     1     -33.675   6.649   2.010  1.00 20.00     0.043 C 
HETATM    7  C7  UNL     1     -32.640   8.760   2.788  1.00 20.00     0.014 C 
HETATM    8  C8  UNL     1     -33.760   6.158   3.473  1.00 20.00     0.133 C 
HETATM    9  C9  UNL     1     -32.279   4.861   0.783  1.00 20.00     0.043 C 
HETATM   10  O13 UNL     1     -32.770   6.799   4.291  1.00 20.00    -0.384 OA
ENDROOT
BRANCH   8  11
HETATM   11  C12 UNL     1     -35.151   6.308   4.088  1.00 20.00     0.007 C 
HETATM   12  C10 UNL     1     -36.172   6.688   3.018  1.00 20.00     0.012 C 
HETATM   13  C11 UNL     1     -35.566   5.019   4.794  1.00 20.00     0.012 C 
ENDBRANCH   8  11
TORSDOF 1
ENDMDL
MODEL 6
REMARK VINA RESULT:       6.3      1.461      4.646
REMARK  1 active torsions:
REMARK  status: ('A' for Active; 'I' for Inactive)
REMARK    1  A    between atoms: C8_8  and  C12_12 
ROOT
HETATM    1  C1  UNL     1     -31.908   7.593   1.568  1.00 20.00    -0.023 C 
HETATM    2  C2  UNL     1     -32.094   6.266   1.442  1.00 20.00    -0.081 C 
HETATM    3  C3  UNL     1     -32.924   8.512   2.193  1.00 20.00     0.034 C 
HETATM    4  C4  UNL     1     -34.527   6.617   1.875  1.00 20.00     0.018 C 
HETATM    5  C5  UNL     1     -33.939   7.287   4.199  1.00 20.00     0.173 C 
HETATM    6  C6  UNL     1     -33.372   5.607   1.945  1.00 20.00     0.043 C 
HETATM    7  C7  UNL     1     -34.169   7.802   2.770  1.00 20.00     0.014 C 
HETATM    8  C8  UNL     1     -33.153   5.144   3.403  1.00 20.00     0.133 C 
HETATM    9  C9  UNL     1     -31.066   5.372   0.814  1.00 20.00     0.043 C 
HETATM   10  O13 UNL     1     -32.944   6.265   4.275  1.00 20.00    -0.384 OA
ENDROOT
BRANCH   8  11
HETATM   11  C12 UNL     1     -34.270   4.246   3.933  1.00 20.00     0.007 C 
HETATM   12  C10 UNL     1     -33.689   3.094   4.750  1.00 20.00     0.012 C 
HETATM   13  C11 UNL     1     -35.256   5.056   4.771  1.00 20.00     0.012 C 
ENDBRANCH   8  11
TORSDOF 1
ENDMDL
MODEL 7
REMARK VINA RESULT:       6.7      1.499      3.603
REMARK  1 active torsions:
REMARK  status: ('A' for Active; 'I' for Inactive)
REMARK    1  A    between atoms: C8_8  and  C12_12 
ROOT
HETATM    1  C1  UNL     1     -33.157   7.392  -0.108  1.00 20.00    -0.023 C 
HETATM    2  C2  UNL     1     -32.626   8.348   0.675  1.00 20.00    -0.081 C 
HETATM    3  C3  UNL     1     -33.228   5.942   0.293  1.00 20.00     0.034 C 
HETATM    4  C4  UNL     1     -31.546   6.558   2.041  1.00 20.00     0.018 C 
HETATM    5  C5  UNL     1     -33.818   5.861   2.784  1.00 20.00     0.173 C 
HETATM    6  C6  UNL     1     -32.061   8.005   2.049  1.00 20.00     0.043 C 
HETATM    7  C7  UNL     1     -32.727   5.642   1.724  1.00 20.00     0.014 C 
HETATM    8  C8  UNL     1     -33.179   8.171   3.102  1.00 20.00     0.133 C 
HETATM    9  C9  UNL     1     -32.565   9.785   0.252  1.00 20.00     0.043 C 
HETATM   10  O13 UNL     1     -34.236   7.222   2.887  1.00 20.00    -0.384 OA
ENDROOT
BRANCH   8  11
HETATM   11  C12 UNL     1     -32.676   8.103   4.544  1.00 20.00     0.007 C 
HETATM   12  C10 UNL     1     -31.573   9.133   4.775  1.00 20.00     0.012 C 
HETATM   13  C11 UNL     1     -33.827   8.318   5.524  1.00 20.00     0.012 C 
ENDBRANCH   8  11
TORSDOF 1
ENDMDL
