MODEL 1
REMARK VINA RESULT:      -1.6      0.000      0.000
REMARK  0 active torsions:
REMARK  status: ('A' for Active; 'I' for Inactive)
ROOT
HETATM    1  C1  UNL     1     -34.087   5.413   3.353  1.00 20.00     0.028 C 
HETATM    2  C2  UNL     1     -35.003   6.447   3.956  1.00 20.00     0.028 C 
HETATM    3  C3  UNL     1     -33.248   6.251   2.413  1.00 20.00     0.167 C 
HETATM    4  C4  UNL     1     -34.082   7.642   4.082  1.00 20.00     0.167 C 
HETATM    5  O5  UNL     1     -33.140   7.553   3.005  1.00 20.00    -0.391 OA
ENDROOT
TORSDOF 0
ENDMDL
MODEL 2
REMARK VINA RESULT:      -1.6      0.042      1.754
REMARK  0 active torsions:
REMARK  status: ('A' for Active; 'I' for Inactive)
ROOT
HETATM    1  C1  UNL     1     -34.976   6.476   3.938  1.00 20.00     0.028 C 
HETATM    2  C2  UNL     1     -34.073   5.432   3.332  1.00 20.00     0.028 C 
HETATM    3  C3  UNL     1     -34.045   7.663   4.054  1.00 20.00     0.167 C 
HETATM    4  C4  UNL     1     -33.232   6.260   2.384  1.00 20.00     0.167 C 
HETATM    5  O5  UNL     1     -33.110   7.563   2.971  1.00 20.00    -0.391 OA
ENDROOT
TORSDOF 0
ENDMDL
MODEL 3
REMARK VINA RESULT:      -1.5      1.885      2.795
REMARK  0 active torsions:
REMARK  status: ('A' for Active; 'I' for Inactive)
ROOT
HETATM    1  C1  UNL     1     -34.115   6.615   3.548  1.00 20.00     0.028 C 
HETATM    2  C2  UNL     1     -33.567   5.341   2.956  1.00 20.00     0.028 C 
HETATM    3  C3  UNL     1     -35.437   6.151   4.118  1.00 20.00     0.167 C 
HETATM    4  C4  UNL     1     -34.022   4.309   3.966  1.00 20.00     0.167 C 
HETATM    5  O5  UNL     1     -35.260   4.783   4.513  1.00 20.00    -0.391 OA
ENDROOT
TORSDOF 0
ENDMDL
MODEL 4
REMARK VINA RESULT:      -1.4      1.292      2.369
REMARK  0 active torsions:
REMARK  status: ('A' for Active; 'I' for Inactive)
ROOT
HETATM    1  C1  UNL     1     -33.097   5.831   1.678  1.00 20.00     0.028 C 
HETATM    2  C2  UNL     1     -31.845   6.650   1.495  1.00 20.00     0.028 C 
HETATM    3  C3  UNL     1     -33.607   6.336   3.010  1.00 20.00     0.167 C 
HETATM    4  C4  UNL     1     -32.259   7.986   2.072  1.00 20.00     0.167 C 
HETATM    5  O5  UNL     1     -33.208   7.710   3.111  1.00 20.00    -0.391 OA
ENDROOT
TORSDOF 0
ENDMDL
MODEL 5
REMARK VINA RESULT:      -1.4      1.295      2.310
REMARK  0 active torsions:
REMARK  status: ('A' for Active; 'I' for Inactive)
ROOT
HETATM    1  C1  UNL     1     -31.840   6.686   1.506  1.00 20.00     0.028 C 
HETATM    2  C2  UNL     1     -33.082   5.847   1.665  1.00 20.00     0.028 C 
HETATM    3  C3  UNL     1     -32.276   8.005   2.106  1.00 20.00     0.167 C 
HETATM    4  C4  UNL     1     -33.608   6.320   3.004  1.00 20.00     0.167 C 
HETATM    5  O5  UNL     1     -33.229   7.697   3.133  1.00 20.00    -0.391 OA
ENDROOT
TORSDOF 0
ENDMDL
MODEL 6
REMARK VINA RESULT:      -1.3      1.434      2.733
REMARK  0 active torsions:
REMARK  status: ('A' for Active; 'I' for Inactive)
ROOT
HETATM    1  C1  UNL     1     -32.540   8.049   3.121  1.00 20.00     0.028 C 
HETATM    2  C2  UNL     1     -32.329   7.552   1.714  1.00 20.00     0.028 C 
HETATM    3  C3  UNL     1     -33.797   7.311   3.527  1.00 20.00     0.167 C 
HETATM    4  C4  UNL     1     -32.760   6.105   1.827  1.00 20.00     0.167 C 
HETATM    5  O5  UNL     1     -33.782   6.056   2.832  1.00 20.00    -0.391 OA
ENDROOT
TORSDOF 0
ENDMDL
MODEL 7
REMARK VINA RESULT:      -1.3      1.447      2.182
REMARK  0 active torsions:
REMARK  status: ('A' for Active; 'I' for Inactive)
ROOT
HETATM    1  C1  UNL     1     -32.315   7.592   1.708  1.00 20.00     0.028 C 
HETATM    2  C2  UNL     1     -32.530   8.066   3.122  1.00 20.00     0.028 C 
HETATM    3  C3  UNL     1     -32.738   6.142   1.798  1.00 20.00     0.167 C 
HETATM    4  C4  UNL     1     -33.785   7.315   3.515  1.00 20.00     0.167 C 
HETATM    5  O5  UNL     1     -33.762   6.072   2.800  1.00 20.00    -0.391 OA
ENDROOT
TORSDOF 0
ENDMDL
MODEL 8
REMARK VINA RESULT:      -0.9      1.059      1.117
REMARK  0 active torsions:
REMARK  status: ('A' for Active; 'I' for Inactive)
ROOT
HETATM    1  C1  UNL     1     -33.340   5.624   2.818  1.00 20.00     0.028 C 
HETATM    2  C2  UNL     1     -33.919   6.732   3.659  1.00 20.00     0.028 C 
HETATM    3  C3  UNL     1     -32.799   6.386   1.628  1.00 20.00     0.167 C 
HETATM    4  C4  UNL     1     -32.920   7.847   3.436  1.00 20.00     0.167 C 
HETATM    5  O5  UNL     1     -32.400   7.676   2.110  1.00 20.00    -0.391 OA
ENDROOT
TORSDOF 0
ENDMDL
MODEL 9
REMARK VINA RESULT:      -0.6      1.364      1.556
REMARK  0 active torsions:
REMARK  status: ('A' for Active; 'I' for Inactive)
ROOT
HETATM    1  C1  UNL     1     -34.620   4.403   4.510  1.00 20.00     0.028 C 
HETATM    2  C2  UNL     1     -35.552   5.575   4.342  1.00 20.00     0.028 C 
HETATM    3  C3  UNL     1     -33.733   4.533   3.291  1.00 20.00     0.167 C 
HETATM    4  C4  UNL     1     -34.629   6.628   3.767  1.00 20.00     0.167 C 
HETATM    5  O5  UNL     1     -33.641   5.934   2.994  1.00 20.00    -0.391 OA
ENDROOT
TORSDOF 0
ENDMDL
