MODEL 1
REMARK VINA RESULT:      -1.7      0.000      0.000
REMARK  0 active torsions:
REMARK  status: ('A' for Active; 'I' for Inactive)
ROOT
HETATM    1  C1  UNL     1     -34.394   6.487   3.611  1.00 20.00     0.260 C 
HETATM    2  C2  UNL     1     -33.477   5.435   3.042  1.00 20.00     0.137 C 
HETATM    3  C3  UNL     1     -33.088   5.747   1.606  1.00 20.00     0.177 C 
HETATM    4  C4  UNL     1     -32.517   8.056   3.425  1.00 20.00     0.205 C 
HETATM    5  C5  UNL     1     -32.242   7.955   1.935  1.00 20.00     0.194 C 
HETATM    6  O6  UNL     1     -35.541   6.223   3.964  1.00 20.00    -0.265 OA
HETATM    7  O7  UNL     1     -33.895   7.742   3.720  1.00 20.00    -0.319 OA
HETATM    8  O8  UNL     1     -31.958   6.612   1.548  1.00 20.00    -0.389 OA
ENDROOT
TORSDOF 0
ENDMDL
MODEL 2
REMARK VINA RESULT:      -1.6      1.409      2.364
REMARK  0 active torsions:
REMARK  status: ('A' for Active; 'I' for Inactive)
ROOT
HETATM    1  C1  UNL     1     -34.153   5.091   3.610  1.00 20.00     0.260 C 
HETATM    2  C2  UNL     1     -34.892   6.396   3.756  1.00 20.00     0.137 C 
HETATM    3  C3  UNL     1     -33.954   7.535   4.119  1.00 20.00     0.177 C 
HETATM    4  C4  UNL     1     -33.022   6.082   1.672  1.00 20.00     0.205 C 
HETATM    5  C5  UNL     1     -32.387   7.293   2.334  1.00 20.00     0.194 C 
HETATM    6  O6  UNL     1     -34.380   4.133   4.346  1.00 20.00    -0.265 OA
HETATM    7  O7  UNL     1     -33.226   5.018   2.625  1.00 20.00    -0.319 OA
HETATM    8  O8  UNL     1     -33.367   8.118   2.960  1.00 20.00    -0.389 OA
ENDROOT
TORSDOF 0
ENDMDL
MODEL 3
REMARK VINA RESULT:      -0.5      1.188      3.340
REMARK  0 active torsions:
REMARK  status: ('A' for Active; 'I' for Inactive)
ROOT
HETATM    1  C1  UNL     1     -32.328   8.036   1.811  1.00 20.00     0.260 C 
HETATM    2  C2  UNL     1     -32.621   8.023   3.289  1.00 20.00     0.137 C 
HETATM    3  C3  UNL     1     -34.008   7.474   3.582  1.00 20.00     0.177 C 
HETATM    4  C4  UNL     1     -32.413   5.585   1.891  1.00 20.00     0.205 C 
HETATM    5  C5  UNL     1     -33.821   5.393   2.427  1.00 20.00     0.194 C 
HETATM    6  O6  UNL     1     -32.124   9.083   1.201  1.00 20.00    -0.265 OA
HETATM    7  O7  UNL     1     -32.295   6.837   1.181  1.00 20.00    -0.319 OA
HETATM    8  O8  UNL     1     -33.997   6.053   3.678  1.00 20.00    -0.389 OA
ENDROOT
TORSDOF 0
ENDMDL
MODEL 4
REMARK VINA RESULT:      -0.4      1.095      3.438
REMARK  0 active torsions:
REMARK  status: ('A' for Active; 'I' for Inactive)
ROOT
HETATM    1  C1  UNL     1     -32.526   7.484   2.257  1.00 20.00     0.260 C 
HETATM    2  C2  UNL     1     -32.612   7.980   3.677  1.00 20.00     0.137 C 
HETATM    3  C3  UNL     1     -34.053   8.203   4.108  1.00 20.00     0.177 C 
HETATM    4  C4  UNL     1     -33.644   5.440   3.026  1.00 20.00     0.205 C 
HETATM    5  C5  UNL     1     -34.921   6.040   3.589  1.00 20.00     0.194 C 
HETATM    6  O6  UNL     1     -31.969   8.136   1.377  1.00 20.00    -0.265 OA
HETATM    7  O7  UNL     1     -33.089   6.280   1.992  1.00 20.00    -0.319 OA
HETATM    8  O8  UNL     1     -34.641   7.004   4.602  1.00 20.00    -0.389 OA
ENDROOT
TORSDOF 0
ENDMDL
MODEL 5
REMARK VINA RESULT:      -0.3      0.891      2.834
REMARK  0 active torsions:
REMARK  status: ('A' for Active; 'I' for Inactive)
ROOT
HETATM    1  C1  UNL     1     -32.226   5.893   1.509  1.00 20.00     0.260 C 
HETATM    2  C2  UNL     1     -33.677   5.820   1.906  1.00 20.00     0.137 C 
HETATM    3  C3  UNL     1     -33.865   6.061   3.394  1.00 20.00     0.177 C 
HETATM    4  C4  UNL     1     -32.302   8.270   2.110  1.00 20.00     0.205 C 
HETATM    5  C5  UNL     1     -32.731   8.156   3.563  1.00 20.00     0.194 C 
HETATM    6  O6  UNL     1     -31.632   4.922   1.045  1.00 20.00    -0.265 OA
HETATM    7  O7  UNL     1     -31.602   7.083   1.681  1.00 20.00    -0.319 OA
HETATM    8  O8  UNL     1     -33.964   7.452   3.689  1.00 20.00    -0.389 OA
ENDROOT
TORSDOF 0
ENDMDL
MODEL 6
REMARK VINA RESULT:      -0.2      1.092      2.221
REMARK  0 active torsions:
REMARK  status: ('A' for Active; 'I' for Inactive)
ROOT
HETATM    1  C1  UNL     1     -33.804   7.288   3.532  1.00 20.00     0.260 C 
HETATM    2  C2  UNL     1     -33.248   8.295   2.559  1.00 20.00     0.137 C 
HETATM    3  C3  UNL     1     -31.779   8.041   2.265  1.00 20.00     0.177 C 
HETATM    4  C4  UNL     1     -33.434   5.587   1.803  1.00 20.00     0.205 C 
HETATM    5  C5  UNL     1     -31.940   5.756   1.591  1.00 20.00     0.194 C 
HETATM    6  O6  UNL     1     -34.231   7.622   4.635  1.00 20.00    -0.265 OA
HETATM    7  O7  UNL     1     -33.817   5.993   3.134  1.00 20.00    -0.319 OA
HETATM    8  O8  UNL     1     -31.614   7.092   1.215  1.00 20.00    -0.389 OA
ENDROOT
TORSDOF 0
ENDMDL
MODEL 7
REMARK VINA RESULT:      -0.2      1.288      2.850
REMARK  0 active torsions:
REMARK  status: ('A' for Active; 'I' for Inactive)
ROOT
HETATM    1  C1  UNL     1     -32.897   7.293   2.499  1.00 20.00     0.260 C 
HETATM    2  C2  UNL     1     -33.020   5.990   1.752  1.00 20.00     0.137 C 
HETATM    3  C3  UNL     1     -32.809   4.796   2.667  1.00 20.00     0.177 C 
HETATM    4  C4  UNL     1     -34.914   6.640   3.734  1.00 20.00     0.205 C 
HETATM    5  C5  UNL     1     -34.438   5.326   4.330  1.00 20.00     0.194 C 
HETATM    6  O6  UNL     1     -32.020   8.111   2.232  1.00 20.00    -0.265 OA
HETATM    7  O7  UNL     1     -33.803   7.526   3.479  1.00 20.00    -0.319 OA
HETATM    8  O8  UNL     1     -34.019   4.416   3.316  1.00 20.00    -0.389 OA
ENDROOT
TORSDOF 0
ENDMDL
MODEL 8
REMARK VINA RESULT:      -0.0      1.429      2.846
REMARK  0 active torsions:
REMARK  status: ('A' for Active; 'I' for Inactive)
ROOT
HETATM    1  C1  UNL     1     -32.903   5.657   1.446  1.00 20.00     0.260 C 
HETATM    2  C2  UNL     1     -31.779   6.607   1.770  1.00 20.00     0.137 C 
HETATM    3  C3  UNL     1     -32.281   8.031   1.949  1.00 20.00     0.177 C 
HETATM    4  C4  UNL     1     -33.776   6.110   3.694  1.00 20.00     0.205 C 
HETATM    5  C5  UNL     1     -33.950   7.616   3.606  1.00 20.00     0.194 C 
HETATM    6  O6  UNL     1     -32.948   5.047   0.380  1.00 20.00    -0.265 OA
HETATM    7  O7  UNL     1     -33.864   5.501   2.389  1.00 20.00    -0.319 OA
HETATM    8  O8  UNL     1     -32.721   8.265   3.283  1.00 20.00    -0.389 OA
ENDROOT
TORSDOF 0
ENDMDL
MODEL 9
REMARK VINA RESULT:       0.8      1.488      3.387
REMARK  0 active torsions:
REMARK  status: ('A' for Active; 'I' for Inactive)
ROOT
HETATM    1  C1  UNL     1     -33.167   7.037   2.899  1.00 20.00     0.260 C 
HETATM    2  C2  UNL     1     -34.102   7.287   4.054  1.00 20.00     0.137 C 
HETATM    3  C3  UNL     1     -35.380   6.474   3.927  1.00 20.00     0.177 C 
HETATM    4  C4  UNL     1     -32.949   4.737   3.725  1.00 20.00     0.205 C 
HETATM    5  C5  UNL     1     -34.405   4.308   3.684  1.00 20.00     0.194 C 
HETATM    6  O6  UNL     1     -32.848   7.932   2.120  1.00 20.00    -0.265 OA
HETATM    7  O7  UNL     1     -32.687   5.778   2.759  1.00 20.00    -0.319 OA
HETATM    8  O8  UNL     1     -35.225   5.168   4.473  1.00 20.00    -0.389 OA
ENDROOT
TORSDOF 0
ENDMDL
