MODEL 1
REMARK VINA RESULT:      -0.9      0.000      0.000
REMARK  0 active torsions:
REMARK  status: ('A' for Active; 'I' for Inactive)
ROOT
HETATM    1  C1  UNL     1     -32.967   5.803   2.144  1.00 20.00     0.201 C 
HETATM    2  C2  UNL     1     -33.693   7.647   3.674  1.00 20.00     0.099 C 
HETATM    3  C3  UNL     1     -33.212   7.302   2.262  1.00 20.00     0.074 C 
HETATM    4  C4  UNL     1     -31.950   8.086   1.919  1.00 20.00     0.020 C 
HETATM    5  O5  UNL     1     -32.239   5.278   1.312  1.00 20.00    -0.284 OA
HETATM    6  S6  UNL     1     -33.897   4.843   3.297  1.00 20.00    -0.019 SA
HETATM    7  S7  UNL     1     -34.937   6.414   4.087  1.00 20.00    -0.089 SA
ENDROOT
TORSDOF 0
ENDMDL
MODEL 2
REMARK VINA RESULT:      -0.2      2.772      3.543
REMARK  0 active torsions:
REMARK  status: ('A' for Active; 'I' for Inactive)
ROOT
HETATM    1  C1  UNL     1     -33.676   7.528   3.802  1.00 20.00     0.201 C 
HETATM    2  C2  UNL     1     -33.399   5.497   2.364  1.00 20.00     0.099 C 
HETATM    3  C3  UNL     1     -34.381   6.315   3.208  1.00 20.00     0.074 C 
HETATM    4  C4  UNL     1     -34.993   5.452   4.306  1.00 20.00     0.020 C 
HETATM    5  O5  UNL     1     -34.054   8.138   4.793  1.00 20.00    -0.284 OA
HETATM    6  S6  UNL     1     -32.261   8.042   2.882  1.00 20.00    -0.019 SA
HETATM    7  S7  UNL     1     -32.490   6.690   1.370  1.00 20.00    -0.089 SA
ENDROOT
TORSDOF 0
ENDMDL
MODEL 3
REMARK VINA RESULT:      -0.1      2.184      2.690
REMARK  0 active torsions:
REMARK  status: ('A' for Active; 'I' for Inactive)
ROOT
HETATM    1  C1  UNL     1     -33.393   5.429   2.926  1.00 20.00     0.201 C 
HETATM    2  C2  UNL     1     -33.704   7.903   2.693  1.00 20.00     0.099 C 
HETATM    3  C3  UNL     1     -33.841   6.702   3.633  1.00 20.00     0.074 C 
HETATM    4  C4  UNL     1     -35.277   6.571   4.129  1.00 20.00     0.020 C 
HETATM    5  O5  UNL     1     -33.731   4.298   3.246  1.00 20.00    -0.284 OA
HETATM    6  S6  UNL     1     -32.261   5.718   1.604  1.00 20.00    -0.019 SA
HETATM    7  S7  UNL     1     -32.096   7.731   1.905  1.00 20.00    -0.089 SA
ENDROOT
TORSDOF 0
ENDMDL
MODEL 4
REMARK VINA RESULT:       0.1      2.255      2.676
REMARK  0 active torsions:
REMARK  status: ('A' for Active; 'I' for Inactive)
ROOT
HETATM    1  C1  UNL     1     -33.165   6.465   2.250  1.00 20.00     0.201 C 
HETATM    2  C2  UNL     1     -33.730   8.072   4.085  1.00 20.00     0.099 C 
HETATM    3  C3  UNL     1     -33.760   6.605   3.645  1.00 20.00     0.074 C 
HETATM    4  C4  UNL     1     -35.184   6.062   3.685  1.00 20.00     0.020 C 
HETATM    5  O5  UNL     1     -33.388   5.535   1.487  1.00 20.00    -0.284 OA
HETATM    6  S6  UNL     1     -32.041   7.758   1.829  1.00 20.00    -0.019 SA
HETATM    7  S7  UNL     1     -32.097   8.685   3.647  1.00 20.00    -0.089 SA
ENDROOT
TORSDOF 0
ENDMDL
MODEL 5
REMARK VINA RESULT:       0.3      1.809      2.500
REMARK  0 active torsions:
REMARK  status: ('A' for Active; 'I' for Inactive)
ROOT
HETATM    1  C1  UNL     1     -33.972   7.382   3.655  1.00 20.00     0.201 C 
HETATM    2  C2  UNL     1     -33.089   5.625   2.106  1.00 20.00     0.099 C 
HETATM    3  C3  UNL     1     -32.769   6.932   2.835  1.00 20.00     0.074 C 
HETATM    4  C4  UNL     1     -32.354   8.013   1.843  1.00 20.00     0.020 C 
HETATM    5  O5  UNL     1     -34.175   8.531   4.022  1.00 20.00    -0.284 OA
HETATM    6  S6  UNL     1     -35.054   6.062   4.103  1.00 20.00    -0.019 SA
HETATM    7  S7  UNL     1     -33.903   4.571   3.315  1.00 20.00    -0.089 SA
ENDROOT
TORSDOF 0
ENDMDL
MODEL 6
REMARK VINA RESULT:       0.4      2.080      2.725
REMARK  0 active torsions:
REMARK  status: ('A' for Active; 'I' for Inactive)
ROOT
HETATM    1  C1  UNL     1     -33.578   6.212   3.024  1.00 20.00     0.201 C 
HETATM    2  C2  UNL     1     -31.868   7.390   1.625  1.00 20.00     0.099 C 
HETATM    3  C3  UNL     1     -32.906   6.266   1.658  1.00 20.00     0.074 C 
HETATM    4  C4  UNL     1     -32.258   4.928   1.320  1.00 20.00     0.020 C 
HETATM    5  O5  UNL     1     -34.142   5.230   3.487  1.00 20.00    -0.284 OA
HETATM    6  S6  UNL     1     -33.534   7.748   3.892  1.00 20.00    -0.019 SA
HETATM    7  S7  UNL     1     -32.660   8.815   2.386  1.00 20.00    -0.089 SA
ENDROOT
TORSDOF 0
ENDMDL
MODEL 7
REMARK VINA RESULT:       0.7      1.564      2.352
REMARK  0 active torsions:
REMARK  status: ('A' for Active; 'I' for Inactive)
ROOT
HETATM    1  C1  UNL     1     -32.629   7.380   2.393  1.00 20.00     0.201 C 
HETATM    2  C2  UNL     1     -34.117   5.382   2.650  1.00 20.00     0.099 C 
HETATM    3  C3  UNL     1     -32.707   5.861   2.297  1.00 20.00     0.074 C 
HETATM    4  C4  UNL     1     -32.312   5.385   0.904  1.00 20.00     0.020 C 
HETATM    5  O5  UNL     1     -31.799   8.073   1.822  1.00 20.00    -0.284 OA
HETATM    6  S6  UNL     1     -33.832   8.080   3.478  1.00 20.00    -0.019 SA
HETATM    7  S7  UNL     1     -34.595   6.299   4.123  1.00 20.00    -0.089 SA
ENDROOT
TORSDOF 0
ENDMDL
MODEL 8
REMARK VINA RESULT:       0.7      2.883      3.772
REMARK  0 active torsions:
REMARK  status: ('A' for Active; 'I' for Inactive)
ROOT
HETATM    1  C1  UNL     1     -34.820   5.175   4.196  1.00 20.00     0.201 C 
HETATM    2  C2  UNL     1     -32.623   4.923   3.023  1.00 20.00     0.099 C 
HETATM    3  C3  UNL     1     -33.864   4.189   3.537  1.00 20.00     0.074 C 
HETATM    4  C4  UNL     1     -33.469   3.084   4.510  1.00 20.00     0.020 C 
HETATM    5  O5  UNL     1     -35.676   4.874   5.016  1.00 20.00    -0.284 OA
HETATM    6  S6  UNL     1     -34.633   6.832   3.618  1.00 20.00    -0.019 SA
HETATM    7  S7  UNL     1     -33.230   6.403   2.198  1.00 20.00    -0.089 SA
ENDROOT
TORSDOF 0
ENDMDL
MODEL 9
REMARK VINA RESULT:       0.9      2.158      2.794
REMARK  0 active torsions:
REMARK  status: ('A' for Active; 'I' for Inactive)
ROOT
HETATM    1  C1  UNL     1     -32.439   7.734   2.588  1.00 20.00     0.201 C 
HETATM    2  C2  UNL     1     -33.946   5.845   3.243  1.00 20.00     0.099 C 
HETATM    3  C3  UNL     1     -33.756   7.364   3.258  1.00 20.00     0.074 C 
HETATM    4  C4  UNL     1     -33.807   7.897   4.686  1.00 20.00     0.020 C 
HETATM    5  O5  UNL     1     -31.830   8.779   2.775  1.00 20.00    -0.284 OA
HETATM    6  S6  UNL     1     -31.871   6.526   1.434  1.00 20.00    -0.019 SA
HETATM    7  S7  UNL     1     -33.504   5.309   1.584  1.00 20.00    -0.089 SA
ENDROOT
TORSDOF 0
ENDMDL
