MODEL 1
REMARK VINA RESULT:      -2.3      0.000      0.000
REMARK  3 active torsions:
REMARK  status: ('A' for Active; 'I' for Inactive)
REMARK    1  A    between atoms: C1_1  and  C7_7 
REMARK    2  A    between atoms: C1_1  and  O9_9 
REMARK    3  A    between atoms: C5_5  and  C7_7 
ROOT
HETATM    1  C2  UNL     1     -32.742   8.395   1.521  1.00 20.00     0.011 A 
HETATM    2  C3  UNL     1     -31.305   7.890   1.686  1.00 20.00     0.011 A 
HETATM    3  C4  UNL     1     -32.818   5.712   1.134  1.00 20.00     0.015 A 
HETATM    4  C5  UNL     1     -32.904   5.928   2.653  1.00 20.00     0.005 A 
HETATM    5  C6  UNL     1     -32.449   6.984   1.752  1.00 20.00    -0.036 A 
ENDROOT
BRANCH   4   6
HETATM    6  C7  UNL     1     -34.234   6.022   3.317  1.00 20.00     0.115 C 
BRANCH   6   7
HETATM    7  C1  UNL     1     -34.587   4.782   4.119  1.00 20.00     0.139 C 
HETATM    8  O8  UNL     1     -33.917   3.761   4.167  1.00 20.00    -0.650 OA
BRANCH   7   9
HETATM    9  O9  UNL     1     -35.756   4.949   4.789  1.00 20.00    -0.776 OA
HETATM   10  H19 UNL     1     -36.019   4.138   5.274  1.00 20.00     0.167 HD
ENDBRANCH   7   9
ENDBRANCH   6   7
ENDBRANCH   4   6
TORSDOF 3
ENDMDL
MODEL 2
REMARK VINA RESULT:      -2.2      3.808      4.805
REMARK  3 active torsions:
REMARK  status: ('A' for Active; 'I' for Inactive)
REMARK    1  A    between atoms: C1_1  and  C7_7 
REMARK    2  A    between atoms: C1_1  and  O9_9 
REMARK    3  A    between atoms: C5_5  and  C7_7 
ROOT
HETATM    1  C2  UNL     1     -33.364   7.619   4.149  1.00 20.00     0.011 A 
HETATM    2  C3  UNL     1     -34.590   6.916   3.556  1.00 20.00     0.011 A 
HETATM    3  C4  UNL     1     -32.483   6.192   2.018  1.00 20.00     0.015 A 
HETATM    4  C5  UNL     1     -32.991   7.528   1.456  1.00 20.00     0.005 A 
HETATM    5  C6  UNL     1     -33.353   7.070   2.796  1.00 20.00    -0.036 A 
ENDROOT
BRANCH   4   6
HETATM    6  C7  UNL     1     -32.049   8.666   1.275  1.00 20.00     0.115 C 
BRANCH   6   7
HETATM    7  C1  UNL     1     -32.585   9.740   0.345  1.00 20.00     0.139 C 
HETATM    8  O8  UNL     1     -32.798   9.593  -0.849  1.00 20.00    -0.650 OA
BRANCH   7   9
HETATM    9  O9  UNL     1     -32.801  10.902   1.013  1.00 20.00    -0.776 OA
HETATM   10  H19 UNL     1     -32.534  10.838   1.954  1.00 20.00     0.167 HD
ENDBRANCH   7   9
ENDBRANCH   6   7
ENDBRANCH   4   6
TORSDOF 3
ENDMDL
MODEL 3
REMARK VINA RESULT:      -1.9      0.956      1.534
REMARK  3 active torsions:
REMARK  status: ('A' for Active; 'I' for Inactive)
REMARK    1  A    between atoms: C1_1  and  C7_7 
REMARK    2  A    between atoms: C1_1  and  O9_9 
REMARK    3  A    between atoms: C5_5  and  C7_7 
ROOT
HETATM    1  C2  UNL     1     -31.607   7.649   1.833  1.00 20.00     0.011 A 
HETATM    2  C3  UNL     1     -32.734   8.615   1.450  1.00 20.00     0.011 A 
HETATM    3  C4  UNL     1     -33.350   7.668   3.911  1.00 20.00     0.015 A 
HETATM    4  C5  UNL     1     -33.897   6.645   2.903  1.00 20.00     0.005 A 
HETATM    5  C6  UNL     1     -32.893   7.638   2.523  1.00 20.00    -0.036 A 
ENDROOT
BRANCH   4   6
HETATM    6  C7  UNL     1     -33.529   5.208   3.028  1.00 20.00     0.115 C 
BRANCH   6   7
HETATM    7  C1  UNL     1     -34.328   4.480   4.095  1.00 20.00     0.139 C 
HETATM    8  O8  UNL     1     -33.984   3.446   4.648  1.00 20.00    -0.650 OA
BRANCH   7   9
HETATM    9  O9  UNL     1     -35.488   5.130   4.365  1.00 20.00    -0.776 OA
HETATM   10  H19 UNL     1     -36.227   4.506   4.530  1.00 20.00     0.167 HD
ENDBRANCH   7   9
ENDBRANCH   6   7
ENDBRANCH   4   6
TORSDOF 3
ENDMDL
MODEL 4
REMARK VINA RESULT:      -1.9      1.621      2.364
REMARK  3 active torsions:
REMARK  status: ('A' for Active; 'I' for Inactive)
REMARK    1  A    between atoms: C1_1  and  C7_7 
REMARK    2  A    between atoms: C1_1  and  O9_9 
REMARK    3  A    between atoms: C5_5  and  C7_7 
ROOT
HETATM    1  C2  UNL     1     -32.755   9.082  -0.340  1.00 20.00     0.011 A 
HETATM    2  C3  UNL     1     -32.421  10.268   0.573  1.00 20.00     0.011 A 
HETATM    3  C4  UNL     1     -31.043   8.149   1.544  1.00 20.00     0.015 A 
HETATM    4  C5  UNL     1     -32.445   8.078   2.168  1.00 20.00     0.005 A 
HETATM    5  C6  UNL     1     -32.171   8.889   0.984  1.00 20.00    -0.036 A 
ENDROOT
BRANCH   4   6
HETATM    6  C7  UNL     1     -33.246   6.827   2.059  1.00 20.00     0.115 C 
BRANCH   6   7
HETATM    7  C1  UNL     1     -33.971   6.472   3.345  1.00 20.00     0.139 C 
HETATM    8  O8  UNL     1     -34.271   5.340   3.694  1.00 20.00    -0.650 OA
BRANCH   7   9
HETATM    9  O9  UNL     1     -34.251   7.584   4.072  1.00 20.00    -0.776 OA
HETATM   10  H19 UNL     1     -34.274   8.390   3.513  1.00 20.00     0.167 HD
ENDBRANCH   7   9
ENDBRANCH   6   7
ENDBRANCH   4   6
TORSDOF 3
ENDMDL
MODEL 5
REMARK VINA RESULT:      -1.8      1.187      1.513
REMARK  3 active torsions:
REMARK  status: ('A' for Active; 'I' for Inactive)
REMARK    1  A    between atoms: C1_1  and  C7_7 
REMARK    2  A    between atoms: C1_1  and  O9_9 
REMARK    3  A    between atoms: C5_5  and  C7_7 
ROOT
HETATM    1  C2  UNL     1     -32.584   8.479   1.241  1.00 20.00     0.011 A 
HETATM    2  C3  UNL     1     -31.234   8.252   1.931  1.00 20.00     0.011 A 
HETATM    3  C4  UNL     1     -32.067   5.822   1.072  1.00 20.00     0.015 A 
HETATM    4  C5  UNL     1     -32.719   6.044   2.445  1.00 20.00     0.005 A 
HETATM    5  C6  UNL     1     -32.158   7.151   1.673  1.00 20.00    -0.036 A 
ENDROOT
BRANCH   4   6
HETATM    6  C7  UNL     1     -34.193   5.901   2.601  1.00 20.00     0.115 C 
BRANCH   6   7
HETATM    7  C1  UNL     1     -34.721   6.538   3.874  1.00 20.00     0.139 C 
HETATM    8  O8  UNL     1     -34.354   7.611   4.327  1.00 20.00    -0.650 OA
BRANCH   7   9
HETATM    9  O9  UNL     1     -35.666   5.757   4.456  1.00 20.00    -0.776 OA
HETATM   10  H19 UNL     1     -35.372   5.412   5.325  1.00 20.00     0.167 HD
ENDBRANCH   7   9
ENDBRANCH   6   7
ENDBRANCH   4   6
TORSDOF 3
ENDMDL
MODEL 6
REMARK VINA RESULT:      -1.7      2.932      4.046
REMARK  3 active torsions:
REMARK  status: ('A' for Active; 'I' for Inactive)
REMARK    1  A    between atoms: C1_1  and  C7_7 
REMARK    2  A    between atoms: C1_1  and  O9_9 
REMARK    3  A    between atoms: C5_5  and  C7_7 
ROOT
HETATM    1  C2  UNL     1     -34.017   7.368   4.288  1.00 20.00     0.011 A 
HETATM    2  C3  UNL     1     -35.329   6.903   3.647  1.00 20.00     0.011 A 
HETATM    3  C4  UNL     1     -33.518   4.946   3.175  1.00 20.00     0.015 A 
HETATM    4  C5  UNL     1     -33.346   5.978   2.049  1.00 20.00     0.005 A 
HETATM    5  C6  UNL     1     -34.047   6.304   3.290  1.00 20.00    -0.036 A 
ENDROOT
BRANCH   4   6
HETATM    6  C7  UNL     1     -32.002   6.553   1.766  1.00 20.00     0.115 C 
BRANCH   6   7
HETATM    7  C1  UNL     1     -31.996   8.071   1.752  1.00 20.00     0.139 C 
HETATM    8  O8  UNL     1     -32.485   8.768   0.875  1.00 20.00    -0.650 OA
BRANCH   7   9
HETATM    9  O9  UNL     1     -31.372   8.568   2.850  1.00 20.00    -0.776 OA
HETATM   10  H19 UNL     1     -30.601   8.020   3.112  1.00 20.00     0.167 HD
ENDBRANCH   7   9
ENDBRANCH   6   7
ENDBRANCH   4   6
TORSDOF 3
ENDMDL
MODEL 7
REMARK VINA RESULT:      -1.7      2.186      2.719
REMARK  3 active torsions:
REMARK  status: ('A' for Active; 'I' for Inactive)
REMARK    1  A    between atoms: C1_1  and  C7_7 
REMARK    2  A    between atoms: C1_1  and  O9_9 
REMARK    3  A    between atoms: C5_5  and  C7_7 
ROOT
HETATM    1  C2  UNL     1     -35.277   6.932   3.753  1.00 20.00     0.011 A 
HETATM    2  C3  UNL     1     -33.966   7.683   4.010  1.00 20.00     0.011 A 
HETATM    3  C4  UNL     1     -33.389   5.742   2.212  1.00 20.00     0.015 A 
HETATM    4  C5  UNL     1     -33.278   5.094   3.601  1.00 20.00     0.005 A 
HETATM    5  C6  UNL     1     -33.983   6.358   3.397  1.00 20.00    -0.036 A 
ENDROOT
BRANCH   4   6
HETATM    6  C7  UNL     1     -34.034   3.847   3.903  1.00 20.00     0.115 C 
BRANCH   6   7
HETATM    7  C1  UNL     1     -33.236   2.855   4.730  1.00 20.00     0.139 C 
HETATM    8  O8  UNL     1     -32.381   3.150   5.550  1.00 20.00    -0.650 OA
BRANCH   7   9
HETATM    9  O9  UNL     1     -33.597   1.578   4.443  1.00 20.00    -0.776 OA
HETATM   10  H19 UNL     1     -34.341   1.273   5.004  1.00 20.00     0.167 HD
ENDBRANCH   7   9
ENDBRANCH   6   7
ENDBRANCH   4   6
TORSDOF 3
ENDMDL
MODEL 8
REMARK VINA RESULT:      -1.4      2.852      4.375
REMARK  3 active torsions:
REMARK  status: ('A' for Active; 'I' for Inactive)
REMARK    1  A    between atoms: C1_1  and  C7_7 
REMARK    2  A    between atoms: C1_1  and  O9_9 
REMARK    3  A    between atoms: C5_5  and  C7_7 
ROOT
HETATM    1  C2  UNL     1     -35.780   6.557   3.376  1.00 20.00     0.011 A 
HETATM    2  C3  UNL     1     -35.081   5.513   4.254  1.00 20.00     0.011 A 
HETATM    3  C4  UNL     1     -33.932   7.894   4.842  1.00 20.00     0.015 A 
HETATM    4  C5  UNL     1     -33.188   7.344   3.616  1.00 20.00     0.005 A 
HETATM    5  C6  UNL     1     -34.496   6.830   4.015  1.00 20.00    -0.036 A 
ENDROOT
BRANCH   4   6
HETATM    6  C7  UNL     1     -33.045   8.182   2.394  1.00 20.00     0.115 C 
BRANCH   6   7
HETATM    7  C1  UNL     1     -31.958   7.687   1.456  1.00 20.00     0.139 C 
HETATM    8  O8  UNL     1     -31.271   8.398   0.739  1.00 20.00    -0.650 OA
BRANCH   7   9
HETATM    9  O9  UNL     1     -31.841   6.336   1.515  1.00 20.00    -0.776 OA
HETATM   10  H19 UNL     1     -32.600   5.884   1.088  1.00 20.00     0.167 HD
ENDBRANCH   7   9
ENDBRANCH   6   7
ENDBRANCH   4   6
TORSDOF 3
ENDMDL
MODEL 9
REMARK VINA RESULT:      -1.4      1.186      2.049
REMARK  3 active torsions:
REMARK  status: ('A' for Active; 'I' for Inactive)
REMARK    1  A    between atoms: C1_1  and  C7_7 
REMARK    2  A    between atoms: C1_1  and  O9_9 
REMARK    3  A    between atoms: C5_5  and  C7_7 
ROOT
HETATM    1  C2  UNL     1     -32.286   5.144   1.890  1.00 20.00     0.011 A 
HETATM    2  C3  UNL     1     -32.739   5.754   0.558  1.00 20.00     0.011 A 
HETATM    3  C4  UNL     1     -32.124   7.836   2.178  1.00 20.00     0.015 A 
HETATM    4  C5  UNL     1     -33.581   7.460   2.488  1.00 20.00     0.005 A 
HETATM    5  C6  UNL     1     -32.684   6.545   1.785  1.00 20.00    -0.036 A 
ENDROOT
BRANCH   4   6
HETATM    6  C7  UNL     1     -33.996   7.183   3.890  1.00 20.00     0.115 C 
BRANCH   6   7
HETATM    7  C1  UNL     1     -35.012   6.061   4.000  1.00 20.00     0.139 C 
HETATM    8  O8  UNL     1     -34.783   4.944   4.440  1.00 20.00    -0.650 OA
BRANCH   7   9
HETATM    9  O9  UNL     1     -36.228   6.455   3.541  1.00 20.00    -0.776 OA
HETATM   10  H19 UNL     1     -36.275   7.427   3.420  1.00 20.00     0.167 HD
ENDBRANCH   7   9
ENDBRANCH   6   7
ENDBRANCH   4   6
TORSDOF 3
ENDMDL
