MODEL 1
REMARK VINA RESULT:      -2.8      0.000      0.000
REMARK  2 active torsions:
REMARK  status: ('A' for Active; 'I' for Inactive)
REMARK    1  A    between atoms: C1_1  and  C3_3 
REMARK    2  A    between atoms: C3_3  and  O6_6 
ROOT
HETATM    1  C1  UNL     1     -34.018   6.996   3.011  1.00 20.00     0.156 C 
HETATM    2  C2  UNL     1     -34.508   6.021   3.780  1.00 20.00     0.273 C 
HETATM    3  F7  UNL     1     -35.576   6.277   4.567  1.00 20.00    -0.173 F 
HETATM    4  F8  UNL     1     -33.960   4.787   3.790  1.00 20.00    -0.173 F 
ENDROOT
BRANCH   1   5
HETATM    5  C3  UNL     1     -32.851   6.767   2.131  1.00 20.00     0.287 C 
HETATM    6  O5  UNL     1     -32.649   5.763   1.467  1.00 20.00    -0.260 OA
BRANCH   5   7
HETATM    7  O6  UNL     1     -32.062   7.872   2.203  1.00 20.00    -0.323 OA
HETATM    8  C4  UNL     1     -32.132   8.753   1.076  1.00 20.00     0.213 C 
ENDBRANCH   5   7
ENDBRANCH   1   5
TORSDOF 2
ENDMDL
MODEL 2
REMARK VINA RESULT:      -2.5      2.855      3.998
REMARK  2 active torsions:
REMARK  status: ('A' for Active; 'I' for Inactive)
REMARK    1  A    between atoms: C1_1  and  C3_3 
REMARK    2  A    between atoms: C3_3  and  O6_6 
ROOT
HETATM    1  C1  UNL     1     -33.743   5.666   3.273  1.00 20.00     0.156 C 
HETATM    2  C2  UNL     1     -33.814   6.974   3.533  1.00 20.00     0.273 C 
HETATM    3  F7  UNL     1     -33.087   7.835   2.789  1.00 20.00    -0.173 F 
HETATM    4  F8  UNL     1     -34.595   7.453   4.525  1.00 20.00    -0.173 F 
ENDROOT
BRANCH   1   5
HETATM    5  C3  UNL     1     -34.520   4.683   4.058  1.00 20.00     0.287 C 
HETATM    6  O5  UNL     1     -35.529   4.925   4.699  1.00 20.00    -0.260 OA
BRANCH   5   7
HETATM    7  O6  UNL     1     -33.903   3.477   3.928  1.00 20.00    -0.323 OA
HETATM    8  C4  UNL     1     -33.082   3.084   5.033  1.00 20.00     0.213 C 
ENDBRANCH   5   7
ENDBRANCH   1   5
TORSDOF 2
ENDMDL
MODEL 3
REMARK VINA RESULT:      -2.5      2.653      3.725
REMARK  2 active torsions:
REMARK  status: ('A' for Active; 'I' for Inactive)
REMARK    1  A    between atoms: C1_1  and  C3_3 
REMARK    2  A    between atoms: C3_3  and  O6_6 
ROOT
HETATM    1  C1  UNL     1     -33.528   7.294   3.333  1.00 20.00     0.156 C 
HETATM    2  C2  UNL     1     -32.796   7.321   2.217  1.00 20.00     0.273 C 
HETATM    3  F7  UNL     1     -32.022   8.398   1.962  1.00 20.00    -0.173 F 
HETATM    4  F8  UNL     1     -32.814   6.297   1.337  1.00 20.00    -0.173 F 
ENDROOT
BRANCH   1   5
HETATM    5  C3  UNL     1     -34.391   6.138   3.658  1.00 20.00     0.287 C 
HETATM    6  O5  UNL     1     -35.553   6.202   4.027  1.00 20.00    -0.260 OA
BRANCH   5   7
HETATM    7  O6  UNL     1     -33.654   5.011   3.469  1.00 20.00    -0.323 OA
HETATM    8  C4  UNL     1     -33.970   3.916   4.337  1.00 20.00     0.213 C 
ENDBRANCH   5   7
ENDBRANCH   1   5
TORSDOF 2
ENDMDL
MODEL 4
REMARK VINA RESULT:      -2.5      1.326      1.909
REMARK  2 active torsions:
REMARK  status: ('A' for Active; 'I' for Inactive)
REMARK    1  A    between atoms: C1_1  and  C3_3 
REMARK    2  A    between atoms: C3_3  and  O6_6 
ROOT
HETATM    1  C1  UNL     1     -33.365   6.924   2.645  1.00 20.00     0.156 C 
HETATM    2  C2  UNL     1     -34.171   7.019   3.705  1.00 20.00     0.273 C 
HETATM    3  F7  UNL     1     -35.110   6.070   3.907  1.00 20.00    -0.173 F 
HETATM    4  F8  UNL     1     -34.069   8.044   4.578  1.00 20.00    -0.173 F 
ENDROOT
BRANCH   1   5
HETATM    5  C3  UNL     1     -32.320   7.937   2.380  1.00 20.00     0.287 C 
HETATM    6  O5  UNL     1     -31.635   8.488   3.227  1.00 20.00    -0.260 OA
BRANCH   5   7
HETATM    7  O6  UNL     1     -32.271   8.132   1.035  1.00 20.00    -0.323 OA
HETATM    8  C4  UNL     1     -32.322   9.498   0.609  1.00 20.00     0.213 C 
ENDBRANCH   5   7
ENDBRANCH   1   5
TORSDOF 2
ENDMDL
MODEL 5
REMARK VINA RESULT:      -2.5      1.252      2.122
REMARK  2 active torsions:
REMARK  status: ('A' for Active; 'I' for Inactive)
REMARK    1  A    between atoms: C1_1  and  C3_3 
REMARK    2  A    between atoms: C3_3  and  O6_6 
ROOT
HETATM    1  C1  UNL     1     -33.758   6.567   2.659  1.00 20.00     0.156 C 
HETATM    2  C2  UNL     1     -34.349   6.911   3.806  1.00 20.00     0.273 C 
HETATM    3  F7  UNL     1     -35.444   6.232   4.213  1.00 20.00    -0.173 F 
HETATM    4  F8  UNL     1     -33.878   7.921   4.567  1.00 20.00    -0.173 F 
ENDROOT
BRANCH   1   5
HETATM    5  C3  UNL     1     -32.557   7.278   2.170  1.00 20.00     0.287 C 
HETATM    6  O5  UNL     1     -32.331   8.469   2.313  1.00 20.00    -0.260 OA
BRANCH   5   7
HETATM    7  O6  UNL     1     -31.768   6.365   1.544  1.00 20.00    -0.323 OA
HETATM    8  C4  UNL     1     -32.428   5.164   1.127  1.00 20.00     0.213 C 
ENDBRANCH   5   7
ENDBRANCH   1   5
TORSDOF 2
ENDMDL
MODEL 6
REMARK VINA RESULT:      -2.4      1.670      2.217
REMARK  2 active torsions:
REMARK  status: ('A' for Active; 'I' for Inactive)
REMARK    1  A    between atoms: C1_1  and  C3_3 
REMARK    2  A    between atoms: C3_3  and  O6_6 
ROOT
HETATM    1  C1  UNL     1     -33.344   5.090   3.416  1.00 20.00     0.156 C 
HETATM    2  C2  UNL     1     -34.191   4.332   4.116  1.00 20.00     0.273 C 
HETATM    3  F7  UNL     1     -33.867   3.046   4.373  1.00 20.00    -0.173 F 
HETATM    4  F8  UNL     1     -35.364   4.821   4.572  1.00 20.00    -0.173 F 
ENDROOT
BRANCH   1   5
HETATM    5  C3  UNL     1     -33.653   6.504   3.109  1.00 20.00     0.287 C 
HETATM    6  O5  UNL     1     -34.289   7.262   3.822  1.00 20.00    -0.260 OA
BRANCH   5   7
HETATM    7  O6  UNL     1     -33.099   6.789   1.899  1.00 20.00    -0.323 OA
HETATM    8  C4  UNL     1     -32.109   7.824   1.905  1.00 20.00     0.213 C 
ENDBRANCH   5   7
ENDBRANCH   1   5
TORSDOF 2
ENDMDL
MODEL 7
REMARK VINA RESULT:      -2.4      2.717      3.858
REMARK  2 active torsions:
REMARK  status: ('A' for Active; 'I' for Inactive)
REMARK    1  A    between atoms: C1_1  and  C3_3 
REMARK    2  A    between atoms: C3_3  and  O6_6 
ROOT
HETATM    1  C1  UNL     1     -33.478   5.871   2.779  1.00 20.00     0.156 C 
HETATM    2  C2  UNL     1     -32.619   6.268   1.837  1.00 20.00     0.273 C 
HETATM    3  F7  UNL     1     -32.006   5.341   1.070  1.00 20.00    -0.173 F 
HETATM    4  F8  UNL     1     -32.348   7.575   1.635  1.00 20.00    -0.173 F 
ENDROOT
BRANCH   1   5
HETATM    5  C3  UNL     1     -34.174   6.848   3.644  1.00 20.00     0.287 C 
HETATM    6  O5  UNL     1     -33.740   7.938   3.975  1.00 20.00    -0.260 OA
BRANCH   5   7
HETATM    7  O6  UNL     1     -35.372   6.304   3.991  1.00 20.00    -0.323 OA
HETATM    8  C4  UNL     1     -35.312   4.985   4.545  1.00 20.00     0.213 C 
ENDBRANCH   5   7
ENDBRANCH   1   5
TORSDOF 2
ENDMDL
MODEL 8
REMARK VINA RESULT:      -2.3      2.812      3.942
REMARK  2 active torsions:
REMARK  status: ('A' for Active; 'I' for Inactive)
REMARK    1  A    between atoms: C1_1  and  C3_3 
REMARK    2  A    between atoms: C3_3  and  O6_6 
ROOT
HETATM    1  C1  UNL     1     -32.984   6.845   1.900  1.00 20.00     0.156 C 
HETATM    2  C2  UNL     1     -32.078   7.821   1.994  1.00 20.00     0.273 C 
HETATM    3  F7  UNL     1     -31.444   8.242   0.877  1.00 20.00    -0.173 F 
HETATM    4  F8  UNL     1     -31.779   8.395   3.179  1.00 20.00    -0.173 F 
ENDROOT
BRANCH   1   5
HETATM    5  C3  UNL     1     -33.705   6.349   3.092  1.00 20.00     0.287 C 
HETATM    6  O5  UNL     1     -34.370   7.032   3.854  1.00 20.00    -0.260 OA
BRANCH   5   7
HETATM    7  O6  UNL     1     -33.489   5.009   3.172  1.00 20.00    -0.323 OA
HETATM    8  C4  UNL     1     -34.211   4.330   4.206  1.00 20.00     0.213 C 
ENDBRANCH   5   7
ENDBRANCH   1   5
TORSDOF 2
ENDMDL
MODEL 9
REMARK VINA RESULT:      -2.2      3.466      4.279
REMARK  2 active torsions:
REMARK  status: ('A' for Active; 'I' for Inactive)
REMARK    1  A    between atoms: C1_1  and  C3_3 
REMARK    2  A    between atoms: C3_3  and  O6_6 
ROOT
HETATM    1  C1  UNL     1     -31.986   9.071   1.551  1.00 20.00     0.156 C 
HETATM    2  C2  UNL     1     -32.374   9.609   0.392  1.00 20.00     0.273 C 
HETATM    3  F7  UNL     1     -32.031  10.884   0.110  1.00 20.00    -0.173 F 
HETATM    4  F8  UNL     1     -33.103   8.907  -0.502  1.00 20.00    -0.173 F 
ENDROOT
BRANCH   1   5
HETATM    5  C3  UNL     1     -32.335   7.678   1.907  1.00 20.00     0.287 C 
HETATM    6  O5  UNL     1     -31.927   6.678   1.340  1.00 20.00    -0.260 OA
BRANCH   5   7
HETATM    7  O6  UNL     1     -33.182   7.728   2.970  1.00 20.00    -0.323 OA
HETATM    8  C4  UNL     1     -33.887   6.514   3.253  1.00 20.00     0.213 C 
ENDBRANCH   5   7
ENDBRANCH   1   5
TORSDOF 2
ENDMDL
