MODEL 1
REMARK VINA RESULT:       0.8      0.000      0.000
REMARK  1 active torsions:
REMARK  status: ('A' for Active; 'I' for Inactive)
REMARK    1  A    between atoms: C3_3  and  C8_8 
ROOT
HETATM    1  C1  UNL     1     -32.706   7.799   4.382  1.00 20.00    -0.026 C 
HETATM    2  C2  UNL     1     -33.958   7.630   4.831  1.00 20.00    -0.025 C 
HETATM    3  C4  UNL     1     -34.122   8.195   2.598  1.00 20.00     0.017 C 
HETATM    4  C5  UNL     1     -32.989   6.101   2.611  1.00 20.00     0.021 C 
HETATM    5  C6  UNL     1     -32.738   7.602   2.886  1.00 20.00     0.009 C 
HETATM    6  C7  UNL     1     -34.825   7.308   3.632  1.00 20.00     0.019 C 
HETATM    7  C8  UNL     1     -34.455   5.905   3.093  1.00 20.00     0.063 C 
ENDROOT
BRANCH   7   8
HETATM    8  C3  UNL     1     -34.598   4.818   4.113  1.00 20.00     0.128 C 
HETATM    9  C9  UNL     1     -33.487   3.805   4.181  1.00 20.00     0.091 C 
HETATM   10  O10 UNL     1     -35.572   4.759   4.861  1.00 20.00    -0.298 OA
ENDBRANCH   7   8
TORSDOF 1
ENDMDL
MODEL 2
REMARK VINA RESULT:       0.8      1.506      2.113
REMARK  1 active torsions:
REMARK  status: ('A' for Active; 'I' for Inactive)
REMARK    1  A    between atoms: C3_3  and  C8_8 
ROOT
HETATM    1  C1  UNL     1     -31.218   8.021   2.929  1.00 20.00    -0.026 C 
HETATM    2  C2  UNL     1     -32.423   8.360   3.408  1.00 20.00    -0.025 C 
HETATM    3  C4  UNL     1     -32.541   8.550   1.110  1.00 20.00     0.017 C 
HETATM    4  C5  UNL     1     -32.158   6.233   1.508  1.00 20.00     0.021 C 
HETATM    5  C6  UNL     1     -31.412   7.588   1.498  1.00 20.00     0.009 C 
HETATM    6  C7  UNL     1     -33.425   8.143   2.294  1.00 20.00     0.019 C 
HETATM    7  C8  UNL     1     -33.572   6.626   2.024  1.00 20.00     0.063 C 
ENDROOT
BRANCH   7   8
HETATM    8  C3  UNL     1     -33.995   5.846   3.230  1.00 20.00     0.128 C 
HETATM    9  C9  UNL     1     -35.163   6.388   4.010  1.00 20.00     0.091 C 
HETATM   10  O10 UNL     1     -33.420   4.811   3.565  1.00 20.00    -0.298 OA
ENDBRANCH   7   8
TORSDOF 1
ENDMDL
MODEL 3
REMARK VINA RESULT:       1.2      1.398      1.825
REMARK  1 active torsions:
REMARK  status: ('A' for Active; 'I' for Inactive)
REMARK    1  A    between atoms: C3_3  and  C8_8 
ROOT
HETATM    1  C1  UNL     1     -31.229   7.926   2.932  1.00 20.00    -0.026 C 
HETATM    2  C2  UNL     1     -32.373   8.420   3.426  1.00 20.00    -0.025 C 
HETATM    3  C4  UNL     1     -32.539   8.529   1.126  1.00 20.00     0.017 C 
HETATM    4  C5  UNL     1     -32.406   6.202   1.614  1.00 20.00     0.021 C 
HETATM    5  C6  UNL     1     -31.514   7.461   1.526  1.00 20.00     0.009 C 
HETATM    6  C7  UNL     1     -33.427   8.273   2.349  1.00 20.00     0.019 C 
HETATM    7  C8  UNL     1     -33.751   6.773   2.149  1.00 20.00     0.063 C 
ENDROOT
BRANCH   7   8
HETATM    8  C3  UNL     1     -34.223   6.095   3.398  1.00 20.00     0.128 C 
HETATM    9  C9  UNL     1     -33.666   4.724   3.673  1.00 20.00     0.091 C 
HETATM   10  O10 UNL     1     -35.022   6.632   4.163  1.00 20.00    -0.298 OA
ENDBRANCH   7   8
TORSDOF 1
ENDMDL
MODEL 4
REMARK VINA RESULT:       1.3      1.848      3.207
REMARK  1 active torsions:
REMARK  status: ('A' for Active; 'I' for Inactive)
REMARK    1  A    between atoms: C3_3  and  C8_8 
ROOT
HETATM    1  C1  UNL     1     -35.944   6.527   3.256  1.00 20.00    -0.026 C 
HETATM    2  C2  UNL     1     -35.193   7.608   2.995  1.00 20.00    -0.025 C 
HETATM    3  C4  UNL     1     -34.536   6.823   5.065  1.00 20.00     0.017 C 
HETATM    4  C5  UNL     1     -33.964   5.080   3.546  1.00 20.00     0.021 C 
HETATM    5  C6  UNL     1     -35.190   5.693   4.261  1.00 20.00     0.009 C 
HETATM    6  C7  UNL     1     -33.931   7.487   3.823  1.00 20.00     0.019 C 
HETATM    7  C8  UNL     1     -33.069   6.324   3.277  1.00 20.00     0.063 C 
ENDROOT
BRANCH   7   8
HETATM    8  C3  UNL     1     -32.701   6.482   1.833  1.00 20.00     0.128 C 
HETATM    9  C9  UNL     1     -31.944   7.728   1.462  1.00 20.00     0.091 C 
HETATM   10  O10 UNL     1     -33.000   5.634   0.994  1.00 20.00    -0.298 OA
ENDBRANCH   7   8
TORSDOF 1
ENDMDL
MODEL 5
REMARK VINA RESULT:       1.4      2.058      3.500
REMARK  1 active torsions:
REMARK  status: ('A' for Active; 'I' for Inactive)
REMARK    1  A    between atoms: C3_3  and  C8_8 
ROOT
HETATM    1  C1  UNL     1     -33.889   5.197   3.994  1.00 20.00    -0.026 C 
HETATM    2  C2  UNL     1     -33.643   5.455   2.701  1.00 20.00    -0.025 C 
HETATM    3  C4  UNL     1     -35.635   6.501   3.223  1.00 20.00     0.017 C 
HETATM    4  C5  UNL     1     -34.005   7.596   4.570  1.00 20.00     0.021 C 
HETATM    5  C6  UNL     1     -34.812   6.279   4.497  1.00 20.00     0.009 C 
HETATM    6  C7  UNL     1     -34.397   6.719   2.346  1.00 20.00     0.019 C 
HETATM    7  C8  UNL     1     -33.750   7.924   3.071  1.00 20.00     0.063 C 
ENDROOT
BRANCH   7   8
HETATM    8  C3  UNL     1     -32.299   8.104   2.747  1.00 20.00     0.128 C 
HETATM    9  C9  UNL     1     -31.880   7.800   1.334  1.00 20.00     0.091 C 
HETATM   10  O10 UNL     1     -31.491   8.486   3.592  1.00 20.00    -0.298 OA
ENDBRANCH   7   8
TORSDOF 1
ENDMDL
MODEL 6
REMARK VINA RESULT:       1.4      1.385      2.576
REMARK  1 active torsions:
REMARK  status: ('A' for Active; 'I' for Inactive)
REMARK    1  A    between atoms: C3_3  and  C8_8 
ROOT
HETATM    1  C1  UNL     1     -33.433   6.974   0.598  1.00 20.00    -0.026 C 
HETATM    2  C2  UNL     1     -33.244   5.728   1.053  1.00 20.00    -0.025 C 
HETATM    3  C4  UNL     1     -31.483   6.998   1.838  1.00 20.00     0.017 C 
HETATM    4  C5  UNL     1     -33.413   7.932   2.874  1.00 20.00     0.021 C 
HETATM    5  C6  UNL     1     -32.677   7.903   1.515  1.00 20.00     0.009 C 
HETATM    6  C7  UNL     1     -32.367   5.828   2.283  1.00 20.00     0.019 C 
HETATM    7  C8  UNL     1     -33.164   6.500   3.428  1.00 20.00     0.063 C 
ENDROOT
BRANCH   7   8
HETATM    8  C3  UNL     1     -34.428   5.777   3.778  1.00 20.00     0.128 C 
HETATM    9  C9  UNL     1     -34.293   4.327   4.156  1.00 20.00     0.091 C 
HETATM   10  O10 UNL     1     -35.521   6.341   3.760  1.00 20.00    -0.298 OA
ENDBRANCH   7   8
TORSDOF 1
ENDMDL
MODEL 7
REMARK VINA RESULT:       1.4      1.410      2.766
REMARK  1 active torsions:
REMARK  status: ('A' for Active; 'I' for Inactive)
REMARK    1  A    between atoms: C3_3  and  C8_8 
ROOT
HETATM    1  C1  UNL     1     -33.566   6.822   0.643  1.00 20.00    -0.026 C 
HETATM    2  C2  UNL     1     -33.394   5.531   0.963  1.00 20.00    -0.025 C 
HETATM    3  C4  UNL     1     -31.504   6.651   1.675  1.00 20.00     0.017 C 
HETATM    4  C5  UNL     1     -33.275   7.559   2.983  1.00 20.00     0.021 C 
HETATM    5  C6  UNL     1     -32.678   7.630   1.558  1.00 20.00     0.009 C 
HETATM    6  C7  UNL     1     -32.397   5.480   2.101  1.00 20.00     0.019 C 
HETATM    7  C8  UNL     1     -33.043   6.072   3.377  1.00 20.00     0.063 C 
ENDROOT
BRANCH   7   8
HETATM    8  C3  UNL     1     -34.300   5.370   3.788  1.00 20.00     0.128 C 
HETATM    9  C9  UNL     1     -35.537   6.218   3.914  1.00 20.00     0.091 C 
HETATM   10  O10 UNL     1     -34.321   4.160   4.009  1.00 20.00    -0.298 OA
ENDBRANCH   7   8
TORSDOF 1
ENDMDL
MODEL 8
REMARK VINA RESULT:       1.5      1.767      2.921
REMARK  1 active torsions:
REMARK  status: ('A' for Active; 'I' for Inactive)
REMARK    1  A    between atoms: C3_3  and  C8_8 
ROOT
HETATM    1  C1  UNL     1     -33.009   7.633   0.609  1.00 20.00    -0.026 C 
HETATM    2  C2  UNL     1     -33.747   6.557   0.919  1.00 20.00    -0.025 C 
HETATM    3  C4  UNL     1     -31.573   6.071   1.526  1.00 20.00     0.017 C 
HETATM    4  C5  UNL     1     -32.202   7.890   2.929  1.00 20.00     0.021 C 
HETATM    5  C6  UNL     1     -31.774   7.590   1.473  1.00 20.00     0.009 C 
HETATM    6  C7  UNL     1     -33.005   5.801   2.000  1.00 20.00     0.019 C 
HETATM    7  C8  UNL     1     -33.026   6.627   3.310  1.00 20.00     0.063 C 
ENDROOT
BRANCH   7   8
HETATM    8  C3  UNL     1     -34.408   6.948   3.789  1.00 20.00     0.128 C 
HETATM    9  C9  UNL     1     -35.295   5.780   4.126  1.00 20.00     0.091 C 
HETATM   10  O10 UNL     1     -34.797   8.109   3.905  1.00 20.00    -0.298 OA
ENDBRANCH   7   8
TORSDOF 1
ENDMDL
MODEL 9
REMARK VINA RESULT:       2.0      1.824      2.686
REMARK  1 active torsions:
REMARK  status: ('A' for Active; 'I' for Inactive)
REMARK    1  A    between atoms: C3_3  and  C8_8 
ROOT
HETATM    1  C1  UNL     1     -31.443   7.129   1.862  1.00 20.00    -0.026 C 
HETATM    2  C2  UNL     1     -32.612   7.756   1.667  1.00 20.00    -0.025 C 
HETATM    3  C4  UNL     1     -32.715   5.773   0.488  1.00 20.00     0.017 C 
HETATM    4  C5  UNL     1     -32.543   5.113   2.770  1.00 20.00     0.021 C 
HETATM    5  C6  UNL     1     -31.677   5.660   1.611  1.00 20.00     0.009 C 
HETATM    6  C7  UNL     1     -33.631   6.699   1.296  1.00 20.00     0.019 C 
HETATM    7  C8  UNL     1     -33.915   5.805   2.527  1.00 20.00     0.063 C 
ENDROOT
BRANCH   7   8
HETATM    8  C3  UNL     1     -34.406   6.569   3.718  1.00 20.00     0.128 C 
HETATM    9  C9  UNL     1     -35.551   5.964   4.484  1.00 20.00     0.091 C 
HETATM   10  O10 UNL     1     -33.897   7.637   4.055  1.00 20.00    -0.298 OA
ENDBRANCH   7   8
TORSDOF 1
ENDMDL
