MODEL 1
REMARK VINA RESULT:       0.9      0.000      0.000
REMARK  0 active torsions:
REMARK  status: ('A' for Active; 'I' for Inactive)
ROOT
HETATM    1  C1  UNL     1     -33.565   6.694   2.871  1.00 20.00     0.270 A 
HETATM    2  C2  UNL     1     -32.798   6.409   1.546  1.00 20.00     0.072 A 
HETATM    3  C3  UNL     1     -32.245   7.865   1.804  1.00 20.00     0.079 A 
HETATM    4  C4  UNL     1     -33.726   6.204   0.349  1.00 20.00     0.029 C 
HETATM    5  C5  UNL     1     -31.813   5.245   1.663  1.00 20.00     0.029 C 
HETATM    6  C6  UNL     1     -32.680   8.970   0.841  1.00 20.00     0.047 C 
HETATM    7  C7  UNL     1     -30.765   8.009   2.156  1.00 20.00     0.047 C 
HETATM    8  O8  UNL     1     -34.349   6.113   3.589  1.00 20.00    -0.264 OA
HETATM    9  O9  UNL     1     -33.047   7.940   3.026  1.00 20.00    -0.309 OA
ENDROOT
TORSDOF 0
ENDMDL
MODEL 2
REMARK VINA RESULT:       1.0      1.683      3.027
REMARK  0 active torsions:
REMARK  status: ('A' for Active; 'I' for Inactive)
ROOT
HETATM    1  C1  UNL     1     -33.735   5.078   3.568  1.00 20.00     0.270 A 
HETATM    2  C2  UNL     1     -34.230   6.537   3.335  1.00 20.00     0.072 A 
HETATM    3  C3  UNL     1     -33.305   6.421   2.062  1.00 20.00     0.079 A 
HETATM    4  C4  UNL     1     -33.798   7.499   4.442  1.00 20.00     0.029 C 
HETATM    5  C5  UNL     1     -35.740   6.628   3.111  1.00 20.00     0.029 C 
HETATM    6  C6  UNL     1     -32.037   7.275   2.026  1.00 20.00     0.047 C 
HETATM    7  C7  UNL     1     -33.982   6.404   0.693  1.00 20.00     0.047 C 
HETATM    8  O8  UNL     1     -33.902   4.201   4.385  1.00 20.00    -0.264 OA
HETATM    9  O9  UNL     1     -32.959   5.054   2.453  1.00 20.00    -0.309 OA
ENDROOT
TORSDOF 0
ENDMDL
MODEL 3
REMARK VINA RESULT:       1.2      0.666      2.875
REMARK  0 active torsions:
REMARK  status: ('A' for Active; 'I' for Inactive)
ROOT
HETATM    1  C1  UNL     1     -33.358   7.350   3.131  1.00 20.00     0.270 A 
HETATM    2  C2  UNL     1     -32.410   7.673   1.938  1.00 20.00     0.072 A 
HETATM    3  C3  UNL     1     -32.783   6.197   1.522  1.00 20.00     0.079 A 
HETATM    4  C4  UNL     1     -30.970   7.945   2.375  1.00 20.00     0.029 C 
HETATM    5  C5  UNL     1     -32.923   8.811   1.056  1.00 20.00     0.029 C 
HETATM    6  C6  UNL     1     -31.679   5.141   1.588  1.00 20.00     0.047 C 
HETATM    7  C7  UNL     1     -33.634   6.009   0.267  1.00 20.00     0.047 C 
HETATM    8  O8  UNL     1     -33.773   7.918   4.117  1.00 20.00    -0.264 OA
HETATM    9  O9  UNL     1     -33.632   6.089   2.708  1.00 20.00    -0.309 OA
ENDROOT
TORSDOF 0
ENDMDL
MODEL 4
REMARK VINA RESULT:       1.6      1.248      3.167
REMARK  0 active torsions:
REMARK  status: ('A' for Active; 'I' for Inactive)
ROOT
HETATM    1  C1  UNL     1     -32.541   7.443   2.461  1.00 20.00     0.270 A 
HETATM    2  C2  UNL     1     -33.206   6.185   1.827  1.00 20.00     0.072 A 
HETATM    3  C3  UNL     1     -33.979   6.163   3.202  1.00 20.00     0.079 A 
HETATM    4  C4  UNL     1     -32.211   5.056   1.553  1.00 20.00     0.029 C 
HETATM    5  C5  UNL     1     -34.008   6.504   0.565  1.00 20.00     0.029 C 
HETATM    6  C6  UNL     1     -33.677   5.018   4.168  1.00 20.00     0.047 C 
HETATM    7  C7  UNL     1     -35.476   6.466   3.178  1.00 20.00     0.047 C 
HETATM    8  O8  UNL     1     -31.708   8.264   2.148  1.00 20.00    -0.264 OA
HETATM    9  O9  UNL     1     -33.246   7.359   3.620  1.00 20.00    -0.309 OA
ENDROOT
TORSDOF 0
ENDMDL
MODEL 5
REMARK VINA RESULT:       1.8      1.714      2.503
REMARK  0 active torsions:
REMARK  status: ('A' for Active; 'I' for Inactive)
ROOT
HETATM    1  C1  UNL     1     -33.407   7.418   3.883  1.00 20.00     0.270 A 
HETATM    2  C2  UNL     1     -34.218   6.196   3.356  1.00 20.00     0.072 A 
HETATM    3  C3  UNL     1     -33.267   6.376   2.109  1.00 20.00     0.079 A 
HETATM    4  C4  UNL     1     -35.704   6.501   3.165  1.00 20.00     0.029 C 
HETATM    5  C5  UNL     1     -34.037   4.943   4.213  1.00 20.00     0.029 C 
HETATM    6  C6  UNL     1     -33.897   6.846   0.798  1.00 20.00     0.047 C 
HETATM    7  C7  UNL     1     -32.229   5.285   1.847  1.00 20.00     0.047 C 
HETATM    8  O8  UNL     1     -33.385   8.109   4.876  1.00 20.00    -0.264 OA
HETATM    9  O9  UNL     1     -32.626   7.509   2.775  1.00 20.00    -0.309 OA
ENDROOT
TORSDOF 0
ENDMDL
MODEL 6
REMARK VINA RESULT:       1.9      1.717      2.485
REMARK  0 active torsions:
REMARK  status: ('A' for Active; 'I' for Inactive)
ROOT
HETATM    1  C1  UNL     1     -31.751   5.888   1.525  1.00 20.00     0.270 A 
HETATM    2  C2  UNL     1     -33.154   6.519   1.770  1.00 20.00     0.072 A 
HETATM    3  C3  UNL     1     -32.302   7.841   1.892  1.00 20.00     0.079 A 
HETATM    4  C4  UNL     1     -33.835   5.993   3.034  1.00 20.00     0.029 C 
HETATM    5  C5  UNL     1     -34.089   6.385   0.567  1.00 20.00     0.029 C 
HETATM    6  C6  UNL     1     -32.212   8.503   3.267  1.00 20.00     0.047 C 
HETATM    7  C7  UNL     1     -32.468   8.895   0.798  1.00 20.00     0.047 C 
HETATM    8  O8  UNL     1     -31.296   4.789   1.303  1.00 20.00    -0.264 OA
HETATM    9  O9  UNL     1     -31.086   7.067   1.644  1.00 20.00    -0.309 OA
ENDROOT
TORSDOF 0
ENDMDL
MODEL 7
REMARK VINA RESULT:       1.9      1.570      2.672
REMARK  0 active torsions:
REMARK  status: ('A' for Active; 'I' for Inactive)
ROOT
HETATM    1  C1  UNL     1     -32.618   6.352   1.977  1.00 20.00     0.270 A 
HETATM    2  C2  UNL     1     -32.440   7.879   2.227  1.00 20.00     0.072 A 
HETATM    3  C3  UNL     1     -33.512   7.602   3.352  1.00 20.00     0.079 A 
HETATM    4  C4  UNL     1     -32.868   8.735   1.034  1.00 20.00     0.029 C 
HETATM    5  C5  UNL     1     -31.025   8.253   2.670  1.00 20.00     0.029 C 
HETATM    6  C6  UNL     1     -34.905   8.205   3.169  1.00 20.00     0.047 C 
HETATM    7  C7  UNL     1     -33.059   7.723   4.806  1.00 20.00     0.047 C 
HETATM    8  O8  UNL     1     -32.170   5.515   1.225  1.00 20.00    -0.264 OA
HETATM    9  O9  UNL     1     -33.537   6.191   2.964  1.00 20.00    -0.309 OA
ENDROOT
TORSDOF 0
ENDMDL
MODEL 8
REMARK VINA RESULT:       2.4      1.507      3.087
REMARK  0 active torsions:
REMARK  status: ('A' for Active; 'I' for Inactive)
ROOT
HETATM    1  C1  UNL     1     -32.767   8.763   1.407  1.00 20.00     0.270 A 
HETATM    2  C2  UNL     1     -32.052   7.563   2.098  1.00 20.00     0.072 A 
HETATM    3  C3  UNL     1     -33.190   7.778   3.169  1.00 20.00     0.079 A 
HETATM    4  C4  UNL     1     -30.615   7.882   2.514  1.00 20.00     0.029 C 
HETATM    5  C5  UNL     1     -32.092   6.282   1.264  1.00 20.00     0.029 C 
HETATM    6  C6  UNL     1     -32.780   8.294   4.548  1.00 20.00     0.047 C 
HETATM    7  C7  UNL     1     -34.257   6.691   3.296  1.00 20.00     0.047 C 
HETATM    8  O8  UNL     1     -32.629   9.421   0.401  1.00 20.00    -0.264 OA
HETATM    9  O9  UNL     1     -33.716   8.886   2.371  1.00 20.00    -0.309 OA
ENDROOT
TORSDOF 0
ENDMDL
MODEL 9
REMARK VINA RESULT:       2.5      1.929      3.684
REMARK  0 active torsions:
REMARK  status: ('A' for Active; 'I' for Inactive)
ROOT
HETATM    1  C1  UNL     1     -32.998   7.254   2.578  1.00 20.00     0.270 A 
HETATM    2  C2  UNL     1     -33.831   7.675   3.825  1.00 20.00     0.072 A 
HETATM    3  C3  UNL     1     -34.563   6.308   3.531  1.00 20.00     0.079 A 
HETATM    4  C4  UNL     1     -34.622   8.966   3.608  1.00 20.00     0.029 C 
HETATM    5  C5  UNL     1     -32.993   7.773   5.101  1.00 20.00     0.029 C 
HETATM    6  C6  UNL     1     -36.012   6.369   3.046  1.00 20.00     0.047 C 
HETATM    7  C7  UNL     1     -34.381   5.176   4.540  1.00 20.00     0.047 C 
HETATM    8  O8  UNL     1     -32.077   7.700   1.931  1.00 20.00    -0.264 OA
HETATM    9  O9  UNL     1     -33.675   6.092   2.389  1.00 20.00    -0.309 OA
ENDROOT
TORSDOF 0
ENDMDL
