MODEL 1
REMARK VINA RESULT:      -1.0      0.000      0.000
REMARK  0 active torsions:
REMARK  status: ('A' for Active; 'I' for Inactive)
ROOT
HETATM    1  C1  UNL     1     -32.863   5.750   1.664  1.00 20.00     0.127 C 
HETATM    2  C2  UNL     1     -31.923   6.935   1.616  1.00 20.00     0.078 C 
HETATM    3  C3  UNL     1     -33.003   5.026   2.985  1.00 20.00     0.078 C 
HETATM    4  C4  UNL     1     -32.486   8.189   2.280  1.00 20.00     0.007 C 
HETATM    5  C5  UNL     1     -34.346   5.286   3.651  1.00 20.00     0.007 C 
HETATM    6  C6  UNL     1     -32.623   8.080   3.802  1.00 20.00     0.000 C 
HETATM    7  C7  UNL     1     -34.866   6.723   3.600  1.00 20.00     0.000 C 
HETATM    8  C8  UNL     1     -34.032   7.778   4.324  1.00 20.00     0.000 C 
HETATM    9  O9  UNL     1     -33.508   5.404   0.675  1.00 20.00    -0.298 OA
ENDROOT
TORSDOF 0
ENDMDL
MODEL 2
REMARK VINA RESULT:      -0.7      1.811      2.980
REMARK  0 active torsions:
REMARK  status: ('A' for Active; 'I' for Inactive)
ROOT
HETATM    1  C1  UNL     1     -33.684   7.767   3.926  1.00 20.00     0.127 C 
HETATM    2  C2  UNL     1     -32.907   8.245   2.718  1.00 20.00     0.078 C 
HETATM    3  C3  UNL     1     -34.941   6.963   3.672  1.00 20.00     0.078 C 
HETATM    4  C4  UNL     1     -32.101   7.142   2.035  1.00 20.00     0.007 C 
HETATM    5  C5  UNL     1     -34.768   5.491   4.017  1.00 20.00     0.007 C 
HETATM    6  C6  UNL     1     -32.962   6.084   1.337  1.00 20.00     0.000 C 
HETATM    7  C7  UNL     1     -33.446   4.843   3.604  1.00 20.00     0.000 C 
HETATM    8  C8  UNL     1     -33.159   4.773   2.106  1.00 20.00     0.000 C 
HETATM    9  O9  UNL     1     -33.296   8.001   5.070  1.00 20.00    -0.298 OA
ENDROOT
TORSDOF 0
ENDMDL
MODEL 3
REMARK VINA RESULT:      -0.3      0.931      2.628
REMARK  0 active torsions:
REMARK  status: ('A' for Active; 'I' for Inactive)
ROOT
HETATM    1  C1  UNL     1     -32.566   5.822   1.675  1.00 20.00     0.127 C 
HETATM    2  C2  UNL     1     -33.715   5.004   2.224  1.00 20.00     0.078 C 
HETATM    3  C3  UNL     1     -32.869   7.237   1.231  1.00 20.00     0.078 C 
HETATM    4  C4  UNL     1     -34.122   5.396   3.643  1.00 20.00     0.007 C 
HETATM    5  C5  UNL     1     -32.298   8.279   2.182  1.00 20.00     0.007 C 
HETATM    6  C6  UNL     1     -34.771   6.780   3.744  1.00 20.00     0.000 C 
HETATM    7  C7  UNL     1     -32.435   7.987   3.677  1.00 20.00     0.000 C 
HETATM    8  C8  UNL     1     -33.856   7.910   4.230  1.00 20.00     0.000 C 
HETATM    9  O9  UNL     1     -31.425   5.365   1.616  1.00 20.00    -0.298 OA
ENDROOT
TORSDOF 0
ENDMDL
MODEL 4
REMARK VINA RESULT:      -0.1      1.285      2.767
REMARK  0 active torsions:
REMARK  status: ('A' for Active; 'I' for Inactive)
ROOT
HETATM    1  C1  UNL     1     -33.955   5.347   3.137  1.00 20.00     0.127 C 
HETATM    2  C2  UNL     1     -34.602   6.522   3.838  1.00 20.00     0.078 C 
HETATM    3  C3  UNL     1     -33.840   5.412   1.630  1.00 20.00     0.078 C 
HETATM    4  C4  UNL     1     -33.701   7.752   3.927  1.00 20.00     0.007 C 
HETATM    5  C5  UNL     1     -32.409   5.638   1.165  1.00 20.00     0.007 C 
HETATM    6  C6  UNL     1     -33.429   8.425   2.578  1.00 20.00     0.000 C 
HETATM    7  C7  UNL     1     -31.586   6.654   1.958  1.00 20.00     0.000 C 
HETATM    8  C8  UNL     1     -32.077   8.100   1.933  1.00 20.00     0.000 C 
HETATM    9  O9  UNL     1     -33.515   4.388   3.770  1.00 20.00    -0.298 OA
ENDROOT
TORSDOF 0
ENDMDL
MODEL 5
REMARK VINA RESULT:       0.4      1.445      3.084
REMARK  0 active torsions:
REMARK  status: ('A' for Active; 'I' for Inactive)
ROOT
HETATM    1  C1  UNL     1     -34.374   6.321   3.629  1.00 20.00     0.127 C 
HETATM    2  C2  UNL     1     -33.832   5.116   2.891  1.00 20.00     0.078 C 
HETATM    3  C3  UNL     1     -33.378   7.199   4.354  1.00 20.00     0.078 C 
HETATM    4  C4  UNL     1     -33.137   5.465   1.577  1.00 20.00     0.007 C 
HETATM    5  C5  UNL     1     -33.170   8.537   3.658  1.00 20.00     0.007 C 
HETATM    6  C6  UNL     1     -31.818   6.225   1.754  1.00 20.00     0.000 C 
HETATM    7  C7  UNL     1     -33.072   8.506   2.133  1.00 20.00     0.000 C 
HETATM    8  C8  UNL     1     -31.890   7.741   1.540  1.00 20.00     0.000 C 
HETATM    9  O9  UNL     1     -35.575   6.590   3.619  1.00 20.00    -0.298 OA
ENDROOT
TORSDOF 0
ENDMDL
MODEL 6
REMARK VINA RESULT:       0.6      1.429      2.889
REMARK  0 active torsions:
REMARK  status: ('A' for Active; 'I' for Inactive)
ROOT
HETATM    1  C1  UNL     1     -32.282   8.150   2.029  1.00 20.00     0.127 C 
HETATM    2  C2  UNL     1     -32.972   8.404   3.352  1.00 20.00     0.078 C 
HETATM    3  C3  UNL     1     -31.375   6.942   1.938  1.00 20.00     0.078 C 
HETATM    4  C4  UNL     1     -34.145   7.464   3.620  1.00 20.00     0.007 C 
HETATM    5  C5  UNL     1     -31.975   5.828   1.093  1.00 20.00     0.007 C 
HETATM    6  C6  UNL     1     -33.733   6.009   3.864  1.00 20.00     0.000 C 
HETATM    7  C7  UNL     1     -33.466   5.551   1.288  1.00 20.00     0.000 C 
HETATM    8  C8  UNL     1     -33.895   5.062   2.670  1.00 20.00     0.000 C 
HETATM    9  O9  UNL     1     -32.470   8.882   1.058  1.00 20.00    -0.298 OA
ENDROOT
TORSDOF 0
ENDMDL
MODEL 7
REMARK VINA RESULT:       0.6      1.630      3.631
REMARK  0 active torsions:
REMARK  status: ('A' for Active; 'I' for Inactive)
ROOT
HETATM    1  C1  UNL     1     -35.069   6.429   3.866  1.00 20.00     0.127 C 
HETATM    2  C2  UNL     1     -34.933   5.071   4.519  1.00 20.00     0.078 C 
HETATM    3  C3  UNL     1     -33.849   7.325   3.864  1.00 20.00     0.078 C 
HETATM    4  C4  UNL     1     -34.155   4.063   3.677  1.00 20.00     0.007 C 
HETATM    5  C5  UNL     1     -33.223   7.450   2.482  1.00 20.00     0.007 C 
HETATM    6  C6  UNL     1     -32.664   4.388   3.536  1.00 20.00     0.000 C 
HETATM    7  C7  UNL     1     -33.131   6.167   1.656  1.00 20.00     0.000 C 
HETATM    8  C8  UNL     1     -32.249   5.053   2.220  1.00 20.00     0.000 C 
HETATM    9  O9  UNL     1     -36.121   6.782   3.335  1.00 20.00    -0.298 OA
ENDROOT
TORSDOF 0
ENDMDL
MODEL 8
REMARK VINA RESULT:       1.4      1.305      2.737
REMARK  0 active torsions:
REMARK  status: ('A' for Active; 'I' for Inactive)
ROOT
HETATM    1  C1  UNL     1     -32.109   7.051   1.658  1.00 20.00     0.127 C 
HETATM    2  C2  UNL     1     -32.738   5.674   1.661  1.00 20.00     0.078 C 
HETATM    3  C3  UNL     1     -33.039   8.240   1.553  1.00 20.00     0.078 C 
HETATM    4  C4  UNL     1     -33.406   5.309   2.984  1.00 20.00     0.007 C 
HETATM    5  C5  UNL     1     -33.150   9.009   2.862  1.00 20.00     0.007 C 
HETATM    6  C6  UNL     1     -34.666   6.125   3.291  1.00 20.00     0.000 C 
HETATM    7  C7  UNL     1     -33.250   8.173   4.138  1.00 20.00     0.000 C 
HETATM    8  C8  UNL     1     -34.485   7.284   4.277  1.00 20.00     0.000 C 
HETATM    9  O9  UNL     1     -30.892   7.200   1.765  1.00 20.00    -0.298 OA
ENDROOT
TORSDOF 0
ENDMDL
