MODEL 1
REMARK VINA RESULT:       0.9      0.000      0.000
REMARK  0 active torsions:
REMARK  status: ('A' for Active; 'I' for Inactive)
ROOT
HETATM    1  C1  UNL     1     -33.155   7.914   3.819  1.00 20.00     0.149 C 
HETATM    2  C2  UNL     1     -31.794   6.757   1.712  1.00 20.00     0.149 C 
HETATM    3  C3  UNL     1     -33.667   5.291   3.119  1.00 20.00     0.149 C 
HETATM    4  S4  UNL     1     -32.496   8.357   2.190  1.00 20.00    -0.149 SA
HETATM    5  S5  UNL     1     -34.544   6.754   3.730  1.00 20.00    -0.149 SA
HETATM    6  S6  UNL     1     -33.056   5.488   1.424  1.00 20.00    -0.149 SA
ENDROOT
TORSDOF 0
ENDMDL
MODEL 2
REMARK VINA RESULT:       0.9      0.049      2.914
REMARK  0 active torsions:
REMARK  status: ('A' for Active; 'I' for Inactive)
ROOT
HETATM    1  C1  UNL     1     -33.674   5.267   3.110  1.00 20.00     0.149 C 
HETATM    2  C2  UNL     1     -33.192   7.881   3.864  1.00 20.00     0.149 C 
HETATM    3  C3  UNL     1     -31.811   6.779   1.740  1.00 20.00     0.149 C 
HETATM    4  S4  UNL     1     -34.569   6.708   3.746  1.00 20.00    -0.149 SA
HETATM    5  S5  UNL     1     -33.057   5.502   1.423  1.00 20.00    -0.149 SA
HETATM    6  S6  UNL     1     -32.531   8.363   2.247  1.00 20.00    -0.149 SA
ENDROOT
TORSDOF 0
ENDMDL
MODEL 3
REMARK VINA RESULT:       0.9      0.041      2.884
REMARK  0 active torsions:
REMARK  status: ('A' for Active; 'I' for Inactive)
ROOT
HETATM    1  C1  UNL     1     -31.815   6.762   1.729  1.00 20.00     0.149 C 
HETATM    2  C2  UNL     1     -33.682   5.266   3.112  1.00 20.00     0.149 C 
HETATM    3  C3  UNL     1     -33.181   7.879   3.854  1.00 20.00     0.149 C 
HETATM    4  S4  UNL     1     -33.070   5.492   1.421  1.00 20.00    -0.149 SA
HETATM    5  S5  UNL     1     -32.522   8.351   2.234  1.00 20.00    -0.149 SA
HETATM    6  S6  UNL     1     -34.566   6.715   3.746  1.00 20.00    -0.149 SA
ENDROOT
TORSDOF 0
ENDMDL
MODEL 4
REMARK VINA RESULT:       1.0      1.608      2.486
REMARK  0 active torsions:
REMARK  status: ('A' for Active; 'I' for Inactive)
ROOT
HETATM    1  C1  UNL     1     -33.072   8.326   2.538  1.00 20.00     0.149 C 
HETATM    2  C2  UNL     1     -34.701   6.466   3.772  1.00 20.00     0.149 C 
HETATM    3  C3  UNL     1     -33.102   5.710   1.650  1.00 20.00     0.149 C 
HETATM    4  S4  UNL     1     -33.687   7.909   4.191  1.00 20.00    -0.149 SA
HETATM    5  S5  UNL     1     -31.938   7.081   1.868  1.00 20.00    -0.149 SA
HETATM    6  S6  UNL     1     -33.720   5.047   3.219  1.00 20.00    -0.149 SA
ENDROOT
TORSDOF 0
ENDMDL
MODEL 5
REMARK VINA RESULT:       1.0      1.614      2.483
REMARK  0 active torsions:
REMARK  status: ('A' for Active; 'I' for Inactive)
ROOT
HETATM    1  C1  UNL     1     -33.088   5.723   1.648  1.00 20.00     0.149 C 
HETATM    2  C2  UNL     1     -33.046   8.339   2.535  1.00 20.00     0.149 C 
HETATM    3  C3  UNL     1     -34.687   6.489   3.766  1.00 20.00     0.149 C 
HETATM    4  S4  UNL     1     -31.917   7.088   1.869  1.00 20.00    -0.149 SA
HETATM    5  S5  UNL     1     -33.713   5.064   3.216  1.00 20.00    -0.149 SA
HETATM    6  S6  UNL     1     -33.666   7.926   4.187  1.00 20.00    -0.149 SA
ENDROOT
TORSDOF 0
ENDMDL
MODEL 6
REMARK VINA RESULT:       1.0      1.620      2.481
REMARK  0 active torsions:
REMARK  status: ('A' for Active; 'I' for Inactive)
ROOT
HETATM    1  C1  UNL     1     -34.703   6.496   3.747  1.00 20.00     0.149 C 
HETATM    2  C2  UNL     1     -33.107   5.698   1.638  1.00 20.00     0.149 C 
HETATM    3  C3  UNL     1     -33.030   8.317   2.514  1.00 20.00     0.149 C 
HETATM    4  S4  UNL     1     -33.747   5.055   3.206  1.00 20.00    -0.149 SA
HETATM    5  S5  UNL     1     -33.664   7.921   4.165  1.00 20.00    -0.149 SA
HETATM    6  S6  UNL     1     -31.917   7.047   1.858  1.00 20.00    -0.149 SA
ENDROOT
TORSDOF 0
ENDMDL
MODEL 7
REMARK VINA RESULT:       1.9      1.159      2.473
REMARK  0 active torsions:
REMARK  status: ('A' for Active; 'I' for Inactive)
ROOT
HETATM    1  C1  UNL     1     -33.950   7.564   3.355  1.00 20.00     0.149 C 
HETATM    2  C2  UNL     1     -33.565   5.421   1.654  1.00 20.00     0.149 C 
HETATM    3  C3  UNL     1     -31.851   7.585   1.558  1.00 20.00     0.149 C 
HETATM    4  S4  UNL     1     -34.106   5.759   3.350  1.00 20.00    -0.149 SA
HETATM    5  S5  UNL     1     -32.232   8.128   3.245  1.00 20.00    -0.149 SA
HETATM    6  S6  UNL     1     -31.810   5.782   1.385  1.00 20.00    -0.149 SA
ENDROOT
TORSDOF 0
ENDMDL
MODEL 8
REMARK VINA RESULT:       2.5      1.179      1.179
REMARK  0 active torsions:
REMARK  status: ('A' for Active; 'I' for Inactive)
ROOT
HETATM    1  C1  UNL     1     -34.061   7.470   4.350  1.00 20.00     0.149 C 
HETATM    2  C2  UNL     1     -32.169   7.998   2.407  1.00 20.00     0.149 C 
HETATM    3  C3  UNL     1     -33.045   5.410   2.815  1.00 20.00     0.149 C 
HETATM    4  S4  UNL     1     -33.646   8.752   3.138  1.00 20.00    -0.149 SA
HETATM    5  S5  UNL     1     -34.604   5.920   3.585  1.00 20.00    -0.149 SA
HETATM    6  S6  UNL     1     -32.535   6.498   1.458  1.00 20.00    -0.149 SA
ENDROOT
TORSDOF 0
ENDMDL
MODEL 9
REMARK VINA RESULT:       3.0      1.507      1.757
REMARK  0 active torsions:
REMARK  status: ('A' for Active; 'I' for Inactive)
ROOT
HETATM    1  C1  UNL     1     -33.792   7.297   3.345  1.00 20.00     0.149 C 
HETATM    2  C2  UNL     1     -32.434   5.001   2.624  1.00 20.00     0.149 C 
HETATM    3  C3  UNL     1     -34.441   4.882   4.519  1.00 20.00     0.149 C 
HETATM    4  S4  UNL     1     -33.050   6.534   1.879  1.00 20.00    -0.149 SA
HETATM    5  S5  UNL     1     -35.246   6.403   3.952  1.00 20.00    -0.149 SA
HETATM    6  S6  UNL     1     -33.761   3.891   3.162  1.00 20.00    -0.149 SA
ENDROOT
TORSDOF 0
ENDMDL
