MODEL 1
REMARK VINA RESULT:      -0.5      0.000      0.000
REMARK  0 active torsions:
REMARK  status: ('A' for Active; 'I' for Inactive)
ROOT
HETATM    1  C1  UNL     1     -33.000   5.753   1.565  1.00 20.00     0.177 C 
HETATM    2  C2  UNL     1     -32.147   7.951   1.835  1.00 20.00     0.177 C 
HETATM    3  C3  UNL     1     -33.569   5.608   2.968  1.00 20.00     0.100 C 
HETATM    4  C4  UNL     1     -32.587   8.139   3.279  1.00 20.00     0.100 C 
HETATM    5  O5  UNL     1     -31.840   6.586   1.552  1.00 20.00    -0.390 OA
HETATM    6  S6  UNL     1     -34.120   7.220   3.599  1.00 20.00    -0.165 SA
ENDROOT
TORSDOF 0
ENDMDL
MODEL 2
REMARK VINA RESULT:      -0.3      1.824      2.684
REMARK  0 active torsions:
REMARK  status: ('A' for Active; 'I' for Inactive)
ROOT
HETATM    1  C1  UNL     1     -34.046   7.222   3.549  1.00 20.00     0.177 C 
HETATM    2  C2  UNL     1     -33.426   5.631   1.901  1.00 20.00     0.177 C 
HETATM    3  C3  UNL     1     -32.768   8.044   3.493  1.00 20.00     0.100 C 
HETATM    4  C4  UNL     1     -32.054   6.213   1.596  1.00 20.00     0.100 C 
HETATM    5  O5  UNL     1     -33.798   5.846   3.262  1.00 20.00    -0.390 OA
HETATM    6  S6  UNL     1     -32.066   8.015   1.818  1.00 20.00    -0.165 SA
ENDROOT
TORSDOF 0
ENDMDL
MODEL 3
REMARK VINA RESULT:      -0.2      1.101      2.182
REMARK  0 active torsions:
REMARK  status: ('A' for Active; 'I' for Inactive)
ROOT
HETATM    1  C1  UNL     1     -31.983   6.720   1.698  1.00 20.00     0.177 C 
HETATM    2  C2  UNL     1     -33.597   5.423   2.857  1.00 20.00     0.177 C 
HETATM    3  C3  UNL     1     -32.470   8.079   2.175  1.00 20.00     0.100 C 
HETATM    4  C4  UNL     1     -34.327   6.586   3.510  1.00 20.00     0.100 C 
HETATM    5  O5  UNL     1     -33.058   5.786   1.587  1.00 20.00    -0.390 OA
HETATM    6  S6  UNL     1     -33.177   7.951   3.842  1.00 20.00    -0.165 SA
ENDROOT
TORSDOF 0
ENDMDL
MODEL 4
REMARK VINA RESULT:      -0.2      1.870      2.837
REMARK  0 active torsions:
REMARK  status: ('A' for Active; 'I' for Inactive)
ROOT
HETATM    1  C1  UNL     1     -32.806   8.252   2.529  1.00 20.00     0.177 C 
HETATM    2  C2  UNL     1     -34.298   6.716   3.551  1.00 20.00     0.177 C 
HETATM    3  C3  UNL     1     -31.908   7.217   1.870  1.00 20.00     0.100 C 
HETATM    4  C4  UNL     1     -33.626   5.448   3.047  1.00 20.00     0.100 C 
HETATM    5  O5  UNL     1     -33.355   7.767   3.755  1.00 20.00    -0.390 OA
HETATM    6  S6  UNL     1     -32.863   5.738   1.424  1.00 20.00    -0.165 SA
ENDROOT
TORSDOF 0
ENDMDL
MODEL 5
REMARK VINA RESULT:      -0.2      1.382      2.190
REMARK  0 active torsions:
REMARK  status: ('A' for Active; 'I' for Inactive)
ROOT
HETATM    1  C1  UNL     1     -32.987   7.997   3.597  1.00 20.00     0.177 C 
HETATM    2  C2  UNL     1     -31.959   6.874   1.777  1.00 20.00     0.177 C 
HETATM    3  C3  UNL     1     -34.211   7.099   3.693  1.00 20.00     0.100 C 
HETATM    4  C4  UNL     1     -33.027   5.806   1.598  1.00 20.00     0.100 C 
HETATM    5  O5  UNL     1     -32.515   8.099   2.253  1.00 20.00    -0.390 OA
HETATM    6  S6  UNL     1     -33.795   5.403   3.193  1.00 20.00    -0.165 SA
ENDROOT
TORSDOF 0
ENDMDL
MODEL 6
REMARK VINA RESULT:      -0.0      1.886      2.273
REMARK  0 active torsions:
REMARK  status: ('A' for Active; 'I' for Inactive)
ROOT
HETATM    1  C1  UNL     1     -33.572   5.360   2.950  1.00 20.00     0.177 C 
HETATM    2  C2  UNL     1     -33.793   7.487   3.981  1.00 20.00     0.177 C 
HETATM    3  C3  UNL     1     -32.981   5.857   1.640  1.00 20.00     0.100 C 
HETATM    4  C4  UNL     1     -33.234   8.305   2.827  1.00 20.00     0.100 C 
HETATM    5  O5  UNL     1     -34.467   6.317   3.519  1.00 20.00    -0.390 OA
HETATM    6  S6  UNL     1     -31.985   7.350   1.918  1.00 20.00    -0.165 SA
ENDROOT
TORSDOF 0
ENDMDL
MODEL 7
REMARK VINA RESULT:       0.8      2.649      3.496
REMARK  0 active torsions:
REMARK  status: ('A' for Active; 'I' for Inactive)
ROOT
HETATM    1  C1  UNL     1     -35.423   6.267   3.992  1.00 20.00     0.177 C 
HETATM    2  C2  UNL     1     -34.266   4.211   3.736  1.00 20.00     0.177 C 
HETATM    3  C3  UNL     1     -34.253   7.175   3.646  1.00 20.00     0.100 C 
HETATM    4  C4  UNL     1     -32.922   4.808   3.350  1.00 20.00     0.100 C 
HETATM    5  O5  UNL     1     -34.986   5.064   4.625  1.00 20.00    -0.390 OA
HETATM    6  S6  UNL     1     -33.154   6.365   2.447  1.00 20.00    -0.165 SA
ENDROOT
TORSDOF 0
ENDMDL
MODEL 8
REMARK VINA RESULT:       1.1      2.782      3.306
REMARK  0 active torsions:
REMARK  status: ('A' for Active; 'I' for Inactive)
ROOT
HETATM    1  C1  UNL     1     -33.807   4.256   4.082  1.00 20.00     0.177 C 
HETATM    2  C2  UNL     1     -35.354   5.896   4.823  1.00 20.00     0.177 C 
HETATM    3  C3  UNL     1     -33.351   4.992   2.832  1.00 20.00     0.100 C 
HETATM    4  C4  UNL     1     -35.132   6.880   3.685  1.00 20.00     0.100 C 
HETATM    5  O5  UNL     1     -35.169   4.547   4.396  1.00 20.00    -0.390 OA
HETATM    6  S6  UNL     1     -33.418   6.788   3.092  1.00 20.00    -0.165 SA
ENDROOT
TORSDOF 0
ENDMDL
