MODEL 1
REMARK VINA RESULT:      -0.4      0.000      0.000
REMARK  2 active torsions:
REMARK  status: ('A' for Active; 'I' for Inactive)
REMARK    1  A    between atoms: C1_1  and  O10_10 
REMARK    2  A    between atoms: C8_8  and  O10_10 
ROOT
HETATM    1  C2  UNL     1     -34.920   5.121   4.447  1.00 20.00     0.005 C 
HETATM    2  C3  UNL     1     -33.806   4.792   3.442  1.00 20.00     0.007 C 
HETATM    3  C4  UNL     1     -35.117   6.577   2.575  1.00 20.00     0.012 C 
HETATM    4  C5  UNL     1     -34.149   7.505   4.544  1.00 20.00     0.037 C 
HETATM    5  C6  UNL     1     -35.289   6.573   4.093  1.00 20.00    -0.012 C 
HETATM    6  C7  UNL     1     -33.663   6.099   2.646  1.00 20.00     0.015 C 
HETATM    7  C8  UNL     1     -33.020   7.163   3.557  1.00 20.00     0.135 C 
ENDROOT
BRANCH   7   8
HETATM    8  O10 UNL     1     -32.674   8.318   2.806  1.00 20.00    -0.323 OA
BRANCH   8   9
HETATM    9  C1  UNL     1     -31.986   8.089   1.653  1.00 20.00     0.398 C 
HETATM   10  O9  UNL     1     -31.958   8.795   0.656  1.00 20.00    -0.276 OA
ENDBRANCH   8   9
ENDBRANCH   7   8
TORSDOF 2
ENDMDL
MODEL 2
REMARK VINA RESULT:       0.1      2.673      4.010
REMARK  2 active torsions:
REMARK  status: ('A' for Active; 'I' for Inactive)
REMARK    1  A    between atoms: C1_1  and  O10_10 
REMARK    2  A    between atoms: C8_8  and  O10_10 
ROOT
HETATM    1  C2  UNL     1     -33.270   8.019   3.073  1.00 20.00     0.005 C 
HETATM    2  C3  UNL     1     -33.797   7.755   4.493  1.00 20.00     0.007 C 
HETATM    3  C4  UNL     1     -35.224   6.668   2.931  1.00 20.00     0.012 C 
HETATM    4  C5  UNL     1     -33.139   5.552   2.647  1.00 20.00     0.037 C 
HETATM    5  C6  UNL     1     -33.864   6.855   2.260  1.00 20.00    -0.012 C 
HETATM    6  C7  UNL     1     -34.614   6.464   4.322  1.00 20.00     0.015 C 
HETATM    7  C8  UNL     1     -33.642   5.294   4.078  1.00 20.00     0.135 C 
ENDROOT
BRANCH   7   8
HETATM    8  O10 UNL     1     -34.334   4.054   4.125  1.00 20.00    -0.323 OA
BRANCH   8   9
HETATM    9  C1  UNL     1     -33.577   2.967   4.445  1.00 20.00     0.398 C 
HETATM   10  O9  UNL     1     -32.689   2.905   5.281  1.00 20.00    -0.276 OA
ENDBRANCH   8   9
ENDBRANCH   7   8
TORSDOF 2
ENDMDL
MODEL 3
REMARK VINA RESULT:       0.4      0.984      1.920
REMARK  2 active torsions:
REMARK  status: ('A' for Active; 'I' for Inactive)
REMARK    1  A    between atoms: C1_1  and  O10_10 
REMARK    2  A    between atoms: C8_8  and  O10_10 
ROOT
HETATM    1  C2  UNL     1     -35.393   5.844   3.942  1.00 20.00     0.005 C 
HETATM    2  C3  UNL     1     -35.461   7.258   3.343  1.00 20.00     0.007 C 
HETATM    3  C4  UNL     1     -33.356   6.980   4.415  1.00 20.00     0.012 C 
HETATM    4  C5  UNL     1     -33.295   5.382   2.649  1.00 20.00     0.037 C 
HETATM    5  C6  UNL     1     -33.880   5.589   4.059  1.00 20.00    -0.012 C 
HETATM    6  C7  UNL     1     -33.980   7.633   3.177  1.00 20.00     0.015 C 
HETATM    7  C8  UNL     1     -33.384   6.789   2.034  1.00 20.00     0.135 C 
ENDROOT
BRANCH   7   8
HETATM    8  O10 UNL     1     -32.080   7.249   1.704  1.00 20.00    -0.323 OA
BRANCH   8   9
HETATM    9  C1  UNL     1     -31.964   8.589   1.486  1.00 20.00     0.398 C 
HETATM   10  O9  UNL     1     -32.282   9.204   0.480  1.00 20.00    -0.276 OA
ENDBRANCH   8   9
ENDBRANCH   7   8
TORSDOF 2
ENDMDL
MODEL 4
REMARK VINA RESULT:       0.4      1.406      2.043
REMARK  2 active torsions:
REMARK  status: ('A' for Active; 'I' for Inactive)
REMARK    1  A    between atoms: C1_1  and  O10_10 
REMARK    2  A    between atoms: C8_8  and  O10_10 
ROOT
HETATM    1  C2  UNL     1     -32.803   5.078   2.751  1.00 20.00     0.005 C 
HETATM    2  C3  UNL     1     -31.818   5.439   1.628  1.00 20.00     0.007 C 
HETATM    3  C4  UNL     1     -33.883   6.547   1.223  1.00 20.00     0.012 C 
HETATM    4  C5  UNL     1     -33.130   7.509   3.268  1.00 20.00     0.037 C 
HETATM    5  C6  UNL     1     -33.810   6.241   2.718  1.00 20.00    -0.012 C 
HETATM    6  C7  UNL     1     -32.373   6.772   1.100  1.00 20.00     0.015 C 
HETATM    7  C8  UNL     1     -32.123   7.863   2.160  1.00 20.00     0.135 C 
ENDROOT
BRANCH   7   8
HETATM    8  O10 UNL     1     -32.425   9.147   1.632  1.00 20.00    -0.323 OA
BRANCH   8   9
HETATM    9  C1  UNL     1     -32.084   9.346   0.329  1.00 20.00     0.398 C 
HETATM   10  O9  UNL     1     -32.733   9.931  -0.524  1.00 20.00    -0.276 OA
ENDBRANCH   8   9
ENDBRANCH   7   8
TORSDOF 2
ENDMDL
MODEL 5
REMARK VINA RESULT:       0.5      2.685      3.874
REMARK  2 active torsions:
REMARK  status: ('A' for Active; 'I' for Inactive)
REMARK    1  A    between atoms: C1_1  and  O10_10 
REMARK    2  A    between atoms: C8_8  and  O10_10 
ROOT
HETATM    1  C2  UNL     1     -33.978   8.080   2.585  1.00 20.00     0.005 C 
HETATM    2  C3  UNL     1     -33.083   6.915   2.135  1.00 20.00     0.007 C 
HETATM    3  C4  UNL     1     -33.154   6.953   4.512  1.00 20.00     0.012 C 
HETATM    4  C5  UNL     1     -35.408   6.493   3.897  1.00 20.00     0.037 C 
HETATM    5  C6  UNL     1     -34.408   7.660   4.002  1.00 20.00    -0.012 C 
HETATM    6  C7  UNL     1     -33.123   5.964   3.342  1.00 20.00     0.015 C 
HETATM    7  C8  UNL     1     -34.524   5.328   3.421  1.00 20.00     0.135 C 
ENDROOT
BRANCH   7   8
HETATM    8  O10 UNL     1     -34.543   4.288   4.389  1.00 20.00    -0.323 OA
BRANCH   8   9
HETATM    9  C1  UNL     1     -33.555   3.357   4.275  1.00 20.00     0.398 C 
HETATM   10  O9  UNL     1     -32.932   2.826   5.181  1.00 20.00    -0.276 OA
ENDBRANCH   8   9
ENDBRANCH   7   8
TORSDOF 2
ENDMDL
MODEL 6
REMARK VINA RESULT:       0.6      1.562      2.843
REMARK  2 active torsions:
REMARK  status: ('A' for Active; 'I' for Inactive)
REMARK    1  A    between atoms: C1_1  and  O10_10 
REMARK    2  A    between atoms: C8_8  and  O10_10 
ROOT
HETATM    1  C2  UNL     1     -33.870   6.014   2.917  1.00 20.00     0.005 C 
HETATM    2  C3  UNL     1     -33.393   7.306   3.598  1.00 20.00     0.007 C 
HETATM    3  C4  UNL     1     -31.643   6.476   2.217  1.00 20.00     0.012 C 
HETATM    4  C5  UNL     1     -33.373   6.999   0.666  1.00 20.00     0.037 C 
HETATM    5  C6  UNL     1     -32.959   5.916   1.680  1.00 20.00    -0.012 C 
HETATM    6  C7  UNL     1     -32.278   7.798   2.660  1.00 20.00     0.015 C 
HETATM    7  C8  UNL     1     -32.921   8.299   1.352  1.00 20.00     0.135 C 
ENDROOT
BRANCH   7   8
HETATM    8  O10 UNL     1     -31.955   8.956   0.543  1.00 20.00    -0.323 OA
BRANCH   8   9
HETATM    9  C1  UNL     1     -32.372  10.105  -0.059  1.00 20.00     0.398 C 
HETATM   10  O9  UNL     1     -33.180  10.211  -0.969  1.00 20.00    -0.276 OA
ENDBRANCH   8   9
ENDBRANCH   7   8
TORSDOF 2
ENDMDL
MODEL 7
REMARK VINA RESULT:       0.6      2.047      3.728
REMARK  2 active torsions:
REMARK  status: ('A' for Active; 'I' for Inactive)
REMARK    1  A    between atoms: C1_1  and  O10_10 
REMARK    2  A    between atoms: C8_8  and  O10_10 
ROOT
HETATM    1  C2  UNL     1     -31.474   6.205   1.338  1.00 20.00     0.005 C 
HETATM    2  C3  UNL     1     -31.606   7.636   1.882  1.00 20.00     0.007 C 
HETATM    3  C4  UNL     1     -33.738   6.906   1.120  1.00 20.00     0.012 C 
HETATM    4  C5  UNL     1     -33.255   5.424   2.921  1.00 20.00     0.037 C 
HETATM    5  C6  UNL     1     -32.911   5.661   1.439  1.00 20.00    -0.012 C 
HETATM    6  C7  UNL     1     -33.098   7.732   2.240  1.00 20.00     0.015 C 
HETATM    7  C8  UNL     1     -33.364   6.853   3.478  1.00 20.00     0.135 C 
ENDROOT
BRANCH   7   8
HETATM    8  O10 UNL     1     -34.677   7.075   3.973  1.00 20.00    -0.323 OA
BRANCH   8   9
HETATM    9  C1  UNL     1     -35.512   6.000   3.935  1.00 20.00     0.398 C 
HETATM   10  O9  UNL     1     -35.529   5.049   4.702  1.00 20.00    -0.276 OA
ENDBRANCH   8   9
ENDBRANCH   7   8
TORSDOF 2
ENDMDL
MODEL 8
REMARK VINA RESULT:       0.6      2.079      4.077
REMARK  2 active torsions:
REMARK  status: ('A' for Active; 'I' for Inactive)
REMARK    1  A    between atoms: C1_1  and  O10_10 
REMARK    2  A    between atoms: C8_8  and  O10_10 
ROOT
HETATM    1  C2  UNL     1     -32.091   8.850   1.058  1.00 20.00     0.005 C 
HETATM    2  C3  UNL     1     -33.077   7.863   0.413  1.00 20.00     0.007 C 
HETATM    3  C4  UNL     1     -31.578   6.650   1.805  1.00 20.00     0.012 C 
HETATM    4  C5  UNL     1     -32.752   8.044   3.338  1.00 20.00     0.037 C 
HETATM    5  C6  UNL     1     -31.608   8.093   2.307  1.00 20.00    -0.012 C 
HETATM    6  C7  UNL     1     -33.049   6.669   1.380  1.00 20.00     0.015 C 
HETATM    7  C8  UNL     1     -33.756   7.077   2.688  1.00 20.00     0.135 C 
ENDROOT
BRANCH   7   8
HETATM    8  O10 UNL     1     -33.942   5.946   3.527  1.00 20.00    -0.323 OA
BRANCH   8   9
HETATM    9  C1  UNL     1     -35.170   5.837   4.107  1.00 20.00     0.398 C 
HETATM   10  O9  UNL     1     -35.623   4.871   4.701  1.00 20.00    -0.276 OA
ENDBRANCH   8   9
ENDBRANCH   7   8
TORSDOF 2
ENDMDL
MODEL 9
REMARK VINA RESULT:       0.9      2.194      3.911
REMARK  2 active torsions:
REMARK  status: ('A' for Active; 'I' for Inactive)
REMARK    1  A    between atoms: C1_1  and  O10_10 
REMARK    2  A    between atoms: C8_8  and  O10_10 
ROOT
HETATM    1  C2  UNL     1     -32.531   8.280   0.920  1.00 20.00     0.005 C 
HETATM    2  C3  UNL     1     -33.346   7.031   0.549  1.00 20.00     0.007 C 
HETATM    3  C4  UNL     1     -31.671   6.414   2.120  1.00 20.00     0.012 C 
HETATM    4  C5  UNL     1     -33.053   7.918   3.345  1.00 20.00     0.037 C 
HETATM    5  C6  UNL     1     -31.933   7.910   2.288  1.00 20.00    -0.012 C 
HETATM    6  C7  UNL     1     -33.127   6.106   1.757  1.00 20.00     0.015 C 
HETATM    7  C8  UNL     1     -33.889   6.684   2.965  1.00 20.00     0.135 C 
ENDROOT
BRANCH   7   8
HETATM    8  O10 UNL     1     -33.891   5.758   4.042  1.00 20.00    -0.323 OA
BRANCH   8   9
HETATM    9  C1  UNL     1     -34.223   4.477   3.718  1.00 20.00     0.398 C 
HETATM   10  O9  UNL     1     -33.911   3.459   4.316  1.00 20.00    -0.276 OA
ENDBRANCH   8   9
ENDBRANCH   7   8
TORSDOF 2
ENDMDL
