MODEL 1
REMARK VINA RESULT:      -1.4      0.000      0.000
REMARK  1 active torsions:
REMARK  status: ('A' for Active; 'I' for Inactive)
REMARK    1  A    between atoms: C1_1  and  C2_2 
ROOT
HETATM    1  C2  UNL     1     -34.430   6.443   3.511  1.00 20.00     0.281 C 
HETATM    2 CL5  UNL     1     -33.319   6.358   2.134  1.00 20.00    -0.073 Cl
HETATM    3 CL6  UNL     1     -36.057   6.900   2.976  1.00 20.00    -0.073 Cl
HETATM    4 CL7  UNL     1     -33.821   7.586   4.720  1.00 20.00    -0.073 Cl
ENDROOT
BRANCH   1   5
HETATM    5  C1  UNL     1     -34.541   5.081   4.137  1.00 20.00     0.352 C 
HETATM    6  O3  UNL     1     -35.489   4.677   4.797  1.00 20.00    -0.255 OA
HETATM    7  F4  UNL     1     -33.564   4.192   3.902  1.00 20.00    -0.160 F 
ENDBRANCH   1   5
TORSDOF 1
ENDMDL
MODEL 2
REMARK VINA RESULT:      -1.4      0.027      1.907
REMARK  1 active torsions:
REMARK  status: ('A' for Active; 'I' for Inactive)
REMARK    1  A    between atoms: C1_1  and  C2_2 
ROOT
HETATM    1  C2  UNL     1     -34.443   6.445   3.514  1.00 20.00     0.281 C 
HETATM    2 CL5  UNL     1     -33.835   7.587   4.723  1.00 20.00    -0.073 Cl
HETATM    3 CL6  UNL     1     -33.323   6.324   2.146  1.00 20.00    -0.073 Cl
HETATM    4 CL7  UNL     1     -36.056   6.935   2.966  1.00 20.00    -0.073 Cl
ENDROOT
BRANCH   1   5
HETATM    5  C1  UNL     1     -34.531   5.077   4.131  1.00 20.00     0.352 C 
HETATM    6  O3  UNL     1     -35.465   4.657   4.800  1.00 20.00    -0.255 OA
HETATM    7  F4  UNL     1     -33.547   4.201   3.877  1.00 20.00    -0.160 F 
ENDBRANCH   1   5
TORSDOF 1
ENDMDL
MODEL 3
REMARK VINA RESULT:      -1.4      2.422      2.989
REMARK  1 active torsions:
REMARK  status: ('A' for Active; 'I' for Inactive)
REMARK    1  A    between atoms: C1_1  and  C2_2 
ROOT
HETATM    1  C2  UNL     1     -34.250   6.489   3.597  1.00 20.00     0.281 C 
HETATM    2 CL5  UNL     1     -34.115   4.827   4.193  1.00 20.00    -0.073 Cl
HETATM    3 CL6  UNL     1     -33.754   7.645   4.845  1.00 20.00    -0.073 Cl
HETATM    4 CL7  UNL     1     -35.908   6.814   3.061  1.00 20.00    -0.073 Cl
ENDROOT
BRANCH   1   5
HETATM    5  C1  UNL     1     -33.316   6.671   2.434  1.00 20.00     0.352 C 
HETATM    6  O3  UNL     1     -32.648   7.672   2.208  1.00 20.00    -0.255 OA
HETATM    7  F4  UNL     1     -33.124   5.635   1.603  1.00 20.00    -0.160 F 
ENDBRANCH   1   5
TORSDOF 1
ENDMDL
MODEL 4
REMARK VINA RESULT:      -1.4      2.427      2.831
REMARK  1 active torsions:
REMARK  status: ('A' for Active; 'I' for Inactive)
REMARK    1  A    between atoms: C1_1  and  C2_2 
ROOT
HETATM    1  C2  UNL     1     -34.225   6.507   3.581  1.00 20.00     0.281 C 
HETATM    2 CL5  UNL     1     -35.888   6.820   3.058  1.00 20.00    -0.073 Cl
HETATM    3 CL6  UNL     1     -34.052   4.838   4.152  1.00 20.00    -0.073 Cl
HETATM    4 CL7  UNL     1     -33.754   7.657   4.844  1.00 20.00    -0.073 Cl
ENDROOT
BRANCH   1   5
HETATM    5  C1  UNL     1     -33.303   6.666   2.405  1.00 20.00     0.352 C 
HETATM    6  O3  UNL     1     -32.619   7.652   2.167  1.00 20.00    -0.255 OA
HETATM    7  F4  UNL     1     -33.143   5.623   1.576  1.00 20.00    -0.160 F 
ENDBRANCH   1   5
TORSDOF 1
ENDMDL
MODEL 5
REMARK VINA RESULT:      -1.3      0.026      1.906
REMARK  1 active torsions:
REMARK  status: ('A' for Active; 'I' for Inactive)
REMARK    1  A    between atoms: C1_1  and  C2_2 
ROOT
HETATM    1  C2  UNL     1     -34.447   6.440   3.494  1.00 20.00     0.281 C 
HETATM    2 CL5  UNL     1     -36.060   6.928   2.947  1.00 20.00    -0.073 Cl
HETATM    3 CL6  UNL     1     -33.840   7.556   4.730  1.00 20.00    -0.073 Cl
HETATM    4 CL7  UNL     1     -33.333   6.356   2.119  1.00 20.00    -0.073 Cl
ENDROOT
BRANCH   1   5
HETATM    5  C1  UNL     1     -34.537   5.083   4.136  1.00 20.00     0.352 C 
HETATM    6  O3  UNL     1     -35.477   4.673   4.802  1.00 20.00    -0.255 OA
HETATM    7  F4  UNL     1     -33.547   4.206   3.908  1.00 20.00    -0.160 F 
ENDBRANCH   1   5
TORSDOF 1
ENDMDL
MODEL 6
REMARK VINA RESULT:      -1.3      2.431      2.827
REMARK  1 active torsions:
REMARK  status: ('A' for Active; 'I' for Inactive)
REMARK    1  A    between atoms: C1_1  and  C2_2 
ROOT
HETATM    1  C2  UNL     1     -34.232   6.502   3.596  1.00 20.00     0.281 C 
HETATM    2 CL5  UNL     1     -33.763   7.647   4.864  1.00 20.00    -0.073 Cl
HETATM    3 CL6  UNL     1     -35.879   6.833   3.032  1.00 20.00    -0.073 Cl
HETATM    4 CL7  UNL     1     -34.092   4.839   4.190  1.00 20.00    -0.073 Cl
ENDROOT
BRANCH   1   5
HETATM    5  C1  UNL     1     -33.320   6.679   2.414  1.00 20.00     0.352 C 
HETATM    6  O3  UNL     1     -32.639   7.668   2.184  1.00 20.00    -0.255 OA
HETATM    7  F4  UNL     1     -33.168   5.648   1.569  1.00 20.00    -0.160 F 
ENDBRANCH   1   5
TORSDOF 1
ENDMDL
MODEL 7
REMARK VINA RESULT:      -1.0      2.433      2.976
REMARK  1 active torsions:
REMARK  status: ('A' for Active; 'I' for Inactive)
REMARK    1  A    between atoms: C1_1  and  C2_2 
ROOT
HETATM    1  C2  UNL     1     -32.816   6.258   1.678  1.00 20.00     0.281 C 
HETATM    2 CL5  UNL     1     -33.954   6.098   0.330  1.00 20.00    -0.073 Cl
HETATM    3 CL6  UNL     1     -32.115   7.885   1.717  1.00 20.00    -0.073 Cl
HETATM    4 CL7  UNL     1     -31.547   5.027   1.556  1.00 20.00    -0.073 Cl
ENDROOT
BRANCH   1   5
HETATM    5  C1  UNL     1     -33.559   6.069   2.971  1.00 20.00     0.352 C 
HETATM    6  O3  UNL     1     -34.102   6.956   3.615  1.00 20.00    -0.255 OA
HETATM    7  F4  UNL     1     -33.715   4.821   3.439  1.00 20.00    -0.160 F 
ENDBRANCH   1   5
TORSDOF 1
ENDMDL
MODEL 8
REMARK VINA RESULT:      -1.0      2.419      2.602
REMARK  1 active torsions:
REMARK  status: ('A' for Active; 'I' for Inactive)
REMARK    1  A    between atoms: C1_1  and  C2_2 
ROOT
HETATM    1  C2  UNL     1     -32.805   6.265   1.688  1.00 20.00     0.281 C 
HETATM    2 CL5  UNL     1     -31.538   5.034   1.557  1.00 20.00    -0.073 Cl
HETATM    3 CL6  UNL     1     -33.970   6.109   0.361  1.00 20.00    -0.073 Cl
HETATM    4 CL7  UNL     1     -32.086   7.884   1.708  1.00 20.00    -0.073 Cl
ENDROOT
BRANCH   1   5
HETATM    5  C1  UNL     1     -33.566   6.051   2.967  1.00 20.00     0.352 C 
HETATM    6  O3  UNL     1     -34.140   6.923   3.606  1.00 20.00    -0.255 OA
HETATM    7  F4  UNL     1     -33.705   4.797   3.423  1.00 20.00    -0.160 F 
ENDBRANCH   1   5
TORSDOF 1
ENDMDL
MODEL 9
REMARK VINA RESULT:      -0.9      2.414      3.137
REMARK  1 active torsions:
REMARK  status: ('A' for Active; 'I' for Inactive)
REMARK    1  A    between atoms: C1_1  and  C2_2 
ROOT
HETATM    1  C2  UNL     1     -32.826   6.262   1.680  1.00 20.00     0.281 C 
HETATM    2 CL5  UNL     1     -32.113   7.883   1.716  1.00 20.00    -0.073 Cl
HETATM    3 CL6  UNL     1     -31.562   5.024   1.574  1.00 20.00    -0.073 Cl
HETATM    4 CL7  UNL     1     -33.960   6.122   0.326  1.00 20.00    -0.073 Cl
ENDROOT
BRANCH   1   5
HETATM    5  C1  UNL     1     -33.566   6.023   2.966  1.00 20.00     0.352 C 
HETATM    6  O3  UNL     1     -34.153   6.877   3.617  1.00 20.00    -0.255 OA
HETATM    7  F4  UNL     1     -33.669   4.763   3.416  1.00 20.00    -0.160 F 
ENDBRANCH   1   5
TORSDOF 1
ENDMDL
