MODEL 1
REMARK VINA RESULT:      -1.8      0.000      0.000
REMARK  3 active torsions:
REMARK  status: ('A' for Active; 'I' for Inactive)
REMARK    1  A    between atoms: C1_1  and  C3_3 
REMARK    2  A    between atoms: C1_1  and  O6_6 
REMARK    3  A    between atoms: C3_3  and  C4_4 
ROOT
HETATM    1  C1  UNL     1     -33.060   6.481   2.212  1.00 20.00     0.259 C 
HETATM    2  O5  UNL     1     -32.734   5.646   1.378  1.00 20.00    -0.265 OA
ENDROOT
BRANCH   1   3
HETATM    3  C3  UNL     1     -32.508   7.887   2.304  1.00 20.00     0.122 C 
BRANCH   3   4
HETATM    4  C4  UNL     1     -31.741   8.281   1.037  1.00 20.00     0.096 C 
HETATM    5  S7  UNL     1     -32.484   9.795   0.326  1.00 20.00    -0.097 SA
ENDBRANCH   3   4
ENDBRANCH   1   3
BRANCH   1   6
HETATM    6  O6  UNL     1     -33.980   6.302   3.207  1.00 20.00    -0.326 OA
HETATM    7  C2  UNL     1     -34.184   7.427   4.067  1.00 20.00     0.213 C 
ENDBRANCH   1   6
TORSDOF 3
ENDMDL
MODEL 2
REMARK VINA RESULT:      -1.7      2.445      3.162
REMARK  3 active torsions:
REMARK  status: ('A' for Active; 'I' for Inactive)
REMARK    1  A    between atoms: C1_1  and  C3_3 
REMARK    2  A    between atoms: C1_1  and  O6_6 
REMARK    3  A    between atoms: C3_3  and  C4_4 
ROOT
HETATM    1  C1  UNL     1     -34.526   5.145   3.995  1.00 20.00     0.259 C 
HETATM    2  O5  UNL     1     -35.560   4.946   4.619  1.00 20.00    -0.265 OA
ENDROOT
BRANCH   1   3
HETATM    3  C3  UNL     1     -34.097   6.475   3.412  1.00 20.00     0.122 C 
BRANCH   3   4
HETATM    4  C4  UNL     1     -33.198   6.293   2.184  1.00 20.00     0.096 C 
HETATM    5  S7  UNL     1     -32.184   7.799   1.950  1.00 20.00    -0.097 SA
ENDBRANCH   3   4
ENDBRANCH   1   3
BRANCH   1   6
HETATM    6  O6  UNL     1     -33.570   4.210   3.712  1.00 20.00    -0.326 OA
HETATM    7  C2  UNL     1     -33.447   3.147   4.662  1.00 20.00     0.213 C 
ENDBRANCH   1   6
TORSDOF 3
ENDMDL
MODEL 3
REMARK VINA RESULT:      -1.4      1.192      1.660
REMARK  3 active torsions:
REMARK  status: ('A' for Active; 'I' for Inactive)
REMARK    1  A    between atoms: C1_1  and  C3_3 
REMARK    2  A    between atoms: C1_1  and  O6_6 
REMARK    3  A    between atoms: C3_3  and  C4_4 
ROOT
HETATM    1  C1  UNL     1     -33.437   7.064   3.205  1.00 20.00     0.259 C 
HETATM    2  O5  UNL     1     -33.319   7.933   4.059  1.00 20.00    -0.265 OA
ENDROOT
BRANCH   1   3
HETATM    3  C3  UNL     1     -32.736   7.056   1.863  1.00 20.00     0.122 C 
BRANCH   3   4
HETATM    4  C4  UNL     1     -31.739   8.213   1.735  1.00 20.00     0.096 C 
HETATM    5  S7  UNL     1     -32.368   9.420   0.511  1.00 20.00    -0.097 SA
ENDBRANCH   3   4
ENDBRANCH   1   3
BRANCH   1   6
HETATM    6  O6  UNL     1     -34.215   5.945   3.303  1.00 20.00    -0.326 OA
HETATM    7  C2  UNL     1     -35.371   6.069   4.139  1.00 20.00     0.213 C 
ENDBRANCH   1   6
TORSDOF 3
ENDMDL
MODEL 4
REMARK VINA RESULT:      -1.3      2.855      3.697
REMARK  3 active torsions:
REMARK  status: ('A' for Active; 'I' for Inactive)
REMARK    1  A    between atoms: C1_1  and  C3_3 
REMARK    2  A    between atoms: C1_1  and  O6_6 
REMARK    3  A    between atoms: C3_3  and  C4_4 
ROOT
HETATM    1  C1  UNL     1     -32.989   7.094   2.458  1.00 20.00     0.259 C 
HETATM    2  O5  UNL     1     -33.076   6.143   1.693  1.00 20.00    -0.265 OA
ENDROOT
BRANCH   1   3
HETATM    3  C3  UNL     1     -33.813   7.284   3.715  1.00 20.00     0.122 C 
BRANCH   3   4
HETATM    4  C4  UNL     1     -35.024   6.347   3.747  1.00 20.00     0.096 C 
HETATM    5  S7  UNL     1     -34.491   4.688   4.307  1.00 20.00    -0.097 SA
ENDBRANCH   3   4
ENDBRANCH   1   3
BRANCH   1   6
HETATM    6  O6  UNL     1     -32.137   8.155   2.325  1.00 20.00    -0.326 OA
HETATM    7  C2  UNL     1     -32.114   8.767   1.031  1.00 20.00     0.213 C 
ENDBRANCH   1   6
TORSDOF 3
ENDMDL
MODEL 5
REMARK VINA RESULT:      -1.3      2.890      3.745
REMARK  3 active torsions:
REMARK  status: ('A' for Active; 'I' for Inactive)
REMARK    1  A    between atoms: C1_1  and  C3_3 
REMARK    2  A    between atoms: C1_1  and  O6_6 
REMARK    3  A    between atoms: C3_3  and  C4_4 
ROOT
HETATM    1  C1  UNL     1     -32.073   8.064   1.937  1.00 20.00     0.259 C 
HETATM    2  O5  UNL     1     -31.165   8.455   2.658  1.00 20.00    -0.265 OA
ENDROOT
BRANCH   1   3
HETATM    3  C3  UNL     1     -33.119   7.040   2.325  1.00 20.00     0.122 C 
BRANCH   3   4
HETATM    4  C4  UNL     1     -33.803   7.400   3.649  1.00 20.00     0.096 C 
HETATM    5  S7  UNL     1     -35.137   6.194   3.988  1.00 20.00    -0.097 SA
ENDBRANCH   3   4
ENDBRANCH   1   3
BRANCH   1   6
HETATM    6  O6  UNL     1     -32.313   8.476   0.656  1.00 20.00    -0.326 OA
HETATM    7  C2  UNL     1     -32.385   9.893   0.468  1.00 20.00     0.213 C 
ENDBRANCH   1   6
TORSDOF 3
ENDMDL
MODEL 6
REMARK VINA RESULT:      -1.2      2.862      3.633
REMARK  3 active torsions:
REMARK  status: ('A' for Active; 'I' for Inactive)
REMARK    1  A    between atoms: C1_1  and  C3_3 
REMARK    2  A    between atoms: C1_1  and  O6_6 
REMARK    3  A    between atoms: C3_3  and  C4_4 
ROOT
HETATM    1  C1  UNL     1     -32.206   8.063   1.875  1.00 20.00     0.259 C 
HETATM    2  O5  UNL     1     -31.428   7.262   1.373  1.00 20.00    -0.265 OA
ENDROOT
BRANCH   1   3
HETATM    3  C3  UNL     1     -33.136   7.772   3.033  1.00 20.00     0.122 C 
BRANCH   3   4
HETATM    4  C4  UNL     1     -33.676   6.338   2.981  1.00 20.00     0.096 C 
HETATM    5  S7  UNL     1     -35.169   6.216   4.034  1.00 20.00    -0.097 SA
ENDBRANCH   3   4
ENDBRANCH   1   3
BRANCH   1   6
HETATM    6  O6  UNL     1     -32.377   9.363   1.488  1.00 20.00    -0.326 OA
HETATM    7  C2  UNL     1     -32.385   9.589   0.075  1.00 20.00     0.213 C 
ENDBRANCH   1   6
TORSDOF 3
ENDMDL
MODEL 7
REMARK VINA RESULT:      -1.2      3.479      4.392
REMARK  3 active torsions:
REMARK  status: ('A' for Active; 'I' for Inactive)
REMARK    1  A    between atoms: C1_1  and  C3_3 
REMARK    2  A    between atoms: C1_1  and  O6_6 
REMARK    3  A    between atoms: C3_3  and  C4_4 
ROOT
HETATM    1  C1  UNL     1     -34.098   6.588   3.606  1.00 20.00     0.259 C 
HETATM    2  O5  UNL     1     -34.266   7.692   4.108  1.00 20.00    -0.265 OA
ENDROOT
BRANCH   1   3
HETATM    3  C3  UNL     1     -34.637   5.286   4.158  1.00 20.00     0.122 C 
BRANCH   3   4
HETATM    4  C4  UNL     1     -33.909   4.074   3.566  1.00 20.00     0.096 C 
HETATM    5  S7  UNL     1     -33.176   3.087   4.922  1.00 20.00    -0.097 SA
ENDBRANCH   3   4
ENDBRANCH   1   3
BRANCH   1   6
HETATM    6  O6  UNL     1     -33.400   6.327   2.461  1.00 20.00    -0.326 OA
HETATM    7  C2  UNL     1     -32.516   7.366   2.027  1.00 20.00     0.213 C 
ENDBRANCH   1   6
TORSDOF 3
ENDMDL
MODEL 8
REMARK VINA RESULT:      -1.2      3.030      4.177
REMARK  3 active torsions:
REMARK  status: ('A' for Active; 'I' for Inactive)
REMARK    1  A    between atoms: C1_1  and  C3_3 
REMARK    2  A    between atoms: C1_1  and  O6_6 
REMARK    3  A    between atoms: C3_3  and  C4_4 
ROOT
HETATM    1  C1  UNL     1     -33.850   7.194   3.621  1.00 20.00     0.259 C 
HETATM    2  O5  UNL     1     -33.480   7.894   4.554  1.00 20.00    -0.265 OA
ENDROOT
BRANCH   1   3
HETATM    3  C3  UNL     1     -35.170   6.455   3.551  1.00 20.00     0.122 C 
BRANCH   3   4
HETATM    4  C4  UNL     1     -35.229   5.301   4.559  1.00 20.00     0.096 C 
HETATM    5  S7  UNL     1     -33.934   4.074   4.150  1.00 20.00    -0.097 SA
ENDBRANCH   3   4
ENDBRANCH   1   3
BRANCH   1   6
HETATM    6  O6  UNL     1     -33.147   6.951   2.475  1.00 20.00    -0.326 OA
HETATM    7  C2  UNL     1     -32.204   7.962   2.104  1.00 20.00     0.213 C 
ENDBRANCH   1   6
TORSDOF 3
ENDMDL
MODEL 9
REMARK VINA RESULT:      -1.1      2.913      3.732
REMARK  3 active torsions:
REMARK  status: ('A' for Active; 'I' for Inactive)
REMARK    1  A    between atoms: C1_1  and  C3_3 
REMARK    2  A    between atoms: C1_1  and  O6_6 
REMARK    3  A    between atoms: C3_3  and  C4_4 
ROOT
HETATM    1  C1  UNL     1     -32.952   7.356   2.556  1.00 20.00     0.259 C 
HETATM    2  O5  UNL     1     -32.142   8.217   2.238  1.00 20.00    -0.265 OA
ENDROOT
BRANCH   1   3
HETATM    3  C3  UNL     1     -33.773   7.354   3.828  1.00 20.00     0.122 C 
BRANCH   3   4
HETATM    4  C4  UNL     1     -35.004   6.449   3.708  1.00 20.00     0.096 C 
HETATM    5  S7  UNL     1     -34.594   4.783   4.347  1.00 20.00    -0.097 SA
ENDBRANCH   3   4
ENDBRANCH   1   3
BRANCH   1   6
HETATM    6  O6  UNL     1     -33.267   6.244   1.826  1.00 20.00    -0.326 OA
HETATM    7  C2  UNL     1     -32.151   5.513   1.305  1.00 20.00     0.213 C 
ENDBRANCH   1   6
TORSDOF 3
ENDMDL
