MODEL 1
REMARK VINA RESULT:      -3.6      0.000      0.000
REMARK  3 active torsions:
REMARK  status: ('A' for Active; 'I' for Inactive)
REMARK    1  A    between atoms: C1_1  and  C3_3 
REMARK    2  A    between atoms: C1_1  and  O4_4 
REMARK    3  A    between atoms: C2_2  and  O4_4 
ROOT
HETATM    1  C1  UNL     1     -34.204   5.497   3.153  1.00 20.00     0.330 C 
HETATM    2 CL10 UNL     1     -33.772   4.002   4.025  1.00 20.00    -0.086 Cl
ENDROOT
BRANCH   1   3
HETATM    3  C3  UNL     1     -35.220   6.279   3.957  1.00 20.00     0.427 C 
HETATM    4  F7  UNL     1     -34.677   7.380   4.521  1.00 20.00    -0.167 F 
HETATM    5  F8  UNL     1     -35.729   5.518   4.952  1.00 20.00    -0.167 F 
HETATM    6  F9  UNL     1     -36.256   6.675   3.184  1.00 20.00    -0.167 F 
ENDBRANCH   1   3
BRANCH   1   7
HETATM    7  O4  UNL     1     -33.044   6.312   2.992  1.00 20.00    -0.302 OA
BRANCH   7   8
HETATM    8  C2  UNL     1     -32.646   6.445   1.638  1.00 20.00     0.501 C 
HETATM    9  F5  UNL     1     -31.842   7.534   1.552  1.00 20.00    -0.184 F 
HETATM   10  F6  UNL     1     -31.895   5.371   1.297  1.00 20.00    -0.184 F 
ENDBRANCH   7   8
ENDBRANCH   1   7
TORSDOF 3
ENDMDL
MODEL 2
REMARK VINA RESULT:      -3.5      1.832      4.040
REMARK  3 active torsions:
REMARK  status: ('A' for Active; 'I' for Inactive)
REMARK    1  A    between atoms: C1_1  and  C3_3 
REMARK    2  A    between atoms: C1_1  and  O4_4 
REMARK    3  A    between atoms: C2_2  and  O4_4 
ROOT
HETATM    1  C1  UNL     1     -33.509   7.710   3.153  1.00 20.00     0.330 C 
HETATM    2 CL10 UNL     1     -32.989   8.220   4.780  1.00 20.00    -0.086 Cl
ENDROOT
BRANCH   1   3
HETATM    3  C3  UNL     1     -32.342   7.806   2.192  1.00 20.00     0.427 C 
HETATM    4  F7  UNL     1     -32.068   6.617   1.613  1.00 20.00    -0.167 F 
HETATM    5  F8  UNL     1     -31.227   8.216   2.837  1.00 20.00    -0.167 F 
HETATM    6  F9  UNL     1     -32.590   8.700   1.209  1.00 20.00    -0.167 F 
ENDBRANCH   1   3
BRANCH   1   7
HETATM    7  O4  UNL     1     -33.942   6.351   3.189  1.00 20.00    -0.302 OA
BRANCH   7   8
HETATM    8  C2  UNL     1     -35.023   6.140   4.081  1.00 20.00     0.501 C 
HETATM    9  F5  UNL     1     -36.162   6.500   3.438  1.00 20.00    -0.184 F 
HETATM   10  F6  UNL     1     -35.119   4.814   4.343  1.00 20.00    -0.184 F 
ENDBRANCH   7   8
ENDBRANCH   1   7
TORSDOF 3
ENDMDL
MODEL 3
REMARK VINA RESULT:      -3.4      2.164      4.049
REMARK  3 active torsions:
REMARK  status: ('A' for Active; 'I' for Inactive)
REMARK    1  A    between atoms: C1_1  and  C3_3 
REMARK    2  A    between atoms: C1_1  and  O4_4 
REMARK    3  A    between atoms: C2_2  and  O4_4 
ROOT
HETATM    1  C1  UNL     1     -33.043   7.167   2.021  1.00 20.00     0.330 C 
HETATM    2 CL10 UNL     1     -31.702   8.190   1.444  1.00 20.00    -0.086 Cl
ENDROOT
BRANCH   1   3
HETATM    3  C3  UNL     1     -32.823   5.738   1.570  1.00 20.00     0.427 C 
HETATM    4  F7  UNL     1     -33.535   5.446   0.460  1.00 20.00    -0.167 F 
HETATM    5  F8  UNL     1     -33.197   4.871   2.537  1.00 20.00    -0.167 F 
HETATM    6  F9  UNL     1     -31.520   5.504   1.302  1.00 20.00    -0.167 F 
ENDBRANCH   1   3
BRANCH   1   7
HETATM    7  O4  UNL     1     -33.079   7.180   3.447  1.00 20.00    -0.302 OA
BRANCH   7   8
HETATM    8  C2  UNL     1     -34.330   7.600   3.964  1.00 20.00     0.501 C 
HETATM    9  F5  UNL     1     -35.097   6.494   4.132  1.00 20.00    -0.184 F 
HETATM   10  F6  UNL     1     -34.136   8.138   5.192  1.00 20.00    -0.184 F 
ENDBRANCH   7   8
ENDBRANCH   1   7
TORSDOF 3
ENDMDL
MODEL 4
REMARK VINA RESULT:      -3.3      1.649      3.938
REMARK  3 active torsions:
REMARK  status: ('A' for Active; 'I' for Inactive)
REMARK    1  A    between atoms: C1_1  and  C3_3 
REMARK    2  A    between atoms: C1_1  and  O4_4 
REMARK    3  A    between atoms: C2_2  and  O4_4 
ROOT
HETATM    1  C1  UNL     1     -32.668   6.570   2.367  1.00 20.00     0.330 C 
HETATM    2 CL10 UNL     1     -32.435   5.387   1.053  1.00 20.00    -0.086 Cl
ENDROOT
BRANCH   1   3
HETATM    3  C3  UNL     1     -32.032   7.889   1.983  1.00 20.00     0.427 C 
HETATM    4  F7  UNL     1     -31.036   7.726   1.086  1.00 20.00    -0.167 F 
HETATM    5  F8  UNL     1     -31.510   8.500   3.070  1.00 20.00    -0.167 F 
HETATM    6  F9  UNL     1     -32.942   8.733   1.446  1.00 20.00    -0.167 F 
ENDBRANCH   1   3
BRANCH   1   7
HETATM    7  O4  UNL     1     -34.062   6.793   2.572  1.00 20.00    -0.302 OA
BRANCH   7   8
HETATM    8  C2  UNL     1     -34.458   6.607   3.921  1.00 20.00     0.501 C 
HETATM    9  F5  UNL     1     -34.336   7.800   4.553  1.00 20.00    -0.184 F 
HETATM   10  F6  UNL     1     -35.772   6.278   3.947  1.00 20.00    -0.184 F 
ENDBRANCH   7   8
ENDBRANCH   1   7
TORSDOF 3
ENDMDL
MODEL 5
REMARK VINA RESULT:      -3.3      1.747      2.086
REMARK  3 active torsions:
REMARK  status: ('A' for Active; 'I' for Inactive)
REMARK    1  A    between atoms: C1_1  and  C3_3 
REMARK    2  A    between atoms: C1_1  and  O4_4 
REMARK    3  A    between atoms: C2_2  and  O4_4 
ROOT
HETATM    1  C1  UNL     1     -33.876   6.810   2.459  1.00 20.00     0.330 C 
HETATM    2 CL10 UNL     1     -33.007   5.386   1.829  1.00 20.00    -0.086 Cl
ENDROOT
BRANCH   1   3
HETATM    3  C3  UNL     1     -34.609   6.437   3.730  1.00 20.00     0.427 C 
HETATM    4  F7  UNL     1     -34.258   5.211   4.173  1.00 20.00    -0.167 F 
HETATM    5  F8  UNL     1     -35.945   6.432   3.524  1.00 20.00    -0.167 F 
HETATM    6  F9  UNL     1     -34.359   7.325   4.718  1.00 20.00    -0.167 F 
ENDBRANCH   1   3
BRANCH   1   7
HETATM    7  O4  UNL     1     -32.943   7.843   2.773  1.00 20.00    -0.302 OA
BRANCH   7   8
HETATM    8  C2  UNL     1     -31.940   8.000   1.784  1.00 20.00     0.501 C 
HETATM    9  F5  UNL     1     -32.265   9.086   1.039  1.00 20.00    -0.184 F 
HETATM   10  F6  UNL     1     -30.764   8.279   2.397  1.00 20.00    -0.184 F 
ENDBRANCH   7   8
ENDBRANCH   1   7
TORSDOF 3
ENDMDL
MODEL 6
REMARK VINA RESULT:      -3.3      1.700      1.787
REMARK  3 active torsions:
REMARK  status: ('A' for Active; 'I' for Inactive)
REMARK    1  A    between atoms: C1_1  and  C3_3 
REMARK    2  A    between atoms: C1_1  and  O4_4 
REMARK    3  A    between atoms: C2_2  and  O4_4 
ROOT
HETATM    1  C1  UNL     1     -33.869   6.774   2.444  1.00 20.00     0.330 C 
HETATM    2 CL10 UNL     1     -32.932   5.367   1.879  1.00 20.00    -0.086 Cl
ENDROOT
BRANCH   1   3
HETATM    3  C3  UNL     1     -34.584   6.426   3.732  1.00 20.00     0.427 C 
HETATM    4  F7  UNL     1     -34.281   7.289   4.726  1.00 20.00    -0.167 F 
HETATM    5  F8  UNL     1     -34.241   5.186   4.147  1.00 20.00    -0.167 F 
HETATM    6  F9  UNL     1     -35.925   6.437   3.566  1.00 20.00    -0.167 F 
ENDBRANCH   1   3
BRANCH   1   7
HETATM    7  O4  UNL     1     -32.987   7.864   2.708  1.00 20.00    -0.302 OA
BRANCH   7   8
HETATM    8  C2  UNL     1     -32.010   8.042   1.697  1.00 20.00     0.501 C 
HETATM    9  F5  UNL     1     -32.255   9.232   1.094  1.00 20.00    -0.184 F 
HETATM   10  F6  UNL     1     -30.791   8.138   2.280  1.00 20.00    -0.184 F 
ENDBRANCH   7   8
ENDBRANCH   1   7
TORSDOF 3
ENDMDL
MODEL 7
REMARK VINA RESULT:      -3.3      1.927      3.968
REMARK  3 active torsions:
REMARK  status: ('A' for Active; 'I' for Inactive)
REMARK    1  A    between atoms: C1_1  and  C3_3 
REMARK    2  A    between atoms: C1_1  and  O4_4 
REMARK    3  A    between atoms: C2_2  and  O4_4 
ROOT
HETATM    1  C1  UNL     1     -33.782   5.867   2.830  1.00 20.00     0.330 C 
HETATM    2 CL10 UNL     1     -33.997   7.344   3.805  1.00 20.00    -0.086 Cl
ENDROOT
BRANCH   1   3
HETATM    3  C3  UNL     1     -32.899   6.168   1.638  1.00 20.00     0.427 C 
HETATM    4  F7  UNL     1     -32.418   7.429   1.673  1.00 20.00    -0.167 F 
HETATM    5  F8  UNL     1     -33.591   6.026   0.485  1.00 20.00    -0.167 F 
HETATM    6  F9  UNL     1     -31.847   5.322   1.581  1.00 20.00    -0.167 F 
ENDBRANCH   1   3
BRANCH   1   7
HETATM    7  O4  UNL     1     -33.140   4.862   3.614  1.00 20.00    -0.302 OA
BRANCH   7   8
HETATM    8  C2  UNL     1     -34.034   3.859   4.064  1.00 20.00     0.501 C 
HETATM    9  F5  UNL     1     -33.393   3.134   5.014  1.00 20.00    -0.184 F 
HETATM   10  F6  UNL     1     -35.091   4.455   4.667  1.00 20.00    -0.184 F 
ENDBRANCH   7   8
ENDBRANCH   1   7
TORSDOF 3
ENDMDL
MODEL 8
REMARK VINA RESULT:      -3.1      2.369      3.264
REMARK  3 active torsions:
REMARK  status: ('A' for Active; 'I' for Inactive)
REMARK    1  A    between atoms: C1_1  and  C3_3 
REMARK    2  A    between atoms: C1_1  and  O4_4 
REMARK    3  A    between atoms: C2_2  and  O4_4 
ROOT
HETATM    1  C1  UNL     1     -33.756   5.330   3.740  1.00 20.00     0.330 C 
HETATM    2 CL10 UNL     1     -33.292   5.471   2.024  1.00 20.00    -0.086 Cl
ENDROOT
BRANCH   1   3
HETATM    3  C3  UNL     1     -34.909   6.267   4.033  1.00 20.00     0.427 C 
HETATM    4  F7  UNL     1     -35.596   6.585   2.915  1.00 20.00    -0.167 F 
HETATM    5  F8  UNL     1     -34.460   7.418   4.581  1.00 20.00    -0.167 F 
HETATM    6  F9  UNL     1     -35.776   5.715   4.912  1.00 20.00    -0.167 F 
ENDBRANCH   1   3
BRANCH   1   7
HETATM    7  O4  UNL     1     -34.187   3.998   4.014  1.00 20.00    -0.302 OA
BRANCH   7   8
HETATM    8  C2  UNL     1     -33.122   3.140   4.389  1.00 20.00     0.501 C 
HETATM    9  F5  UNL     1     -32.840   3.381   5.693  1.00 20.00    -0.184 F 
HETATM   10  F6  UNL     1     -33.548   1.856   4.307  1.00 20.00    -0.184 F 
ENDBRANCH   7   8
ENDBRANCH   1   7
TORSDOF 3
ENDMDL
MODEL 9
REMARK VINA RESULT:      -2.9      2.068      2.568
REMARK  3 active torsions:
REMARK  status: ('A' for Active; 'I' for Inactive)
REMARK    1  A    between atoms: C1_1  and  C3_3 
REMARK    2  A    between atoms: C1_1  and  O4_4 
REMARK    3  A    between atoms: C2_2  and  O4_4 
ROOT
HETATM    1  C1  UNL     1     -32.950   6.932   3.142  1.00 20.00     0.330 C 
HETATM    2 CL10 UNL     1     -32.243   8.219   2.131  1.00 20.00    -0.086 Cl
ENDROOT
BRANCH   1   3
HETATM    3  C3  UNL     1     -34.128   7.482   3.917  1.00 20.00     0.427 C 
HETATM    4  F7  UNL     1     -35.065   6.537   4.147  1.00 20.00    -0.167 F 
HETATM    5  F8  UNL     1     -34.720   8.487   3.233  1.00 20.00    -0.167 F 
HETATM    6  F9  UNL     1     -33.739   7.983   5.110  1.00 20.00    -0.167 F 
ENDBRANCH   1   3
BRANCH   1   7
HETATM    7  O4  UNL     1     -33.422   5.872   2.311  1.00 20.00    -0.302 OA
BRANCH   7   8
HETATM    8  C2  UNL     1     -32.694   5.752   1.101  1.00 20.00     0.501 C 
HETATM    9  F5  UNL     1     -31.486   5.214   1.400  1.00 20.00    -0.184 F 
HETATM   10  F6  UNL     1     -33.331   4.869   0.295  1.00 20.00    -0.184 F 
ENDBRANCH   7   8
ENDBRANCH   1   7
TORSDOF 3
ENDMDL
