MODEL 1
REMARK VINA RESULT:      -0.3      0.000      0.000
REMARK  0 active torsions:
REMARK  status: ('A' for Active; 'I' for Inactive)
ROOT
HETATM    1  C1  UNL     1     -34.195   6.857   3.453  1.00 20.00     0.016 C 
HETATM    2  C2  UNL     1     -33.513   5.671   2.776  1.00 20.00     0.016 C 
HETATM    3  C3  UNL     1     -33.157   7.973   3.496  1.00 20.00     0.140 C 
HETATM    4  C4  UNL     1     -32.867   6.222   1.509  1.00 20.00     0.140 C 
HETATM    5  O5  UNL     1     -30.847   7.746   2.250  1.00 20.00    -0.228 OA
HETATM    6  O6  UNL     1     -32.794   8.809   1.020  1.00 20.00    -0.228 OA
HETATM    7  S7  UNL     1     -32.261   7.841   1.956  1.00 20.00     0.144 S 
ENDROOT
TORSDOF 0
ENDMDL
MODEL 2
REMARK VINA RESULT:      -0.3      0.009      2.129
REMARK  0 active torsions:
REMARK  status: ('A' for Active; 'I' for Inactive)
ROOT
HETATM    1  C1  UNL     1     -33.517   5.664   2.774  1.00 20.00     0.016 C 
HETATM    2  C2  UNL     1     -34.201   6.848   3.453  1.00 20.00     0.016 C 
HETATM    3  C3  UNL     1     -32.871   6.218   1.509  1.00 20.00     0.140 C 
HETATM    4  C4  UNL     1     -33.163   7.965   3.500  1.00 20.00     0.140 C 
HETATM    5  O5  UNL     1     -32.797   8.807   1.028  1.00 20.00    -0.228 OA
HETATM    6  O6  UNL     1     -30.851   7.741   2.258  1.00 20.00    -0.228 OA
HETATM    7  S7  UNL     1     -32.265   7.837   1.962  1.00 20.00     0.144 S 
ENDROOT
TORSDOF 0
ENDMDL
MODEL 3
REMARK VINA RESULT:       0.3      2.919      3.357
REMARK  0 active torsions:
REMARK  status: ('A' for Active; 'I' for Inactive)
ROOT
HETATM    1  C1  UNL     1     -32.637   7.930   3.804  1.00 20.00     0.016 C 
HETATM    2  C2  UNL     1     -32.863   7.659   2.318  1.00 20.00     0.016 C 
HETATM    3  C3  UNL     1     -33.966   7.640   4.493  1.00 20.00     0.140 C 
HETATM    4  C4  UNL     1     -33.533   6.291   2.236  1.00 20.00     0.140 C 
HETATM    5  O5  UNL     1     -35.978   6.551   3.188  1.00 20.00    -0.228 OA
HETATM    6  O6  UNL     1     -34.348   5.031   4.401  1.00 20.00    -0.228 OA
HETATM    7  S7  UNL     1     -34.641   6.225   3.636  1.00 20.00     0.144 S 
ENDROOT
TORSDOF 0
ENDMDL
MODEL 4
REMARK VINA RESULT:       0.3      2.910      3.426
REMARK  0 active torsions:
REMARK  status: ('A' for Active; 'I' for Inactive)
ROOT
HETATM    1  C1  UNL     1     -32.853   7.657   2.294  1.00 20.00     0.016 C 
HETATM    2  C2  UNL     1     -32.610   7.929   3.776  1.00 20.00     0.016 C 
HETATM    3  C3  UNL     1     -33.536   6.295   2.221  1.00 20.00     0.140 C 
HETATM    4  C4  UNL     1     -33.935   7.652   4.479  1.00 20.00     0.140 C 
HETATM    5  O5  UNL     1     -34.344   5.048   4.396  1.00 20.00    -0.228 OA
HETATM    6  O6  UNL     1     -35.970   6.581   3.196  1.00 20.00    -0.228 OA
HETATM    7  S7  UNL     1     -34.632   6.243   3.631  1.00 20.00     0.144 S 
ENDROOT
TORSDOF 0
ENDMDL
MODEL 5
REMARK VINA RESULT:       0.3      2.257      2.848
REMARK  0 active torsions:
REMARK  status: ('A' for Active; 'I' for Inactive)
ROOT
HETATM    1  C1  UNL     1     -32.065   7.133   1.637  1.00 20.00     0.016 C 
HETATM    2  C2  UNL     1     -32.787   5.789   1.695  1.00 20.00     0.016 C 
HETATM    3  C3  UNL     1     -33.015   8.150   2.260  1.00 20.00     0.140 C 
HETATM    4  C4  UNL     1     -33.298   5.645   3.125  1.00 20.00     0.140 C 
HETATM    5  O5  UNL     1     -35.243   7.397   3.448  1.00 20.00    -0.228 OA
HETATM    6  O6  UNL     1     -33.138   7.634   4.845  1.00 20.00    -0.228 OA
HETATM    7  S7  UNL     1     -33.808   7.287   3.609  1.00 20.00     0.144 S 
ENDROOT
TORSDOF 0
ENDMDL
MODEL 6
REMARK VINA RESULT:       0.3      2.320      2.801
REMARK  0 active torsions:
REMARK  status: ('A' for Active; 'I' for Inactive)
ROOT
HETATM    1  C1  UNL     1     -32.759   5.765   1.702  1.00 20.00     0.016 C 
HETATM    2  C2  UNL     1     -32.115   7.148   1.661  1.00 20.00     0.016 C 
HETATM    3  C3  UNL     1     -33.294   5.590   3.119  1.00 20.00     0.140 C 
HETATM    4  C4  UNL     1     -33.137   8.108   2.261  1.00 20.00     0.140 C 
HETATM    5  O5  UNL     1     -33.292   7.584   4.841  1.00 20.00    -0.228 OA
HETATM    6  O6  UNL     1     -35.345   7.227   3.394  1.00 20.00    -0.228 OA
HETATM    7  S7  UNL     1     -33.911   7.200   3.590  1.00 20.00     0.144 S 
ENDROOT
TORSDOF 0
ENDMDL
MODEL 7
REMARK VINA RESULT:       0.4      1.950      2.683
REMARK  0 active torsions:
REMARK  status: ('A' for Active; 'I' for Inactive)
ROOT
HETATM    1  C1  UNL     1     -33.333   7.353   3.677  1.00 20.00     0.016 C 
HETATM    2  C2  UNL     1     -32.899   8.344   2.599  1.00 20.00     0.016 C 
HETATM    3  C3  UNL     1     -33.805   6.106   2.937  1.00 20.00     0.140 C 
HETATM    4  C4  UNL     1     -31.983   7.570   1.657  1.00 20.00     0.140 C 
HETATM    5  O5  UNL     1     -33.483   5.851   0.335  1.00 20.00    -0.228 OA
HETATM    6  O6  UNL     1     -31.676   4.964   1.879  1.00 20.00    -0.228 OA
HETATM    7  S7  UNL     1     -32.696   5.936   1.547  1.00 20.00     0.144 S 
ENDROOT
TORSDOF 0
ENDMDL
MODEL 8
REMARK VINA RESULT:       0.4      1.944      2.339
REMARK  0 active torsions:
REMARK  status: ('A' for Active; 'I' for Inactive)
ROOT
HETATM    1  C1  UNL     1     -32.897   8.357   2.609  1.00 20.00     0.016 C 
HETATM    2  C2  UNL     1     -33.326   7.367   3.690  1.00 20.00     0.016 C 
HETATM    3  C3  UNL     1     -31.985   7.582   1.665  1.00 20.00     0.140 C 
HETATM    4  C4  UNL     1     -33.800   6.118   2.954  1.00 20.00     0.140 C 
HETATM    5  O5  UNL     1     -31.675   4.976   1.888  1.00 20.00    -0.228 OA
HETATM    6  O6  UNL     1     -33.490   5.859   0.351  1.00 20.00    -0.228 OA
HETATM    7  S7  UNL     1     -32.697   5.947   1.560  1.00 20.00     0.144 S 
ENDROOT
TORSDOF 0
ENDMDL
MODEL 9
REMARK VINA RESULT:       0.8      0.848      2.271
REMARK  0 active torsions:
REMARK  status: ('A' for Active; 'I' for Inactive)
ROOT
HETATM    1  C1  UNL     1     -32.302   5.534   1.657  1.00 20.00     0.016 C 
HETATM    2  C2  UNL     1     -33.644   5.958   2.250  1.00 20.00     0.016 C 
HETATM    3  C3  UNL     1     -31.746   6.766   0.949  1.00 20.00     0.140 C 
HETATM    4  C4  UNL     1     -33.385   7.266   2.990  1.00 20.00     0.140 C 
HETATM    5  O5  UNL     1     -32.908   9.119   1.175  1.00 20.00    -0.228 OA
HETATM    6  O6  UNL     1     -31.068   8.507   2.812  1.00 20.00    -0.228 OA
HETATM    7  S7  UNL     1     -32.201   8.149   1.985  1.00 20.00     0.144 S 
ENDROOT
TORSDOF 0
ENDMDL
