MODEL 1
REMARK VINA RESULT:      -3.7      0.000      0.000
REMARK  2 active torsions:
REMARK  status: ('A' for Active; 'I' for Inactive)
REMARK    1  A    between atoms: C1_1  and  C2_2 
REMARK    2  A    between atoms: C1_1  and  C3_3 
ROOT
HETATM    1  C1  UNL     1     -33.395   6.803   2.009  1.00 20.00     0.374 C 
HETATM    2  O4  UNL     1     -32.869   5.636   1.681  1.00 20.00    -0.216 OA
ENDROOT
BRANCH   1   3
HETATM    3  C2  UNL     1     -32.260   7.833   2.083  1.00 20.00     0.424 C 
HETATM    4  F5  UNL     1     -32.597   8.960   1.411  1.00 20.00    -0.168 F 
HETATM    5  F6  UNL     1     -31.965   8.195   3.350  1.00 20.00    -0.168 F 
HETATM    6  F7  UNL     1     -31.127   7.362   1.512  1.00 20.00    -0.168 F 
ENDBRANCH   1   3
BRANCH   1   7
HETATM    7  C3  UNL     1     -34.066   6.654   3.381  1.00 20.00     0.424 C 
HETATM    8  F8  UNL     1     -33.813   5.440   3.925  1.00 20.00    -0.168 F 
HETATM    9  F9  UNL     1     -35.411   6.759   3.265  1.00 20.00    -0.168 F 
HETATM   10  F10 UNL     1     -33.664   7.593   4.264  1.00 20.00    -0.168 F 
ENDBRANCH   1   7
TORSDOF 2
ENDMDL
MODEL 2
REMARK VINA RESULT:      -3.6      0.022      1.193
REMARK  2 active torsions:
REMARK  status: ('A' for Active; 'I' for Inactive)
REMARK    1  A    between atoms: C1_1  and  C2_2 
REMARK    2  A    between atoms: C1_1  and  C3_3 
ROOT
HETATM    1  C1  UNL     1     -33.394   6.800   2.013  1.00 20.00     0.374 C 
HETATM    2  O4  UNL     1     -32.861   5.632   1.701  1.00 20.00    -0.216 OA
ENDROOT
BRANCH   1   3
HETATM    3  C2  UNL     1     -32.263   7.834   2.089  1.00 20.00     0.424 C 
HETATM    4  F5  UNL     1     -32.608   8.965   1.428  1.00 20.00    -0.168 F 
HETATM    5  F6  UNL     1     -31.962   8.187   3.357  1.00 20.00    -0.168 F 
HETATM    6  F7  UNL     1     -31.131   7.372   1.508  1.00 20.00    -0.168 F 
ENDBRANCH   1   3
BRANCH   1   7
HETATM    7  C3  UNL     1     -34.077   6.661   3.380  1.00 20.00     0.424 C 
HETATM    8  F8  UNL     1     -33.635   7.598   4.252  1.00 20.00    -0.168 F 
HETATM    9  F9  UNL     1     -33.799   5.454   3.929  1.00 20.00    -0.168 F 
HETATM   10  F10 UNL     1     -35.422   6.768   3.306  1.00 20.00    -0.168 F 
ENDBRANCH   1   7
TORSDOF 2
ENDMDL
MODEL 3
REMARK VINA RESULT:      -3.5      1.694      3.240
REMARK  2 active torsions:
REMARK  status: ('A' for Active; 'I' for Inactive)
REMARK    1  A    between atoms: C1_1  and  C2_2 
REMARK    2  A    between atoms: C1_1  and  C3_3 
ROOT
HETATM    1  C1  UNL     1     -33.525   7.142   2.447  1.00 20.00     0.374 C 
HETATM    2  O4  UNL     1     -32.525   7.867   2.916  1.00 20.00    -0.216 OA
ENDROOT
BRANCH   1   3
HETATM    3  C2  UNL     1     -34.396   6.710   3.634  1.00 20.00     0.424 C 
HETATM    4  F5  UNL     1     -35.698   6.640   3.267  1.00 20.00    -0.168 F 
HETATM    5  F6  UNL     1     -34.052   5.497   4.121  1.00 20.00    -0.168 F 
HETATM    6  F7  UNL     1     -34.324   7.600   4.651  1.00 20.00    -0.168 F 
ENDBRANCH   1   3
BRANCH   1   7
HETATM    7  C3  UNL     1     -32.933   5.911   1.749  1.00 20.00     0.424 C 
HETATM    8  F8  UNL     1     -31.629   6.098   1.437  1.00 20.00    -0.168 F 
HETATM    9  F9  UNL     1     -33.582   5.667   0.585  1.00 20.00    -0.168 F 
HETATM   10  F10 UNL     1     -33.021   4.791   2.499  1.00 20.00    -0.168 F 
ENDBRANCH   1   7
TORSDOF 2
ENDMDL
MODEL 4
REMARK VINA RESULT:      -3.4      1.687      3.225
REMARK  2 active torsions:
REMARK  status: ('A' for Active; 'I' for Inactive)
REMARK    1  A    between atoms: C1_1  and  C2_2 
REMARK    2  A    between atoms: C1_1  and  C3_3 
ROOT
HETATM    1  C1  UNL     1     -33.523   7.146   2.432  1.00 20.00     0.374 C 
HETATM    2  O4  UNL     1     -32.520   7.871   2.896  1.00 20.00    -0.216 OA
ENDROOT
BRANCH   1   3
HETATM    3  C2  UNL     1     -34.396   6.726   3.621  1.00 20.00     0.424 C 
HETATM    4  F5  UNL     1     -34.290   7.625   4.629  1.00 20.00    -0.168 F 
HETATM    5  F6  UNL     1     -35.705   6.634   3.303  1.00 20.00    -0.168 F 
HETATM    6  F7  UNL     1     -34.007   5.531   4.123  1.00 20.00    -0.168 F 
ENDBRANCH   1   3
BRANCH   1   7
HETATM    7  C3  UNL     1     -32.936   5.908   1.742  1.00 20.00     0.424 C 
HETATM    8  F8  UNL     1     -31.626   6.081   1.446  1.00 20.00    -0.168 F 
HETATM    9  F9  UNL     1     -33.573   5.670   0.570  1.00 20.00    -0.168 F 
HETATM   10  F10 UNL     1     -33.046   4.790   2.492  1.00 20.00    -0.168 F 
ENDBRANCH   1   7
TORSDOF 2
ENDMDL
MODEL 5
REMARK VINA RESULT:      -3.4      1.688      3.299
REMARK  2 active torsions:
REMARK  status: ('A' for Active; 'I' for Inactive)
REMARK    1  A    between atoms: C1_1  and  C2_2 
REMARK    2  A    between atoms: C1_1  and  C3_3 
ROOT
HETATM    1  C1  UNL     1     -33.524   7.161   2.452  1.00 20.00     0.374 C 
HETATM    2  O4  UNL     1     -32.514   7.866   2.932  1.00 20.00    -0.216 OA
ENDROOT
BRANCH   1   3
HETATM    3  C2  UNL     1     -34.398   6.718   3.632  1.00 20.00     0.424 C 
HETATM    4  F5  UNL     1     -35.700   6.656   3.262  1.00 20.00    -0.168 F 
HETATM    5  F6  UNL     1     -34.058   5.501   4.108  1.00 20.00    -0.168 F 
HETATM    6  F7  UNL     1     -34.326   7.598   4.659  1.00 20.00    -0.168 F 
ENDBRANCH   1   3
BRANCH   1   7
HETATM    7  C3  UNL     1     -32.947   5.935   1.731  1.00 20.00     0.424 C 
HETATM    8  F8  UNL     1     -33.004   4.830   2.512  1.00 20.00    -0.168 F 
HETATM    9  F9  UNL     1     -31.641   6.133   1.429  1.00 20.00    -0.168 F 
HETATM   10  F10 UNL     1     -33.589   5.658   0.576  1.00 20.00    -0.168 F 
ENDBRANCH   1   7
TORSDOF 2
ENDMDL
MODEL 6
REMARK VINA RESULT:      -3.4      0.850      3.229
REMARK  2 active torsions:
REMARK  status: ('A' for Active; 'I' for Inactive)
REMARK    1  A    between atoms: C1_1  and  C2_2 
REMARK    2  A    between atoms: C1_1  and  C3_3 
ROOT
HETATM    1  C1  UNL     1     -32.934   6.777   2.844  1.00 20.00     0.374 C 
HETATM    2  O4  UNL     1     -33.530   6.136   1.853  1.00 20.00    -0.216 OA
ENDROOT
BRANCH   1   3
HETATM    3  C2  UNL     1     -34.022   7.375   3.745  1.00 20.00     0.424 C 
HETATM    4  F5  UNL     1     -33.483   7.829   4.902  1.00 20.00    -0.168 F 
HETATM    5  F6  UNL     1     -34.666   8.413   3.169  1.00 20.00    -0.168 F 
HETATM    6  F7  UNL     1     -34.949   6.449   4.084  1.00 20.00    -0.168 F 
ENDBRANCH   1   3
BRANCH   1   7
HETATM    7  C3  UNL     1     -32.074   7.894   2.239  1.00 20.00     0.424 C 
HETATM    8  F8  UNL     1     -31.088   7.391   1.458  1.00 20.00    -0.168 F 
HETATM    9  F9  UNL     1     -31.471   8.611   3.217  1.00 20.00    -0.168 F 
HETATM   10  F10 UNL     1     -32.792   8.759   1.491  1.00 20.00    -0.168 F 
ENDBRANCH   1   7
TORSDOF 2
ENDMDL
MODEL 7
REMARK VINA RESULT:      -3.4      0.858      3.178
REMARK  2 active torsions:
REMARK  status: ('A' for Active; 'I' for Inactive)
REMARK    1  A    between atoms: C1_1  and  C2_2 
REMARK    2  A    between atoms: C1_1  and  C3_3 
ROOT
HETATM    1  C1  UNL     1     -32.927   6.780   2.844  1.00 20.00     0.374 C 
HETATM    2  O4  UNL     1     -33.542   6.160   1.852  1.00 20.00    -0.216 OA
ENDROOT
BRANCH   1   3
HETATM    3  C2  UNL     1     -33.996   7.372   3.770  1.00 20.00     0.424 C 
HETATM    4  F5  UNL     1     -34.913   6.431   4.100  1.00 20.00    -0.168 F 
HETATM    5  F6  UNL     1     -33.482   7.852   4.924  1.00 20.00    -0.168 F 
HETATM    6  F7  UNL     1     -34.671   8.380   3.168  1.00 20.00    -0.168 F 
ENDBRANCH   1   3
BRANCH   1   7
HETATM    7  C3  UNL     1     -32.067   7.901   2.243  1.00 20.00     0.424 C 
HETATM    8  F8  UNL     1     -31.079   7.402   1.463  1.00 20.00    -0.168 F 
HETATM    9  F9  UNL     1     -31.468   8.617   3.224  1.00 20.00    -0.168 F 
HETATM   10  F10 UNL     1     -32.785   8.767   1.496  1.00 20.00    -0.168 F 
ENDBRANCH   1   7
TORSDOF 2
ENDMDL
MODEL 8
REMARK VINA RESULT:      -3.4      0.856      3.248
REMARK  2 active torsions:
REMARK  status: ('A' for Active; 'I' for Inactive)
REMARK    1  A    between atoms: C1_1  and  C2_2 
REMARK    2  A    between atoms: C1_1  and  C3_3 
ROOT
HETATM    1  C1  UNL     1     -32.937   6.773   2.847  1.00 20.00     0.374 C 
HETATM    2  O4  UNL     1     -33.533   6.155   1.842  1.00 20.00    -0.216 OA
ENDROOT
BRANCH   1   3
HETATM    3  C2  UNL     1     -34.024   7.370   3.750  1.00 20.00     0.424 C 
HETATM    4  F5  UNL     1     -33.483   7.836   4.900  1.00 20.00    -0.168 F 
HETATM    5  F6  UNL     1     -34.680   8.398   3.170  1.00 20.00    -0.168 F 
HETATM    6  F7  UNL     1     -34.943   6.439   4.100  1.00 20.00    -0.168 F 
ENDBRANCH   1   3
BRANCH   1   7
HETATM    7  C3  UNL     1     -32.061   7.890   2.265  1.00 20.00     0.424 C 
HETATM    8  F8  UNL     1     -32.784   8.734   1.491  1.00 20.00    -0.168 F 
HETATM    9  F9  UNL     1     -31.091   7.369   1.474  1.00 20.00    -0.168 F 
HETATM   10  F10 UNL     1     -31.449   8.625   3.218  1.00 20.00    -0.168 F 
ENDBRANCH   1   7
TORSDOF 2
ENDMDL
MODEL 9
REMARK VINA RESULT:      -3.3      1.695      3.295
REMARK  2 active torsions:
REMARK  status: ('A' for Active; 'I' for Inactive)
REMARK    1  A    between atoms: C1_1  and  C2_2 
REMARK    2  A    between atoms: C1_1  and  C3_3 
ROOT
HETATM    1  C1  UNL     1     -33.214   7.247   2.088  1.00 20.00     0.374 C 
HETATM    2  O4  UNL     1     -33.466   7.291   3.385  1.00 20.00    -0.216 OA
ENDROOT
BRANCH   1   3
HETATM    3  C2  UNL     1     -32.854   5.802   1.722  1.00 20.00     0.424 C 
HETATM    4  F5  UNL     1     -33.425   5.453   0.544  1.00 20.00    -0.168 F 
HETATM    5  F6  UNL     1     -31.523   5.611   1.594  1.00 20.00    -0.168 F 
HETATM    6  F7  UNL     1     -33.309   4.928   2.650  1.00 20.00    -0.168 F 
ENDBRANCH   1   3
BRANCH   1   7
HETATM    7  C3  UNL     1     -32.028   8.178   1.802  1.00 20.00     0.424 C 
HETATM    8  F8  UNL     1     -31.343   8.467   2.934  1.00 20.00    -0.168 F 
HETATM    9  F9  UNL     1     -32.461   9.357   1.296  1.00 20.00    -0.168 F 
HETATM   10  F10 UNL     1     -31.156   7.655   0.913  1.00 20.00    -0.168 F 
ENDBRANCH   1   7
TORSDOF 2
ENDMDL
