MODEL 1
REMARK VINA RESULT:       0.1      0.000      0.000
REMARK  0 active torsions:
REMARK  status: ('A' for Active; 'I' for Inactive)
ROOT
HETATM    1  C1  UNL     1     -34.722   5.102   4.005  1.00 20.00     0.020 C 
HETATM    2  C2  UNL     1     -35.209   6.549   3.939  1.00 20.00     0.075 C 
HETATM    3  C3  UNL     1     -33.356   4.805   3.388  1.00 20.00     0.075 C 
HETATM    4  C4  UNL     1     -32.938   7.439   2.608  1.00 20.00     0.147 C 
HETATM    5  S5  UNL     1     -33.861   7.745   4.140  1.00 20.00    -0.159 SA
HETATM    6  S6  UNL     1     -33.046   5.777   1.890  1.00 20.00    -0.159 SA
ENDROOT
TORSDOF 0
ENDMDL
MODEL 2
REMARK VINA RESULT:       0.1      0.038      2.337
REMARK  0 active torsions:
REMARK  status: ('A' for Active; 'I' for Inactive)
ROOT
HETATM    1  C1  UNL     1     -34.685   5.063   4.002  1.00 20.00     0.020 C 
HETATM    2  C2  UNL     1     -33.317   4.796   3.376  1.00 20.00     0.075 C 
HETATM    3  C3  UNL     1     -35.204   6.499   3.940  1.00 20.00     0.075 C 
HETATM    4  C4  UNL     1     -32.953   7.442   2.609  1.00 20.00     0.147 C 
HETATM    5  S5  UNL     1     -33.033   5.782   1.881  1.00 20.00    -0.159 SA
HETATM    6  S6  UNL     1     -33.882   7.723   4.142  1.00 20.00    -0.159 SA
ENDROOT
TORSDOF 0
ENDMDL
MODEL 3
REMARK VINA RESULT:       0.6      1.238      2.716
REMARK  0 active torsions:
REMARK  status: ('A' for Active; 'I' for Inactive)
ROOT
HETATM    1  C1  UNL     1     -32.124   8.400   2.746  1.00 20.00     0.020 C 
HETATM    2  C2  UNL     1     -32.731   7.933   4.068  1.00 20.00     0.075 C 
HETATM    3  C3  UNL     1     -32.433   7.557   1.509  1.00 20.00     0.075 C 
HETATM    4  C4  UNL     1     -33.980   5.731   2.922  1.00 20.00     0.147 C 
HETATM    5  S5  UNL     1     -34.389   7.230   3.860  1.00 20.00    -0.159 SA
HETATM    6  S6  UNL     1     -32.498   5.783   1.877  1.00 20.00    -0.159 SA
ENDROOT
TORSDOF 0
ENDMDL
MODEL 4
REMARK VINA RESULT:       0.6      1.253      3.350
REMARK  0 active torsions:
REMARK  status: ('A' for Active; 'I' for Inactive)
ROOT
HETATM    1  C1  UNL     1     -32.127   8.379   2.693  1.00 20.00     0.020 C 
HETATM    2  C2  UNL     1     -32.426   7.514   1.469  1.00 20.00     0.075 C 
HETATM    3  C3  UNL     1     -32.728   7.925   4.022  1.00 20.00     0.075 C 
HETATM    4  C4  UNL     1     -33.963   5.699   2.906  1.00 20.00     0.147 C 
HETATM    5  S5  UNL     1     -32.477   5.746   1.866  1.00 20.00    -0.159 SA
HETATM    6  S6  UNL     1     -34.381   7.205   3.827  1.00 20.00    -0.159 SA
ENDROOT
TORSDOF 0
ENDMDL
MODEL 5
REMARK VINA RESULT:       0.9      1.371      2.400
REMARK  0 active torsions:
REMARK  status: ('A' for Active; 'I' for Inactive)
ROOT
HETATM    1  C1  UNL     1     -32.930   7.217   2.322  1.00 20.00     0.020 C 
HETATM    2  C2  UNL     1     -33.600   7.512   3.663  1.00 20.00     0.075 C 
HETATM    3  C3  UNL     1     -33.028   5.784   1.801  1.00 20.00     0.075 C 
HETATM    4  C4  UNL     1     -34.488   4.900   3.995  1.00 20.00     0.147 C 
HETATM    5  S5  UNL     1     -35.144   6.588   3.884  1.00 20.00    -0.159 SA
HETATM    6  S6  UNL     1     -32.931   4.555   3.131  1.00 20.00    -0.159 SA
ENDROOT
TORSDOF 0
ENDMDL
MODEL 6
REMARK VINA RESULT:       0.9      1.213      3.142
REMARK  0 active torsions:
REMARK  status: ('A' for Active; 'I' for Inactive)
ROOT
HETATM    1  C1  UNL     1     -32.395   7.107   1.964  1.00 20.00     0.020 C 
HETATM    2  C2  UNL     1     -33.117   5.800   1.637  1.00 20.00     0.075 C 
HETATM    3  C3  UNL     1     -32.742   7.773   3.295  1.00 20.00     0.075 C 
HETATM    4  C4  UNL     1     -34.575   5.806   4.003  1.00 20.00     0.147 C 
HETATM    5  S5  UNL     1     -33.385   4.770   3.105  1.00 20.00    -0.159 SA
HETATM    6  S6  UNL     1     -34.495   7.596   3.723  1.00 20.00    -0.159 SA
ENDROOT
TORSDOF 0
ENDMDL
MODEL 7
REMARK VINA RESULT:       3.1      1.509      2.363
REMARK  0 active torsions:
REMARK  status: ('A' for Active; 'I' for Inactive)
ROOT
HETATM    1  C1  UNL     1     -34.356   7.726   3.298  1.00 20.00     0.020 C 
HETATM    2  C2  UNL     1     -34.506   6.892   4.569  1.00 20.00     0.075 C 
HETATM    3  C3  UNL     1     -33.925   6.984   2.032  1.00 20.00     0.075 C 
HETATM    4  C4  UNL     1     -33.776   4.523   3.314  1.00 20.00     0.147 C 
HETATM    5  S5  UNL     1     -35.165   5.235   4.238  1.00 20.00    -0.159 SA
HETATM    6  S6  UNL     1     -32.728   5.667   2.375  1.00 20.00    -0.159 SA
ENDROOT
TORSDOF 0
ENDMDL
