MODEL 1
REMARK VINA RESULT:      -1.7      0.000      0.000
REMARK  0 active torsions:
REMARK  status: ('A' for Active; 'I' for Inactive)
ROOT
HETATM    1  C1  UNL     1     -32.348   6.397   1.309  1.00 20.00     0.008 C 
HETATM    2  C2  UNL     1     -32.701   5.257   2.117  1.00 20.00     0.028 C 
HETATM    3  C3  UNL     1     -32.678   8.192   2.988  1.00 20.00     0.034 C 
HETATM    4  C4  UNL     1     -32.332   7.689   1.671  1.00 20.00    -0.060 C 
HETATM    5  C5  UNL     1     -33.562   5.218   3.141  1.00 20.00     0.085 C 
HETATM    6  C6  UNL     1     -33.533   7.664   3.873  1.00 20.00     0.086 C 
HETATM    7  C7  UNL     1     -34.274   6.382   3.729  1.00 20.00     0.215 C 
HETATM    8  C8  UNL     1     -31.897   8.750   0.694  1.00 20.00     0.048 C 
HETATM    9  O9  UNL     1     -35.414   6.263   4.175  1.00 20.00    -0.285 OA
HETATM   10 CL10 UNL     1     -33.937   3.688   3.875  1.00 20.00    -0.080 Cl
HETATM   11 CL11 UNL     1     -33.870   8.531   5.341  1.00 20.00    -0.080 Cl
ENDROOT
TORSDOF 0
ENDMDL
MODEL 2
REMARK VINA RESULT:       0.0      1.745      2.973
REMARK  0 active torsions:
REMARK  status: ('A' for Active; 'I' for Inactive)
ROOT
HETATM    1  C1  UNL     1     -33.020   8.199   3.305  1.00 20.00     0.008 C 
HETATM    2  C2  UNL     1     -34.127   7.443   3.833  1.00 20.00     0.028 C 
HETATM    3  C3  UNL     1     -32.497   6.805   1.322  1.00 20.00     0.034 C 
HETATM    4  C4  UNL     1     -32.293   7.936   2.208  1.00 20.00    -0.060 C 
HETATM    5  C5  UNL     1     -34.341   6.126   3.728  1.00 20.00     0.085 C 
HETATM    6  C6  UNL     1     -32.989   5.598   1.627  1.00 20.00     0.086 C 
HETATM    7  C7  UNL     1     -33.515   5.167   2.950  1.00 20.00     0.215 C 
HETATM    8  C8  UNL     1     -31.186   8.867   1.786  1.00 20.00     0.048 C 
HETATM    9  O9  UNL     1     -33.351   4.014   3.345  1.00 20.00    -0.285 OA
HETATM   10 CL10 UNL     1     -35.679   5.414   4.576  1.00 20.00    -0.080 Cl
HETATM   11 CL11 UNL     1     -33.017   4.365   0.403  1.00 20.00    -0.080 Cl
ENDROOT
TORSDOF 0
ENDMDL
MODEL 3
REMARK VINA RESULT:       0.5      2.169      3.547
REMARK  0 active torsions:
REMARK  status: ('A' for Active; 'I' for Inactive)
ROOT
HETATM    1  C1  UNL     1     -33.028   5.168   1.981  1.00 20.00     0.008 C 
HETATM    2  C2  UNL     1     -32.694   6.340   1.212  1.00 20.00     0.028 C 
HETATM    3  C3  UNL     1     -34.049   6.265   3.956  1.00 20.00     0.034 C 
HETATM    4  C4  UNL     1     -33.621   5.114   3.184  1.00 20.00    -0.060 C 
HETATM    5  C5  UNL     1     -32.386   7.558   1.672  1.00 20.00     0.085 C 
HETATM    6  C6  UNL     1     -33.526   7.498   3.957  1.00 20.00     0.086 C 
HETATM    7  C7  UNL     1     -32.417   7.987   3.095  1.00 20.00     0.215 C 
HETATM    8  C8  UNL     1     -33.926   3.785   3.824  1.00 20.00     0.048 C 
HETATM    9  O9  UNL     1     -31.602   8.803   3.523  1.00 20.00    -0.285 OA
HETATM   10 CL10 UNL     1     -31.874   8.784   0.553  1.00 20.00    -0.080 Cl
HETATM   11 CL11 UNL     1     -34.147   8.677   5.073  1.00 20.00    -0.080 Cl
ENDROOT
TORSDOF 0
ENDMDL
