MODEL 1
REMARK VINA RESULT:      -1.1      0.000      0.000
REMARK  0 active torsions:
REMARK  status: ('A' for Active; 'I' for Inactive)
ROOT
HETATM    1  C1  UNL     1     -33.152   7.827   3.028  1.00 20.00     0.090 A 
HETATM    2  C2  UNL     1     -32.254   6.300   1.396  1.00 20.00     0.167 A 
HETATM    3  C3  UNL     1     -33.744   6.583   2.980  1.00 20.00     0.109 A 
HETATM    4  N4  UNL     1     -33.231   5.705   2.045  1.00 20.00    -0.246 NA
HETATM    5  S5  UNL     1     -31.899   7.914   1.860  1.00 20.00    -0.092 SA
HETATM    6 BR6  UNL     1     -35.177   6.068   4.108  1.00 20.00    -0.029 Br
ENDROOT
TORSDOF 0
ENDMDL
MODEL 2
REMARK VINA RESULT:      -0.6      1.340      1.663
REMARK  0 active torsions:
REMARK  status: ('A' for Active; 'I' for Inactive)
ROOT
HETATM    1  C1  UNL     1     -33.214   5.859   2.008  1.00 20.00     0.090 A 
HETATM    2  C2  UNL     1     -32.196   8.018   2.333  1.00 20.00     0.167 A 
HETATM    3  C3  UNL     1     -33.749   6.629   3.019  1.00 20.00     0.109 A 
HETATM    4  N4  UNL     1     -33.167   7.867   3.208  1.00 20.00    -0.246 NA
HETATM    5  S5  UNL     1     -31.930   6.711   1.254  1.00 20.00    -0.092 SA
HETATM    6 BR6  UNL     1     -35.192   6.060   4.107  1.00 20.00    -0.029 Br
ENDROOT
TORSDOF 0
ENDMDL
MODEL 3
REMARK VINA RESULT:      -0.4      2.680      2.822
REMARK  0 active torsions:
REMARK  status: ('A' for Active; 'I' for Inactive)
ROOT
HETATM    1  C1  UNL     1     -33.934   7.614   3.560  1.00 20.00     0.090 A 
HETATM    2  C2  UNL     1     -34.069   5.257   3.080  1.00 20.00     0.167 A 
HETATM    3  C3  UNL     1     -33.067   7.146   2.594  1.00 20.00     0.109 A 
HETATM    4  N4  UNL     1     -33.142   5.795   2.318  1.00 20.00    -0.246 NA
HETATM    5  S5  UNL     1     -34.888   6.317   4.151  1.00 20.00    -0.092 SA
HETATM    6 BR6  UNL     1     -31.832   8.256   1.681  1.00 20.00    -0.029 Br
ENDROOT
TORSDOF 0
ENDMDL
MODEL 4
REMARK VINA RESULT:      -0.4      2.880      3.297
REMARK  0 active torsions:
REMARK  status: ('A' for Active; 'I' for Inactive)
ROOT
HETATM    1  C1  UNL     1     -33.357   5.739   2.580  1.00 20.00     0.090 A 
HETATM    2  C2  UNL     1     -34.662   6.841   4.280  1.00 20.00     0.167 A 
HETATM    3  C3  UNL     1     -33.150   7.096   2.711  1.00 20.00     0.109 A 
HETATM    4  N4  UNL     1     -33.897   7.730   3.684  1.00 20.00    -0.246 NA
HETATM    5  S5  UNL     1     -34.532   5.225   3.719  1.00 20.00    -0.092 SA
HETATM    6 BR6  UNL     1     -31.927   8.069   1.640  1.00 20.00    -0.029 Br
ENDROOT
TORSDOF 0
ENDMDL
MODEL 5
REMARK VINA RESULT:      -0.3      2.819      3.265
REMARK  0 active torsions:
REMARK  status: ('A' for Active; 'I' for Inactive)
ROOT
HETATM    1  C1  UNL     1     -33.293   5.391   3.331  1.00 20.00     0.090 A 
HETATM    2  C2  UNL     1     -35.453   6.075   4.151  1.00 20.00     0.167 A 
HETATM    3  C3  UNL     1     -33.972   4.458   4.086  1.00 20.00     0.109 A 
HETATM    4  N4  UNL     1     -35.210   4.848   4.558  1.00 20.00    -0.246 NA
HETATM    5  S5  UNL     1     -34.235   6.818   3.198  1.00 20.00    -0.092 SA
HETATM    6 BR6  UNL     1     -33.282   2.737   4.477  1.00 20.00    -0.029 Br
ENDROOT
TORSDOF 0
ENDMDL
MODEL 6
REMARK VINA RESULT:      -0.2      1.784      1.937
REMARK  0 active torsions:
REMARK  status: ('A' for Active; 'I' for Inactive)
ROOT
HETATM    1  C1  UNL     1     -33.356   6.005   2.544  1.00 20.00     0.090 A 
HETATM    2  C2  UNL     1     -31.796   7.404   1.356  1.00 20.00     0.167 A 
HETATM    3  C3  UNL     1     -33.168   7.269   3.061  1.00 20.00     0.109 A 
HETATM    4  N4  UNL     1     -32.274   8.074   2.382  1.00 20.00    -0.246 NA
HETATM    5  S5  UNL     1     -32.379   5.804   1.149  1.00 20.00    -0.092 SA
HETATM    6 BR6  UNL     1     -34.061   7.903   4.608  1.00 20.00    -0.029 Br
ENDROOT
TORSDOF 0
ENDMDL
MODEL 7
REMARK VINA RESULT:      -0.1      2.334      2.697
REMARK  0 active torsions:
REMARK  status: ('A' for Active; 'I' for Inactive)
ROOT
HETATM    1  C1  UNL     1     -32.871   7.568   2.903  1.00 20.00     0.090 A 
HETATM    2  C2  UNL     1     -34.710   6.498   4.034  1.00 20.00     0.167 A 
HETATM    3  C3  UNL     1     -33.197   6.304   2.457  1.00 20.00     0.109 A 
HETATM    4  N4  UNL     1     -34.251   5.689   3.104  1.00 20.00    -0.246 NA
HETATM    5  S5  UNL     1     -33.921   8.014   4.183  1.00 20.00    -0.092 SA
HETATM    6 BR6  UNL     1     -32.280   5.430   1.048  1.00 20.00    -0.029 Br
ENDROOT
TORSDOF 0
ENDMDL
MODEL 8
REMARK VINA RESULT:      -0.1      2.772      3.182
REMARK  0 active torsions:
REMARK  status: ('A' for Active; 'I' for Inactive)
ROOT
HETATM    1  C1  UNL     1     -34.205   5.438   3.054  1.00 20.00     0.090 A 
HETATM    2  C2  UNL     1     -34.091   7.665   3.967  1.00 20.00     0.167 A 
HETATM    3  C3  UNL     1     -33.228   6.255   2.525  1.00 20.00     0.109 A 
HETATM    4  N4  UNL     1     -33.160   7.532   3.046  1.00 20.00    -0.246 NA
HETATM    5  S5  UNL     1     -35.080   6.293   4.255  1.00 20.00    -0.092 SA
HETATM    6 BR6  UNL     1     -32.032   5.698   1.165  1.00 20.00    -0.029 Br
ENDROOT
TORSDOF 0
ENDMDL
MODEL 9
REMARK VINA RESULT:      -0.0      2.417      2.751
REMARK  0 active torsions:
REMARK  status: ('A' for Active; 'I' for Inactive)
ROOT
HETATM    1  C1  UNL     1     -33.696   6.050   2.893  1.00 20.00     0.090 A 
HETATM    2  C2  UNL     1     -32.678   8.231   2.792  1.00 20.00     0.167 A 
HETATM    3  C3  UNL     1     -32.744   6.223   1.911  1.00 20.00     0.109 A 
HETATM    4  N4  UNL     1     -32.159   7.473   1.850  1.00 20.00    -0.246 NA
HETATM    5  S5  UNL     1     -33.873   7.504   3.785  1.00 20.00    -0.092 SA
HETATM    6 BR6  UNL     1     -32.242   4.857   0.697  1.00 20.00    -0.029 Br
ENDROOT
TORSDOF 0
ENDMDL
