MODEL 1
REMARK VINA RESULT:      -1.0      0.000      0.000
REMARK  0 active torsions:
REMARK  status: ('A' for Active; 'I' for Inactive)
ROOT
HETATM    1  C1  UNL     1     -32.698   7.263   2.133  1.00 20.00     0.056 C 
HETATM    2  C2  UNL     1     -34.249   6.484   3.500  1.00 20.00     0.264 C 
HETATM    3  C3  UNL     1     -31.772   8.135   1.716  1.00 20.00     0.047 C 
HETATM    4  C4  UNL     1     -33.655   5.277   2.840  1.00 20.00     0.127 C 
HETATM    5  C5  UNL     1     -32.877   5.849   1.665  1.00 20.00     0.010 C 
HETATM    6  C6  UNL     1     -31.570   5.076   1.457  1.00 20.00     0.022 C 
HETATM    7  C7  UNL     1     -33.717   5.815   0.380  1.00 20.00     0.022 C 
HETATM    8  O8  UNL     1     -35.153   6.449   4.322  1.00 20.00    -0.265 OA
HETATM    9  O9  UNL     1     -33.613   7.631   3.118  1.00 20.00    -0.283 OA
ENDROOT
TORSDOF 0
ENDMDL
MODEL 2
REMARK VINA RESULT:      -0.6      1.958      3.224
REMARK  0 active torsions:
REMARK  status: ('A' for Active; 'I' for Inactive)
ROOT
HETATM    1  C1  UNL     1     -33.601   5.881   2.749  1.00 20.00     0.056 C 
HETATM    2  C2  UNL     1     -33.916   4.206   4.155  1.00 20.00     0.264 C 
HETATM    3  C3  UNL     1     -33.159   6.459   1.626  1.00 20.00     0.047 C 
HETATM    4  C4  UNL     1     -35.063   5.143   4.387  1.00 20.00     0.127 C 
HETATM    5  C5  UNL     1     -34.631   6.427   3.695  1.00 20.00     0.010 C 
HETATM    6  C6  UNL     1     -35.827   7.103   3.016  1.00 20.00     0.022 C 
HETATM    7  C7  UNL     1     -33.978   7.396   4.692  1.00 20.00     0.022 C 
HETATM    8  O8  UNL     1     -33.745   3.159   4.763  1.00 20.00    -0.265 OA
HETATM    9  O9  UNL     1     -33.115   4.633   3.134  1.00 20.00    -0.283 OA
ENDROOT
TORSDOF 0
ENDMDL
MODEL 3
REMARK VINA RESULT:      -0.3      1.751      3.074
REMARK  0 active torsions:
REMARK  status: ('A' for Active; 'I' for Inactive)
ROOT
HETATM    1  C1  UNL     1     -33.336   7.302   2.917  1.00 20.00     0.056 C 
HETATM    2  C2  UNL     1     -32.669   5.794   1.446  1.00 20.00     0.264 C 
HETATM    3  C3  UNL     1     -33.997   7.738   3.996  1.00 20.00     0.047 C 
HETATM    4  C4  UNL     1     -31.578   6.821   1.488  1.00 20.00     0.127 C 
HETATM    5  C5  UNL     1     -32.215   8.001   2.205  1.00 20.00     0.010 C 
HETATM    6  C6  UNL     1     -31.200   8.683   3.129  1.00 20.00     0.022 C 
HETATM    7  C7  UNL     1     -32.775   9.019   1.200  1.00 20.00     0.022 C 
HETATM    8  O8  UNL     1     -32.657   4.803   0.731  1.00 20.00    -0.265 OA
HETATM    9  O9  UNL     1     -33.654   6.068   2.352  1.00 20.00    -0.283 OA
ENDROOT
TORSDOF 0
ENDMDL
MODEL 4
REMARK VINA RESULT:      -0.3      1.172      2.505
REMARK  0 active torsions:
REMARK  status: ('A' for Active; 'I' for Inactive)
ROOT
HETATM    1  C1  UNL     1     -32.651   6.384   1.933  1.00 20.00     0.056 C 
HETATM    2  C2  UNL     1     -34.228   6.750   3.437  1.00 20.00     0.264 C 
HETATM    3  C3  UNL     1     -32.002   5.679   0.999  1.00 20.00     0.047 C 
HETATM    4  C4  UNL     1     -33.843   8.105   2.923  1.00 20.00     0.127 C 
HETATM    5  C5  UNL     1     -32.535   7.859   2.188  1.00 20.00     0.010 C 
HETATM    6  C6  UNL     1     -32.457   8.721   0.922  1.00 20.00     0.022 C 
HETATM    7  C7  UNL     1     -31.330   8.149   3.095  1.00 20.00     0.022 C 
HETATM    8  O8  UNL     1     -35.074   6.552   4.297  1.00 20.00    -0.265 OA
HETATM    9  O9  UNL     1     -33.561   5.755   2.781  1.00 20.00    -0.283 OA
ENDROOT
TORSDOF 0
ENDMDL
MODEL 5
REMARK VINA RESULT:       0.0      1.721      3.242
REMARK  0 active torsions:
REMARK  status: ('A' for Active; 'I' for Inactive)
ROOT
HETATM    1  C1  UNL     1     -33.386   7.558   3.987  1.00 20.00     0.056 C 
HETATM    2  C2  UNL     1     -32.386   7.448   2.020  1.00 20.00     0.264 C 
HETATM    3  C3  UNL     1     -33.707   8.121   5.157  1.00 20.00     0.047 C 
HETATM    4  C4  UNL     1     -33.629   6.621   1.883  1.00 20.00     0.127 C 
HETATM    5  C5  UNL     1     -34.088   6.413   3.317  1.00 20.00     0.010 C 
HETATM    6  C6  UNL     1     -35.618   6.463   3.407  1.00 20.00     0.022 C 
HETATM    7  C7  UNL     1     -33.574   5.075   3.871  1.00 20.00     0.022 C 
HETATM    8  O8  UNL     1     -31.566   7.616   1.129  1.00 20.00    -0.265 OA
HETATM    9  O9  UNL     1     -32.310   8.045   3.246  1.00 20.00    -0.283 OA
ENDROOT
TORSDOF 0
ENDMDL
MODEL 6
REMARK VINA RESULT:       0.6      1.446      2.183
REMARK  0 active torsions:
REMARK  status: ('A' for Active; 'I' for Inactive)
ROOT
HETATM    1  C1  UNL     1     -34.028   6.626   3.349  1.00 20.00     0.056 C 
HETATM    2  C2  UNL     1     -33.736   4.465   3.701  1.00 20.00     0.264 C 
HETATM    3  C3  UNL     1     -34.393   7.872   3.674  1.00 20.00     0.047 C 
HETATM    4  C4  UNL     1     -32.696   4.850   2.693  1.00 20.00     0.127 C 
HETATM    5  C5  UNL     1     -33.149   6.216   2.204  1.00 20.00     0.010 C 
HETATM    6  C6  UNL     1     -31.944   7.132   1.965  1.00 20.00     0.022 C 
HETATM    7  C7  UNL     1     -33.977   6.092   0.915  1.00 20.00     0.022 C 
HETATM    8  O8  UNL     1     -33.889   3.334   4.139  1.00 20.00    -0.265 OA
HETATM    9  O9  UNL     1     -34.455   5.547   4.122  1.00 20.00    -0.283 OA
ENDROOT
TORSDOF 0
ENDMDL
MODEL 7
REMARK VINA RESULT:       0.6      1.842      3.618
REMARK  0 active torsions:
REMARK  status: ('A' for Active; 'I' for Inactive)
ROOT
HETATM    1  C1  UNL     1     -34.000   5.262   3.648  1.00 20.00     0.056 C 
HETATM    2  C2  UNL     1     -32.869   5.855   1.845  1.00 20.00     0.264 C 
HETATM    3  C3  UNL     1     -34.354   4.445   4.646  1.00 20.00     0.047 C 
HETATM    4  C4  UNL     1     -33.197   7.136   2.550  1.00 20.00     0.127 C 
HETATM    5  C5  UNL     1     -34.265   6.736   3.556  1.00 20.00     0.010 C 
HETATM    6  C6  UNL     1     -34.081   7.501   4.871  1.00 20.00     0.022 C 
HETATM    7  C7  UNL     1     -35.672   6.990   2.994  1.00 20.00     0.022 C 
HETATM    8  O8  UNL     1     -32.251   5.783   0.792  1.00 20.00    -0.265 OA
HETATM    9  O9  UNL     1     -33.292   4.767   2.554  1.00 20.00    -0.283 OA
ENDROOT
TORSDOF 0
ENDMDL
MODEL 8
REMARK VINA RESULT:       0.9      1.137      2.828
REMARK  0 active torsions:
REMARK  status: ('A' for Active; 'I' for Inactive)
ROOT
HETATM    1  C1  UNL     1     -33.621   6.542   2.993  1.00 20.00     0.056 C 
HETATM    2  C2  UNL     1     -32.077   8.116   2.854  1.00 20.00     0.264 C 
HETATM    3  C3  UNL     1     -34.722   5.959   3.481  1.00 20.00     0.047 C 
HETATM    4  C4  UNL     1     -32.164   7.520   1.482  1.00 20.00     0.127 C 
HETATM    5  C5  UNL     1     -32.940   6.229   1.693  1.00 20.00     0.010 C 
HETATM    6  C6  UNL     1     -33.891   5.973   0.519  1.00 20.00     0.022 C 
HETATM    7  C7  UNL     1     -31.986   5.036   1.865  1.00 20.00     0.022 C 
HETATM    8  O8  UNL     1     -31.315   9.019   3.168  1.00 20.00    -0.265 OA
HETATM    9  O9  UNL     1     -32.999   7.569   3.701  1.00 20.00    -0.283 OA
ENDROOT
TORSDOF 0
ENDMDL
MODEL 9
REMARK VINA RESULT:       1.0      1.734      2.896
REMARK  0 active torsions:
REMARK  status: ('A' for Active; 'I' for Inactive)
ROOT
HETATM    1  C1  UNL     1     -33.262   6.248   2.079  1.00 20.00     0.056 C 
HETATM    2  C2  UNL     1     -32.392   7.982   3.135  1.00 20.00     0.264 C 
HETATM    3  C3  UNL     1     -33.307   5.293   1.143  1.00 20.00     0.047 C 
HETATM    4  C4  UNL     1     -33.194   7.248   4.167  1.00 20.00     0.127 C 
HETATM    5  C5  UNL     1     -34.058   6.300   3.350  1.00 20.00     0.010 C 
HETATM    6  C6  UNL     1     -34.207   4.952   4.065  1.00 20.00     0.022 C 
HETATM    7  C7  UNL     1     -35.444   6.909   3.085  1.00 20.00     0.022 C 
HETATM    8  O8  UNL     1     -31.767   9.011   3.350  1.00 20.00    -0.265 OA
HETATM    9  O9  UNL     1     -32.392   7.328   1.936  1.00 20.00    -0.283 OA
ENDROOT
TORSDOF 0
ENDMDL
