MODEL 1
REMARK VINA RESULT:      -1.4      0.000      0.000
REMARK  0 active torsions:
REMARK  status: ('A' for Active; 'I' for Inactive)
ROOT
HETATM    1  C1  UNL     1     -32.330   8.544   1.362  1.00 20.00     0.086 C 
HETATM    2  C2  UNL     1     -32.345   7.405   2.276  1.00 20.00     0.235 C 
HETATM    3  N3  UNL     1     -32.315   9.450   0.637  1.00 20.00    -0.195 NA
HETATM    4 BR4  UNL     1     -32.506   5.737   1.283  1.00 20.00    -0.063 Br
HETATM    5 BR5  UNL     1     -33.770   7.604   3.589  1.00 20.00    -0.063 Br
ENDROOT
TORSDOF 0
ENDMDL
MODEL 2
REMARK VINA RESULT:      -1.4      3.783      4.063
REMARK  0 active torsions:
REMARK  status: ('A' for Active; 'I' for Inactive)
ROOT
HETATM    1  C1  UNL     1     -33.985   4.565   3.787  1.00 20.00     0.086 C 
HETATM    2  C2  UNL     1     -34.117   5.780   2.987  1.00 20.00     0.235 C 
HETATM    3  N3  UNL     1     -33.883   3.599   4.421  1.00 20.00    -0.195 NA
HETATM    4 BR4  UNL     1     -32.656   5.915   1.706  1.00 20.00    -0.063 Br
HETATM    5 BR5  UNL     1     -34.216   7.347   4.139  1.00 20.00    -0.063 Br
ENDROOT
TORSDOF 0
ENDMDL
MODEL 3
REMARK VINA RESULT:      -1.1      2.483      3.004
REMARK  0 active torsions:
REMARK  status: ('A' for Active; 'I' for Inactive)
ROOT
HETATM    1  C1  UNL     1     -33.309   7.490   3.187  1.00 20.00     0.086 C 
HETATM    2  C2  UNL     1     -32.267   7.397   2.169  1.00 20.00     0.235 C 
HETATM    3  N3  UNL     1     -34.135   7.563   3.999  1.00 20.00    -0.195 NA
HETATM    4 BR4  UNL     1     -32.327   8.945   0.988  1.00 20.00    -0.063 Br
HETATM    5 BR5  UNL     1     -32.429   5.726   1.179  1.00 20.00    -0.063 Br
ENDROOT
TORSDOF 0
ENDMDL
MODEL 4
REMARK VINA RESULT:      -0.9      3.048      3.450
REMARK  0 active torsions:
REMARK  status: ('A' for Active; 'I' for Inactive)
ROOT
HETATM    1  C1  UNL     1     -34.128   6.860   3.765  1.00 20.00     0.086 C 
HETATM    2  C2  UNL     1     -34.067   5.650   2.950  1.00 20.00     0.235 C 
HETATM    3  N3  UNL     1     -34.180   7.823   4.411  1.00 20.00    -0.195 NA
HETATM    4 BR4  UNL     1     -33.853   4.078   4.080  1.00 20.00    -0.063 Br
HETATM    5 BR5  UNL     1     -32.643   5.790   1.628  1.00 20.00    -0.063 Br
ENDROOT
TORSDOF 0
ENDMDL
MODEL 5
REMARK VINA RESULT:      -0.9      2.788      3.290
REMARK  0 active torsions:
REMARK  status: ('A' for Active; 'I' for Inactive)
ROOT
HETATM    1  C1  UNL     1     -33.044   5.808   2.100  1.00 20.00     0.086 C 
HETATM    2  C2  UNL     1     -34.127   5.799   3.079  1.00 20.00     0.235 C 
HETATM    3  N3  UNL     1     -32.185   5.815   1.320  1.00 20.00    -0.195 NA
HETATM    4 BR4  UNL     1     -34.111   7.440   4.129  1.00 20.00    -0.063 Br
HETATM    5 BR5  UNL     1     -34.012   4.217   4.209  1.00 20.00    -0.063 Br
ENDROOT
TORSDOF 0
ENDMDL
MODEL 6
REMARK VINA RESULT:      -0.8      2.475      2.991
REMARK  0 active torsions:
REMARK  status: ('A' for Active; 'I' for Inactive)
ROOT
HETATM    1  C1  UNL     1     -32.434   6.319   1.668  1.00 20.00     0.086 C 
HETATM    2  C2  UNL     1     -32.343   7.614   2.336  1.00 20.00     0.235 C 
HETATM    3  N3  UNL     1     -32.502   5.289   1.139  1.00 20.00    -0.195 NA
HETATM    4 BR4  UNL     1     -33.749   7.793   3.672  1.00 20.00    -0.063 Br
HETATM    5 BR5  UNL     1     -32.399   9.059   1.030  1.00 20.00    -0.063 Br
ENDROOT
TORSDOF 0
ENDMDL
MODEL 7
REMARK VINA RESULT:      -0.8      3.994      4.709
REMARK  0 active torsions:
REMARK  status: ('A' for Active; 'I' for Inactive)
ROOT
HETATM    1  C1  UNL     1     -33.691   4.273   3.980  1.00 20.00     0.086 C 
HETATM    2  C2  UNL     1     -33.587   5.657   3.528  1.00 20.00     0.235 C 
HETATM    3  N3  UNL     1     -33.771   3.173   4.343  1.00 20.00    -0.195 NA
HETATM    4 BR4  UNL     1     -35.277   6.589   3.790  1.00 20.00    -0.063 Br
HETATM    5 BR5  UNL     1     -33.005   5.724   1.670  1.00 20.00    -0.063 Br
ENDROOT
TORSDOF 0
ENDMDL
MODEL 8
REMARK VINA RESULT:      -0.8      2.747      2.912
REMARK  0 active torsions:
REMARK  status: ('A' for Active; 'I' for Inactive)
ROOT
HETATM    1  C1  UNL     1     -33.868   6.542   2.921  1.00 20.00     0.086 C 
HETATM    2  C2  UNL     1     -33.096   6.685   1.690  1.00 20.00     0.235 C 
HETATM    3  N3  UNL     1     -34.485   6.428   3.897  1.00 20.00    -0.195 NA
HETATM    4 BR4  UNL     1     -32.175   5.023   1.265  1.00 20.00    -0.063 Br
HETATM    5 BR5  UNL     1     -31.856   8.181   1.836  1.00 20.00    -0.063 Br
ENDROOT
TORSDOF 0
ENDMDL
MODEL 9
REMARK VINA RESULT:      -0.5      2.669      2.830
REMARK  0 active torsions:
REMARK  status: ('A' for Active; 'I' for Inactive)
ROOT
HETATM    1  C1  UNL     1     -32.677   5.778   1.520  1.00 20.00     0.086 C 
HETATM    2  C2  UNL     1     -33.241   7.056   1.946  1.00 20.00     0.235 C 
HETATM    3  N3  UNL     1     -32.232   4.763   1.178  1.00 20.00    -0.195 NA
HETATM    4 BR4  UNL     1     -31.848   8.413   2.056  1.00 20.00    -0.063 Br
HETATM    5 BR5  UNL     1     -34.188   6.853   3.636  1.00 20.00    -0.063 Br
ENDROOT
TORSDOF 0
ENDMDL
