MODEL 1
REMARK VINA RESULT:       2.0      0.000      0.000
REMARK  1 active torsions:
REMARK  status: ('A' for Active; 'I' for Inactive)
REMARK    1  A    between atoms: C8_8  and  O9_9 
ROOT
HETATM    1  C1  UNL     1     -33.138   5.677   0.769  1.00 20.00     0.010 C 
HETATM    2  C2  UNL     1     -32.761   5.196   3.059  1.00 20.00     0.012 C 
HETATM    3  C3  UNL     1     -31.609   7.087   1.908  1.00 20.00     0.012 C 
HETATM    4  C4  UNL     1     -32.000   5.603   1.785  1.00 20.00    -0.013 C 
HETATM    5  C5  UNL     1     -33.979   6.669   1.554  1.00 20.00    -0.001 C 
HETATM    6  C6  UNL     1     -33.965   6.158   3.032  1.00 20.00     0.019 C 
HETATM    7  C7  UNL     1     -32.983   7.768   2.051  1.00 20.00     0.019 C 
HETATM    8  C8  UNL     1     -33.675   7.629   3.438  1.00 20.00     0.127 C 
ENDROOT
BRANCH   8   9
HETATM    9  O9  UNL     1     -32.854   7.832   4.600  1.00 20.00    -0.395 OA
HETATM   10  H21 UNL     1     -33.308   7.383   5.325  1.00 20.00     0.210 HD
ENDBRANCH   8   9
TORSDOF 1
ENDMDL
MODEL 2
REMARK VINA RESULT:       2.0      1.386      2.562
REMARK  1 active torsions:
REMARK  status: ('A' for Active; 'I' for Inactive)
REMARK    1  A    between atoms: C8_8  and  O9_9 
ROOT
HETATM    1  C1  UNL     1     -35.376   6.264   3.839  1.00 20.00     0.010 C 
HETATM    2  C2  UNL     1     -33.447   7.392   4.631  1.00 20.00     0.012 C 
HETATM    3  C3  UNL     1     -33.283   5.366   3.183  1.00 20.00     0.012 C 
HETATM    4  C4  UNL     1     -33.991   5.969   4.409  1.00 20.00    -0.013 C 
HETATM    5  C5  UNL     1     -34.887   7.126   2.688  1.00 20.00    -0.001 C 
HETATM    6  C6  UNL     1     -33.812   8.082   3.303  1.00 20.00     0.019 C 
HETATM    7  C7  UNL     1     -33.672   6.357   2.070  1.00 20.00     0.019 C 
HETATM    8  C8  UNL     1     -32.928   7.722   2.078  1.00 20.00     0.127 C 
ENDROOT
BRANCH   8   9
HETATM    9  O9  UNL     1     -31.506   7.690   2.291  1.00 20.00    -0.395 OA
HETATM   10  H21 UNL     1     -31.114   8.118   1.518  1.00 20.00     0.210 HD
ENDBRANCH   8   9
TORSDOF 1
ENDMDL
MODEL 3
REMARK VINA RESULT:       2.0      1.309      2.096
REMARK  1 active torsions:
REMARK  status: ('A' for Active; 'I' for Inactive)
REMARK    1  A    between atoms: C8_8  and  O9_9 
ROOT
HETATM    1  C1  UNL     1     -32.489   8.344   1.258  1.00 20.00     0.010 C 
HETATM    2  C2  UNL     1     -31.601   6.223   1.832  1.00 20.00     0.012 C 
HETATM    3  C3  UNL     1     -32.495   7.784   3.562  1.00 20.00     0.012 C 
HETATM    4  C4  UNL     1     -31.603   7.685   2.312  1.00 20.00    -0.013 C 
HETATM    5  C5  UNL     1     -33.683   7.428   1.469  1.00 20.00    -0.001 C 
HETATM    6  C6  UNL     1     -33.096   5.980   1.546  1.00 20.00     0.019 C 
HETATM    7  C7  UNL     1     -33.857   7.310   3.019  1.00 20.00     0.019 C 
HETATM    8  C8  UNL     1     -34.007   5.780   2.788  1.00 20.00     0.127 C 
ENDROOT
BRANCH   8   9
HETATM    9  O9  UNL     1     -33.513   4.912   3.822  1.00 20.00    -0.395 OA
HETATM   10  H21 UNL     1     -33.723   4.013   3.535  1.00 20.00     0.210 HD
ENDBRANCH   8   9
TORSDOF 1
ENDMDL
MODEL 4
REMARK VINA RESULT:       2.0      1.423      2.766
REMARK  1 active torsions:
REMARK  status: ('A' for Active; 'I' for Inactive)
REMARK    1  A    between atoms: C8_8  and  O9_9 
ROOT
HETATM    1  C1  UNL     1     -34.457   5.445   4.042  1.00 20.00     0.010 C 
HETATM    2  C2  UNL     1     -34.942   6.666   2.069  1.00 20.00     0.012 C 
HETATM    3  C3  UNL     1     -34.098   7.787   4.133  1.00 20.00     0.012 C 
HETATM    4  C4  UNL     1     -35.105   6.754   3.597  1.00 20.00    -0.013 C 
HETATM    5  C5  UNL     1     -33.123   5.696   3.361  1.00 20.00    -0.001 C 
HETATM    6  C6  UNL     1     -33.472   6.227   1.931  1.00 20.00     0.019 C 
HETATM    7  C7  UNL     1     -32.753   7.181   3.689  1.00 20.00     0.019 C 
HETATM    8  C8  UNL     1     -32.402   7.325   2.181  1.00 20.00     0.127 C 
ENDROOT
BRANCH   8   9
HETATM    9  O9  UNL     1     -32.635   8.608   1.576  1.00 20.00    -0.395 OA
HETATM   10  H21 UNL     1     -32.497   8.481   0.627  1.00 20.00     0.210 HD
ENDBRANCH   8   9
TORSDOF 1
ENDMDL
MODEL 5
REMARK VINA RESULT:       2.2      1.906      3.078
REMARK  1 active torsions:
REMARK  status: ('A' for Active; 'I' for Inactive)
REMARK    1  A    between atoms: C8_8  and  O9_9 
ROOT
HETATM    1  C1  UNL     1     -34.273   7.312   4.690  1.00 20.00     0.010 C 
HETATM    2  C2  UNL     1     -34.257   5.113   3.804  1.00 20.00     0.012 C 
HETATM    3  C3  UNL     1     -35.305   7.016   2.576  1.00 20.00     0.012 C 
HETATM    4  C4  UNL     1     -35.183   6.334   3.950  1.00 20.00    -0.013 C 
HETATM    5  C5  UNL     1     -33.148   7.274   3.670  1.00 20.00    -0.001 C 
HETATM    6  C6  UNL     1     -32.948   5.763   3.317  1.00 20.00     0.019 C 
HETATM    7  C7  UNL     1     -33.841   7.384   2.271  1.00 20.00     0.019 C 
HETATM    8  C8  UNL     1     -32.918   6.213   1.830  1.00 20.00     0.127 C 
ENDROOT
BRANCH   8   9
HETATM    9  O9  UNL     1     -33.450   5.291   0.863  1.00 20.00    -0.395 OA
HETATM   10  H21 UNL     1     -34.274   4.957   1.242  1.00 20.00     0.210 HD
ENDBRANCH   8   9
TORSDOF 1
ENDMDL
MODEL 6
REMARK VINA RESULT:       2.6      1.623      2.634
REMARK  1 active torsions:
REMARK  status: ('A' for Active; 'I' for Inactive)
REMARK    1  A    between atoms: C8_8  and  O9_9 
ROOT
HETATM    1  C1  UNL     1     -32.748   5.433   2.674  1.00 20.00     0.010 C 
HETATM    2  C2  UNL     1     -33.867   6.617   0.951  1.00 20.00     0.012 C 
HETATM    3  C3  UNL     1     -33.436   7.644   3.184  1.00 20.00     0.012 C 
HETATM    4  C4  UNL     1     -33.933   6.375   2.469  1.00 20.00    -0.013 C 
HETATM    5  C5  UNL     1     -31.713   6.354   2.051  1.00 20.00    -0.001 C 
HETATM    6  C6  UNL     1     -32.367   6.900   0.739  1.00 20.00     0.019 C 
HETATM    7  C7  UNL     1     -32.000   7.775   2.641  1.00 20.00     0.019 C 
HETATM    8  C8  UNL     1     -31.865   8.301   1.184  1.00 20.00     0.127 C 
ENDROOT
BRANCH   8   9
HETATM    9  O9  UNL     1     -32.679   9.428   0.818  1.00 20.00    -0.395 OA
HETATM   10  H21 UNL     1     -32.062  10.129   0.568  1.00 20.00     0.210 HD
ENDBRANCH   8   9
TORSDOF 1
ENDMDL
MODEL 7
REMARK VINA RESULT:       2.6      1.585      2.760
REMARK  1 active torsions:
REMARK  status: ('A' for Active; 'I' for Inactive)
REMARK    1  A    between atoms: C8_8  and  O9_9 
ROOT
HETATM    1  C1  UNL     1     -31.930   7.919   2.943  1.00 20.00     0.010 C 
HETATM    2  C2  UNL     1     -34.174   8.611   2.622  1.00 20.00     0.012 C 
HETATM    3  C3  UNL     1     -33.370   6.373   1.867  1.00 20.00     0.012 C 
HETATM    4  C4  UNL     1     -33.037   7.875   1.892  1.00 20.00    -0.013 C 
HETATM    5  C5  UNL     1     -32.739   7.256   4.045  1.00 20.00    -0.001 C 
HETATM    6  C6  UNL     1     -34.142   7.947   4.012  1.00 20.00     0.019 C 
HETATM    7  C7  UNL     1     -33.457   6.040   3.369  1.00 20.00     0.019 C 
HETATM    8  C8  UNL     1     -34.743   6.517   4.102  1.00 20.00     0.127 C 
ENDROOT
BRANCH   8   9
HETATM    9  O9  UNL     1     -35.996   6.297   3.432  1.00 20.00    -0.395 OA
HETATM   10  H21 UNL     1     -36.456   7.147   3.446  1.00 20.00     0.210 HD
ENDBRANCH   8   9
TORSDOF 1
ENDMDL
MODEL 8
REMARK VINA RESULT:       2.8      1.446      2.225
REMARK  1 active torsions:
REMARK  status: ('A' for Active; 'I' for Inactive)
REMARK    1  A    between atoms: C8_8  and  O9_9 
ROOT
HETATM    1  C1  UNL     1     -32.058   7.099   1.891  1.00 20.00     0.010 C 
HETATM    2  C2  UNL     1     -34.292   6.470   1.408  1.00 20.00     0.012 C 
HETATM    3  C3  UNL     1     -32.887   5.189   3.025  1.00 20.00     0.012 C 
HETATM    4  C4  UNL     1     -32.901   5.852   1.636  1.00 20.00    -0.013 C 
HETATM    5  C5  UNL     1     -32.903   7.622   3.040  1.00 20.00    -0.001 C 
HETATM    6  C6  UNL     1     -34.389   7.473   2.574  1.00 20.00     0.019 C 
HETATM    7  C7  UNL     1     -33.191   6.383   3.951  1.00 20.00     0.019 C 
HETATM    8  C8  UNL     1     -34.669   6.868   3.977  1.00 20.00     0.127 C 
ENDROOT
BRANCH   8   9
HETATM    9  O9  UNL     1     -35.687   5.857   4.056  1.00 20.00    -0.395 OA
HETATM   10  H21 UNL     1     -36.484   6.308   4.366  1.00 20.00     0.210 HD
ENDBRANCH   8   9
TORSDOF 1
ENDMDL
MODEL 9
REMARK VINA RESULT:       2.8      1.832      2.600
REMARK  1 active torsions:
REMARK  status: ('A' for Active; 'I' for Inactive)
REMARK    1  A    between atoms: C8_8  and  O9_9 
ROOT
HETATM    1  C1  UNL     1     -33.457   6.087   2.889  1.00 20.00     0.010 C 
HETATM    2  C2  UNL     1     -31.460   6.060   1.613  1.00 20.00     0.012 C 
HETATM    3  C3  UNL     1     -33.639   6.773   0.627  1.00 20.00     0.012 C 
HETATM    4  C4  UNL     1     -32.953   5.706   1.499  1.00 20.00    -0.013 C 
HETATM    5  C5  UNL     1     -32.966   7.524   2.841  1.00 20.00    -0.001 C 
HETATM    6  C6  UNL     1     -31.512   7.454   2.267  1.00 20.00     0.019 C 
HETATM    7  C7  UNL     1     -33.369   8.061   1.428  1.00 20.00     0.019 C 
HETATM    8  C8  UNL     1     -31.924   8.631   1.340  1.00 20.00     0.127 C 
ENDROOT
BRANCH   8   9
HETATM    9  O9  UNL     1     -31.317   8.674   0.038  1.00 20.00    -0.395 OA
HETATM   10  H21 UNL     1     -30.769   7.880  -0.024  1.00 20.00     0.210 HD
ENDBRANCH   8   9
TORSDOF 1
ENDMDL
