MODEL 1
REMARK VINA RESULT:      -2.9      0.000      0.000
REMARK  2 active torsions:
REMARK  status: ('A' for Active; 'I' for Inactive)
REMARK    1  A    between atoms: C1_1  and  C3_3 
REMARK    2  A    between atoms: C2_2  and  C8_8 
ROOT
HETATM    1  C1  UNL     1     -33.548   4.928   3.110  1.00 20.00     0.052 C 
HETATM    2  C2  UNL     1     -33.536   6.263   2.923  1.00 20.00    -0.077 C 
HETATM    3  C4  UNL     1     -34.151   7.260   3.869  1.00 20.00     0.044 C 
ENDROOT
BRANCH   2   4
HETATM    4  C8  UNL     1     -32.847   6.827   1.681  1.00 20.00     0.006 C 
HETATM    5  C6  UNL     1     -32.010   8.068   1.999  1.00 20.00     0.014 C 
HETATM    6  C7  UNL     1     -32.002   5.770   0.965  1.00 20.00     0.014 C 
ENDBRANCH   2   4
BRANCH   1   7
HETATM    7  C3  UNL     1     -34.165   4.224   4.270  1.00 20.00     0.145 C 
HETATM    8  C5  UNL     1     -33.374   3.087   4.860  1.00 20.00     0.096 C 
HETATM    9  O9  UNL     1     -35.276   4.517   4.700  1.00 20.00    -0.294 OA
ENDBRANCH   1   7
TORSDOF 2
ENDMDL
MODEL 2
REMARK VINA RESULT:      -2.1      2.976      4.885
REMARK  2 active torsions:
REMARK  status: ('A' for Active; 'I' for Inactive)
REMARK    1  A    between atoms: C1_1  and  C3_3 
REMARK    2  A    between atoms: C2_2  and  C8_8 
ROOT
HETATM    1  C1  UNL     1     -32.650   8.433   2.216  1.00 20.00     0.052 C 
HETATM    2  C2  UNL     1     -33.069   7.182   2.493  1.00 20.00    -0.077 C 
HETATM    3  C4  UNL     1     -32.933   6.011   1.556  1.00 20.00     0.044 C 
ENDROOT
BRANCH   2   4
HETATM    4  C8  UNL     1     -33.717   6.906   3.850  1.00 20.00     0.006 C 
HETATM    5  C6  UNL     1     -33.647   8.119   4.780  1.00 20.00     0.014 C 
HETATM    6  C7  UNL     1     -35.159   6.413   3.706  1.00 20.00     0.014 C 
ENDBRANCH   2   4
BRANCH   1   7
HETATM    7  C3  UNL     1     -31.991   8.861   0.949  1.00 20.00     0.145 C 
HETATM    8  C5  UNL     1     -32.608  10.036   0.238  1.00 20.00     0.096 C 
HETATM    9  O9  UNL     1     -31.025   8.267   0.478  1.00 20.00    -0.294 OA
ENDBRANCH   1   7
TORSDOF 2
ENDMDL
MODEL 3
REMARK VINA RESULT:      -2.0      2.331      4.614
REMARK  2 active torsions:
REMARK  status: ('A' for Active; 'I' for Inactive)
REMARK    1  A    between atoms: C1_1  and  C3_3 
REMARK    2  A    between atoms: C2_2  and  C8_8 
ROOT
HETATM    1  C1  UNL     1     -32.991   7.481   2.485  1.00 20.00     0.052 C 
HETATM    2  C2  UNL     1     -33.300   6.180   2.318  1.00 20.00    -0.077 C 
HETATM    3  C4  UNL     1     -32.634   5.268   1.321  1.00 20.00     0.044 C 
ENDROOT
BRANCH   2   4
HETATM    4  C8  UNL     1     -34.388   5.562   3.196  1.00 20.00     0.006 C 
HETATM    5  C6  UNL     1     -33.868   4.372   4.006  1.00 20.00     0.014 C 
HETATM    6  C7  UNL     1     -35.043   6.599   4.111  1.00 20.00     0.014 C 
ENDBRANCH   2   4
BRANCH   1   7
HETATM    7  C3  UNL     1     -31.951   8.227   1.720  1.00 20.00     0.145 C 
HETATM    8  C5  UNL     1     -32.450   9.243   0.729  1.00 20.00     0.096 C 
HETATM    9  O9  UNL     1     -30.752   8.000   1.850  1.00 20.00    -0.294 OA
ENDBRANCH   1   7
TORSDOF 2
ENDMDL
MODEL 4
REMARK VINA RESULT:      -2.0      2.467      4.615
REMARK  2 active torsions:
REMARK  status: ('A' for Active; 'I' for Inactive)
REMARK    1  A    between atoms: C1_1  and  C3_3 
REMARK    2  A    between atoms: C2_2  and  C8_8 
ROOT
HETATM    1  C1  UNL     1     -32.838   7.780   2.491  1.00 20.00     0.052 C 
HETATM    2  C2  UNL     1     -33.227   6.490   2.524  1.00 20.00    -0.077 C 
HETATM    3  C4  UNL     1     -32.922   5.481   1.448  1.00 20.00     0.044 C 
ENDROOT
BRANCH   2   4
HETATM    4  C8  UNL     1     -34.022   5.991   3.731  1.00 20.00     0.006 C 
HETATM    5  C6  UNL     1     -35.434   6.578   3.774  1.00 20.00     0.014 C 
HETATM    6  C7  UNL     1     -34.065   4.463   3.795  1.00 20.00     0.014 C 
ENDBRANCH   2   4
BRANCH   1   7
HETATM    7  C3  UNL     1     -32.051   8.417   1.396  1.00 20.00     0.145 C 
HETATM    8  C5  UNL     1     -32.675   9.616   0.734  1.00 20.00     0.096 C 
HETATM    9  O9  UNL     1     -30.973   7.968   1.017  1.00 20.00    -0.294 OA
ENDBRANCH   1   7
TORSDOF 2
ENDMDL
MODEL 5
REMARK VINA RESULT:      -1.9      1.191      2.287
REMARK  2 active torsions:
REMARK  status: ('A' for Active; 'I' for Inactive)
REMARK    1  A    between atoms: C1_1  and  C3_3 
REMARK    2  A    between atoms: C2_2  and  C8_8 
ROOT
HETATM    1  C1  UNL     1     -33.631   7.004   3.310  1.00 20.00     0.052 C 
HETATM    2  C2  UNL     1     -32.847   6.877   2.221  1.00 20.00    -0.077 C 
HETATM    3  C4  UNL     1     -32.906   5.719   1.260  1.00 20.00     0.044 C 
ENDROOT
BRANCH   2   4
HETATM    4  C8  UNL     1     -31.833   7.978   1.912  1.00 20.00     0.006 C 
HETATM    5  C6  UNL     1     -32.331   8.934   0.826  1.00 20.00     0.014 C 
HETATM    6  C7  UNL     1     -31.423   8.748   3.169  1.00 20.00     0.014 C 
ENDBRANCH   2   4
BRANCH   1   7
HETATM    7  C3  UNL     1     -34.674   6.029   3.740  1.00 20.00     0.145 C 
HETATM    8  C5  UNL     1     -34.191   4.650   4.103  1.00 20.00     0.096 C 
HETATM    9  O9  UNL     1     -35.869   6.310   3.758  1.00 20.00    -0.294 OA
ENDBRANCH   1   7
TORSDOF 2
ENDMDL
MODEL 6
REMARK VINA RESULT:      -1.8      2.332      4.416
REMARK  2 active torsions:
REMARK  status: ('A' for Active; 'I' for Inactive)
REMARK    1  A    between atoms: C1_1  and  C3_3 
REMARK    2  A    between atoms: C2_2  and  C8_8 
ROOT
HETATM    1  C1  UNL     1     -32.834   6.945   2.164  1.00 20.00     0.052 C 
HETATM    2  C2  UNL     1     -33.646   6.834   3.234  1.00 20.00    -0.077 C 
HETATM    3  C4  UNL     1     -33.816   7.897   4.288  1.00 20.00     0.044 C 
ENDROOT
BRANCH   2   4
HETATM    4  C8  UNL     1     -34.471   5.558   3.404  1.00 20.00     0.006 C 
HETATM    5  C6  UNL     1     -33.604   4.358   3.789  1.00 20.00     0.014 C 
HETATM    6  C7  UNL     1     -35.616   5.746   4.401  1.00 20.00     0.014 C 
ENDBRANCH   2   4
BRANCH   1   7
HETATM    7  C3  UNL     1     -31.978   8.124   1.849  1.00 20.00     0.145 C 
HETATM    8  C5  UNL     1     -32.389   8.952   0.662  1.00 20.00     0.096 C 
HETATM    9  O9  UNL     1     -30.963   8.388   2.489  1.00 20.00    -0.294 OA
ENDBRANCH   1   7
TORSDOF 2
ENDMDL
MODEL 7
REMARK VINA RESULT:      -1.6      1.463      2.542
REMARK  2 active torsions:
REMARK  status: ('A' for Active; 'I' for Inactive)
REMARK    1  A    between atoms: C1_1  and  C3_3 
REMARK    2  A    between atoms: C2_2  and  C8_8 
ROOT
HETATM    1  C1  UNL     1     -33.349   6.855   3.180  1.00 20.00     0.052 C 
HETATM    2  C2  UNL     1     -32.664   6.824   2.019  1.00 20.00    -0.077 C 
HETATM    3  C4  UNL     1     -32.738   5.701   1.017  1.00 20.00     0.044 C 
ENDROOT
BRANCH   2   4
HETATM    4  C8  UNL     1     -31.755   8.001   1.667  1.00 20.00     0.006 C 
HETATM    5  C6  UNL     1     -32.418   8.967   0.683  1.00 20.00     0.014 C 
HETATM    6  C7  UNL     1     -31.271   8.743   2.915  1.00 20.00     0.014 C 
ENDBRANCH   2   4
BRANCH   1   7
HETATM    7  C3  UNL     1     -34.282   5.797   3.660  1.00 20.00     0.145 C 
HETATM    8  C5  UNL     1     -35.683   6.239   3.989  1.00 20.00     0.096 C 
HETATM    9  O9  UNL     1     -33.926   4.634   3.828  1.00 20.00    -0.294 OA
ENDBRANCH   1   7
TORSDOF 2
ENDMDL
MODEL 8
REMARK VINA RESULT:      -1.5      2.381      4.342
REMARK  2 active torsions:
REMARK  status: ('A' for Active; 'I' for Inactive)
REMARK    1  A    between atoms: C1_1  and  C3_3 
REMARK    2  A    between atoms: C2_2  and  C8_8 
ROOT
HETATM    1  C1  UNL     1     -33.275   7.131   2.350  1.00 20.00     0.052 C 
HETATM    2  C2  UNL     1     -33.715   7.251   3.619  1.00 20.00    -0.077 C 
HETATM    3  C4  UNL     1     -33.141   8.207   4.631  1.00 20.00     0.044 C 
ENDROOT
BRANCH   2   4
HETATM    4  C8  UNL     1     -34.882   6.379   4.079  1.00 20.00     0.006 C 
HETATM    5  C6  UNL     1     -36.142   6.611   3.241  1.00 20.00     0.014 C 
HETATM    6  C7  UNL     1     -34.512   4.895   4.107  1.00 20.00     0.014 C 
ENDBRANCH   2   4
BRANCH   1   7
HETATM    7  C3  UNL     1     -32.160   7.914   1.746  1.00 20.00     0.145 C 
HETATM    8  C5  UNL     1     -32.549   9.149   0.978  1.00 20.00     0.096 C 
HETATM    9  O9  UNL     1     -30.988   7.556   1.823  1.00 20.00    -0.294 OA
ENDBRANCH   1   7
TORSDOF 2
ENDMDL
MODEL 9
REMARK VINA RESULT:      -1.5      1.170      1.808
REMARK  2 active torsions:
REMARK  status: ('A' for Active; 'I' for Inactive)
REMARK    1  A    between atoms: C1_1  and  C3_3 
REMARK    2  A    between atoms: C2_2  and  C8_8 
ROOT
HETATM    1  C1  UNL     1     -33.652   6.253   2.900  1.00 20.00     0.052 C 
HETATM    2  C2  UNL     1     -33.025   7.423   3.134  1.00 20.00    -0.077 C 
HETATM    3  C4  UNL     1     -33.189   8.240   4.389  1.00 20.00     0.044 C 
ENDROOT
BRANCH   2   4
HETATM    4  C8  UNL     1     -32.068   7.971   2.076  1.00 20.00     0.006 C 
HETATM    5  C6  UNL     1     -31.589   6.882   1.113  1.00 20.00     0.014 C 
HETATM    6  C7  UNL     1     -32.675   9.148   1.310  1.00 20.00     0.014 C 
ENDBRANCH   2   4
BRANCH   1   7
HETATM    7  C3  UNL     1     -34.602   5.580   3.832  1.00 20.00     0.145 C 
HETATM    8  C5  UNL     1     -34.202   4.215   4.325  1.00 20.00     0.096 C 
HETATM    9  O9  UNL     1     -35.676   6.082   4.150  1.00 20.00    -0.294 OA
ENDBRANCH   1   7
TORSDOF 2
ENDMDL
