MODEL 1
REMARK VINA RESULT:       1.9      0.000      0.000
REMARK  0 active torsions:
REMARK  status: ('A' for Active; 'I' for Inactive)
ROOT
HETATM    1  C1  UNL     1     -33.253   7.399   3.367  1.00 20.00     0.142 C 
HETATM    2  C2  UNL     1     -32.761   5.656   0.974  1.00 20.00     0.002 C 
HETATM    3  C3  UNL     1     -34.114   5.729   1.678  1.00 20.00     0.016 C 
HETATM    4  C4  UNL     1     -31.678   6.540   1.589  1.00 20.00     0.016 C 
HETATM    5  C5  UNL     1     -34.049   6.098   3.168  1.00 20.00     0.014 C 
HETATM    6  C6  UNL     1     -32.200   7.789   2.315  1.00 20.00     0.014 C 
HETATM    7  C7  UNL     1     -35.489   6.316   3.672  1.00 20.00     0.023 C 
HETATM    8  C8  UNL     1     -33.403   4.983   4.003  1.00 20.00     0.023 C 
HETATM    9  C9  UNL     1     -31.012   8.461   3.030  1.00 20.00     0.023 C 
HETATM   10  C10 UNL     1     -32.817   8.799   1.339  1.00 20.00     0.023 C 
HETATM   11  O11 UNL     1     -33.455   8.116   4.350  1.00 20.00    -0.296 OA
ENDROOT
TORSDOF 0
ENDMDL
MODEL 2
REMARK VINA RESULT:       1.9      0.002      3.321
REMARK  0 active torsions:
REMARK  status: ('A' for Active; 'I' for Inactive)
ROOT
HETATM    1  C1  UNL     1     -33.253   7.399   3.367  1.00 20.00     0.142 C 
HETATM    2  C2  UNL     1     -32.760   5.654   0.977  1.00 20.00     0.002 C 
HETATM    3  C3  UNL     1     -31.678   6.541   1.588  1.00 20.00     0.016 C 
HETATM    4  C4  UNL     1     -34.114   5.729   1.680  1.00 20.00     0.016 C 
HETATM    5  C5  UNL     1     -32.201   7.789   2.316  1.00 20.00     0.014 C 
HETATM    6  C6  UNL     1     -34.048   6.097   3.170  1.00 20.00     0.014 C 
HETATM    7  C7  UNL     1     -31.012   8.461   3.031  1.00 20.00     0.023 C 
HETATM    8  C8  UNL     1     -32.818   8.800   1.340  1.00 20.00     0.023 C 
HETATM    9  C9  UNL     1     -35.487   6.314   3.675  1.00 20.00     0.023 C 
HETATM   10  C10 UNL     1     -33.400   4.983   4.003  1.00 20.00     0.023 C 
HETATM   11  O11 UNL     1     -33.456   8.117   4.351  1.00 20.00    -0.296 OA
ENDROOT
TORSDOF 0
ENDMDL
MODEL 3
REMARK VINA RESULT:       1.9      1.488      2.718
REMARK  0 active torsions:
REMARK  status: ('A' for Active; 'I' for Inactive)
ROOT
HETATM    1  C1  UNL     1     -33.038   7.218   2.480  1.00 20.00     0.142 C 
HETATM    2  C2  UNL     1     -34.581   5.085   3.918  1.00 20.00     0.002 C 
HETATM    3  C3  UNL     1     -35.070   6.527   3.811  1.00 20.00     0.016 C 
HETATM    4  C4  UNL     1     -33.241   4.817   3.236  1.00 20.00     0.016 C 
HETATM    5  C5  UNL     1     -33.959   7.576   3.657  1.00 20.00     0.014 C 
HETATM    6  C6  UNL     1     -32.923   5.744   2.054  1.00 20.00     0.014 C 
HETATM    7  C7  UNL     1     -34.622   8.939   3.371  1.00 20.00     0.023 C 
HETATM    8  C8  UNL     1     -33.116   7.703   4.933  1.00 20.00     0.023 C 
HETATM    9  C9  UNL     1     -31.474   5.470   1.604  1.00 20.00     0.023 C 
HETATM   10  C10 UNL     1     -33.859   5.492   0.864  1.00 20.00     0.023 C 
HETATM   11  O11 UNL     1     -32.403   8.096   1.887  1.00 20.00    -0.296 OA
ENDROOT
TORSDOF 0
ENDMDL
MODEL 4
REMARK VINA RESULT:       1.9      1.488      3.125
REMARK  0 active torsions:
REMARK  status: ('A' for Active; 'I' for Inactive)
ROOT
HETATM    1  C1  UNL     1     -33.040   7.215   2.482  1.00 20.00     0.142 C 
HETATM    2  C2  UNL     1     -34.579   5.081   3.923  1.00 20.00     0.002 C 
HETATM    3  C3  UNL     1     -33.242   4.813   3.237  1.00 20.00     0.016 C 
HETATM    4  C4  UNL     1     -35.070   6.523   3.815  1.00 20.00     0.016 C 
HETATM    5  C5  UNL     1     -32.925   5.742   2.055  1.00 20.00     0.014 C 
HETATM    6  C6  UNL     1     -33.960   7.573   3.662  1.00 20.00     0.014 C 
HETATM    7  C7  UNL     1     -31.476   5.469   1.605  1.00 20.00     0.023 C 
HETATM    8  C8  UNL     1     -33.861   5.490   0.865  1.00 20.00     0.023 C 
HETATM    9  C9  UNL     1     -34.621   8.935   3.379  1.00 20.00     0.023 C 
HETATM   10  C10 UNL     1     -33.114   7.697   4.937  1.00 20.00     0.023 C 
HETATM   11  O11 UNL     1     -32.406   8.093   1.889  1.00 20.00    -0.296 OA
ENDROOT
TORSDOF 0
ENDMDL
MODEL 5
REMARK VINA RESULT:       3.1      1.603      3.308
REMARK  0 active torsions:
REMARK  status: ('A' for Active; 'I' for Inactive)
ROOT
HETATM    1  C1  UNL     1     -32.122   7.237   1.536  1.00 20.00     0.142 C 
HETATM    2  C2  UNL     1     -34.274   6.491   3.488  1.00 20.00     0.002 C 
HETATM    3  C3  UNL     1     -34.157   7.887   2.883  1.00 20.00     0.016 C 
HETATM    4  C4  UNL     1     -33.206   5.505   3.020  1.00 20.00     0.016 C 
HETATM    5  C5  UNL     1     -32.735   8.295   2.468  1.00 20.00     0.014 C 
HETATM    6  C6  UNL     1     -32.634   5.789   1.623  1.00 20.00     0.014 C 
HETATM    7  C7  UNL     1     -32.821   9.634   1.710  1.00 20.00     0.023 C 
HETATM    8  C8  UNL     1     -31.819   8.482   3.685  1.00 20.00     0.023 C 
HETATM    9  C9  UNL     1     -31.451   4.830   1.384  1.00 20.00     0.023 C 
HETATM   10  C10 UNL     1     -33.678   5.559   0.523  1.00 20.00     0.023 C 
HETATM   11  O11 UNL     1     -31.237   7.544   0.732  1.00 20.00    -0.296 OA
ENDROOT
TORSDOF 0
ENDMDL
MODEL 6
REMARK VINA RESULT:       3.1      1.604      3.000
REMARK  0 active torsions:
REMARK  status: ('A' for Active; 'I' for Inactive)
ROOT
HETATM    1  C1  UNL     1     -32.122   7.236   1.530  1.00 20.00     0.142 C 
HETATM    2  C2  UNL     1     -34.271   6.491   3.486  1.00 20.00     0.002 C 
HETATM    3  C3  UNL     1     -33.205   5.504   3.017  1.00 20.00     0.016 C 
HETATM    4  C4  UNL     1     -34.156   7.887   2.878  1.00 20.00     0.016 C 
HETATM    5  C5  UNL     1     -32.633   5.788   1.620  1.00 20.00     0.014 C 
HETATM    6  C6  UNL     1     -32.734   8.294   2.464  1.00 20.00     0.014 C 
HETATM    7  C7  UNL     1     -31.450   4.829   1.382  1.00 20.00     0.023 C 
HETATM    8  C8  UNL     1     -33.677   5.557   0.519  1.00 20.00     0.023 C 
HETATM    9  C9  UNL     1     -32.819   9.633   1.706  1.00 20.00     0.023 C 
HETATM   10  C10 UNL     1     -31.817   8.480   3.681  1.00 20.00     0.023 C 
HETATM   11  O11 UNL     1     -31.237   7.542   0.726  1.00 20.00    -0.296 OA
ENDROOT
TORSDOF 0
ENDMDL
MODEL 7
REMARK VINA RESULT:       3.2      1.445      2.619
REMARK  0 active torsions:
REMARK  status: ('A' for Active; 'I' for Inactive)
ROOT
HETATM    1  C1  UNL     1     -33.511   6.346   2.893  1.00 20.00     0.142 C 
HETATM    2  C2  UNL     1     -31.894   8.469   1.522  1.00 20.00     0.002 C 
HETATM    3  C3  UNL     1     -32.620   7.363   0.759  1.00 20.00     0.016 C 
HETATM    4  C4  UNL     1     -32.057   8.405   3.039  1.00 20.00     0.016 C 
HETATM    5  C5  UNL     1     -32.822   6.060   1.549  1.00 20.00     0.014 C 
HETATM    6  C6  UNL     1     -33.355   7.742   3.522  1.00 20.00     0.014 C 
HETATM    7  C7  UNL     1     -33.727   5.130   0.716  1.00 20.00     0.023 C 
HETATM    8  C8  UNL     1     -31.492   5.340   1.810  1.00 20.00     0.023 C 
HETATM    9  C9  UNL     1     -33.277   7.590   5.053  1.00 20.00     0.023 C 
HETATM   10  C10 UNL     1     -34.589   8.587   3.177  1.00 20.00     0.023 C 
HETATM   11  O11 UNL     1     -34.177   5.473   3.458  1.00 20.00    -0.296 OA
ENDROOT
TORSDOF 0
ENDMDL
MODEL 8
REMARK VINA RESULT:       3.2      1.444      3.055
REMARK  0 active torsions:
REMARK  status: ('A' for Active; 'I' for Inactive)
ROOT
HETATM    1  C1  UNL     1     -33.511   6.348   2.895  1.00 20.00     0.142 C 
HETATM    2  C2  UNL     1     -31.894   8.468   1.521  1.00 20.00     0.002 C 
HETATM    3  C3  UNL     1     -32.057   8.408   3.037  1.00 20.00     0.016 C 
HETATM    4  C4  UNL     1     -32.623   7.363   0.760  1.00 20.00     0.016 C 
HETATM    5  C5  UNL     1     -33.354   7.743   3.522  1.00 20.00     0.014 C 
HETATM    6  C6  UNL     1     -32.823   6.060   1.549  1.00 20.00     0.014 C 
HETATM    7  C7  UNL     1     -33.273   7.591   5.054  1.00 20.00     0.023 C 
HETATM    8  C8  UNL     1     -34.589   8.588   3.181  1.00 20.00     0.023 C 
HETATM    9  C9  UNL     1     -33.727   5.130   0.719  1.00 20.00     0.023 C 
HETATM   10  C10 UNL     1     -31.492   5.342   1.810  1.00 20.00     0.023 C 
HETATM   11  O11 UNL     1     -34.176   5.474   3.460  1.00 20.00    -0.296 OA
ENDROOT
TORSDOF 0
ENDMDL
MODEL 9
REMARK VINA RESULT:       3.5      1.550      2.788
REMARK  0 active torsions:
REMARK  status: ('A' for Active; 'I' for Inactive)
ROOT
HETATM    1  C1  UNL     1     -33.268   6.512   2.175  1.00 20.00     0.142 C 
HETATM    2  C2  UNL     1     -33.363   8.432   4.478  1.00 20.00     0.002 C 
HETATM    3  C3  UNL     1     -33.472   6.920   4.660  1.00 20.00     0.016 C 
HETATM    4  C4  UNL     1     -33.205   8.888   3.029  1.00 20.00     0.016 C 
HETATM    5  C5  UNL     1     -34.049   6.165   3.453  1.00 20.00     0.014 C 
HETATM    6  C6  UNL     1     -32.536   7.863   2.100  1.00 20.00     0.014 C 
HETATM    7  C7  UNL     1     -33.912   4.653   3.722  1.00 20.00     0.023 C 
HETATM    8  C8  UNL     1     -35.534   6.488   3.236  1.00 20.00     0.023 C 
HETATM    9  C9  UNL     1     -32.623   8.394   0.657  1.00 20.00     0.023 C 
HETATM   10  C10 UNL     1     -31.058   7.652   2.455  1.00 20.00     0.023 C 
HETATM   11  O11 UNL     1     -33.228   5.722   1.227  1.00 20.00    -0.296 OA
ENDROOT
TORSDOF 0
ENDMDL
