MODEL 1
REMARK VINA RESULT:      -0.4      0.000      0.000
REMARK  3 active torsions:
REMARK  status: ('A' for Active; 'I' for Inactive)
REMARK    1  A    between atoms: C7_7  and  C8_8 
REMARK    2  A    between atoms: C7_7  and  N9_9 
REMARK    3  A    between atoms: C8_8  and  N10_10 
ROOT
HETATM    1  C1  UNL     1     -32.055   9.405   0.512  1.00 20.00     0.157 C 
HETATM    2  N9  UNL     1     -31.442   8.496   0.933  1.00 20.00    -0.274 NA
HETATM    3  S11 UNL     1     -32.866  10.643  -0.076  1.00 20.00    -0.055 SA
ENDROOT
BRANCH   2   4
HETATM    4  C7  UNL     1     -32.082   7.779   2.038  1.00 20.00     0.178 C 
BRANCH   4   5
HETATM    5  C8  UNL     1     -32.313   6.333   1.645  1.00 20.00     0.256 C 
BRANCH   5   6
HETATM    6  N10 UNL     1     -33.452   5.765   2.448  1.00 20.00    -0.070 N 
HETATM    7  C5  UNL     1     -33.003   4.612   3.315  1.00 20.00     0.235 C 
HETATM    8  C3  UNL     1     -34.213   4.000   4.008  1.00 20.00     0.028 C 
HETATM    9  C2  UNL     1     -34.990   5.040   4.807  1.00 20.00     0.003 C 
HETATM   10  C4  UNL     1     -35.372   6.233   3.937  1.00 20.00     0.028 C 
HETATM   11  C6  UNL     1     -34.159   6.836   3.244  1.00 20.00     0.235 C 
HETATM   12  H26 UNL     1     -34.129   5.393   1.769  1.00 20.00     0.279 HD
ENDBRANCH   5   6
ENDBRANCH   4   5
ENDBRANCH   2   4
TORSDOF 3
ENDMDL
MODEL 2
REMARK VINA RESULT:       0.0      0.679      1.660
REMARK  3 active torsions:
REMARK  status: ('A' for Active; 'I' for Inactive)
REMARK    1  A    between atoms: C7_7  and  C8_8 
REMARK    2  A    between atoms: C7_7  and  N9_9 
REMARK    3  A    between atoms: C8_8  and  N10_10 
ROOT
HETATM    1  C1  UNL     1     -32.302   9.116   1.082  1.00 20.00     0.157 C 
HETATM    2  N9  UNL     1     -32.096   8.386   1.979  1.00 20.00    -0.274 NA
HETATM    3  S11 UNL     1     -32.591  10.125  -0.116  1.00 20.00    -0.055 SA
ENDROOT
BRANCH   2   4
HETATM    4  C7  UNL     1     -31.539   7.086   1.600  1.00 20.00     0.178 C 
BRANCH   4   5
HETATM    5  C8  UNL     1     -32.659   6.076   1.436  1.00 20.00     0.256 C 
BRANCH   5   6
HETATM    6  N10 UNL     1     -33.324   5.838   2.764  1.00 20.00    -0.070 N 
HETATM    7  C5  UNL     1     -34.604   6.629   2.896  1.00 20.00     0.235 C 
HETATM    8  C3  UNL     1     -35.168   6.448   4.299  1.00 20.00     0.028 C 
HETATM    9  C2  UNL     1     -35.375   4.977   4.637  1.00 20.00     0.003 C 
HETATM   10  C4  UNL     1     -34.094   4.176   4.428  1.00 20.00     0.028 C 
HETATM   11  C6  UNL     1     -33.533   4.366   3.027  1.00 20.00     0.235 C 
HETATM   12  H26 UNL     1     -32.674   6.186   3.482  1.00 20.00     0.279 HD
ENDBRANCH   5   6
ENDBRANCH   4   5
ENDBRANCH   2   4
TORSDOF 3
ENDMDL
MODEL 3
REMARK VINA RESULT:       0.2      3.053      5.063
REMARK  3 active torsions:
REMARK  status: ('A' for Active; 'I' for Inactive)
REMARK    1  A    between atoms: C7_7  and  C8_8 
REMARK    2  A    between atoms: C7_7  and  N9_9 
REMARK    3  A    between atoms: C8_8  and  N10_10 
ROOT
HETATM    1  C1  UNL     1     -34.355   4.104   4.631  1.00 20.00     0.157 C 
HETATM    2  N9  UNL     1     -35.253   4.847   4.777  1.00 20.00    -0.274 NA
HETATM    3  S11 UNL     1     -33.145   3.084   4.457  1.00 20.00    -0.055 SA
ENDROOT
BRANCH   2   4
HETATM    4  C7  UNL     1     -35.393   5.858   3.726  1.00 20.00     0.178 C 
BRANCH   4   5
HETATM    5  C8  UNL     1     -34.544   7.068   4.063  1.00 20.00     0.256 C 
BRANCH   5   6
HETATM    6  N10 UNL     1     -33.282   7.045   3.244  1.00 20.00    -0.070 N 
HETATM    7  C5  UNL     1     -33.419   6.152   2.034  1.00 20.00     0.235 C 
HETATM    8  C3  UNL     1     -32.081   6.069   1.312  1.00 20.00     0.028 C 
HETATM    9  C2  UNL     1     -31.555   7.450   0.940  1.00 20.00     0.003 C 
HETATM   10  C4  UNL     1     -31.492   8.365   2.158  1.00 20.00     0.028 C 
HETATM   11  C6  UNL     1     -32.831   8.439   2.876  1.00 20.00     0.235 C 
HETATM   12  H26 UNL     1     -32.553   6.638   3.845  1.00 20.00     0.279 HD
ENDBRANCH   5   6
ENDBRANCH   4   5
ENDBRANCH   2   4
TORSDOF 3
ENDMDL
MODEL 4
REMARK VINA RESULT:       0.4      3.019      5.258
REMARK  3 active torsions:
REMARK  status: ('A' for Active; 'I' for Inactive)
REMARK    1  A    between atoms: C7_7  and  C8_8 
REMARK    2  A    between atoms: C7_7  and  N9_9 
REMARK    3  A    between atoms: C8_8  and  N10_10 
ROOT
HETATM    1  C1  UNL     1     -34.421   4.070   4.703  1.00 20.00     0.157 C 
HETATM    2  N9  UNL     1     -35.321   4.806   4.867  1.00 20.00    -0.274 NA
HETATM    3  S11 UNL     1     -33.208   3.058   4.503  1.00 20.00    -0.055 SA
ENDROOT
BRANCH   2   4
HETATM    4  C7  UNL     1     -35.450   5.858   3.856  1.00 20.00     0.178 C 
BRANCH   4   5
HETATM    5  C8  UNL     1     -34.428   6.948   4.118  1.00 20.00     0.256 C 
BRANCH   5   6
HETATM    6  N10 UNL     1     -33.639   7.213   2.865  1.00 20.00    -0.070 N 
HETATM    7  C5  UNL     1     -32.584   8.271   3.083  1.00 20.00     0.235 C 
HETATM    8  C3  UNL     1     -31.902   8.587   1.759  1.00 20.00     0.028 C 
HETATM    9  C2  UNL     1     -31.322   7.334   1.112  1.00 20.00     0.003 C 
HETATM   10  C4  UNL     1     -32.381   6.247   0.965  1.00 20.00     0.028 C 
HETATM   11  C6  UNL     1     -33.062   5.941   2.291  1.00 20.00     0.235 C 
HETATM   12  H26 UNL     1     -34.306   7.584   2.174  1.00 20.00     0.279 HD
ENDBRANCH   5   6
ENDBRANCH   4   5
ENDBRANCH   2   4
TORSDOF 3
ENDMDL
MODEL 5
REMARK VINA RESULT:       0.8      0.840      1.723
REMARK  3 active torsions:
REMARK  status: ('A' for Active; 'I' for Inactive)
REMARK    1  A    between atoms: C7_7  and  C8_8 
REMARK    2  A    between atoms: C7_7  and  N9_9 
REMARK    3  A    between atoms: C8_8  and  N10_10 
ROOT
HETATM    1  C1  UNL     1     -31.994   9.405   0.404  1.00 20.00     0.157 C 
HETATM    2  N9  UNL     1     -31.302   8.509   0.717  1.00 20.00    -0.274 NA
HETATM    3  S11 UNL     1     -32.909  10.633  -0.033  1.00 20.00    -0.055 SA
ENDROOT
BRANCH   2   4
HETATM    4  C7  UNL     1     -31.975   7.443   1.462  1.00 20.00     0.178 C 
BRANCH   4   5
HETATM    5  C8  UNL     1     -32.768   8.040   2.608  1.00 20.00     0.256 C 
BRANCH   5   6
HETATM    6  N10 UNL     1     -33.357   6.937   3.445  1.00 20.00    -0.070 N 
HETATM    7  C5  UNL     1     -34.791   7.227   3.821  1.00 20.00     0.235 C 
HETATM    8  C3  UNL     1     -35.295   6.144   4.765  1.00 20.00     0.028 C 
HETATM    9  C2  UNL     1     -35.139   4.753   4.162  1.00 20.00     0.003 C 
HETATM   10  C4  UNL     1     -33.701   4.502   3.718  1.00 20.00     0.028 C 
HETATM   11  C6  UNL     1     -33.203   5.590   2.779  1.00 20.00     0.235 C 
HETATM   12  H26 UNL     1     -32.811   6.910   4.317  1.00 20.00     0.279 HD
ENDBRANCH   5   6
ENDBRANCH   4   5
ENDBRANCH   2   4
TORSDOF 3
ENDMDL
MODEL 6
REMARK VINA RESULT:       1.5      2.942      5.345
REMARK  3 active torsions:
REMARK  status: ('A' for Active; 'I' for Inactive)
REMARK    1  A    between atoms: C7_7  and  C8_8 
REMARK    2  A    between atoms: C7_7  and  N9_9 
REMARK    3  A    between atoms: C8_8  and  N10_10 
ROOT
HETATM    1  C1  UNL     1     -34.095   4.567   4.190  1.00 20.00     0.157 C 
HETATM    2  N9  UNL     1     -34.605   5.605   3.987  1.00 20.00    -0.274 NA
HETATM    3  S11 UNL     1     -33.423   3.154   4.485  1.00 20.00    -0.055 SA
ENDROOT
BRANCH   2   4
HETATM    4  C7  UNL     1     -33.969   6.410   2.941  1.00 20.00     0.178 C 
BRANCH   4   5
HETATM    5  C8  UNL     1     -33.190   7.547   3.573  1.00 20.00     0.256 C 
BRANCH   5   6
HETATM    6  N10 UNL     1     -32.540   8.375   2.497  1.00 20.00    -0.070 N 
HETATM    7  C5  UNL     1     -31.983   7.511   1.390  1.00 20.00     0.235 C 
HETATM    8  C3  UNL     1     -31.232   8.387   0.396  1.00 20.00     0.028 C 
HETATM    9  C2  UNL     1     -32.114   9.505  -0.148  1.00 20.00     0.003 C 
HETATM   10  C4  UNL     1     -32.729  10.323   0.983  1.00 20.00     0.028 C 
HETATM   11  C6  UNL     1     -33.473   9.441   1.975  1.00 20.00     0.235 C 
HETATM   12  H26 UNL     1     -31.745   8.855   2.940  1.00 20.00     0.279 HD
ENDBRANCH   5   6
ENDBRANCH   4   5
ENDBRANCH   2   4
TORSDOF 3
ENDMDL
MODEL 7
REMARK VINA RESULT:       1.9      2.792      5.401
REMARK  3 active torsions:
REMARK  status: ('A' for Active; 'I' for Inactive)
REMARK    1  A    between atoms: C7_7  and  C8_8 
REMARK    2  A    between atoms: C7_7  and  N9_9 
REMARK    3  A    between atoms: C8_8  and  N10_10 
ROOT
HETATM    1  C1  UNL     1     -34.607   5.384   3.986  1.00 20.00     0.157 C 
HETATM    2  N9  UNL     1     -35.131   6.411   3.759  1.00 20.00    -0.274 NA
HETATM    3  S11 UNL     1     -33.921   3.978   4.286  1.00 20.00    -0.055 SA
ENDROOT
BRANCH   2   4
HETATM    4  C7  UNL     1     -34.301   7.593   4.006  1.00 20.00     0.178 C 
BRANCH   4   5
HETATM    5  C8  UNL     1     -32.913   7.373   3.435  1.00 20.00     0.256 C 
BRANCH   5   6
HETATM    6  N10 UNL     1     -32.809   8.037   2.089  1.00 20.00    -0.070 N 
HETATM    7  C5  UNL     1     -33.003   9.531   2.188  1.00 20.00     0.235 C 
HETATM    8  C3  UNL     1     -33.010  10.134   0.790  1.00 20.00     0.028 C 
HETATM    9  C2  UNL     1     -31.746   9.777   0.016  1.00 20.00     0.003 C 
HETATM   10  C4  UNL     1     -31.522   8.269  -0.012  1.00 20.00     0.028 C 
HETATM   11  C6  UNL     1     -31.521   7.673   1.388  1.00 20.00     0.235 C 
HETATM   12  H26 UNL     1     -33.581   7.664   1.520  1.00 20.00     0.279 HD
ENDBRANCH   5   6
ENDBRANCH   4   5
ENDBRANCH   2   4
TORSDOF 3
ENDMDL
MODEL 8
REMARK VINA RESULT:       2.2      2.253      5.158
REMARK  3 active torsions:
REMARK  status: ('A' for Active; 'I' for Inactive)
REMARK    1  A    between atoms: C7_7  and  C8_8 
REMARK    2  A    between atoms: C7_7  and  N9_9 
REMARK    3  A    between atoms: C8_8  and  N10_10 
ROOT
HETATM    1  C1  UNL     1     -33.975   5.774   3.219  1.00 20.00     0.157 C 
HETATM    2  N9  UNL     1     -33.187   5.115   2.650  1.00 20.00    -0.274 NA
HETATM    3  S11 UNL     1     -35.047   6.647   4.010  1.00 20.00    -0.055 SA
ENDROOT
BRANCH   2   4
HETATM    4  C7  UNL     1     -32.649   5.716   1.427  1.00 20.00     0.178 C 
BRANCH   4   5
HETATM    5  C8  UNL     1     -31.789   6.914   1.781  1.00 20.00     0.256 C 
BRANCH   5   6
HETATM    6  N10 UNL     1     -32.364   8.154   1.153  1.00 20.00    -0.070 N 
HETATM    7  C5  UNL     1     -32.418   9.302   2.133  1.00 20.00     0.235 C 
HETATM    8  C3  UNL     1     -33.119  10.488   1.485  1.00 20.00     0.028 C 
HETATM    9  C2  UNL     1     -32.450  10.892   0.176  1.00 20.00     0.003 C 
HETATM   10  C4  UNL     1     -32.335   9.705  -0.775  1.00 20.00     0.028 C 
HETATM   11  C6  UNL     1     -31.638   8.522  -0.119  1.00 20.00     0.235 C 
HETATM   12  H26 UNL     1     -33.334   7.926   0.895  1.00 20.00     0.279 HD
ENDBRANCH   5   6
ENDBRANCH   4   5
ENDBRANCH   2   4
TORSDOF 3
ENDMDL
MODEL 9
REMARK VINA RESULT:       2.3      3.377      5.440
REMARK  3 active torsions:
REMARK  status: ('A' for Active; 'I' for Inactive)
REMARK    1  A    between atoms: C7_7  and  C8_8 
REMARK    2  A    between atoms: C7_7  and  N9_9 
REMARK    3  A    between atoms: C8_8  and  N10_10 
ROOT
HETATM    1  C1  UNL     1     -32.978   3.096   5.506  1.00 20.00     0.157 C 
HETATM    2  N9  UNL     1     -33.652   2.753   4.608  1.00 20.00    -0.274 NA
HETATM    3  S11 UNL     1     -32.071   3.539   6.738  1.00 20.00    -0.055 SA
ENDROOT
BRANCH   2   4
HETATM    4  C7  UNL     1     -33.687   3.679   3.474  1.00 20.00     0.178 C 
BRANCH   4   5
HETATM    5  C8  UNL     1     -34.352   4.976   3.892  1.00 20.00     0.256 C 
BRANCH   5   6
HETATM    6  N10 UNL     1     -33.856   6.102   3.026  1.00 20.00    -0.070 N 
HETATM    7  C5  UNL     1     -33.458   7.304   3.849  1.00 20.00     0.235 C 
HETATM    8  C3  UNL     1     -33.082   8.450   2.919  1.00 20.00     0.028 C 
HETATM    9  C2  UNL     1     -31.986   8.046   1.940  1.00 20.00     0.003 C 
HETATM   10  C4  UNL     1     -32.370   6.787   1.170  1.00 20.00     0.028 C 
HETATM   11  C6  UNL     1     -32.748   5.648   2.105  1.00 20.00     0.235 C 
HETATM   12  H26 UNL     1     -34.648   6.384   2.434  1.00 20.00     0.279 HD
ENDBRANCH   5   6
ENDBRANCH   4   5
ENDBRANCH   2   4
TORSDOF 3
ENDMDL
