MODEL 1
REMARK VINA RESULT:      -2.3      0.000      0.000
REMARK  1 active torsions:
REMARK  status: ('A' for Active; 'I' for Inactive)
REMARK    1  A    between atoms: C3_3  and  C6_6 
ROOT
HETATM    1  C1  UNL     1     -34.049   7.163   3.609  1.00 20.00     0.272 C 
HETATM    2  C2  UNL     1     -32.953   5.431   2.476  1.00 20.00     0.055 C 
HETATM    3  C3  UNL     1     -33.364   6.880   2.295  1.00 20.00     0.195 C 
HETATM    4  C4  UNL     1     -34.080   4.890   3.328  1.00 20.00     0.129 C 
HETATM    5  C5  UNL     1     -33.679   3.686   4.158  1.00 20.00     0.040 C 
HETATM    6  O7  UNL     1     -34.267   8.268   4.083  1.00 20.00    -0.265 OA
HETATM    7  O8  UNL     1     -34.427   5.983   4.193  1.00 20.00    -0.316 OA
ENDROOT
BRANCH   3   8
HETATM    8  C6  UNL     1     -32.186   7.798   2.034  1.00 20.00     0.400 C 
HETATM    9  F9  UNL     1     -31.720   8.305   3.190  1.00 20.00    -0.170 F 
HETATM   10  F10 UNL     1     -31.190   7.124   1.431  1.00 20.00    -0.170 F 
HETATM   11  F11 UNL     1     -32.553   8.819   1.239  1.00 20.00    -0.170 F 
ENDBRANCH   3   8
TORSDOF 1
ENDMDL
MODEL 2
REMARK VINA RESULT:      -2.3      0.051      1.148
REMARK  1 active torsions:
REMARK  status: ('A' for Active; 'I' for Inactive)
REMARK    1  A    between atoms: C3_3  and  C6_6 
ROOT
HETATM    1  C1  UNL     1     -34.024   7.191   3.629  1.00 20.00     0.272 C 
HETATM    2  C2  UNL     1     -32.944   5.474   2.459  1.00 20.00     0.055 C 
HETATM    3  C3  UNL     1     -33.350   6.927   2.306  1.00 20.00     0.195 C 
HETATM    4  C4  UNL     1     -34.068   4.924   3.310  1.00 20.00     0.129 C 
HETATM    5  C5  UNL     1     -33.668   3.703   4.115  1.00 20.00     0.040 C 
HETATM    6  O7  UNL     1     -34.232   8.289   4.124  1.00 20.00    -0.265 OA
HETATM    7  O8  UNL     1     -34.403   6.003   4.196  1.00 20.00    -0.316 OA
ENDROOT
BRANCH   3   8
HETATM    8  C6  UNL     1     -32.169   7.844   2.052  1.00 20.00     0.400 C 
HETATM    9  F9  UNL     1     -31.182   7.177   1.427  1.00 20.00    -0.170 F 
HETATM   10  F10 UNL     1     -32.538   8.881   1.279  1.00 20.00    -0.170 F 
HETATM   11  F11 UNL     1     -31.689   8.326   3.213  1.00 20.00    -0.170 F 
ENDBRANCH   3   8
TORSDOF 1
ENDMDL
MODEL 3
REMARK VINA RESULT:      -1.9      1.837      2.437
REMARK  1 active torsions:
REMARK  status: ('A' for Active; 'I' for Inactive)
REMARK    1  A    between atoms: C3_3  and  C6_6 
ROOT
HETATM    1  C1  UNL     1     -32.564   6.181   1.824  1.00 20.00     0.272 C 
HETATM    2  C2  UNL     1     -33.628   7.901   3.005  1.00 20.00     0.055 C 
HETATM    3  C3  UNL     1     -32.356   7.619   2.229  1.00 20.00     0.195 C 
HETATM    4  C4  UNL     1     -33.913   6.556   3.637  1.00 20.00     0.129 C 
HETATM    5  C5  UNL     1     -35.378   6.346   3.965  1.00 20.00     0.040 C 
HETATM    6  O7  UNL     1     -31.983   5.596   0.923  1.00 20.00    -0.265 OA
HETATM    7  O8  UNL     1     -33.495   5.604   2.647  1.00 20.00    -0.316 OA
ENDROOT
BRANCH   3   8
HETATM    8  C6  UNL     1     -32.174   8.545   1.042  1.00 20.00     0.400 C 
HETATM    9  F9  UNL     1     -32.368   9.825   1.410  1.00 20.00    -0.170 F 
HETATM   10  F10 UNL     1     -30.930   8.429   0.543  1.00 20.00    -0.170 F 
HETATM   11  F11 UNL     1     -33.054   8.243   0.070  1.00 20.00    -0.170 F 
ENDBRANCH   3   8
TORSDOF 1
ENDMDL
MODEL 4
REMARK VINA RESULT:      -1.5      2.294      3.886
REMARK  1 active torsions:
REMARK  status: ('A' for Active; 'I' for Inactive)
REMARK    1  A    between atoms: C3_3  and  C6_6 
ROOT
HETATM    1  C1  UNL     1     -33.016   7.815   2.607  1.00 20.00     0.272 C 
HETATM    2  C2  UNL     1     -31.875   7.861   0.563  1.00 20.00     0.055 C 
HETATM    3  C3  UNL     1     -32.033   7.002   1.803  1.00 20.00     0.195 C 
HETATM    4  C4  UNL     1     -32.026   9.256   1.128  1.00 20.00     0.129 C 
HETATM    5  C5  UNL     1     -32.507  10.268   0.106  1.00 20.00     0.040 C 
HETATM    6  O7  UNL     1     -33.706   7.405   3.528  1.00 20.00    -0.265 OA
HETATM    7  O8  UNL     1     -33.004   9.113   2.169  1.00 20.00    -0.316 OA
ENDROOT
BRANCH   3   8
HETATM    8  C6  UNL     1     -32.537   5.607   1.491  1.00 20.00     0.400 C 
HETATM    9  F9  UNL     1     -33.537   5.657   0.592  1.00 20.00    -0.170 F 
HETATM   10  F10 UNL     1     -31.546   4.851   0.985  1.00 20.00    -0.170 F 
HETATM   11  F11 UNL     1     -32.999   5.013   2.607  1.00 20.00    -0.170 F 
ENDBRANCH   3   8
TORSDOF 1
ENDMDL
MODEL 5
REMARK VINA RESULT:      -1.4      2.748      3.778
REMARK  1 active torsions:
REMARK  status: ('A' for Active; 'I' for Inactive)
REMARK    1  A    between atoms: C3_3  and  C6_6 
ROOT
HETATM    1  C1  UNL     1     -32.888   7.823   3.988  1.00 20.00     0.272 C 
HETATM    2  C2  UNL     1     -33.376   6.849   1.915  1.00 20.00     0.055 C 
HETATM    3  C3  UNL     1     -33.476   6.563   3.401  1.00 20.00     0.195 C 
HETATM    4  C4  UNL     1     -32.110   7.673   1.839  1.00 20.00     0.129 C 
HETATM    5  C5  UNL     1     -32.062   8.590   0.633  1.00 20.00     0.040 C 
HETATM    6  O7  UNL     1     -33.038   8.220   5.133  1.00 20.00    -0.265 OA
HETATM    7  O8  UNL     1     -32.123   8.454   3.044  1.00 20.00    -0.316 OA
ENDROOT
BRANCH   3   8
HETATM    8  C6  UNL     1     -34.900   6.309   3.857  1.00 20.00     0.400 C 
HETATM    9  F9  UNL     1     -35.772   6.669   2.898  1.00 20.00    -0.170 F 
HETATM   10  F10 UNL     1     -35.080   5.004   4.129  1.00 20.00    -0.170 F 
HETATM   11  F11 UNL     1     -35.172   7.018   4.968  1.00 20.00    -0.170 F 
ENDBRANCH   3   8
TORSDOF 1
ENDMDL
MODEL 6
REMARK VINA RESULT:      -1.4      2.748      3.770
REMARK  1 active torsions:
REMARK  status: ('A' for Active; 'I' for Inactive)
REMARK    1  A    between atoms: C3_3  and  C6_6 
ROOT
HETATM    1  C1  UNL     1     -32.891   7.822   3.988  1.00 20.00     0.272 C 
HETATM    2  C2  UNL     1     -33.377   6.846   1.915  1.00 20.00     0.055 C 
HETATM    3  C3  UNL     1     -33.478   6.562   3.402  1.00 20.00     0.195 C 
HETATM    4  C4  UNL     1     -32.111   7.670   1.840  1.00 20.00     0.129 C 
HETATM    5  C5  UNL     1     -32.063   8.586   0.632  1.00 20.00     0.040 C 
HETATM    6  O7  UNL     1     -33.041   8.221   5.133  1.00 20.00    -0.265 OA
HETATM    7  O8  UNL     1     -32.125   8.453   3.043  1.00 20.00    -0.316 OA
ENDROOT
BRANCH   3   8
HETATM    8  C6  UNL     1     -34.901   6.308   3.857  1.00 20.00     0.400 C 
HETATM    9  F9  UNL     1     -35.173   7.014   4.969  1.00 20.00    -0.170 F 
HETATM   10  F10 UNL     1     -35.773   6.670   2.898  1.00 20.00    -0.170 F 
HETATM   11  F11 UNL     1     -35.083   5.002   4.127  1.00 20.00    -0.170 F 
ENDBRANCH   3   8
TORSDOF 1
ENDMDL
MODEL 7
REMARK VINA RESULT:      -1.1      2.278      3.238
REMARK  1 active torsions:
REMARK  status: ('A' for Active; 'I' for Inactive)
REMARK    1  A    between atoms: C3_3  and  C6_6 
ROOT
HETATM    1  C1  UNL     1     -32.278   7.636   1.980  1.00 20.00     0.272 C 
HETATM    2  C2  UNL     1     -33.837   6.457   3.271  1.00 20.00     0.055 C 
HETATM    3  C3  UNL     1     -33.287   6.521   1.858  1.00 20.00     0.195 C 
HETATM    4  C4  UNL     1     -33.768   7.907   3.698  1.00 20.00     0.129 C 
HETATM    5  C5  UNL     1     -33.675   8.085   5.201  1.00 20.00     0.040 C 
HETATM    6  O7  UNL     1     -31.351   7.853   1.215  1.00 20.00    -0.265 OA
HETATM    7  O8  UNL     1     -32.574   8.404   3.075  1.00 20.00    -0.316 OA
ENDROOT
BRANCH   3   8
HETATM    8  C6  UNL     1     -32.668   5.212   1.409  1.00 20.00     0.400 C 
HETATM    9  F9  UNL     1     -31.340   5.351   1.246  1.00 20.00    -0.170 F 
HETATM   10  F10 UNL     1     -32.886   4.250   2.324  1.00 20.00    -0.170 F 
HETATM   11  F11 UNL     1     -33.201   4.816   0.239  1.00 20.00    -0.170 F 
ENDBRANCH   3   8
TORSDOF 1
ENDMDL
MODEL 8
REMARK VINA RESULT:      -1.1      2.471      3.184
REMARK  1 active torsions:
REMARK  status: ('A' for Active; 'I' for Inactive)
REMARK    1  A    between atoms: C3_3  and  C6_6 
ROOT
HETATM    1  C1  UNL     1     -32.462   7.647   2.254  1.00 20.00     0.272 C 
HETATM    2  C2  UNL     1     -33.534   5.592   2.591  1.00 20.00     0.055 C 
HETATM    3  C3  UNL     1     -33.095   6.828   3.352  1.00 20.00     0.195 C 
HETATM    4  C4  UNL     1     -32.451   5.471   1.541  1.00 20.00     0.129 C 
HETATM    5  C5  UNL     1     -32.903   4.731   0.297  1.00 20.00     0.040 C 
HETATM    6  O7  UNL     1     -32.249   8.849   2.286  1.00 20.00    -0.265 OA
HETATM    7  O8  UNL     1     -32.126   6.829   1.208  1.00 20.00    -0.316 OA
ENDROOT
BRANCH   3   8
HETATM    8  C6  UNL     1     -34.248   7.541   4.030  1.00 20.00     0.400 C 
HETATM    9  F9  UNL     1     -34.782   8.461   3.207  1.00 20.00    -0.170 F 
HETATM   10  F10 UNL     1     -35.209   6.663   4.370  1.00 20.00    -0.170 F 
HETATM   11  F11 UNL     1     -33.826   8.163   5.146  1.00 20.00    -0.170 F 
ENDBRANCH   3   8
TORSDOF 1
ENDMDL
MODEL 9
REMARK VINA RESULT:      -0.7      2.852      3.981
REMARK  1 active torsions:
REMARK  status: ('A' for Active; 'I' for Inactive)
REMARK    1  A    between atoms: C3_3  and  C6_6 
ROOT
HETATM    1  C1  UNL     1     -33.069   5.895   2.062  1.00 20.00     0.272 C 
HETATM    2  C2  UNL     1     -33.180   8.084   2.887  1.00 20.00     0.055 C 
HETATM    3  C3  UNL     1     -34.067   6.886   2.606  1.00 20.00     0.195 C 
HETATM    4  C4  UNL     1     -32.149   7.974   1.785  1.00 20.00     0.129 C 
HETATM    5  C5  UNL     1     -30.829   8.635   2.132  1.00 20.00     0.040 C 
HETATM    6  O7  UNL     1     -33.221   4.685   1.993  1.00 20.00    -0.265 OA
HETATM    7  O8  UNL     1     -31.957   6.561   1.619  1.00 20.00    -0.316 OA
ENDROOT
BRANCH   3   8
HETATM    8  C6  UNL     1     -34.784   6.382   3.843  1.00 20.00     0.400 C 
HETATM    9  F9  UNL     1     -34.318   5.171   4.197  1.00 20.00    -0.170 F 
HETATM   10  F10 UNL     1     -34.596   7.228   4.873  1.00 20.00    -0.170 F 
HETATM   11  F11 UNL     1     -36.106   6.279   3.613  1.00 20.00    -0.170 F 
ENDBRANCH   3   8
TORSDOF 1
ENDMDL
