MODEL 1
REMARK VINA RESULT:       0.8      0.000      0.000
REMARK  0 active torsions:
REMARK  status: ('A' for Active; 'I' for Inactive)
ROOT
HETATM    1  C1  UNL     1     -32.082   5.384   1.458  1.00 20.00     0.009 A 
HETATM    2  C2  UNL     1     -31.753   6.644   0.956  1.00 20.00     0.019 A 
HETATM    3  C3  UNL     1     -33.333   7.664   2.473  1.00 20.00     0.034 A 
HETATM    4  C4  UNL     1     -33.663   6.399   2.977  1.00 20.00     0.017 A 
HETATM    5  C5  UNL     1     -33.030   5.249   2.482  1.00 20.00    -0.044 A 
HETATM    6  C6  UNL     1     -32.376   7.781   1.465  1.00 20.00     0.011 A 
HETATM    7  C7  UNL     1     -34.701   6.284   4.035  1.00 20.00     0.160 C 
HETATM    8  C8  UNL     1     -33.381   3.877   2.991  1.00 20.00     0.040 C 
HETATM    9  C9  UNL     1     -35.058   4.903   4.538  1.00 20.00     0.084 C 
HETATM   10  C10 UNL     1     -33.890   3.938   4.424  1.00 20.00     0.012 C 
HETATM   11  O11 UNL     1     -35.286   7.283   4.444  1.00 20.00    -0.292 OA
HETATM   12 BR12 UNL     1     -31.930   9.487   0.781  1.00 20.00    -0.051 Br
ENDROOT
TORSDOF 0
ENDMDL
MODEL 2
REMARK VINA RESULT:       2.7      2.970      4.698
REMARK  0 active torsions:
REMARK  status: ('A' for Active; 'I' for Inactive)
ROOT
HETATM    1  C1  UNL     1     -34.957   5.933   4.344  1.00 20.00     0.009 A 
HETATM    2  C2  UNL     1     -34.765   4.596   4.693  1.00 20.00     0.019 A 
HETATM    3  C3  UNL     1     -32.914   4.457   3.147  1.00 20.00     0.034 A 
HETATM    4  C4  UNL     1     -33.107   5.799   2.796  1.00 20.00     0.017 A 
HETATM    5  C5  UNL     1     -34.123   6.552   3.403  1.00 20.00    -0.044 A 
HETATM    6  C6  UNL     1     -33.743   3.861   4.097  1.00 20.00     0.011 A 
HETATM    7  C7  UNL     1     -32.232   6.416   1.766  1.00 20.00     0.160 C 
HETATM    8  C8  UNL     1     -34.366   7.990   3.029  1.00 20.00     0.040 C 
HETATM    9  C9  UNL     1     -32.484   7.859   1.386  1.00 20.00     0.084 C 
HETATM   10  C10 UNL     1     -33.087   8.651   2.535  1.00 20.00     0.012 C 
HETATM   11  O11 UNL     1     -31.367   5.752   1.204  1.00 20.00    -0.292 OA
HETATM   12 BR12 UNL     1     -33.486   2.048   4.570  1.00 20.00    -0.051 Br
ENDROOT
TORSDOF 0
ENDMDL
MODEL 3
REMARK VINA RESULT:       3.1      2.156      2.945
REMARK  0 active torsions:
REMARK  status: ('A' for Active; 'I' for Inactive)
ROOT
HETATM    1  C1  UNL     1     -32.642   7.180   1.811  1.00 20.00     0.009 A 
HETATM    2  C2  UNL     1     -31.828   6.412   0.977  1.00 20.00     0.019 A 
HETATM    3  C3  UNL     1     -32.595   4.402   2.076  1.00 20.00     0.034 A 
HETATM    4  C4  UNL     1     -33.412   5.173   2.913  1.00 20.00     0.017 A 
HETATM    5  C5  UNL     1     -33.452   6.569   2.778  1.00 20.00    -0.044 A 
HETATM    6  C6  UNL     1     -31.807   5.026   1.108  1.00 20.00     0.011 A 
HETATM    7  C7  UNL     1     -34.230   4.499   3.955  1.00 20.00     0.160 C 
HETATM    8  C8  UNL     1     -34.304   7.422   3.678  1.00 20.00     0.040 C 
HETATM    9  C9  UNL     1     -35.079   5.360   4.864  1.00 20.00     0.084 C 
HETATM   10  C10 UNL     1     -35.514   6.647   4.183  1.00 20.00     0.012 C 
HETATM   11  O11 UNL     1     -34.170   3.282   4.104  1.00 20.00    -0.292 OA
HETATM   12 BR12 UNL     1     -30.702   3.988  -0.021  1.00 20.00    -0.051 Br
ENDROOT
TORSDOF 0
ENDMDL
MODEL 4
REMARK VINA RESULT:       3.3      1.640      2.625
REMARK  0 active torsions:
REMARK  status: ('A' for Active; 'I' for Inactive)
ROOT
HETATM    1  C1  UNL     1     -33.727   8.703   3.255  1.00 20.00     0.009 A 
HETATM    2  C2  UNL     1     -32.926   9.208   2.229  1.00 20.00     0.019 A 
HETATM    3  C3  UNL     1     -32.385   6.957   1.541  1.00 20.00     0.034 A 
HETATM    4  C4  UNL     1     -33.188   6.450   2.570  1.00 20.00     0.017 A 
HETATM    5  C5  UNL     1     -33.876   7.320   3.428  1.00 20.00    -0.044 A 
HETATM    6  C6  UNL     1     -32.259   8.336   1.372  1.00 20.00     0.011 A 
HETATM    7  C7  UNL     1     -33.295   4.979   2.754  1.00 20.00     0.160 C 
HETATM    8  C8  UNL     1     -34.729   6.802   4.555  1.00 20.00     0.040 C 
HETATM    9  C9  UNL     1     -34.146   4.461   3.893  1.00 20.00     0.084 C 
HETATM   10  C10 UNL     1     -35.276   5.418   4.237  1.00 20.00     0.012 C 
HETATM   11  O11 UNL     1     -32.664   4.213   2.031  1.00 20.00    -0.292 OA
HETATM   12 BR12 UNL     1     -31.174   9.023  -0.015  1.00 20.00    -0.051 Br
ENDROOT
TORSDOF 0
ENDMDL
