MODEL 1
REMARK VINA RESULT:       3.4      0.000      0.000
REMARK  2 active torsions:
REMARK  status: ('A' for Active; 'I' for Inactive)
REMARK    1  A    between atoms: P5_5  and  P6_6 
REMARK    2  A    between atoms: P5_5  and  S8_8 
ROOT
HETATM    1  C1  UNL     1     -35.252   6.547   3.629  1.00 20.00     0.061 C 
HETATM    2  P5  UNL     1     -33.554   5.885   3.781  1.00 20.00    -0.021 P 
ENDROOT
BRANCH   2   3
HETATM    3  P6  UNL     1     -32.734   6.242   1.825  1.00 20.00    -0.027 P 
HETATM    4  C2  UNL     1     -31.540   4.962   1.432  1.00 20.00     0.060 C 
HETATM    5  C3  UNL     1     -34.066   5.909   0.662  1.00 20.00     0.060 C 
HETATM    6  S7  UNL     1     -32.042   8.060   1.724  1.00 20.00    -0.092 SA
ENDBRANCH   2   3
BRANCH   2   7
HETATM    7  S8  UNL     1     -33.885   3.803   3.736  1.00 20.00    -0.137 SA
HETATM    8  C4  UNL     1     -32.919   3.105   5.091  1.00 20.00     0.095 C 
ENDBRANCH   2   7
TORSDOF 2
ENDMDL
MODEL 2
REMARK VINA RESULT:       3.7      1.986      4.446
REMARK  2 active torsions:
REMARK  status: ('A' for Active; 'I' for Inactive)
REMARK    1  A    between atoms: P5_5  and  P6_6 
REMARK    2  A    between atoms: P5_5  and  S8_8 
ROOT
HETATM    1  C1  UNL     1     -33.801   6.313   0.467  1.00 20.00     0.061 C 
HETATM    2  P5  UNL     1     -32.732   6.210   1.948  1.00 20.00    -0.021 P 
ENDROOT
BRANCH   2   3
HETATM    3  P6  UNL     1     -34.158   6.233   3.559  1.00 20.00    -0.027 P 
HETATM    4  C2  UNL     1     -33.766   7.572   4.687  1.00 20.00     0.060 C 
HETATM    5  C3  UNL     1     -35.714   6.769   2.833  1.00 20.00     0.060 C 
HETATM    6  S7  UNL     1     -34.244   4.472   4.385  1.00 20.00    -0.092 SA
ENDBRANCH   2   3
BRANCH   2   7
HETATM    7  S8  UNL     1     -31.933   8.158   2.053  1.00 20.00    -0.137 SA
HETATM    8  C4  UNL     1     -32.288   8.940   0.465  1.00 20.00     0.095 C 
ENDBRANCH   2   7
TORSDOF 2
ENDMDL
MODEL 3
REMARK VINA RESULT:       3.8      2.041      4.356
REMARK  2 active torsions:
REMARK  status: ('A' for Active; 'I' for Inactive)
REMARK    1  A    between atoms: P5_5  and  P6_6 
REMARK    2  A    between atoms: P5_5  and  S8_8 
ROOT
HETATM    1  C1  UNL     1     -33.836   6.301   0.503  1.00 20.00     0.061 C 
HETATM    2  P5  UNL     1     -32.798   6.180   2.004  1.00 20.00    -0.021 P 
ENDROOT
BRANCH   2   3
HETATM    3  P6  UNL     1     -34.228   6.449   3.588  1.00 20.00    -0.027 P 
HETATM    4  C2  UNL     1     -35.851   6.750   2.885  1.00 20.00     0.060 C 
HETATM    5  C3  UNL     1     -34.424   4.834   4.357  1.00 20.00     0.060 C 
HETATM    6  S7  UNL     1     -33.602   7.828   4.812  1.00 20.00    -0.092 SA
ENDBRANCH   2   3
BRANCH   2   7
HETATM    7  S8  UNL     1     -31.800   8.037   2.005  1.00 20.00    -0.137 SA
HETATM    8  C4  UNL     1     -32.479   8.978   0.622  1.00 20.00     0.095 C 
ENDBRANCH   2   7
TORSDOF 2
ENDMDL
MODEL 4
REMARK VINA RESULT:       3.9      2.301      3.869
REMARK  2 active torsions:
REMARK  status: ('A' for Active; 'I' for Inactive)
REMARK    1  A    between atoms: P5_5  and  P6_6 
REMARK    2  A    between atoms: P5_5  and  S8_8 
ROOT
HETATM    1  C1  UNL     1     -31.908   8.062   2.183  1.00 20.00     0.061 C 
HETATM    2  P5  UNL     1     -33.242   6.924   1.663  1.00 20.00    -0.021 P 
ENDROOT
BRANCH   2   3
HETATM    3  P6  UNL     1     -34.211   6.452   3.525  1.00 20.00    -0.027 P 
HETATM    4  C2  UNL     1     -33.750   7.665   4.764  1.00 20.00     0.060 C 
HETATM    5  C3  UNL     1     -35.960   6.790   3.272  1.00 20.00     0.060 C 
HETATM    6  S7  UNL     1     -33.833   4.605   4.013  1.00 20.00    -0.092 SA
ENDBRANCH   2   3
BRANCH   2   7
HETATM    7  S8  UNL     1     -32.179   5.147   1.268  1.00 20.00    -0.137 SA
HETATM    8  C4  UNL     1     -33.085   4.291  -0.037  1.00 20.00     0.095 C 
ENDBRANCH   2   7
TORSDOF 2
ENDMDL
MODEL 5
REMARK VINA RESULT:       4.0      1.576      1.884
REMARK  2 active torsions:
REMARK  status: ('A' for Active; 'I' for Inactive)
REMARK    1  A    between atoms: P5_5  and  P6_6 
REMARK    2  A    between atoms: P5_5  and  S8_8 
ROOT
HETATM    1  C1  UNL     1     -35.226   6.585   3.659  1.00 20.00     0.061 C 
HETATM    2  P5  UNL     1     -33.539   5.885   3.757  1.00 20.00    -0.021 P 
ENDROOT
BRANCH   2   3
HETATM    3  P6  UNL     1     -32.778   6.212   1.772  1.00 20.00    -0.027 P 
HETATM    4  C2  UNL     1     -32.037   7.843   1.676  1.00 20.00     0.060 C 
HETATM    5  C3  UNL     1     -31.358   5.121   1.602  1.00 20.00     0.060 C 
HETATM    6  S7  UNL     1     -34.184   5.878   0.466  1.00 20.00    -0.092 SA
ENDBRANCH   2   3
BRANCH   2   7
HETATM    7  S8  UNL     1     -33.918   3.812   3.737  1.00 20.00    -0.137 SA
HETATM    8  C4  UNL     1     -32.930   3.100   5.069  1.00 20.00     0.095 C 
ENDBRANCH   2   7
TORSDOF 2
ENDMDL
MODEL 6
REMARK VINA RESULT:       4.0      2.279      3.797
REMARK  2 active torsions:
REMARK  status: ('A' for Active; 'I' for Inactive)
REMARK    1  A    between atoms: P5_5  and  P6_6 
REMARK    2  A    between atoms: P5_5  and  S8_8 
ROOT
HETATM    1  C1  UNL     1     -31.803   8.103   2.052  1.00 20.00     0.061 C 
HETATM    2  P5  UNL     1     -33.201   7.004   1.626  1.00 20.00    -0.021 P 
ENDROOT
BRANCH   2   3
HETATM    3  P6  UNL     1     -34.109   6.635   3.541  1.00 20.00    -0.027 P 
HETATM    4  C2  UNL     1     -35.895   6.655   3.371  1.00 20.00     0.060 C 
HETATM    5  C3  UNL     1     -33.768   4.911   3.926  1.00 20.00     0.060 C 
HETATM    6  S7  UNL     1     -33.402   7.886   4.855  1.00 20.00    -0.092 SA
ENDBRANCH   2   3
BRANCH   2   7
HETATM    7  S8  UNL     1     -32.227   5.173   1.251  1.00 20.00    -0.137 SA
HETATM    8  C4  UNL     1     -33.193   4.333  -0.021  1.00 20.00     0.095 C 
ENDBRANCH   2   7
TORSDOF 2
ENDMDL
MODEL 7
REMARK VINA RESULT:       4.0      1.580      1.899
REMARK  2 active torsions:
REMARK  status: ('A' for Active; 'I' for Inactive)
REMARK    1  A    between atoms: P5_5  and  P6_6 
REMARK    2  A    between atoms: P5_5  and  S8_8 
ROOT
HETATM    1  C1  UNL     1     -35.214   6.585   3.667  1.00 20.00     0.061 C 
HETATM    2  P5  UNL     1     -33.534   5.873   3.796  1.00 20.00    -0.021 P 
ENDROOT
BRANCH   2   3
HETATM    3  P6  UNL     1     -32.749   6.158   1.813  1.00 20.00    -0.027 P 
HETATM    4  C2  UNL     1     -34.103   6.236   0.639  1.00 20.00     0.060 C 
HETATM    5  C3  UNL     1     -32.096   7.834   1.776  1.00 20.00     0.060 C 
HETATM    6  S7  UNL     1     -31.417   4.789   1.431  1.00 20.00    -0.092 SA
ENDBRANCH   2   3
BRANCH   2   7
HETATM    7  S8  UNL     1     -33.930   3.803   3.809  1.00 20.00    -0.137 SA
HETATM    8  C4  UNL     1     -32.861   3.088   5.076  1.00 20.00     0.095 C 
ENDBRANCH   2   7
TORSDOF 2
ENDMDL
MODEL 8
REMARK VINA RESULT:       4.1      1.969      4.242
REMARK  2 active torsions:
REMARK  status: ('A' for Active; 'I' for Inactive)
REMARK    1  A    between atoms: P5_5  and  P6_6 
REMARK    2  A    between atoms: P5_5  and  S8_8 
ROOT
HETATM    1  C1  UNL     1     -33.258   7.763   4.113  1.00 20.00     0.061 C 
HETATM    2  P5  UNL     1     -33.551   7.613   2.313  1.00 20.00    -0.021 P 
ENDROOT
BRANCH   2   3
HETATM    3  P6  UNL     1     -33.193   5.523   1.952  1.00 20.00    -0.027 P 
HETATM    4  C2  UNL     1     -33.891   5.060   0.366  1.00 20.00     0.060 C 
HETATM    5  C3  UNL     1     -31.423   5.367   1.666  1.00 20.00     0.060 C 
HETATM    6  S7  UNL     1     -33.837   4.475   3.462  1.00 20.00    -0.092 SA
ENDBRANCH   2   3
BRANCH   2   7
HETATM    7  S8  UNL     1     -31.814   8.493   1.506  1.00 20.00    -0.137 SA
HETATM    8  C4  UNL     1     -32.377   9.765   0.356  1.00 20.00     0.095 C 
ENDBRANCH   2   7
TORSDOF 2
ENDMDL
MODEL 9
REMARK VINA RESULT:       4.2      2.507      3.189
REMARK  2 active torsions:
REMARK  status: ('A' for Active; 'I' for Inactive)
REMARK    1  A    between atoms: P5_5  and  P6_6 
REMARK    2  A    between atoms: P5_5  and  S8_8 
ROOT
HETATM    1  C1  UNL     1     -33.000   5.349   1.781  1.00 20.00     0.061 C 
HETATM    2  P5  UNL     1     -33.809   6.985   1.908  1.00 20.00    -0.021 P 
ENDROOT
BRANCH   2   3
HETATM    3  P6  UNL     1     -32.146   8.343   1.778  1.00 20.00    -0.027 P 
HETATM    4  C2  UNL     1     -31.706   8.910   3.421  1.00 20.00     0.060 C 
HETATM    5  C3  UNL     1     -30.726   7.342   1.311  1.00 20.00     0.060 C 
HETATM    6  S7  UNL     1     -32.555   9.762   0.508  1.00 20.00    -0.092 SA
ENDBRANCH   2   3
BRANCH   2   7
HETATM    7  S8  UNL     1     -34.288   7.085   3.958  1.00 20.00    -0.137 SA
HETATM    8  C4  UNL     1     -35.347   5.665   4.303  1.00 20.00     0.095 C 
ENDBRANCH   2   7
TORSDOF 2
ENDMDL
