MODEL 1
REMARK VINA RESULT:      -1.7      0.000      0.000
REMARK  1 active torsions:
REMARK  status: ('A' for Active; 'I' for Inactive)
REMARK    1  A    between atoms: C2_2  and  C4_4 
ROOT
HETATM    1  C1  UNL     1     -35.039   5.554   4.311  1.00 20.00     0.207 A 
HETATM    2  C2  UNL     1     -34.250   6.642   3.623  1.00 20.00     0.091 A 
HETATM    3  C3  UNL     1     -33.838   7.852   4.395  1.00 20.00     0.049 C 
HETATM    4  O5  UNL     1     -35.670   6.520   3.456  1.00 20.00    -0.374 OA
ENDROOT
BRANCH   2   5
HETATM    5  C4  UNL     1     -33.469   6.318   2.391  1.00 20.00     0.154 C 
HETATM    6 CL6  UNL     1     -32.318   7.624   1.999  1.00 20.00    -0.127 Cl
ENDBRANCH   2   5
TORSDOF 1
ENDMDL
MODEL 2
REMARK VINA RESULT:      -1.6      2.514      3.444
REMARK  1 active torsions:
REMARK  status: ('A' for Active; 'I' for Inactive)
REMARK    1  A    between atoms: C2_2  and  C4_4 
ROOT
HETATM    1  C1  UNL     1     -31.465   8.022   1.946  1.00 20.00     0.207 A 
HETATM    2  C2  UNL     1     -32.730   7.269   2.282  1.00 20.00     0.091 A 
HETATM    3  C3  UNL     1     -32.977   5.932   1.663  1.00 20.00     0.049 C 
HETATM    4  O5  UNL     1     -32.724   8.350   1.339  1.00 20.00    -0.374 OA
ENDROOT
BRANCH   2   5
HETATM    5  C4  UNL     1     -33.456   7.580   3.550  1.00 20.00     0.154 C 
HETATM    6 CL6  UNL     1     -34.873   6.515   3.756  1.00 20.00    -0.127 Cl
ENDBRANCH   2   5
TORSDOF 1
ENDMDL
MODEL 3
REMARK VINA RESULT:      -1.4      2.434      3.102
REMARK  1 active torsions:
REMARK  status: ('A' for Active; 'I' for Inactive)
REMARK    1  A    between atoms: C2_2  and  C4_4 
ROOT
HETATM    1  C1  UNL     1     -33.021   5.621   0.670  1.00 20.00     0.207 A 
HETATM    2  C2  UNL     1     -32.850   6.425   1.936  1.00 20.00     0.091 A 
HETATM    3  C3  UNL     1     -32.238   7.786   1.866  1.00 20.00     0.049 C 
HETATM    4  O5  UNL     1     -31.946   5.367   1.588  1.00 20.00    -0.374 OA
ENDROOT
BRANCH   2   5
HETATM    5  C4  UNL     1     -33.706   6.121   3.123  1.00 20.00     0.154 C 
HETATM    6 CL6  UNL     1     -34.095   7.606   4.032  1.00 20.00    -0.127 Cl
ENDBRANCH   2   5
TORSDOF 1
ENDMDL
MODEL 4
REMARK VINA RESULT:      -1.2      2.093      2.745
REMARK  1 active torsions:
REMARK  status: ('A' for Active; 'I' for Inactive)
REMARK    1  A    between atoms: C2_2  and  C4_4 
ROOT
HETATM    1  C1  UNL     1     -34.235   7.341   4.253  1.00 20.00     0.207 A 
HETATM    2  C2  UNL     1     -34.279   5.988   3.583  1.00 20.00     0.091 A 
HETATM    3  C3  UNL     1     -33.413   5.728   2.394  1.00 20.00     0.049 C 
HETATM    4  O5  UNL     1     -35.294   6.976   3.353  1.00 20.00    -0.374 OA
ENDROOT
BRANCH   2   5
HETATM    5  C4  UNL     1     -34.758   4.800   4.353  1.00 20.00     0.154 C 
HETATM    6 CL6  UNL     1     -33.569   3.472   4.290  1.00 20.00    -0.127 Cl
ENDBRANCH   2   5
TORSDOF 1
ENDMDL
MODEL 5
REMARK VINA RESULT:      -1.2      2.062      2.610
REMARK  1 active torsions:
REMARK  status: ('A' for Active; 'I' for Inactive)
REMARK    1  A    between atoms: C2_2  and  C4_4 
ROOT
HETATM    1  C1  UNL     1     -32.481   5.592   1.750  1.00 20.00     0.207 A 
HETATM    2  C2  UNL     1     -32.758   7.012   2.182  1.00 20.00     0.091 A 
HETATM    3  C3  UNL     1     -33.701   7.265   3.313  1.00 20.00     0.049 C 
HETATM    4  O5  UNL     1     -33.385   6.441   1.025  1.00 20.00    -0.374 OA
ENDROOT
BRANCH   2   5
HETATM    5  C4  UNL     1     -31.769   8.085   1.864  1.00 20.00     0.154 C 
HETATM    6 CL6  UNL     1     -32.441   9.251   0.692  1.00 20.00    -0.127 Cl
ENDBRANCH   2   5
TORSDOF 1
ENDMDL
MODEL 6
REMARK VINA RESULT:      -1.0      1.322      1.698
REMARK  1 active torsions:
REMARK  status: ('A' for Active; 'I' for Inactive)
REMARK    1  A    between atoms: C2_2  and  C4_4 
ROOT
HETATM    1  C1  UNL     1     -35.257   6.729   3.561  1.00 20.00     0.207 A 
HETATM    2  C2  UNL     1     -34.014   5.932   3.250  1.00 20.00     0.091 A 
HETATM    3  C3  UNL     1     -33.805   4.607   3.908  1.00 20.00     0.049 C 
HETATM    4  O5  UNL     1     -33.990   7.040   4.161  1.00 20.00    -0.374 OA
ENDROOT
BRANCH   2   5
HETATM    5  C4  UNL     1     -33.277   6.185   1.974  1.00 20.00     0.154 C 
HETATM    6 CL6  UNL     1     -32.273   7.656   2.094  1.00 20.00    -0.127 Cl
ENDBRANCH   2   5
TORSDOF 1
ENDMDL
MODEL 7
REMARK VINA RESULT:      -1.0      2.564      3.143
REMARK  1 active torsions:
REMARK  status: ('A' for Active; 'I' for Inactive)
REMARK    1  A    between atoms: C2_2  and  C4_4 
ROOT
HETATM    1  C1  UNL     1     -32.397   8.542   1.363  1.00 20.00     0.207 A 
HETATM    2  C2  UNL     1     -32.815   7.380   2.231  1.00 20.00     0.091 A 
HETATM    3  C3  UNL     1     -33.393   7.643   3.584  1.00 20.00     0.049 C 
HETATM    4  O5  UNL     1     -31.440   7.770   2.106  1.00 20.00    -0.374 OA
ENDROOT
BRANCH   2   5
HETATM    5  C4  UNL     1     -33.128   6.063   1.598  1.00 20.00     0.154 C 
HETATM    6 CL6  UNL     1     -31.635   5.167   1.210  1.00 20.00    -0.127 Cl
ENDBRANCH   2   5
TORSDOF 1
ENDMDL
MODEL 8
REMARK VINA RESULT:      -0.8      2.395      2.753
REMARK  1 active torsions:
REMARK  status: ('A' for Active; 'I' for Inactive)
REMARK    1  A    between atoms: C2_2  and  C4_4 
ROOT
HETATM    1  C1  UNL     1     -33.548   7.707   2.845  1.00 20.00     0.207 A 
HETATM    2  C2  UNL     1     -34.056   6.433   3.474  1.00 20.00     0.091 A 
HETATM    3  C3  UNL     1     -35.479   6.350   3.924  1.00 20.00     0.049 C 
HETATM    4  O5  UNL     1     -33.271   7.378   4.215  1.00 20.00    -0.374 OA
ENDROOT
BRANCH   2   5
HETATM    5  C4  UNL     1     -33.350   5.145   3.202  1.00 20.00     0.154 C 
HETATM    6 CL6  UNL     1     -33.935   3.851   4.282  1.00 20.00    -0.127 Cl
ENDBRANCH   2   5
TORSDOF 1
ENDMDL
MODEL 9
REMARK VINA RESULT:      -0.8      1.121      1.807
REMARK  1 active torsions:
REMARK  status: ('A' for Active; 'I' for Inactive)
REMARK    1  A    between atoms: C2_2  and  C4_4 
ROOT
HETATM    1  C1  UNL     1     -35.288   6.284   3.673  1.00 20.00     0.207 A 
HETATM    2  C2  UNL     1     -33.885   6.455   3.143  1.00 20.00     0.091 A 
HETATM    3  C3  UNL     1     -33.451   5.674   1.944  1.00 20.00     0.049 C 
HETATM    4  O5  UNL     1     -34.162   5.642   4.291  1.00 20.00    -0.374 OA
ENDROOT
BRANCH   2   5
HETATM    5  C4  UNL     1     -33.125   7.703   3.457  1.00 20.00     0.154 C 
HETATM    6 CL6  UNL     1     -32.041   8.150   2.112  1.00 20.00    -0.127 Cl
ENDBRANCH   2   5
TORSDOF 1
ENDMDL
