MODEL 1
REMARK VINA RESULT:       2.1      0.000      0.000
REMARK  0 active torsions:
REMARK  status: ('A' for Active; 'I' for Inactive)
ROOT
HETATM    1  C1  UNL     1     -33.244   6.277   0.623  1.00 20.00    -0.024 C 
HETATM    2  C2  UNL     1     -33.082   7.572   0.927  1.00 20.00    -0.024 C 
HETATM    3  C3  UNL     1     -34.417   6.457   3.426  1.00 20.00     0.164 C 
HETATM    4  C4  UNL     1     -31.707   6.369   2.362  1.00 20.00     0.021 C 
HETATM    5  C5  UNL     1     -32.750   5.422   1.763  1.00 20.00     0.034 C 
HETATM    6  C6  UNL     1     -32.466   7.697   2.299  1.00 20.00     0.034 C 
HETATM    7  C7  UNL     1     -33.893   5.179   2.760  1.00 20.00     0.161 C 
HETATM    8  C8  UNL     1     -33.573   7.738   3.361  1.00 20.00     0.161 C 
HETATM    9  O9  UNL     1     -35.475   6.441   4.061  1.00 20.00    -0.295 OA
HETATM   10 CL10 UNL     1     -33.369   4.098   4.080  1.00 20.00    -0.116 Cl
HETATM   11 CL11 UNL     1     -32.886   7.973   4.991  1.00 20.00    -0.116 Cl
ENDROOT
TORSDOF 0
ENDMDL
MODEL 2
REMARK VINA RESULT:       2.3      1.959      3.027
REMARK  0 active torsions:
REMARK  status: ('A' for Active; 'I' for Inactive)
ROOT
HETATM    1  C1  UNL     1     -32.077   8.328   3.618  1.00 20.00    -0.024 C 
HETATM    2  C2  UNL     1     -31.347   7.877   2.589  1.00 20.00    -0.024 C 
HETATM    3  C3  UNL     1     -33.311   5.601   3.067  1.00 20.00     0.164 C 
HETATM    4  C4  UNL     1     -33.502   8.210   1.788  1.00 20.00     0.021 C 
HETATM    5  C5  UNL     1     -33.544   8.149   3.317  1.00 20.00     0.034 C 
HETATM    6  C6  UNL     1     -32.263   7.357   1.508  1.00 20.00     0.034 C 
HETATM    7  C7  UNL     1     -34.004   6.762   3.789  1.00 20.00     0.161 C 
HETATM    8  C8  UNL     1     -32.562   5.872   1.755  1.00 20.00     0.161 C 
HETATM    9  O9  UNL     1     -33.407   4.449   3.502  1.00 20.00    -0.295 OA
HETATM   10 CL10 UNL     1     -35.757   6.548   3.528  1.00 20.00    -0.116 Cl
HETATM   11 CL11 UNL     1     -33.572   5.198   0.447  1.00 20.00    -0.116 Cl
ENDROOT
TORSDOF 0
ENDMDL
MODEL 3
REMARK VINA RESULT:       2.4      2.159      3.186
REMARK  0 active torsions:
REMARK  status: ('A' for Active; 'I' for Inactive)
ROOT
HETATM    1  C1  UNL     1     -31.741   5.366   1.440  1.00 20.00    -0.024 C 
HETATM    2  C2  UNL     1     -32.500   4.957   2.466  1.00 20.00    -0.024 C 
HETATM    3  C3  UNL     1     -32.204   7.939   2.998  1.00 20.00     0.164 C 
HETATM    4  C4  UNL     1     -33.825   6.356   1.169  1.00 20.00     0.021 C 
HETATM    5  C5  UNL     1     -32.355   6.593   0.812  1.00 20.00     0.034 C 
HETATM    6  C6  UNL     1     -33.688   5.875   2.616  1.00 20.00     0.034 C 
HETATM    7  C7  UNL     1     -31.826   7.852   1.514  1.00 20.00     0.161 C 
HETATM    8  C8  UNL     1     -33.325   7.043   3.542  1.00 20.00     0.161 C 
HETATM    9  O9  UNL     1     -31.655   8.765   3.734  1.00 20.00    -0.295 OA
HETATM   10 CL10 UNL     1     -32.464   9.329   0.741  1.00 20.00    -0.116 Cl
HETATM   11 CL11 UNL     1     -34.734   8.105   3.813  1.00 20.00    -0.116 Cl
ENDROOT
TORSDOF 0
ENDMDL
MODEL 4
REMARK VINA RESULT:       3.4      1.891      3.465
REMARK  0 active torsions:
REMARK  status: ('A' for Active; 'I' for Inactive)
ROOT
HETATM    1  C1  UNL     1     -35.391   7.461   3.231  1.00 20.00    -0.024 C 
HETATM    2  C2  UNL     1     -35.646   6.258   3.763  1.00 20.00    -0.024 C 
HETATM    3  C3  UNL     1     -33.259   5.700   1.958  1.00 20.00     0.164 C 
HETATM    4  C4  UNL     1     -33.576   6.928   4.580  1.00 20.00     0.021 C 
HETATM    5  C5  UNL     1     -33.917   7.764   3.344  1.00 20.00     0.034 C 
HETATM    6  C6  UNL     1     -34.364   5.650   4.279  1.00 20.00     0.034 C 
HETATM    7  C7  UNL     1     -33.182   7.225   2.108  1.00 20.00     0.161 C 
HETATM    8  C8  UNL     1     -33.686   4.847   3.160  1.00 20.00     0.161 C 
HETATM    9  O9  UNL     1     -32.921   5.160   0.900  1.00 20.00    -0.295 OA
HETATM   10 CL10 UNL     1     -31.448   7.642   2.165  1.00 20.00    -0.116 Cl
HETATM   11 CL11 UNL     1     -32.210   4.041   3.758  1.00 20.00    -0.116 Cl
ENDROOT
TORSDOF 0
ENDMDL
MODEL 5
REMARK VINA RESULT:       3.6      1.876      3.081
REMARK  0 active torsions:
REMARK  status: ('A' for Active; 'I' for Inactive)
ROOT
HETATM    1  C1  UNL     1     -31.114   6.364   1.363  1.00 20.00    -0.024 C 
HETATM    2  C2  UNL     1     -31.812   5.315   1.819  1.00 20.00    -0.024 C 
HETATM    3  C3  UNL     1     -32.920   7.624   3.464  1.00 20.00     0.164 C 
HETATM    4  C4  UNL     1     -33.323   6.704   0.730  1.00 20.00     0.021 C 
HETATM    5  C5  UNL     1     -32.054   7.500   1.046  1.00 20.00     0.034 C 
HETATM    6  C6  UNL     1     -33.281   5.658   1.847  1.00 20.00     0.034 C 
HETATM    7  C7  UNL     1     -32.258   8.367   2.298  1.00 20.00     0.161 C 
HETATM    8  C8  UNL     1     -33.638   6.294   3.197  1.00 20.00     0.161 C 
HETATM    9  O9  UNL     1     -32.930   8.120   4.595  1.00 20.00    -0.295 OA
HETATM   10 CL10 UNL     1     -33.297   9.773   1.937  1.00 20.00    -0.116 Cl
HETATM   11 CL11 UNL     1     -35.387   6.633   3.301  1.00 20.00    -0.116 Cl
ENDROOT
TORSDOF 0
ENDMDL
MODEL 6
REMARK VINA RESULT:       3.8      2.498      3.287
REMARK  0 active torsions:
REMARK  status: ('A' for Active; 'I' for Inactive)
ROOT
HETATM    1  C1  UNL     1     -33.785   6.304   4.409  1.00 20.00    -0.024 C 
HETATM    2  C2  UNL     1     -33.489   7.600   4.575  1.00 20.00    -0.024 C 
HETATM    3  C3  UNL     1     -32.071   6.917   1.970  1.00 20.00     0.164 C 
HETATM    4  C4  UNL     1     -34.840   7.457   2.691  1.00 20.00     0.021 C 
HETATM    5  C5  UNL     1     -34.270   6.070   3.000  1.00 20.00     0.034 C 
HETATM    6  C6  UNL     1     -33.750   8.348   3.291  1.00 20.00     0.034 C 
HETATM    7  C7  UNL     1     -33.074   5.763   2.086  1.00 20.00     0.161 C 
HETATM    8  C8  UNL     1     -32.490   8.325   2.415  1.00 20.00     0.161 C 
HETATM    9  O9  UNL     1     -30.959   6.728   1.467  1.00 20.00    -0.295 OA
HETATM   10 CL10 UNL     1     -33.618   5.395   0.427  1.00 20.00    -0.116 Cl
HETATM   11 CL11 UNL     1     -32.731   9.275   0.923  1.00 20.00    -0.116 Cl
ENDROOT
TORSDOF 0
ENDMDL
MODEL 7
REMARK VINA RESULT:       4.7      2.016      2.529
REMARK  0 active torsions:
REMARK  status: ('A' for Active; 'I' for Inactive)
ROOT
HETATM    1  C1  UNL     1     -31.826   8.754   0.803  1.00 20.00    -0.024 C 
HETATM    2  C2  UNL     1     -32.905   9.158   1.487  1.00 20.00    -0.024 C 
HETATM    3  C3  UNL     1     -33.305   6.145   1.324  1.00 20.00     0.164 C 
HETATM    4  C4  UNL     1     -31.624   7.884   2.947  1.00 20.00     0.021 C 
HETATM    5  C5  UNL     1     -31.184   7.587   1.512  1.00 20.00     0.034 C 
HETATM    6  C6  UNL     1     -33.079   8.297   2.714  1.00 20.00     0.034 C 
HETATM    7  C7  UNL     1     -31.808   6.274   1.016  1.00 20.00     0.161 C 
HETATM    8  C8  UNL     1     -33.940   7.074   2.368  1.00 20.00     0.161 C 
HETATM    9  O9  UNL     1     -33.979   5.263   0.785  1.00 20.00    -0.295 OA
HETATM   10 CL10 UNL     1     -31.012   4.866   1.769  1.00 20.00    -0.116 Cl
HETATM   11 CL11 UNL     1     -34.241   6.076   3.817  1.00 20.00    -0.116 Cl
ENDROOT
TORSDOF 0
ENDMDL
