MODEL 1
REMARK VINA RESULT:      -2.1      0.000      0.000
REMARK  1 active torsions:
REMARK  status: ('A' for Active; 'I' for Inactive)
REMARK    1  A    between atoms: C5_5  and  C6_6 
ROOT
HETATM    1  C1  UNL     1     -35.083   5.912   4.226  1.00 20.00     0.061 C 
HETATM    2  C6  UNL     1     -34.587   7.216   3.800  1.00 20.00     0.155 C 
HETATM    3  N7  UNL     1     -35.498   4.884   4.572  1.00 20.00    -0.197 NA
ENDROOT
BRANCH   2   4
HETATM    4  C5  UNL     1     -33.210   6.935   3.231  1.00 20.00     0.134 C 
HETATM    5  C3  UNL     1     -33.230   6.021   2.018  1.00 20.00     0.035 C 
HETATM    6  C2  UNL     1     -31.959   6.428   1.314  1.00 20.00     0.029 C 
HETATM    7  C4  UNL     1     -31.938   7.923   1.547  1.00 20.00     0.168 C 
HETATM    8  O8  UNL     1     -32.600   8.163   2.798  1.00 20.00    -0.385 OA
ENDBRANCH   2   4
TORSDOF 1
ENDMDL
MODEL 2
REMARK VINA RESULT:      -1.8      2.758      3.936
REMARK  1 active torsions:
REMARK  status: ('A' for Active; 'I' for Inactive)
REMARK    1  A    between atoms: C5_5  and  C6_6 
ROOT
HETATM    1  C1  UNL     1     -32.132   8.979   0.868  1.00 20.00     0.061 C 
HETATM    2  C6  UNL     1     -31.879   7.816   1.713  1.00 20.00     0.155 C 
HETATM    3  N7  UNL     1     -32.310   9.905   0.191  1.00 20.00    -0.197 NA
ENDROOT
BRANCH   2   4
HETATM    4  C5  UNL     1     -33.251   7.392   2.200  1.00 20.00     0.134 C 
HETATM    5  C3  UNL     1     -33.329   5.926   2.592  1.00 20.00     0.035 C 
HETATM    6  C2  UNL     1     -34.464   5.941   3.585  1.00 20.00     0.029 C 
HETATM    7  C4  UNL     1     -34.229   7.247   4.311  1.00 20.00     0.168 C 
HETATM    8  O8  UNL     1     -33.605   8.140   3.376  1.00 20.00    -0.385 OA
ENDBRANCH   2   4
TORSDOF 1
ENDMDL
MODEL 3
REMARK VINA RESULT:      -1.7      1.413      1.832
REMARK  1 active torsions:
REMARK  status: ('A' for Active; 'I' for Inactive)
REMARK    1  A    between atoms: C5_5  and  C6_6 
ROOT
HETATM    1  C1  UNL     1     -34.354   4.698   4.185  1.00 20.00     0.061 C 
HETATM    2  C6  UNL     1     -34.952   6.030   4.180  1.00 20.00     0.155 C 
HETATM    3  N7  UNL     1     -33.894   3.633   4.208  1.00 20.00    -0.197 NA
ENDROOT
BRANCH   2   4
HETATM    4  C5  UNL     1     -34.273   6.748   3.030  1.00 20.00     0.134 C 
HETATM    5  C3  UNL     1     -33.222   7.749   3.477  1.00 20.00     0.035 C 
HETATM    6  C2  UNL     1     -32.319   7.796   2.269  1.00 20.00     0.029 C 
HETATM    7  C4  UNL     1     -32.321   6.351   1.820  1.00 20.00     0.168 C 
HETATM    8  O8  UNL     1     -33.591   5.797   2.194  1.00 20.00    -0.385 OA
ENDBRANCH   2   4
TORSDOF 1
ENDMDL
MODEL 4
REMARK VINA RESULT:      -1.4      2.575      4.002
REMARK  1 active torsions:
REMARK  status: ('A' for Active; 'I' for Inactive)
REMARK    1  A    between atoms: C5_5  and  C6_6 
ROOT
HETATM    1  C1  UNL     1     -32.298   7.464   1.565  1.00 20.00     0.061 C 
HETATM    2  C6  UNL     1     -32.761   6.096   1.772  1.00 20.00     0.155 C 
HETATM    3  N7  UNL     1     -31.923   8.547   1.378  1.00 20.00    -0.197 NA
ENDROOT
BRANCH   2   4
HETATM    4  C5  UNL     1     -33.349   6.099   3.169  1.00 20.00     0.134 C 
HETATM    5  C3  UNL     1     -34.658   6.863   3.275  1.00 20.00     0.035 C 
HETATM    6  C2  UNL     1     -35.303   6.190   4.461  1.00 20.00     0.029 C 
HETATM    7  C4  UNL     1     -34.903   4.745   4.257  1.00 20.00     0.168 C 
HETATM    8  O8  UNL     1     -33.637   4.751   3.581  1.00 20.00    -0.385 OA
ENDBRANCH   2   4
TORSDOF 1
ENDMDL
MODEL 5
REMARK VINA RESULT:      -0.9      2.654      3.732
REMARK  1 active torsions:
REMARK  status: ('A' for Active; 'I' for Inactive)
REMARK    1  A    between atoms: C5_5  and  C6_6 
ROOT
HETATM    1  C1  UNL     1     -32.498   7.822   2.343  1.00 20.00     0.061 C 
HETATM    2  C6  UNL     1     -33.497   7.746   3.405  1.00 20.00     0.155 C 
HETATM    3  N7  UNL     1     -31.697   7.903   1.507  1.00 20.00    -0.197 NA
ENDROOT
BRANCH   2   4
HETATM    4  C5  UNL     1     -34.154   6.394   3.216  1.00 20.00     0.134 C 
HETATM    5  C3  UNL     1     -33.229   5.224   3.502  1.00 20.00     0.035 C 
HETATM    6  C2  UNL     1     -34.214   4.146   3.879  1.00 20.00     0.029 C 
HETATM    7  C4  UNL     1     -35.249   4.928   4.660  1.00 20.00     0.168 C 
HETATM    8  O8  UNL     1     -35.263   6.258   4.122  1.00 20.00    -0.385 OA
ENDBRANCH   2   4
TORSDOF 1
ENDMDL
MODEL 6
REMARK VINA RESULT:      -0.9      2.907      4.162
REMARK  1 active torsions:
REMARK  status: ('A' for Active; 'I' for Inactive)
REMARK    1  A    between atoms: C5_5  and  C6_6 
ROOT
HETATM    1  C1  UNL     1     -32.265   9.396   0.616  1.00 20.00     0.061 C 
HETATM    2  C6  UNL     1     -31.663   8.067   0.615  1.00 20.00     0.155 C 
HETATM    3  N7  UNL     1     -32.736  10.457   0.594  1.00 20.00    -0.197 NA
ENDROOT
BRANCH   2   4
HETATM    4  C5  UNL     1     -32.024   7.483   1.967  1.00 20.00     0.134 C 
HETATM    5  C3  UNL     1     -32.894   8.399   2.810  1.00 20.00     0.035 C 
HETATM    6  C2  UNL     1     -33.604   7.407   3.698  1.00 20.00     0.029 C 
HETATM    7  C4  UNL     1     -33.843   6.253   2.748  1.00 20.00     0.168 C 
HETATM    8  O8  UNL     1     -32.773   6.269   1.791  1.00 20.00    -0.385 OA
ENDBRANCH   2   4
TORSDOF 1
ENDMDL
MODEL 7
REMARK VINA RESULT:      -0.5      1.202      1.741
REMARK  1 active torsions:
REMARK  status: ('A' for Active; 'I' for Inactive)
REMARK    1  A    between atoms: C5_5  and  C6_6 
ROOT
HETATM    1  C1  UNL     1     -34.659   4.961   4.077  1.00 20.00     0.061 C 
HETATM    2  C6  UNL     1     -33.460   4.910   3.246  1.00 20.00     0.155 C 
HETATM    3  N7  UNL     1     -35.607   4.980   4.747  1.00 20.00    -0.197 NA
ENDROOT
BRANCH   2   4
HETATM    4  C5  UNL     1     -33.452   6.234   2.506  1.00 20.00     0.134 C 
HETATM    5  C3  UNL     1     -33.231   7.433   3.412  1.00 20.00     0.035 C 
HETATM    6  C2  UNL     1     -32.633   8.430   2.451  1.00 20.00     0.029 C 
HETATM    7  C4  UNL     1     -31.759   7.546   1.587  1.00 20.00     0.168 C 
HETATM    8  O8  UNL     1     -32.379   6.252   1.549  1.00 20.00    -0.385 OA
ENDBRANCH   2   4
TORSDOF 1
ENDMDL
MODEL 8
REMARK VINA RESULT:      -0.5      2.052      3.372
REMARK  1 active torsions:
REMARK  status: ('A' for Active; 'I' for Inactive)
REMARK    1  A    between atoms: C5_5  and  C6_6 
ROOT
HETATM    1  C1  UNL     1     -32.079   5.607   1.096  1.00 20.00     0.061 C 
HETATM    2  C6  UNL     1     -31.992   6.871   1.821  1.00 20.00     0.155 C 
HETATM    3  N7  UNL     1     -32.126   4.604   0.514  1.00 20.00    -0.197 NA
ENDROOT
BRANCH   2   4
HETATM    4  C5  UNL     1     -33.379   7.080   2.394  1.00 20.00     0.134 C 
HETATM    5  C3  UNL     1     -33.979   5.825   3.005  1.00 20.00     0.035 C 
HETATM    6  C2  UNL     1     -34.943   6.409   4.007  1.00 20.00     0.029 C 
HETATM    7  C4  UNL     1     -34.173   7.606   4.522  1.00 20.00     0.168 C 
HETATM    8  O8  UNL     1     -33.330   8.055   3.450  1.00 20.00    -0.385 OA
ENDBRANCH   2   4
TORSDOF 1
ENDMDL
MODEL 9
REMARK VINA RESULT:      -0.4      2.340      3.771
REMARK  1 active torsions:
REMARK  status: ('A' for Active; 'I' for Inactive)
REMARK    1  A    between atoms: C5_5  and  C6_6 
ROOT
HETATM    1  C1  UNL     1     -32.425   5.916   1.486  1.00 20.00     0.061 C 
HETATM    2  C6  UNL     1     -33.258   6.968   2.059  1.00 20.00     0.155 C 
HETATM    3  N7  UNL     1     -31.759   5.093   1.010  1.00 20.00    -0.197 NA
ENDROOT
BRANCH   2   4
HETATM    4  C5  UNL     1     -33.685   6.425   3.408  1.00 20.00     0.134 C 
HETATM    5  C3  UNL     1     -35.183   6.496   3.644  1.00 20.00     0.035 C 
HETATM    6  C2  UNL     1     -35.384   5.381   4.640  1.00 20.00     0.029 C 
HETATM    7  C4  UNL     1     -34.412   4.335   4.138  1.00 20.00     0.168 C 
HETATM    8  O8  UNL     1     -33.328   5.036   3.511  1.00 20.00    -0.385 OA
ENDBRANCH   2   4
TORSDOF 1
ENDMDL
