MODEL 1
REMARK VINA RESULT:      -2.2      0.000      0.000
REMARK  3 active torsions:
REMARK  status: ('A' for Active; 'I' for Inactive)
REMARK    1  A    between atoms: C4_4  and  C5_5 
REMARK    2  A    between atoms: C5_5  and  C6_6 
REMARK    3  A    between atoms: C6_6  and  N7_7 
ROOT
HETATM    1  C1  UNL     1     -34.089   6.854   3.628  1.00 20.00     0.158 C 
HETATM    2  N7  UNL     1     -33.181   7.501   3.258  1.00 20.00    -0.271 NA
HETATM    3  S8  UNL     1     -35.314   5.988   4.162  1.00 20.00    -0.055 SA
ENDROOT
BRANCH   2   4
HETATM    4  C6  UNL     1     -32.867   7.358   1.832  1.00 20.00     0.105 C 
HETATM    5  C3  UNL     1     -32.481   5.906   1.580  1.00 20.00     0.034 C 
BRANCH   4   6
HETATM    6  C5  UNL     1     -31.722   8.308   1.467  1.00 20.00     0.026 C 
BRANCH   6   7
HETATM    7  C4  UNL     1     -31.973   9.045   0.149  1.00 20.00    -0.002 C 
HETATM    8  C2  UNL     1     -32.622  10.400   0.384  1.00 20.00     0.005 C 
ENDBRANCH   6   7
ENDBRANCH   4   6
ENDBRANCH   2   4
TORSDOF 3
ENDMDL
MODEL 2
REMARK VINA RESULT:      -2.2      2.502      4.001
REMARK  3 active torsions:
REMARK  status: ('A' for Active; 'I' for Inactive)
REMARK    1  A    between atoms: C4_4  and  C5_5 
REMARK    2  A    between atoms: C5_5  and  C6_6 
REMARK    3  A    between atoms: C6_6  and  N7_7 
ROOT
HETATM    1  C1  UNL     1     -31.971   8.715   1.102  1.00 20.00     0.158 C 
HETATM    2  N7  UNL     1     -31.516   7.889   1.802  1.00 20.00    -0.271 NA
HETATM    3  S8  UNL     1     -32.557   9.850   0.150  1.00 20.00    -0.055 SA
ENDROOT
BRANCH   2   4
HETATM    4  C6  UNL     1     -32.492   6.939   2.345  1.00 20.00     0.105 C 
HETATM    5  C3  UNL     1     -32.818   5.927   1.253  1.00 20.00     0.034 C 
BRANCH   4   6
HETATM    6  C5  UNL     1     -33.747   7.697   2.790  1.00 20.00     0.026 C 
BRANCH   6   7
HETATM    7  C4  UNL     1     -34.246   7.243   4.164  1.00 20.00    -0.002 C 
HETATM    8  C2  UNL     1     -35.318   6.172   4.039  1.00 20.00     0.005 C 
ENDBRANCH   6   7
ENDBRANCH   4   6
ENDBRANCH   2   4
TORSDOF 3
ENDMDL
MODEL 3
REMARK VINA RESULT:      -2.1      2.703      4.948
REMARK  3 active torsions:
REMARK  status: ('A' for Active; 'I' for Inactive)
REMARK    1  A    between atoms: C4_4  and  C5_5 
REMARK    2  A    between atoms: C5_5  and  C6_6 
REMARK    3  A    between atoms: C6_6  and  N7_7 
ROOT
HETATM    1  C1  UNL     1     -32.740   6.934   2.092  1.00 20.00     0.158 C 
HETATM    2  N7  UNL     1     -33.255   5.960   2.498  1.00 20.00    -0.271 NA
HETATM    3  S8  UNL     1     -32.019   8.236   1.526  1.00 20.00    -0.055 SA
ENDROOT
BRANCH   2   4
HETATM    4  C6  UNL     1     -34.411   6.194   3.371  1.00 20.00     0.105 C 
HETATM    5  C3  UNL     1     -34.130   7.445   4.195  1.00 20.00     0.034 C 
BRANCH   4   6
HETATM    6  C5  UNL     1     -34.622   4.973   4.272  1.00 20.00     0.026 C 
BRANCH   6   7
HETATM    7  C4  UNL     1     -33.784   3.770   3.831  1.00 20.00    -0.002 C 
HETATM    8  C2  UNL     1     -33.165   3.057   5.023  1.00 20.00     0.005 C 
ENDBRANCH   6   7
ENDBRANCH   4   6
ENDBRANCH   2   4
TORSDOF 3
ENDMDL
MODEL 4
REMARK VINA RESULT:      -1.8      2.696      4.633
REMARK  3 active torsions:
REMARK  status: ('A' for Active; 'I' for Inactive)
REMARK    1  A    between atoms: C4_4  and  C5_5 
REMARK    2  A    between atoms: C5_5  and  C6_6 
REMARK    3  A    between atoms: C6_6  and  N7_7 
ROOT
HETATM    1  C1  UNL     1     -32.307   8.467   1.448  1.00 20.00     0.158 C 
HETATM    2  N7  UNL     1     -32.261   7.617   2.256  1.00 20.00    -0.271 NA
HETATM    3  S8  UNL     1     -32.338   9.625   0.355  1.00 20.00    -0.055 SA
ENDROOT
BRANCH   2   4
HETATM    4  C6  UNL     1     -33.561   7.046   2.623  1.00 20.00     0.105 C 
HETATM    5  C3  UNL     1     -33.955   7.615   3.981  1.00 20.00     0.034 C 
BRANCH   4   6
HETATM    6  C5  UNL     1     -33.451   5.519   2.673  1.00 20.00     0.026 C 
BRANCH   6   7
HETATM    7  C4  UNL     1     -34.253   4.914   3.828  1.00 20.00    -0.002 C 
HETATM    8  C2  UNL     1     -33.662   3.587   4.280  1.00 20.00     0.005 C 
ENDBRANCH   6   7
ENDBRANCH   4   6
ENDBRANCH   2   4
TORSDOF 3
ENDMDL
MODEL 5
REMARK VINA RESULT:      -1.7      1.977      2.697
REMARK  3 active torsions:
REMARK  status: ('A' for Active; 'I' for Inactive)
REMARK    1  A    between atoms: C4_4  and  C5_5 
REMARK    2  A    between atoms: C5_5  and  C6_6 
REMARK    3  A    between atoms: C6_6  and  N7_7 
ROOT
HETATM    1  C1  UNL     1     -33.925   4.253   4.042  1.00 20.00     0.158 C 
HETATM    2  N7  UNL     1     -34.442   5.216   3.616  1.00 20.00    -0.271 NA
HETATM    3  S8  UNL     1     -33.252   2.929   4.619  1.00 20.00    -0.055 SA
ENDROOT
BRANCH   2   4
HETATM    4  C6  UNL     1     -33.559   6.379   3.479  1.00 20.00     0.105 C 
HETATM    5  C3  UNL     1     -34.312   7.602   3.989  1.00 20.00     0.034 C 
BRANCH   4   6
HETATM    6  C5  UNL     1     -33.162   6.546   2.009  1.00 20.00     0.026 C 
BRANCH   6   7
HETATM    7  C4  UNL     1     -31.935   7.445   1.834  1.00 20.00    -0.002 C 
HETATM    8  C2  UNL     1     -32.282   8.717   1.076  1.00 20.00     0.005 C 
ENDBRANCH   6   7
ENDBRANCH   4   6
ENDBRANCH   2   4
TORSDOF 3
ENDMDL
MODEL 6
REMARK VINA RESULT:      -1.1      1.183      1.442
REMARK  3 active torsions:
REMARK  status: ('A' for Active; 'I' for Inactive)
REMARK    1  A    between atoms: C4_4  and  C5_5 
REMARK    2  A    between atoms: C5_5  and  C6_6 
REMARK    3  A    between atoms: C6_6  and  N7_7 
ROOT
HETATM    1  C1  UNL     1     -33.737   6.382   2.751  1.00 20.00     0.158 C 
HETATM    2  N7  UNL     1     -32.943   6.375   1.887  1.00 20.00    -0.271 NA
HETATM    3  S8  UNL     1     -34.831   6.367   3.909  1.00 20.00    -0.055 SA
ENDROOT
BRANCH   2   4
HETATM    4  C6  UNL     1     -31.919   7.421   1.984  1.00 20.00     0.105 C 
HETATM    5  C3  UNL     1     -32.307   8.350   3.128  1.00 20.00     0.034 C 
BRANCH   4   6
HETATM    6  C5  UNL     1     -31.840   8.180   0.656  1.00 20.00     0.026 C 
BRANCH   6   7
HETATM    7  C4  UNL     1     -32.346   9.620   0.776  1.00 20.00    -0.002 C 
HETATM    8  C2  UNL     1     -32.777  10.171  -0.575  1.00 20.00     0.005 C 
ENDBRANCH   6   7
ENDBRANCH   4   6
ENDBRANCH   2   4
TORSDOF 3
ENDMDL
MODEL 7
REMARK VINA RESULT:      -1.1      1.184      1.208
REMARK  3 active torsions:
REMARK  status: ('A' for Active; 'I' for Inactive)
REMARK    1  A    between atoms: C4_4  and  C5_5 
REMARK    2  A    between atoms: C5_5  and  C6_6 
REMARK    3  A    between atoms: C6_6  and  N7_7 
ROOT
HETATM    1  C1  UNL     1     -33.763   6.831   3.464  1.00 20.00     0.158 C 
HETATM    2  N7  UNL     1     -33.566   6.010   2.648  1.00 20.00    -0.271 NA
HETATM    3  S8  UNL     1     -34.049   7.922   4.589  1.00 20.00    -0.055 SA
ENDROOT
BRANCH   2   4
HETATM    4  C6  UNL     1     -32.814   6.476   1.478  1.00 20.00     0.105 C 
HETATM    5  C3  UNL     1     -31.857   5.365   1.063  1.00 20.00     0.034 C 
BRANCH   4   6
HETATM    6  C5  UNL     1     -32.054   7.757   1.838  1.00 20.00     0.026 C 
BRANCH   6   7
HETATM    7  C4  UNL     1     -31.675   8.577   0.603  1.00 20.00    -0.002 C 
HETATM    8  C2  UNL     1     -32.560   9.806   0.458  1.00 20.00     0.005 C 
ENDBRANCH   6   7
ENDBRANCH   4   6
ENDBRANCH   2   4
TORSDOF 3
ENDMDL
MODEL 8
REMARK VINA RESULT:      -1.0      2.511      3.922
REMARK  3 active torsions:
REMARK  status: ('A' for Active; 'I' for Inactive)
REMARK    1  A    between atoms: C4_4  and  C5_5 
REMARK    2  A    between atoms: C5_5  and  C6_6 
REMARK    3  A    between atoms: C6_6  and  N7_7 
ROOT
HETATM    1  C1  UNL     1     -32.309   8.835   1.342  1.00 20.00     0.158 C 
HETATM    2  N7  UNL     1     -32.197   8.079   2.233  1.00 20.00    -0.271 NA
HETATM    3  S8  UNL     1     -32.429   9.870   0.138  1.00 20.00    -0.055 SA
ENDROOT
BRANCH   2   4
HETATM    4  C6  UNL     1     -33.434   7.385   2.609  1.00 20.00     0.105 C 
HETATM    5  C3  UNL     1     -33.779   7.783   4.039  1.00 20.00     0.034 C 
BRANCH   4   6
HETATM    6  C5  UNL     1     -33.224   5.872   2.490  1.00 20.00     0.026 C 
BRANCH   6   7
HETATM    7  C4  UNL     1     -32.973   5.429   1.046  1.00 20.00    -0.002 C 
HETATM    8  C2  UNL     1     -31.592   4.814   0.885  1.00 20.00     0.005 C 
ENDBRANCH   6   7
ENDBRANCH   4   6
ENDBRANCH   2   4
TORSDOF 3
ENDMDL
MODEL 9
REMARK VINA RESULT:      -1.0      2.794      3.933
REMARK  3 active torsions:
REMARK  status: ('A' for Active; 'I' for Inactive)
REMARK    1  A    between atoms: C4_4  and  C5_5 
REMARK    2  A    between atoms: C5_5  and  C6_6 
REMARK    3  A    between atoms: C6_6  and  N7_7 
ROOT
HETATM    1  C1  UNL     1     -32.706   6.464   1.852  1.00 20.00     0.158 C 
HETATM    2  N7  UNL     1     -33.335   5.521   2.157  1.00 20.00    -0.271 NA
HETATM    3  S8  UNL     1     -31.849   7.731   1.407  1.00 20.00    -0.055 SA
ENDROOT
BRANCH   2   4
HETATM    4  C6  UNL     1     -33.678   5.446   3.582  1.00 20.00     0.105 C 
HETATM    5  C3  UNL     1     -33.890   3.979   3.936  1.00 20.00     0.034 C 
BRANCH   4   6
HETATM    6  C5  UNL     1     -34.944   6.268   3.844  1.00 20.00     0.026 C 
BRANCH   6   7
HETATM    7  C4  UNL     1     -34.642   7.755   4.049  1.00 20.00    -0.002 C 
HETATM    8  C2  UNL     1     -33.468   7.958   4.994  1.00 20.00     0.005 C 
ENDBRANCH   6   7
ENDBRANCH   4   6
ENDBRANCH   2   4
TORSDOF 3
ENDMDL
