MODEL 1
REMARK VINA RESULT:      -0.6      0.000      0.000
REMARK  1 active torsions:
REMARK  status: ('A' for Active; 'I' for Inactive)
REMARK    1  A    between atoms: C1_1  and  C3_3 
ROOT
HETATM    1  C2  UNL     1     -34.491   7.583   2.650  1.00 20.00     0.065 A 
HETATM    2  C3  UNL     1     -33.830   6.248   2.931  1.00 20.00     0.070 A 
HETATM    3  C4  UNL     1     -33.220   7.549   3.455  1.00 20.00     0.130 A 
HETATM    4  C5  UNL     1     -33.193   5.544   1.756  1.00 20.00     0.028 C 
HETATM    5 CL8  UNL     1     -33.340   7.951   5.171  1.00 20.00    -0.100 Cl
HETATM    6 CL9  UNL     1     -31.761   8.211   2.716  1.00 20.00    -0.100 Cl
ENDROOT
BRANCH   2   7
HETATM    7  C1  UNL     1     -34.505   5.360   3.910  1.00 20.00     0.230 C 
HETATM    8  O6  UNL     1     -35.561   5.678   4.449  1.00 20.00    -0.279 OA
HETATM    9 CL7  UNL     1     -33.627   3.882   4.165  1.00 20.00    -0.043 Cl
ENDBRANCH   2   7
TORSDOF 1
ENDMDL
MODEL 2
REMARK VINA RESULT:      -0.0      2.568      4.004
REMARK  1 active torsions:
REMARK  status: ('A' for Active; 'I' for Inactive)
REMARK    1  A    between atoms: C1_1  and  C3_3 
ROOT
HETATM    1  C2  UNL     1     -34.018   6.640   1.563  1.00 20.00     0.065 A 
HETATM    2  C3  UNL     1     -33.188   7.263   2.668  1.00 20.00     0.070 A 
HETATM    3  C4  UNL     1     -33.031   5.785   2.310  1.00 20.00     0.130 A 
HETATM    4  C5  UNL     1     -33.919   7.652   3.932  1.00 20.00     0.028 C 
HETATM    5 CL8  UNL     1     -31.603   5.240   1.423  1.00 20.00    -0.100 Cl
HETATM    6 CL9  UNL     1     -33.668   4.535   3.380  1.00 20.00    -0.100 Cl
ENDROOT
BRANCH   2   7
HETATM    7  C1  UNL     1     -32.109   8.193   2.251  1.00 20.00     0.230 C 
HETATM    8  O6  UNL     1     -31.141   8.423   2.970  1.00 20.00    -0.279 OA
HETATM    9 CL7  UNL     1     -32.401   8.870   0.678  1.00 20.00    -0.043 Cl
ENDBRANCH   2   7
TORSDOF 1
ENDMDL
MODEL 3
REMARK VINA RESULT:       0.2      2.081      2.710
REMARK  1 active torsions:
REMARK  status: ('A' for Active; 'I' for Inactive)
REMARK    1  A    between atoms: C1_1  and  C3_3 
ROOT
HETATM    1  C2  UNL     1     -33.833   5.720   1.295  1.00 20.00     0.065 A 
HETATM    2  C3  UNL     1     -33.533   5.695   2.780  1.00 20.00     0.070 A 
HETATM    3  C4  UNL     1     -32.456   6.096   1.772  1.00 20.00     0.130 A 
HETATM    4  C5  UNL     1     -33.471   4.336   3.438  1.00 20.00     0.028 C 
HETATM    5 CL8  UNL     1     -31.982   7.792   1.616  1.00 20.00    -0.100 Cl
HETATM    6 CL9  UNL     1     -31.127   4.997   1.400  1.00 20.00    -0.100 Cl
ENDROOT
BRANCH   2   7
HETATM    7  C1  UNL     1     -34.141   6.769   3.604  1.00 20.00     0.230 C 
HETATM    8  O6  UNL     1     -33.466   7.670   4.091  1.00 20.00    -0.279 OA
HETATM    9 CL7  UNL     1     -35.860   6.572   3.769  1.00 20.00    -0.043 Cl
ENDBRANCH   2   7
TORSDOF 1
ENDMDL
MODEL 4
REMARK VINA RESULT:       0.3      2.367      3.035
REMARK  1 active torsions:
REMARK  status: ('A' for Active; 'I' for Inactive)
REMARK    1  A    between atoms: C1_1  and  C3_3 
ROOT
HETATM    1  C2  UNL     1     -34.499   7.062   2.206  1.00 20.00     0.065 A 
HETATM    2  C3  UNL     1     -33.003   6.827   2.159  1.00 20.00     0.070 A 
HETATM    3  C4  UNL     1     -33.794   6.578   3.443  1.00 20.00     0.130 A 
HETATM    4  C5  UNL     1     -32.125   8.051   2.048  1.00 20.00     0.028 C 
HETATM    5 CL8  UNL     1     -34.126   4.923   3.967  1.00 20.00    -0.100 Cl
HETATM    6 CL9  UNL     1     -33.659   7.693   4.804  1.00 20.00    -0.100 Cl
ENDROOT
BRANCH   2   7
HETATM    7  C1  UNL     1     -32.535   5.643   1.396  1.00 20.00     0.230 C 
HETATM    8  O6  UNL     1     -31.426   5.152   1.582  1.00 20.00    -0.279 OA
HETATM    9 CL7  UNL     1     -33.727   5.084   0.261  1.00 20.00    -0.043 Cl
ENDBRANCH   2   7
TORSDOF 1
ENDMDL
MODEL 5
REMARK VINA RESULT:       0.4      2.489      3.582
REMARK  1 active torsions:
REMARK  status: ('A' for Active; 'I' for Inactive)
REMARK    1  A    between atoms: C1_1  and  C3_3 
ROOT
HETATM    1  C2  UNL     1     -32.923   5.722   3.074  1.00 20.00     0.065 A 
HETATM    2  C3  UNL     1     -33.192   6.749   1.992  1.00 20.00     0.070 A 
HETATM    3  C4  UNL     1     -33.900   6.833   3.344  1.00 20.00     0.130 A 
HETATM    4  C5  UNL     1     -33.954   6.274   0.777  1.00 20.00     0.028 C 
HETATM    5 CL8  UNL     1     -33.419   8.064   4.517  1.00 20.00    -0.100 Cl
HETATM    6 CL9  UNL     1     -35.608   6.412   3.484  1.00 20.00    -0.100 Cl
ENDROOT
BRANCH   2   7
HETATM    7  C1  UNL     1     -32.111   7.729   1.717  1.00 20.00     0.230 C 
HETATM    8  O6  UNL     1     -30.953   7.529   2.069  1.00 20.00    -0.279 OA
HETATM    9 CL7  UNL     1     -32.698   9.127   0.867  1.00 20.00    -0.043 Cl
ENDBRANCH   2   7
TORSDOF 1
ENDMDL
MODEL 6
REMARK VINA RESULT:       0.5      1.693      2.441
REMARK  1 active torsions:
REMARK  status: ('A' for Active; 'I' for Inactive)
REMARK    1  A    between atoms: C1_1  and  C3_3 
ROOT
HETATM    1  C2  UNL     1     -32.195   6.064   2.739  1.00 20.00     0.065 A 
HETATM    2  C3  UNL     1     -33.430   6.779   3.249  1.00 20.00     0.070 A 
HETATM    3  C4  UNL     1     -33.028   6.866   1.777  1.00 20.00     0.130 A 
HETATM    4  C5  UNL     1     -33.204   7.964   4.158  1.00 20.00     0.028 C 
HETATM    5 CL8  UNL     1     -33.942   5.970   0.558  1.00 20.00    -0.100 Cl
HETATM    6 CL9  UNL     1     -32.334   8.353   1.129  1.00 20.00    -0.100 Cl
ENDROOT
BRANCH   2   7
HETATM    7  C1  UNL     1     -34.598   5.931   3.596  1.00 20.00     0.230 C 
HETATM    8  O6  UNL     1     -35.736   6.388   3.644  1.00 20.00    -0.279 OA
HETATM    9 CL7  UNL     1     -34.141   4.283   3.907  1.00 20.00    -0.043 Cl
ENDBRANCH   2   7
TORSDOF 1
ENDMDL
MODEL 7
REMARK VINA RESULT:       0.6      2.060      2.771
REMARK  1 active torsions:
REMARK  status: ('A' for Active; 'I' for Inactive)
REMARK    1  A    between atoms: C1_1  and  C3_3 
ROOT
HETATM    1  C2  UNL     1     -34.504   7.402   2.436  1.00 20.00     0.065 A 
HETATM    2  C3  UNL     1     -33.066   6.967   2.236  1.00 20.00     0.070 A 
HETATM    3  C4  UNL     1     -33.767   6.760   3.579  1.00 20.00     0.130 A 
HETATM    4  C5  UNL     1     -32.038   8.064   2.092  1.00 20.00     0.028 C 
HETATM    5 CL8  UNL     1     -34.282   5.140   4.064  1.00 20.00    -0.100 Cl
HETATM    6 CL9  UNL     1     -33.356   7.771   4.965  1.00 20.00    -0.100 Cl
ENDROOT
BRANCH   2   7
HETATM    7  C1  UNL     1     -32.841   5.773   1.384  1.00 20.00     0.230 C 
HETATM    8  O6  UNL     1     -33.684   5.385   0.581  1.00 20.00    -0.279 OA
HETATM    9 CL7  UNL     1     -31.289   5.046   1.675  1.00 20.00    -0.043 Cl
ENDBRANCH   2   7
TORSDOF 1
ENDMDL
MODEL 8
REMARK VINA RESULT:       0.6      2.316      3.817
REMARK  1 active torsions:
REMARK  status: ('A' for Active; 'I' for Inactive)
REMARK    1  A    between atoms: C1_1  and  C3_3 
ROOT
HETATM    1  C2  UNL     1     -34.787   7.283   2.926  1.00 20.00     0.065 A 
HETATM    2  C3  UNL     1     -33.463   7.518   3.625  1.00 20.00     0.070 A 
HETATM    3  C4  UNL     1     -33.861   6.119   3.151  1.00 20.00     0.130 A 
HETATM    4  C5  UNL     1     -33.520   7.853   5.097  1.00 20.00     0.028 C 
HETATM    5 CL8  UNL     1     -33.085   5.417   1.727  1.00 20.00    -0.100 Cl
HETATM    6 CL9  UNL     1     -34.351   4.889   4.317  1.00 20.00    -0.100 Cl
ENDROOT
BRANCH   2   7
HETATM    7  C1  UNL     1     -32.418   8.236   2.854  1.00 20.00     0.230 C 
HETATM    8  O6  UNL     1     -31.401   8.666   3.390  1.00 20.00    -0.279 OA
HETATM    9 CL7  UNL     1     -32.825   8.372   1.169  1.00 20.00    -0.043 Cl
ENDBRANCH   2   7
TORSDOF 1
ENDMDL
MODEL 9
REMARK VINA RESULT:       0.9      2.127      2.868
REMARK  1 active torsions:
REMARK  status: ('A' for Active; 'I' for Inactive)
REMARK    1  A    between atoms: C1_1  and  C3_3 
ROOT
HETATM    1  C2  UNL     1     -31.811   6.393   2.193  1.00 20.00     0.065 A 
HETATM    2  C3  UNL     1     -33.049   6.867   2.927  1.00 20.00     0.070 A 
HETATM    3  C4  UNL     1     -32.891   7.105   1.425  1.00 20.00     0.130 A 
HETATM    4  C5  UNL     1     -32.871   8.018   3.890  1.00 20.00     0.028 C 
HETATM    5 CL8  UNL     1     -33.831   6.146   0.276  1.00 20.00    -0.100 Cl
HETATM    6 CL9  UNL     1     -32.536   8.720   0.811  1.00 20.00    -0.100 Cl
ENDROOT
BRANCH   2   7
HETATM    7  C1  UNL     1     -34.009   5.822   3.363  1.00 20.00     0.230 C 
HETATM    8  O6  UNL     1     -33.701   4.634   3.394  1.00 20.00    -0.279 OA
HETATM    9 CL7  UNL     1     -35.552   6.492   3.800  1.00 20.00    -0.043 Cl
ENDBRANCH   2   7
TORSDOF 1
ENDMDL
