MODEL 1
REMARK VINA RESULT:      -0.7      0.000      0.000
REMARK  1 active torsions:
REMARK  status: ('A' for Active; 'I' for Inactive)
REMARK    1  A    between atoms: C7_7  and  C11_11 
ROOT
HETATM    1  C1  UNL     1     -33.702   5.223   3.198  1.00 20.00    -0.018 C 
HETATM    2  C2  UNL     1     -32.956   5.937   2.109  1.00 20.00     0.159 C 
HETATM    3  C3  UNL     1     -33.256   4.016   3.574  1.00 20.00     0.023 C 
HETATM    4  C4  UNL     1     -34.451   7.363   4.265  1.00 20.00     0.010 C 
HETATM    5  C5  UNL     1     -33.263   7.979   3.516  1.00 20.00     0.013 C 
HETATM    6  C6  UNL     1     -34.888   5.983   3.740  1.00 20.00     0.017 C 
HETATM    7  C7  UNL     1     -33.119   7.456   2.083  1.00 20.00     0.063 C 
HETATM    8  C8  UNL     1     -35.717   5.255   4.802  1.00 20.00     0.015 C 
HETATM    9  O12 UNL     1     -32.298   5.326   1.270  1.00 20.00    -0.292 OA
ENDROOT
BRANCH   7  10
HETATM   10  C11 UNL     1     -31.932   8.120   1.389  1.00 20.00    -0.011 C 
HETATM   11  C9  UNL     1     -32.394   9.329   0.577  1.00 20.00     0.010 C 
HETATM   12  C10 UNL     1     -30.875   8.530   2.410  1.00 20.00     0.010 C 
ENDBRANCH   7  10
TORSDOF 1
ENDMDL
MODEL 2
REMARK VINA RESULT:       0.6      1.593      4.605
REMARK  1 active torsions:
REMARK  status: ('A' for Active; 'I' for Inactive)
REMARK    1  A    between atoms: C7_7  and  C11_11 
ROOT
HETATM    1  C1  UNL     1     -32.332   8.229   2.818  1.00 20.00    -0.018 C 
HETATM    2  C2  UNL     1     -33.288   7.485   3.705  1.00 20.00     0.159 C 
HETATM    3  C3  UNL     1     -31.473   9.079   3.398  1.00 20.00     0.023 C 
HETATM    4  C4  UNL     1     -32.297   6.400   1.104  1.00 20.00     0.010 C 
HETATM    5  C5  UNL     1     -32.775   5.512   2.260  1.00 20.00     0.013 C 
HETATM    6  C6  UNL     1     -32.472   7.911   1.349  1.00 20.00     0.017 C 
HETATM    7  C7  UNL     1     -33.842   6.182   3.131  1.00 20.00     0.063 C 
HETATM    8  C8  UNL     1     -31.563   8.704   0.405  1.00 20.00     0.015 C 
HETATM    9  O12 UNL     1     -33.631   7.929   4.798  1.00 20.00    -0.292 OA
ENDROOT
BRANCH   7  10
HETATM   10  C11 UNL     1     -34.287   5.241   4.249  1.00 20.00    -0.011 C 
HETATM   11  C9  UNL     1     -35.803   5.296   4.424  1.00 20.00     0.010 C 
HETATM   12  C10 UNL     1     -33.831   3.813   3.961  1.00 20.00     0.010 C 
ENDBRANCH   7  10
TORSDOF 1
ENDMDL
MODEL 3
REMARK VINA RESULT:       1.4      1.581      4.578
REMARK  1 active torsions:
REMARK  status: ('A' for Active; 'I' for Inactive)
REMARK    1  A    between atoms: C7_7  and  C11_11 
ROOT
HETATM    1  C1  UNL     1     -32.572   8.029   2.940  1.00 20.00    -0.018 C 
HETATM    2  C2  UNL     1     -33.630   7.140   3.528  1.00 20.00     0.159 C 
HETATM    3  C3  UNL     1     -31.903   8.840   3.772  1.00 20.00     0.023 C 
HETATM    4  C4  UNL     1     -32.077   6.425   1.079  1.00 20.00     0.010 C 
HETATM    5  C5  UNL     1     -32.710   5.383   2.009  1.00 20.00     0.013 C 
HETATM    6  C6  UNL     1     -32.400   7.886   1.448  1.00 20.00     0.017 C 
HETATM    7  C7  UNL     1     -33.971   5.893   2.715  1.00 20.00     0.063 C 
HETATM    8  C8  UNL     1     -31.381   8.828   0.801  1.00 20.00     0.015 C 
HETATM    9  O12 UNL     1     -34.210   7.432   4.571  1.00 20.00    -0.292 OA
ENDROOT
BRANCH   7  10
HETATM   10  C11 UNL     1     -34.560   4.804   3.608  1.00 20.00    -0.011 C 
HETATM   11  C9  UNL     1     -33.447   4.004   4.282  1.00 20.00     0.010 C 
HETATM   12  C10 UNL     1     -35.491   5.412   4.653  1.00 20.00     0.010 C 
ENDBRANCH   7  10
TORSDOF 1
ENDMDL
MODEL 4
REMARK VINA RESULT:       1.5      1.572      2.598
REMARK  1 active torsions:
REMARK  status: ('A' for Active; 'I' for Inactive)
REMARK    1  A    between atoms: C7_7  and  C11_11 
ROOT
HETATM    1  C1  UNL     1     -34.078   6.351   3.542  1.00 20.00    -0.018 C 
HETATM    2  C2  UNL     1     -33.372   7.619   3.155  1.00 20.00     0.159 C 
HETATM    3  C3  UNL     1     -35.334   6.449   4.000  1.00 20.00     0.023 C 
HETATM    4  C4  UNL     1     -32.780   4.974   1.899  1.00 20.00     0.010 C 
HETATM    5  C5  UNL     1     -32.538   6.315   1.194  1.00 20.00     0.013 C 
HETATM    6  C6  UNL     1     -33.252   5.101   3.360  1.00 20.00     0.017 C 
HETATM    7  C7  UNL     1     -32.221   7.457   2.165  1.00 20.00     0.063 C 
HETATM    8  C8  UNL     1     -33.912   3.795   3.813  1.00 20.00     0.015 C 
HETATM    9  O12 UNL     1     -33.679   8.703   3.645  1.00 20.00    -0.292 OA
ENDROOT
BRANCH   7  10
HETATM   10  C11 UNL     1     -31.973   8.755   1.400  1.00 20.00    -0.011 C 
HETATM   11  C9  UNL     1     -30.852   8.570   0.379  1.00 20.00     0.010 C 
HETATM   12  C10 UNL     1     -33.253   9.225   0.713  1.00 20.00     0.010 C 
ENDBRANCH   7  10
TORSDOF 1
ENDMDL
MODEL 5
REMARK VINA RESULT:       2.3      0.999      4.187
REMARK  1 active torsions:
REMARK  status: ('A' for Active; 'I' for Inactive)
REMARK    1  A    between atoms: C7_7  and  C11_11 
ROOT
HETATM    1  C1  UNL     1     -32.693   7.021   1.438  1.00 20.00    -0.018 C 
HETATM    2  C2  UNL     1     -33.030   5.679   2.022  1.00 20.00     0.159 C 
HETATM    3  C3  UNL     1     -32.810   7.174   0.112  1.00 20.00     0.023 C 
HETATM    4  C4  UNL     1     -33.339   8.237   3.533  1.00 20.00     0.010 C 
HETATM    5  C5  UNL     1     -34.160   6.977   3.833  1.00 20.00     0.013 C 
HETATM    6  C6  UNL     1     -32.255   8.048   2.455  1.00 20.00     0.017 C 
HETATM    7  C7  UNL     1     -33.415   5.680   3.500  1.00 20.00     0.063 C 
HETATM    8  C8  UNL     1     -31.833   9.407   1.890  1.00 20.00     0.015 C 
HETATM    9  O12 UNL     1     -32.952   4.649   1.356  1.00 20.00    -0.292 OA
ENDROOT
BRANCH   7  10
HETATM   10  C11 UNL     1     -34.279   4.467   3.838  1.00 20.00    -0.011 C 
HETATM   11  C9  UNL     1     -33.447   3.398   4.545  1.00 20.00     0.010 C 
HETATM   12  C10 UNL     1     -35.468   4.878   4.701  1.00 20.00     0.010 C 
ENDBRANCH   7  10
TORSDOF 1
ENDMDL
