MODEL 1
REMARK VINA RESULT:      -1.9      0.000      0.000
REMARK  1 active torsions:
REMARK  status: ('A' for Active; 'I' for Inactive)
REMARK    1  A    between atoms: C2_2  and  O3_3 
ROOT
HETATM    1  C2  UNL     1     -34.124   7.423   3.546  1.00 20.00     0.314 C 
HETATM    2 CL4  UNL     1     -35.283   6.173   4.052  1.00 20.00    -0.078 Cl
HETATM    3 CL5  UNL     1     -33.297   8.085   4.971  1.00 20.00    -0.078 Cl
ENDROOT
BRANCH   1   4
HETATM    4  O3  UNL     1     -33.177   6.827   2.667  1.00 20.00    -0.362 OA
HETATM    5  C1  UNL     1     -32.300   7.780   2.080  1.00 20.00     0.204 C 
ENDBRANCH   1   4
TORSDOF 1
ENDMDL
MODEL 2
REMARK VINA RESULT:      -1.9      2.511      2.915
REMARK  1 active torsions:
REMARK  status: ('A' for Active; 'I' for Inactive)
REMARK    1  A    between atoms: C2_2  and  O3_3 
ROOT
HETATM    1  C2  UNL     1     -32.333   7.458   2.283  1.00 20.00     0.314 C 
HETATM    2 CL4  UNL     1     -32.793   5.941   1.476  1.00 20.00    -0.078 Cl
HETATM    3 CL5  UNL     1     -32.237   8.767   1.088  1.00 20.00    -0.078 Cl
ENDROOT
BRANCH   1   4
HETATM    4  O3  UNL     1     -33.321   7.762   3.261  1.00 20.00    -0.362 OA
HETATM    5  C1  UNL     1     -34.188   6.667   3.522  1.00 20.00     0.204 C 
ENDBRANCH   1   4
TORSDOF 1
ENDMDL
MODEL 3
REMARK VINA RESULT:      -1.9      2.519      3.251
REMARK  1 active torsions:
REMARK  status: ('A' for Active; 'I' for Inactive)
REMARK    1  A    between atoms: C2_2  and  O3_3 
ROOT
HETATM    1  C2  UNL     1     -33.110   6.575   1.831  1.00 20.00     0.314 C 
HETATM    2 CL4  UNL     1     -32.113   8.024   2.093  1.00 20.00    -0.078 Cl
HETATM    3 CL5  UNL     1     -32.091   5.248   1.236  1.00 20.00    -0.078 Cl
ENDROOT
BRANCH   1   4
HETATM    4  O3  UNL     1     -33.707   6.211   3.070  1.00 20.00    -0.362 OA
HETATM    5  C1  UNL     1     -34.125   7.339   3.827  1.00 20.00     0.204 C 
ENDBRANCH   1   4
TORSDOF 1
ENDMDL
MODEL 4
REMARK VINA RESULT:      -1.9      1.694      2.044
REMARK  1 active torsions:
REMARK  status: ('A' for Active; 'I' for Inactive)
REMARK    1  A    between atoms: C2_2  and  O3_3 
ROOT
HETATM    1  C2  UNL     1     -33.272   6.564   3.116  1.00 20.00     0.314 C 
HETATM    2 CL4  UNL     1     -34.948   6.529   3.711  1.00 20.00    -0.078 Cl
HETATM    3 CL5  UNL     1     -33.149   5.622   1.616  1.00 20.00    -0.078 Cl
ENDROOT
BRANCH   1   4
HETATM    4  O3  UNL     1     -32.911   7.918   2.872  1.00 20.00    -0.362 OA
HETATM    5  C1  UNL     1     -32.007   8.055   1.784  1.00 20.00     0.204 C 
ENDBRANCH   1   4
TORSDOF 1
ENDMDL
MODEL 5
REMARK VINA RESULT:      -1.8      2.155      2.257
REMARK  1 active torsions:
REMARK  status: ('A' for Active; 'I' for Inactive)
REMARK    1  A    between atoms: C2_2  and  O3_3 
ROOT
HETATM    1  C2  UNL     1     -33.140   7.260   2.053  1.00 20.00     0.314 C 
HETATM    2 CL4  UNL     1     -32.637   5.608   1.626  1.00 20.00    -0.078 Cl
HETATM    3 CL5  UNL     1     -33.806   7.276   3.698  1.00 20.00    -0.078 Cl
ENDROOT
BRANCH   1   4
HETATM    4  O3  UNL     1     -31.999   8.108   1.981  1.00 20.00    -0.362 OA
HETATM    5  C1  UNL     1     -32.079   9.041   0.912  1.00 20.00     0.204 C 
ENDBRANCH   1   4
TORSDOF 1
ENDMDL
MODEL 6
REMARK VINA RESULT:      -1.8      1.254      1.254
REMARK  1 active torsions:
REMARK  status: ('A' for Active; 'I' for Inactive)
REMARK    1  A    between atoms: C2_2  and  O3_3 
ROOT
HETATM    1  C2  UNL     1     -34.138   6.185   3.006  1.00 20.00     0.314 C 
HETATM    2 CL4  UNL     1     -34.117   4.667   3.933  1.00 20.00    -0.078 Cl
HETATM    3 CL5  UNL     1     -33.994   7.564   4.114  1.00 20.00    -0.078 Cl
ENDROOT
BRANCH   1   4
HETATM    4  O3  UNL     1     -33.041   6.172   2.100  1.00 20.00    -0.362 OA
HETATM    5  C1  UNL     1     -32.422   7.445   1.973  1.00 20.00     0.204 C 
ENDBRANCH   1   4
TORSDOF 1
ENDMDL
MODEL 7
REMARK VINA RESULT:      -1.7      2.457      3.013
REMARK  1 active torsions:
REMARK  status: ('A' for Active; 'I' for Inactive)
REMARK    1  A    between atoms: C2_2  and  O3_3 
ROOT
HETATM    1  C2  UNL     1     -32.036   7.911   2.102  1.00 20.00     0.314 C 
HETATM    2 CL4  UNL     1     -32.396   9.158   0.886  1.00 20.00    -0.078 Cl
HETATM    3 CL5  UNL     1     -33.418   7.729   3.201  1.00 20.00    -0.078 Cl
ENDROOT
BRANCH   1   4
HETATM    4  O3  UNL     1     -31.787   6.684   1.425  1.00 20.00    -0.362 OA
HETATM    5  C1  UNL     1     -32.845   5.748   1.583  1.00 20.00     0.204 C 
ENDBRANCH   1   4
TORSDOF 1
ENDMDL
MODEL 8
REMARK VINA RESULT:      -1.7      1.690      2.658
REMARK  1 active torsions:
REMARK  status: ('A' for Active; 'I' for Inactive)
REMARK    1  A    between atoms: C2_2  and  O3_3 
ROOT
HETATM    1  C2  UNL     1     -33.680   7.629   3.309  1.00 20.00     0.314 C 
HETATM    2 CL4  UNL     1     -33.237   8.156   4.949  1.00 20.00    -0.078 Cl
HETATM    3 CL5  UNL     1     -32.284   7.804   2.226  1.00 20.00    -0.078 Cl
ENDROOT
BRANCH   1   4
HETATM    4  O3  UNL     1     -34.080   6.265   3.370  1.00 20.00    -0.362 OA
HETATM    5  C1  UNL     1     -35.302   6.085   4.073  1.00 20.00     0.204 C 
ENDBRANCH   1   4
TORSDOF 1
ENDMDL
MODEL 9
REMARK VINA RESULT:      -1.7      2.977      3.514
REMARK  1 active torsions:
REMARK  status: ('A' for Active; 'I' for Inactive)
REMARK    1  A    between atoms: C2_2  and  O3_3 
ROOT
HETATM    1  C2  UNL     1     -33.920   5.280   3.818  1.00 20.00     0.314 C 
HETATM    2 CL4  UNL     1     -33.209   5.513   2.204  1.00 20.00    -0.078 Cl
HETATM    3 CL5  UNL     1     -35.383   6.272   3.976  1.00 20.00    -0.078 Cl
ENDROOT
BRANCH   1   4
HETATM    4  O3  UNL     1     -34.246   3.903   3.970  1.00 20.00    -0.362 OA
HETATM    5  C1  UNL     1     -33.256   3.184   4.692  1.00 20.00     0.204 C 
ENDBRANCH   1   4
TORSDOF 1
ENDMDL
