MODEL 1
REMARK VINA RESULT:       0.1      0.000      0.000
REMARK  1 active torsions:
REMARK  status: ('A' for Active; 'I' for Inactive)
REMARK    1  A    between atoms: C4_4  and  C7_7 
ROOT
HETATM    1  C1  UNL     1     -31.690   6.995   1.131  1.00 20.00     0.015 A 
HETATM    2  C2  UNL     1     -32.073   5.816   1.768  1.00 20.00     0.008 A 
HETATM    3  C3  UNL     1     -33.408   8.197   2.324  1.00 20.00     0.022 A 
HETATM    4  C4  UNL     1     -32.358   8.185   1.406  1.00 20.00     0.002 A 
HETATM    5  C5  UNL     1     -33.134   5.814   2.687  1.00 20.00    -0.052 A 
HETATM    6  C6  UNL     1     -33.796   7.020   2.982  1.00 20.00    -0.051 A 
HETATM    7  C8  UNL     1     -33.497   4.525   3.382  1.00 20.00     0.039 C 
HETATM    8  C9  UNL     1     -34.957   7.067   3.943  1.00 20.00     0.039 C 
HETATM    9  C10 UNL     1     -34.871   4.565   4.048  1.00 20.00     0.005 C 
HETATM   10  C11 UNL     1     -35.035   5.845   4.857  1.00 20.00     0.005 C 
ENDROOT
BRANCH   4  11
HETATM   11  C7  UNL     1     -31.963   9.414   0.737  1.00 20.00     0.269 C 
HETATM   12  O12 UNL     1     -32.583   9.891  -0.218  1.00 20.00    -0.301 OA
ENDBRANCH   4  11
TORSDOF 1
ENDMDL
MODEL 2
REMARK VINA RESULT:       0.2      2.549      4.959
REMARK  1 active torsions:
REMARK  status: ('A' for Active; 'I' for Inactive)
REMARK    1  A    between atoms: C4_4  and  C7_7 
ROOT
HETATM    1  C1  UNL     1     -34.536   6.332   4.230  1.00 20.00     0.015 A 
HETATM    2  C2  UNL     1     -34.258   7.607   3.741  1.00 20.00     0.008 A 
HETATM    3  C3  UNL     1     -33.034   5.381   2.599  1.00 20.00     0.022 A 
HETATM    4  C4  UNL     1     -33.926   5.219   3.658  1.00 20.00     0.002 A 
HETATM    5  C5  UNL     1     -33.370   7.783   2.669  1.00 20.00    -0.052 A 
HETATM    6  C6  UNL     1     -32.737   6.660   2.104  1.00 20.00    -0.051 A 
HETATM    7  C8  UNL     1     -33.069   9.181   2.190  1.00 20.00     0.039 C 
HETATM    8  C9  UNL     1     -31.792   6.792   0.936  1.00 20.00     0.039 C 
HETATM    9  C10 UNL     1     -32.408   9.218   0.813  1.00 20.00     0.005 C 
HETATM   10  C11 UNL     1     -31.265   8.213   0.743  1.00 20.00     0.005 C 
ENDROOT
BRANCH   4  11
HETATM   11  C7  UNL     1     -34.220   3.887   4.164  1.00 20.00     0.269 C 
HETATM   12  O12 UNL     1     -33.369   3.162   4.685  1.00 20.00    -0.301 OA
ENDBRANCH   4  11
TORSDOF 1
ENDMDL
MODEL 3
REMARK VINA RESULT:       1.1      2.361      4.555
REMARK  1 active torsions:
REMARK  status: ('A' for Active; 'I' for Inactive)
REMARK    1  A    between atoms: C4_4  and  C7_7 
ROOT
HETATM    1  C1  UNL     1     -33.451   5.357   2.711  1.00 20.00     0.015 A 
HETATM    2  C2  UNL     1     -32.541   5.782   1.744  1.00 20.00     0.008 A 
HETATM    3  C3  UNL     1     -34.085   7.649   3.116  1.00 20.00     0.022 A 
HETATM    4  C4  UNL     1     -34.221   6.291   3.399  1.00 20.00     0.002 A 
HETATM    5  C5  UNL     1     -32.388   7.147   1.457  1.00 20.00    -0.052 A 
HETATM    6  C6  UNL     1     -33.182   8.089   2.137  1.00 20.00    -0.051 A 
HETATM    7  C8  UNL     1     -31.418   7.564   0.380  1.00 20.00     0.039 C 
HETATM    8  C9  UNL     1     -33.039   9.569   1.883  1.00 20.00     0.039 C 
HETATM    9  C10 UNL     1     -31.068   9.050   0.426  1.00 20.00     0.005 C 
HETATM   10  C11 UNL     1     -32.330   9.891   0.569  1.00 20.00     0.005 C 
ENDROOT
BRANCH   4  11
HETATM   11  C7  UNL     1     -35.166   5.850   4.412  1.00 20.00     0.269 C 
HETATM   12  O12 UNL     1     -35.369   4.661   4.673  1.00 20.00    -0.301 OA
ENDBRANCH   4  11
TORSDOF 1
ENDMDL
MODEL 4
REMARK VINA RESULT:       1.3      0.755      2.143
REMARK  1 active torsions:
REMARK  status: ('A' for Active; 'I' for Inactive)
REMARK    1  A    between atoms: C4_4  and  C7_7 
ROOT
HETATM    1  C1  UNL     1     -33.519   8.707   2.601  1.00 20.00     0.015 A 
HETATM    2  C2  UNL     1     -34.238   7.885   3.467  1.00 20.00     0.008 A 
HETATM    3  C3  UNL     1     -32.345   6.779   1.748  1.00 20.00     0.022 A 
HETATM    4  C4  UNL     1     -32.571   8.155   1.743  1.00 20.00     0.002 A 
HETATM    5  C5  UNL     1     -34.013   6.500   3.488  1.00 20.00    -0.052 A 
HETATM    6  C6  UNL     1     -33.070   5.939   2.607  1.00 20.00    -0.051 A 
HETATM    7  C8  UNL     1     -34.835   5.639   4.415  1.00 20.00     0.039 C 
HETATM    8  C9  UNL     1     -32.774   4.460   2.607  1.00 20.00     0.039 C 
HETATM    9  C10 UNL     1     -34.249   4.243   4.620  1.00 20.00     0.005 C 
HETATM   10  C11 UNL     1     -33.861   3.627   3.283  1.00 20.00     0.005 C 
ENDROOT
BRANCH   4  11
HETATM   11  C7  UNL     1     -31.816   9.013   0.844  1.00 20.00     0.269 C 
HETATM   12  O12 UNL     1     -32.336   9.906   0.169  1.00 20.00    -0.301 OA
ENDBRANCH   4  11
TORSDOF 1
ENDMDL
MODEL 5
REMARK VINA RESULT:       2.5      2.209      3.228
REMARK  1 active torsions:
REMARK  status: ('A' for Active; 'I' for Inactive)
REMARK    1  A    between atoms: C4_4  and  C7_7 
ROOT
HETATM    1  C1  UNL     1     -31.553   6.554   0.851  1.00 20.00     0.015 A 
HETATM    2  C2  UNL     1     -31.979   7.514   1.767  1.00 20.00     0.008 A 
HETATM    3  C3  UNL     1     -33.094   4.962   1.806  1.00 20.00     0.022 A 
HETATM    4  C4  UNL     1     -32.109   5.277   0.871  1.00 20.00     0.002 A 
HETATM    5  C5  UNL     1     -32.964   7.206   2.718  1.00 20.00    -0.052 A 
HETATM    6  C6  UNL     1     -33.541   5.922   2.726  1.00 20.00    -0.051 A 
HETATM    7  C8  UNL     1     -33.423   8.282   3.671  1.00 20.00     0.039 C 
HETATM    8  C9  UNL     1     -34.584   5.534   3.743  1.00 20.00     0.039 C 
HETATM    9  C10 UNL     1     -34.194   7.736   4.871  1.00 20.00     0.005 C 
HETATM   10  C11 UNL     1     -35.246   6.733   4.417  1.00 20.00     0.005 C 
ENDROOT
BRANCH   4  11
HETATM   11  C7  UNL     1     -31.661   4.273  -0.080  1.00 20.00     0.269 C 
HETATM   12  O12 UNL     1     -30.591   3.668   0.032  1.00 20.00    -0.301 OA
ENDBRANCH   4  11
TORSDOF 1
ENDMDL
