MODEL 1
REMARK VINA RESULT:      -2.7      0.000      0.000
REMARK  1 active torsions:
REMARK  status: ('A' for Active; 'I' for Inactive)
REMARK    1  A    between atoms: C1_1  and  C2_2 
ROOT
HETATM    1  C2  UNL     1     -34.985   6.334   3.907  1.00 20.00     0.395 C 
HETATM    2  F4  UNL     1     -35.640   5.750   4.945  1.00 20.00    -0.178 F 
HETATM    3  F5  UNL     1     -35.942   6.717   3.020  1.00 20.00    -0.178 F 
HETATM    4 CL7  UNL     1     -34.117   7.766   4.481  1.00 20.00    -0.038 Cl
ENDROOT
BRANCH   1   5
HETATM    5  C1  UNL     1     -33.983   5.417   3.257  1.00 20.00     0.307 C 
HETATM    6  O3  UNL     1     -33.325   5.780   2.286  1.00 20.00    -0.272 OA
HETATM    7 CL6  UNL     1     -33.851   3.874   4.049  1.00 20.00    -0.036 Cl
ENDBRANCH   1   5
TORSDOF 1
ENDMDL
MODEL 2
REMARK VINA RESULT:      -2.7      2.749      3.366
REMARK  1 active torsions:
REMARK  status: ('A' for Active; 'I' for Inactive)
REMARK    1  A    between atoms: C1_1  and  C2_2 
ROOT
HETATM    1  C2  UNL     1     -32.848   6.175   1.769  1.00 20.00     0.395 C 
HETATM    2  F4  UNL     1     -33.637   6.045   0.671  1.00 20.00    -0.178 F 
HETATM    3  F5  UNL     1     -31.849   5.263   1.630  1.00 20.00    -0.178 F 
HETATM    4 CL7  UNL     1     -32.148   7.801   1.809  1.00 20.00    -0.038 Cl
ENDROOT
BRANCH   1   5
HETATM    5  C1  UNL     1     -33.598   5.963   3.057  1.00 20.00     0.307 C 
HETATM    6  O3  UNL     1     -33.806   4.835   3.494  1.00 20.00    -0.272 OA
HETATM    7 CL6  UNL     1     -34.067   7.450   3.830  1.00 20.00    -0.036 Cl
ENDBRANCH   1   5
TORSDOF 1
ENDMDL
MODEL 3
REMARK VINA RESULT:      -2.6      1.775      2.116
REMARK  1 active torsions:
REMARK  status: ('A' for Active; 'I' for Inactive)
REMARK    1  A    between atoms: C1_1  and  C2_2 
ROOT
HETATM    1  C2  UNL     1     -34.152   6.495   3.428  1.00 20.00     0.395 C 
HETATM    2  F4  UNL     1     -34.160   5.302   4.077  1.00 20.00    -0.178 F 
HETATM    3  F5  UNL     1     -35.418   6.688   2.971  1.00 20.00    -0.178 F 
HETATM    4 CL7  UNL     1     -33.742   7.789   4.566  1.00 20.00    -0.038 Cl
ENDROOT
BRANCH   1   5
HETATM    5  C1  UNL     1     -33.157   6.541   2.299  1.00 20.00     0.307 C 
HETATM    6  O3  UNL     1     -33.022   5.593   1.531  1.00 20.00    -0.272 OA
HETATM    7 CL6  UNL     1     -32.300   8.052   2.202  1.00 20.00    -0.036 Cl
ENDBRANCH   1   5
TORSDOF 1
ENDMDL
MODEL 4
REMARK VINA RESULT:      -2.5      2.233      2.870
REMARK  1 active torsions:
REMARK  status: ('A' for Active; 'I' for Inactive)
REMARK    1  A    between atoms: C1_1  and  C2_2 
ROOT
HETATM    1  C2  UNL     1     -34.015   7.424   3.686  1.00 20.00     0.395 C 
HETATM    2  F4  UNL     1     -34.684   8.560   3.358  1.00 20.00    -0.178 F 
HETATM    3  F5  UNL     1     -33.272   7.723   4.784  1.00 20.00    -0.178 F 
HETATM    4 CL7  UNL     1     -35.173   6.149   4.098  1.00 20.00    -0.038 Cl
ENDROOT
BRANCH   1   5
HETATM    5  C1  UNL     1     -33.146   6.912   2.568  1.00 20.00     0.307 C 
HETATM    6  O3  UNL     1     -33.265   5.766   2.143  1.00 20.00    -0.272 OA
HETATM    7 CL6  UNL     1     -32.040   8.108   1.958  1.00 20.00    -0.036 Cl
ENDBRANCH   1   5
TORSDOF 1
ENDMDL
MODEL 5
REMARK VINA RESULT:      -2.5      1.780      2.271
REMARK  1 active torsions:
REMARK  status: ('A' for Active; 'I' for Inactive)
REMARK    1  A    between atoms: C1_1  and  C2_2 
ROOT
HETATM    1  C2  UNL     1     -34.572   6.487   3.709  1.00 20.00     0.395 C 
HETATM    2  F4  UNL     1     -35.797   6.655   3.147  1.00 20.00    -0.178 F 
HETATM    3  F5  UNL     1     -34.555   7.261   4.826  1.00 20.00    -0.178 F 
HETATM    4 CL7  UNL     1     -34.357   4.792   4.173  1.00 20.00    -0.038 Cl
ENDROOT
BRANCH   1   5
HETATM    5  C1  UNL     1     -33.446   6.857   2.779  1.00 20.00     0.307 C 
HETATM    6  O3  UNL     1     -32.858   7.930   2.887  1.00 20.00    -0.272 OA
HETATM    7 CL6  UNL     1     -33.077   5.612   1.621  1.00 20.00    -0.036 Cl
ENDBRANCH   1   5
TORSDOF 1
ENDMDL
MODEL 6
REMARK VINA RESULT:      -2.5      3.497      3.945
REMARK  1 active torsions:
REMARK  status: ('A' for Active; 'I' for Inactive)
REMARK    1  A    between atoms: C1_1  and  C2_2 
ROOT
HETATM    1  C2  UNL     1     -31.964   7.948   2.032  1.00 20.00     0.395 C 
HETATM    2  F4  UNL     1     -30.837   7.399   1.508  1.00 20.00    -0.178 F 
HETATM    3  F5  UNL     1     -31.586   8.570   3.181  1.00 20.00    -0.178 F 
HETATM    4 CL7  UNL     1     -32.619   9.150   0.909  1.00 20.00    -0.038 Cl
ENDROOT
BRANCH   1   5
HETATM    5  C1  UNL     1     -33.041   6.930   2.298  1.00 20.00     0.307 C 
HETATM    6  O3  UNL     1     -33.144   5.917   1.611  1.00 20.00    -0.272 OA
HETATM    7 CL6  UNL     1     -34.042   7.333   3.663  1.00 20.00    -0.036 Cl
ENDBRANCH   1   5
TORSDOF 1
ENDMDL
MODEL 7
REMARK VINA RESULT:      -2.4      2.839      3.534
REMARK  1 active torsions:
REMARK  status: ('A' for Active; 'I' for Inactive)
REMARK    1  A    between atoms: C1_1  and  C2_2 
ROOT
HETATM    1  C2  UNL     1     -32.841   5.924   1.796  1.00 20.00     0.395 C 
HETATM    2  F4  UNL     1     -31.629   5.425   1.439  1.00 20.00    -0.178 F 
HETATM    3  F5  UNL     1     -33.624   5.855   0.686  1.00 20.00    -0.178 F 
HETATM    4 CL7  UNL     1     -33.548   4.915   3.069  1.00 20.00    -0.038 Cl
ENDROOT
BRANCH   1   5
HETATM    5  C1  UNL     1     -32.764   7.335   2.316  1.00 20.00     0.307 C 
HETATM    6  O3  UNL     1     -32.078   8.184   1.752  1.00 20.00    -0.272 OA
HETATM    7 CL6  UNL     1     -33.756   7.604   3.720  1.00 20.00    -0.036 Cl
ENDBRANCH   1   5
TORSDOF 1
ENDMDL
MODEL 8
REMARK VINA RESULT:      -2.2      2.248      2.280
REMARK  1 active torsions:
REMARK  status: ('A' for Active; 'I' for Inactive)
REMARK    1  A    between atoms: C1_1  and  C2_2 
ROOT
HETATM    1  C2  UNL     1     -33.516   7.656   3.553  1.00 20.00     0.395 C 
HETATM    2  F4  UNL     1     -32.970   7.845   4.783  1.00 20.00    -0.178 F 
HETATM    3  F5  UNL     1     -34.546   8.538   3.454  1.00 20.00    -0.178 F 
HETATM    4 CL7  UNL     1     -32.314   8.023   2.306  1.00 20.00    -0.038 Cl
ENDROOT
BRANCH   1   5
HETATM    5  C1  UNL     1     -33.991   6.244   3.334  1.00 20.00     0.307 C 
HETATM    6  O3  UNL     1     -33.379   5.474   2.599  1.00 20.00    -0.272 OA
HETATM    7 CL6  UNL     1     -35.419   5.851   4.247  1.00 20.00    -0.036 Cl
ENDBRANCH   1   5
TORSDOF 1
ENDMDL
MODEL 9
REMARK VINA RESULT:      -2.2      2.059      2.074
REMARK  1 active torsions:
REMARK  status: ('A' for Active; 'I' for Inactive)
REMARK    1  A    between atoms: C1_1  and  C2_2 
ROOT
HETATM    1  C2  UNL     1     -34.429   6.334   3.575  1.00 20.00     0.395 C 
HETATM    2  F4  UNL     1     -33.894   7.248   4.427  1.00 20.00    -0.178 F 
HETATM    3  F5  UNL     1     -35.567   6.892   3.083  1.00 20.00    -0.178 F 
HETATM    4 CL7  UNL     1     -33.304   6.035   2.240  1.00 20.00    -0.038 Cl
ENDROOT
BRANCH   1   5
HETATM    5  C1  UNL     1     -34.717   5.014   4.240  1.00 20.00     0.307 C 
HETATM    6  O3  UNL     1     -35.762   4.827   4.857  1.00 20.00    -0.272 OA
HETATM    7 CL6  UNL     1     -33.463   3.834   3.993  1.00 20.00    -0.036 Cl
ENDBRANCH   1   5
TORSDOF 1
ENDMDL
