MODEL 1
REMARK VINA RESULT:      -2.5      0.000      0.000
REMARK  1 active torsions:
REMARK  status: ('A' for Active; 'I' for Inactive)
REMARK    1  A    between atoms: C1_1  and  C2_2 
ROOT
HETATM    1  C2  UNL     1     -34.161   6.485   3.441  1.00 20.00     0.391 C 
HETATM    2  F4  UNL     1     -35.432   6.690   3.006  1.00 20.00    -0.178 F 
HETATM    3  F5  UNL     1     -34.172   5.307   4.116  1.00 20.00    -0.178 F 
HETATM    4 CL6  UNL     1     -33.701   7.795   4.540  1.00 20.00    -0.039 Cl
ENDROOT
BRANCH   1   5
HETATM    5  C1  UNL     1     -33.192   6.483   2.301  1.00 20.00     0.282 C 
HETATM    6  O3  UNL     1     -33.037   5.548   1.530  1.00 20.00    -0.277 OA
HETATM    7 BR7  UNL     1     -32.153   8.045   1.960  1.00 20.00    -0.001 Br
ENDBRANCH   1   5
TORSDOF 1
ENDMDL
MODEL 2
REMARK VINA RESULT:      -2.4      1.599      1.961
REMARK  1 active torsions:
REMARK  status: ('A' for Active; 'I' for Inactive)
REMARK    1  A    between atoms: C1_1  and  C2_2 
ROOT
HETATM    1  C2  UNL     1     -34.060   7.392   3.719  1.00 20.00     0.391 C 
HETATM    2  F4  UNL     1     -33.314   7.707   4.810  1.00 20.00    -0.178 F 
HETATM    3  F5  UNL     1     -34.739   8.518   3.380  1.00 20.00    -0.178 F 
HETATM    4 CL6  UNL     1     -35.207   6.112   4.144  1.00 20.00    -0.039 Cl
ENDROOT
BRANCH   1   5
HETATM    5  C1  UNL     1     -33.201   6.884   2.604  1.00 20.00     0.282 C 
HETATM    6  O3  UNL     1     -33.268   5.753   2.143  1.00 20.00    -0.277 OA
HETATM    7 BR7  UNL     1     -31.947   8.062   1.782  1.00 20.00    -0.001 Br
ENDBRANCH   1   5
TORSDOF 1
ENDMDL
MODEL 3
REMARK VINA RESULT:      -2.4      2.611      2.948
REMARK  1 active torsions:
REMARK  status: ('A' for Active; 'I' for Inactive)
REMARK    1  A    between atoms: C1_1  and  C2_2 
ROOT
HETATM    1  C2  UNL     1     -32.794   6.114   1.671  1.00 20.00     0.391 C 
HETATM    2  F4  UNL     1     -31.782   5.223   1.506  1.00 20.00    -0.178 F 
HETATM    3  F5  UNL     1     -33.588   6.000   0.575  1.00 20.00    -0.178 F 
HETATM    4 CL6  UNL     1     -32.125   7.752   1.750  1.00 20.00    -0.039 Cl
ENDROOT
BRANCH   1   5
HETATM    5  C1  UNL     1     -33.537   5.862   2.945  1.00 20.00     0.282 C 
HETATM    6  O3  UNL     1     -33.698   4.757   3.442  1.00 20.00    -0.277 OA
HETATM    7 BR7  UNL     1     -34.244   7.341   3.919  1.00 20.00    -0.001 Br
ENDBRANCH   1   5
TORSDOF 1
ENDMDL
MODEL 4
REMARK VINA RESULT:      -2.4      3.156      3.278
REMARK  1 active torsions:
REMARK  status: ('A' for Active; 'I' for Inactive)
REMARK    1  A    between atoms: C1_1  and  C2_2 
ROOT
HETATM    1  C2  UNL     1     -31.949   7.951   1.976  1.00 20.00     0.391 C 
HETATM    2  F4  UNL     1     -31.581   8.553   3.138  1.00 20.00    -0.178 F 
HETATM    3  F5  UNL     1     -30.817   7.431   1.437  1.00 20.00    -0.178 F 
HETATM    4 CL6  UNL     1     -32.626   9.165   0.879  1.00 20.00    -0.039 Cl
ENDROOT
BRANCH   1   5
HETATM    5  C1  UNL     1     -33.001   6.914   2.213  1.00 20.00     0.282 C 
HETATM    6  O3  UNL     1     -33.116   5.887   1.560  1.00 20.00    -0.277 OA
HETATM    7 BR7  UNL     1     -34.227   7.143   3.656  1.00 20.00    -0.001 Br
ENDBRANCH   1   5
TORSDOF 1
ENDMDL
MODEL 5
REMARK VINA RESULT:      -2.3      1.705      1.705
REMARK  1 active torsions:
REMARK  status: ('A' for Active; 'I' for Inactive)
REMARK    1  A    between atoms: C1_1  and  C2_2 
ROOT
HETATM    1  C2  UNL     1     -34.972   6.329   3.925  1.00 20.00     0.391 C 
HETATM    2  F4  UNL     1     -35.899   6.692   3.000  1.00 20.00    -0.178 F 
HETATM    3  F5  UNL     1     -35.661   5.817   4.978  1.00 20.00    -0.178 F 
HETATM    4 CL6  UNL     1     -34.072   7.762   4.445  1.00 20.00    -0.039 Cl
ENDROOT
BRANCH   1   5
HETATM    5  C1  UNL     1     -33.990   5.355   3.355  1.00 20.00     0.282 C 
HETATM    6  O3  UNL     1     -33.827   4.216   3.770  1.00 20.00    -0.277 OA
HETATM    7 BR7  UNL     1     -32.945   5.863   1.844  1.00 20.00    -0.001 Br
ENDBRANCH   1   5
TORSDOF 1
ENDMDL
MODEL 6
REMARK VINA RESULT:      -2.3      2.054      2.227
REMARK  1 active torsions:
REMARK  status: ('A' for Active; 'I' for Inactive)
REMARK    1  A    between atoms: C1_1  and  C2_2 
ROOT
HETATM    1  C2  UNL     1     -34.631   6.490   3.760  1.00 20.00     0.391 C 
HETATM    2  F4  UNL     1     -34.634   7.252   4.885  1.00 20.00    -0.178 F 
HETATM    3  F5  UNL     1     -35.846   6.658   3.178  1.00 20.00    -0.178 F 
HETATM    4 CL6  UNL     1     -34.416   4.790   4.206  1.00 20.00    -0.039 Cl
ENDROOT
BRANCH   1   5
HETATM    5  C1  UNL     1     -33.504   6.870   2.852  1.00 20.00     0.282 C 
HETATM    6  O3  UNL     1     -32.895   7.928   2.914  1.00 20.00    -0.277 OA
HETATM    7 BR7  UNL     1     -32.910   5.626   1.535  1.00 20.00    -0.001 Br
ENDBRANCH   1   5
TORSDOF 1
ENDMDL
MODEL 7
REMARK VINA RESULT:      -2.1      2.731      2.798
REMARK  1 active torsions:
REMARK  status: ('A' for Active; 'I' for Inactive)
REMARK    1  A    between atoms: C1_1  and  C2_2 
ROOT
HETATM    1  C2  UNL     1     -32.832   5.869   1.774  1.00 20.00     0.391 C 
HETATM    2  F4  UNL     1     -33.610   5.812   0.662  1.00 20.00    -0.178 F 
HETATM    3  F5  UNL     1     -31.607   5.411   1.410  1.00 20.00    -0.178 F 
HETATM    4 CL6  UNL     1     -33.514   4.813   3.020  1.00 20.00    -0.039 Cl
ENDROOT
BRANCH   1   5
HETATM    5  C1  UNL     1     -32.783   7.258   2.329  1.00 20.00     0.282 C 
HETATM    6  O3  UNL     1     -32.125   8.170   1.849  1.00 20.00    -0.277 OA
HETATM    7 BR7  UNL     1     -33.846   7.689   3.852  1.00 20.00    -0.001 Br
ENDBRANCH   1   5
TORSDOF 1
ENDMDL
MODEL 8
REMARK VINA RESULT:      -2.0      3.303      3.396
REMARK  1 active torsions:
REMARK  status: ('A' for Active; 'I' for Inactive)
REMARK    1  A    between atoms: C1_1  and  C2_2 
ROOT
HETATM    1  C2  UNL     1     -32.509   7.618   2.277  1.00 20.00     0.391 C 
HETATM    2  F4  UNL     1     -32.995   8.612   1.489  1.00 20.00    -0.178 F 
HETATM    3  F5  UNL     1     -31.179   7.850   2.413  1.00 20.00    -0.178 F 
HETATM    4 CL6  UNL     1     -32.760   6.060   1.473  1.00 20.00    -0.039 Cl
ENDROOT
BRANCH   1   5
HETATM    5  C1  UNL     1     -33.221   7.572   3.593  1.00 20.00     0.282 C 
HETATM    6  O3  UNL     1     -32.871   8.192   4.587  1.00 20.00    -0.277 OA
HETATM    7 BR7  UNL     1     -34.813   6.536   3.755  1.00 20.00    -0.001 Br
ENDBRANCH   1   5
TORSDOF 1
ENDMDL
MODEL 9
REMARK VINA RESULT:      -2.0      2.833      3.156
REMARK  1 active torsions:
REMARK  status: ('A' for Active; 'I' for Inactive)
REMARK    1  A    between atoms: C1_1  and  C2_2 
ROOT
HETATM    1  C2  UNL     1     -32.126   7.931   1.981  1.00 20.00     0.391 C 
HETATM    2  F4  UNL     1     -30.957   7.541   1.411  1.00 20.00    -0.178 F 
HETATM    3  F5  UNL     1     -32.660   8.871   1.160  1.00 20.00    -0.178 F 
HETATM    4 CL6  UNL     1     -31.793   8.647   3.566  1.00 20.00    -0.039 Cl
ENDROOT
BRANCH   1   5
HETATM    5  C1  UNL     1     -33.042   6.766   2.190  1.00 20.00     0.282 C 
HETATM    6  O3  UNL     1     -32.997   5.729   1.544  1.00 20.00    -0.277 OA
HETATM    7 BR7  UNL     1     -34.341   6.841   3.584  1.00 20.00    -0.001 Br
ENDBRANCH   1   5
TORSDOF 1
ENDMDL
