MODEL 1
REMARK VINA RESULT:      -0.2      0.000      0.000
REMARK  1 active torsions:
REMARK  status: ('A' for Active; 'I' for Inactive)
REMARK    1  A    between atoms: C1_1  and  C6_6 
ROOT
HETATM    1  C2  UNL     1     -31.726   8.159   0.333  1.00 20.00     0.005 C 
HETATM    2  C3  UNL     1     -32.546   9.296   0.965  1.00 20.00     0.006 C 
HETATM    3  C4  UNL     1     -32.819   6.490   1.854  1.00 20.00     0.017 C 
HETATM    4  C5  UNL     1     -31.352   8.172   2.682  1.00 20.00     0.010 C 
HETATM    5  C6  UNL     1     -33.678   7.626   2.436  1.00 20.00     0.059 C 
HETATM    6  C7  UNL     1     -31.495   7.200   1.514  1.00 20.00    -0.013 C 
HETATM    7  C8  UNL     1     -32.712   8.830   2.422  1.00 20.00    -0.003 C 
ENDROOT
BRANCH   5   8
HETATM    8  C1  UNL     1     -34.148   7.307   3.821  1.00 20.00     0.127 C 
HETATM    9  C9  UNL     1     -35.158   6.200   3.955  1.00 20.00     0.091 C 
HETATM   10  O10 UNL     1     -33.727   7.919   4.802  1.00 20.00    -0.298 OA
ENDBRANCH   5   8
TORSDOF 1
ENDMDL
MODEL 2
REMARK VINA RESULT:       0.1      1.146      1.183
REMARK  1 active torsions:
REMARK  status: ('A' for Active; 'I' for Inactive)
REMARK    1  A    between atoms: C1_1  and  C6_6 
ROOT
HETATM    1  C2  UNL     1     -31.527   8.458   0.336  1.00 20.00     0.005 C 
HETATM    2  C3  UNL     1     -32.730   9.175   0.971  1.00 20.00     0.006 C 
HETATM    3  C4  UNL     1     -32.196   6.305   1.436  1.00 20.00     0.017 C 
HETATM    4  C5  UNL     1     -31.441   8.177   2.696  1.00 20.00     0.010 C 
HETATM    5  C6  UNL     1     -33.430   7.017   2.015  1.00 20.00     0.059 C 
HETATM    6  C7  UNL     1     -31.136   7.422   1.405  1.00 20.00    -0.013 C 
HETATM    7  C8  UNL     1     -32.901   8.436   2.310  1.00 20.00    -0.003 C 
ENDROOT
BRANCH   5   8
HETATM    8  C1  UNL     1     -33.926   6.340   3.255  1.00 20.00     0.127 C 
HETATM    9  C9  UNL     1     -34.656   7.201   4.250  1.00 20.00     0.091 C 
HETATM   10  O10 UNL     1     -33.748   5.138   3.449  1.00 20.00    -0.298 OA
ENDBRANCH   5   8
TORSDOF 1
ENDMDL
MODEL 3
REMARK VINA RESULT:       0.2      1.642      2.564
REMARK  1 active torsions:
REMARK  status: ('A' for Active; 'I' for Inactive)
REMARK    1  A    between atoms: C1_1  and  C6_6 
ROOT
HETATM    1  C2  UNL     1     -31.597   7.591   1.539  1.00 20.00     0.005 C 
HETATM    2  C3  UNL     1     -31.519   6.058   1.461  1.00 20.00     0.006 C 
HETATM    3  C4  UNL     1     -33.276   7.438   3.396  1.00 20.00     0.017 C 
HETATM    4  C5  UNL     1     -33.782   6.720   1.185  1.00 20.00     0.010 C 
HETATM    5  C6  UNL     1     -33.143   5.907   3.352  1.00 20.00     0.059 C 
HETATM    6  C7  UNL     1     -33.066   7.845   1.926  1.00 20.00    -0.013 C 
HETATM    7  C8  UNL     1     -32.943   5.622   1.848  1.00 20.00    -0.003 C 
ENDROOT
BRANCH   5   8
HETATM    8  C1  UNL     1     -34.367   5.231   3.887  1.00 20.00     0.127 C 
HETATM    9  C9  UNL     1     -35.577   6.098   4.110  1.00 20.00     0.091 C 
HETATM   10  O10 UNL     1     -34.385   4.025   4.130  1.00 20.00    -0.298 OA
ENDBRANCH   5   8
TORSDOF 1
ENDMDL
MODEL 4
REMARK VINA RESULT:       0.4      1.357      2.356
REMARK  1 active torsions:
REMARK  status: ('A' for Active; 'I' for Inactive)
REMARK    1  A    between atoms: C1_1  and  C6_6 
ROOT
HETATM    1  C2  UNL     1     -31.380   7.398   1.489  1.00 20.00     0.005 C 
HETATM    2  C3  UNL     1     -31.593   5.877   1.565  1.00 20.00     0.006 C 
HETATM    3  C4  UNL     1     -33.166   7.761   3.213  1.00 20.00     0.017 C 
HETATM    4  C5  UNL     1     -33.666   6.911   1.047  1.00 20.00     0.010 C 
HETATM    5  C6  UNL     1     -33.327   6.235   3.326  1.00 20.00     0.059 C 
HETATM    6  C7  UNL     1     -32.793   7.959   1.732  1.00 20.00    -0.013 C 
HETATM    7  C8  UNL     1     -33.095   5.756   1.877  1.00 20.00    -0.003 C 
ENDROOT
BRANCH   5   8
HETATM    8  C1  UNL     1     -34.688   5.860   3.824  1.00 20.00     0.127 C 
HETATM    9  C9  UNL     1     -34.817   4.520   4.497  1.00 20.00     0.091 C 
HETATM   10  O10 UNL     1     -35.654   6.611   3.691  1.00 20.00    -0.298 OA
ENDBRANCH   5   8
TORSDOF 1
ENDMDL
MODEL 5
REMARK VINA RESULT:       0.7      1.992      3.634
REMARK  1 active torsions:
REMARK  status: ('A' for Active; 'I' for Inactive)
REMARK    1  A    between atoms: C1_1  and  C6_6 
ROOT
HETATM    1  C2  UNL     1     -33.290   5.571   3.195  1.00 20.00     0.005 C 
HETATM    2  C3  UNL     1     -33.881   6.964   3.467  1.00 20.00     0.006 C 
HETATM    3  C4  UNL     1     -31.596   6.566   1.634  1.00 20.00     0.017 C 
HETATM    4  C5  UNL     1     -33.921   6.564   1.128  1.00 20.00     0.010 C 
HETATM    5  C6  UNL     1     -32.155   7.960   1.963  1.00 20.00     0.059 C 
HETATM    6  C7  UNL     1     -32.842   5.665   1.725  1.00 20.00    -0.013 C 
HETATM    7  C8  UNL     1     -33.666   7.695   2.131  1.00 20.00    -0.003 C 
ENDROOT
BRANCH   5   8
HETATM    8  C1  UNL     1     -31.882   8.937   0.861  1.00 20.00     0.127 C 
HETATM    9  C9  UNL     1     -32.733  10.178   0.830  1.00 20.00     0.091 C 
HETATM   10  O10 UNL     1     -31.003   8.736   0.023  1.00 20.00    -0.298 OA
ENDBRANCH   5   8
TORSDOF 1
ENDMDL
MODEL 6
REMARK VINA RESULT:       1.0      1.874      4.079
REMARK  1 active torsions:
REMARK  status: ('A' for Active; 'I' for Inactive)
REMARK    1  A    between atoms: C1_1  and  C6_6 
ROOT
HETATM    1  C2  UNL     1     -35.597   6.139   4.299  1.00 20.00     0.005 C 
HETATM    2  C3  UNL     1     -34.725   4.891   4.086  1.00 20.00     0.006 C 
HETATM    3  C4  UNL     1     -34.375   7.338   2.465  1.00 20.00     0.017 C 
HETATM    4  C5  UNL     1     -33.306   6.746   4.508  1.00 20.00     0.010 C 
HETATM    5  C6  UNL     1     -33.552   6.062   2.219  1.00 20.00     0.059 C 
HETATM    6  C7  UNL     1     -34.630   7.295   3.983  1.00 20.00    -0.013 C 
HETATM    7  C8  UNL     1     -33.378   5.485   3.640  1.00 20.00    -0.003 C 
ENDROOT
BRANCH   5   8
HETATM    8  C1  UNL     1     -32.234   6.372   1.580  1.00 20.00     0.127 C 
HETATM    9  C9  UNL     1     -31.849   7.824   1.491  1.00 20.00     0.091 C 
HETATM   10  O10 UNL     1     -31.500   5.482   1.151  1.00 20.00    -0.298 OA
ENDBRANCH   5   8
TORSDOF 1
ENDMDL
MODEL 7
REMARK VINA RESULT:       1.0      1.577      3.797
REMARK  1 active torsions:
REMARK  status: ('A' for Active; 'I' for Inactive)
REMARK    1  A    between atoms: C1_1  and  C6_6 
ROOT
HETATM    1  C2  UNL     1     -35.254   6.343   4.066  1.00 20.00     0.005 C 
HETATM    2  C3  UNL     1     -34.212   5.404   3.437  1.00 20.00     0.006 C 
HETATM    3  C4  UNL     1     -34.355   8.273   2.739  1.00 20.00     0.017 C 
HETATM    4  C5  UNL     1     -33.080   7.226   4.455  1.00 20.00     0.010 C 
HETATM    5  C6  UNL     1     -33.357   7.311   2.071  1.00 20.00     0.059 C 
HETATM    6  C7  UNL     1     -34.504   7.684   4.155  1.00 20.00    -0.013 C 
HETATM    7  C8  UNL     1     -33.006   6.333   3.211  1.00 20.00    -0.003 C 
ENDROOT
BRANCH   5   8
HETATM    8  C1  UNL     1     -32.147   8.035   1.567  1.00 20.00     0.127 C 
HETATM    9  C9  UNL     1     -32.389   9.305   0.797  1.00 20.00     0.091 C 
HETATM   10  O10 UNL     1     -31.010   7.614   1.776  1.00 20.00    -0.298 OA
ENDBRANCH   5   8
TORSDOF 1
ENDMDL
MODEL 8
REMARK VINA RESULT:       1.4      1.725      2.365
REMARK  1 active torsions:
REMARK  status: ('A' for Active; 'I' for Inactive)
REMARK    1  A    between atoms: C1_1  and  C6_6 
ROOT
HETATM    1  C2  UNL     1     -33.088   8.512   2.090  1.00 20.00     0.005 C 
HETATM    2  C3  UNL     1     -34.368   8.632   2.932  1.00 20.00     0.006 C 
HETATM    3  C4  UNL     1     -33.118   6.018   2.351  1.00 20.00     0.017 C 
HETATM    4  C5  UNL     1     -32.731   7.469   4.197  1.00 20.00     0.010 C 
HETATM    5  C6  UNL     1     -34.432   6.145   3.140  1.00 20.00     0.059 C 
HETATM    6  C7  UNL     1     -32.366   7.309   2.724  1.00 20.00    -0.013 C 
HETATM    7  C8  UNL     1     -34.239   7.461   3.922  1.00 20.00    -0.003 C 
ENDROOT
BRANCH   5   8
HETATM    8  C1  UNL     1     -34.640   4.980   4.057  1.00 20.00     0.127 C 
HETATM    9  C9  UNL     1     -33.603   3.890   4.012  1.00 20.00     0.091 C 
HETATM   10  O10 UNL     1     -35.610   4.917   4.812  1.00 20.00    -0.298 OA
ENDBRANCH   5   8
TORSDOF 1
ENDMDL
MODEL 9
REMARK VINA RESULT:       1.4      1.873      3.996
REMARK  1 active torsions:
REMARK  status: ('A' for Active; 'I' for Inactive)
REMARK    1  A    between atoms: C1_1  and  C6_6 
ROOT
HETATM    1  C2  UNL     1     -35.049   6.449   5.196  1.00 20.00     0.005 C 
HETATM    2  C3  UNL     1     -34.170   7.672   4.888  1.00 20.00     0.006 C 
HETATM    3  C4  UNL     1     -33.956   5.161   3.341  1.00 20.00     0.017 C 
HETATM    4  C5  UNL     1     -35.333   7.055   2.913  1.00 20.00     0.010 C 
HETATM    5  C6  UNL     1     -33.038   6.369   3.083  1.00 20.00     0.059 C 
HETATM    6  C7  UNL     1     -35.268   5.820   3.808  1.00 20.00    -0.013 C 
HETATM    7  C8  UNL     1     -33.963   7.571   3.367  1.00 20.00    -0.003 C 
ENDROOT
BRANCH   5   8
HETATM    8  C1  UNL     1     -32.527   6.381   1.676  1.00 20.00     0.127 C 
HETATM    9  C9  UNL     1     -31.834   7.636   1.219  1.00 20.00     0.091 C 
HETATM   10  O10 UNL     1     -32.664   5.412   0.930  1.00 20.00    -0.298 OA
ENDBRANCH   5   8
TORSDOF 1
ENDMDL
