MODEL 1
REMARK VINA RESULT:      -0.3      0.000      0.000
REMARK  1 active torsions:
REMARK  status: ('A' for Active; 'I' for Inactive)
REMARK    1  A    between atoms: C5_5  and  C8_8 
ROOT
HETATM    1  C1  UNL     1     -31.805   6.607   1.576  1.00 20.00     0.010 C 
HETATM    2  C2  UNL     1     -33.117   5.825   1.481  1.00 20.00     0.035 C 
HETATM    3  C3  UNL     1     -32.704   8.254   3.280  1.00 20.00     0.041 C 
HETATM    4  C5  UNL     1     -32.010   8.093   1.919  1.00 20.00     0.019 C 
HETATM    5  C6  UNL     1     -34.068   6.125   2.592  1.00 20.00     0.151 A 
HETATM    6  C7  UNL     1     -33.883   7.347   3.450  1.00 20.00     0.151 A 
HETATM    7  O10 UNL     1     -33.526   6.028   3.910  1.00 20.00    -0.375 OA
ENDROOT
BRANCH   4   8
HETATM    8  C8  UNL     1     -32.741   8.835   0.826  1.00 20.00     0.149 A 
HETATM    9  C4  UNL     1     -31.999   9.738  -0.100  1.00 20.00     0.200 A 
HETATM   10  O9  UNL     1     -32.761  10.244   1.008  1.00 20.00    -0.381 OA
ENDBRANCH   4   8
TORSDOF 1
ENDMDL
MODEL 2
REMARK VINA RESULT:       0.2      1.629      4.145
REMARK  1 active torsions:
REMARK  status: ('A' for Active; 'I' for Inactive)
REMARK    1  A    between atoms: C5_5  and  C8_8 
ROOT
HETATM    1  C1  UNL     1     -33.532   5.646   1.496  1.00 20.00     0.010 C 
HETATM    2  C2  UNL     1     -32.032   5.941   1.424  1.00 20.00     0.035 C 
HETATM    3  C3  UNL     1     -33.983   7.443   3.225  1.00 20.00     0.041 C 
HETATM    4  C5  UNL     1     -34.144   5.956   2.873  1.00 20.00     0.019 C 
HETATM    5  C6  UNL     1     -31.655   7.248   2.039  1.00 20.00     0.151 A 
HETATM    6  C7  UNL     1     -32.605   7.964   2.960  1.00 20.00     0.151 A 
HETATM    7  O10 UNL     1     -32.404   8.378   1.593  1.00 20.00    -0.375 OA
ENDROOT
BRANCH   4   8
HETATM    8  C8  UNL     1     -33.594   5.061   3.956  1.00 20.00     0.149 A 
HETATM    9  C4  UNL     1     -33.685   3.578   3.828  1.00 20.00     0.200 A 
HETATM   10  O9  UNL     1     -34.593   4.327   4.651  1.00 20.00    -0.381 OA
ENDBRANCH   4   8
TORSDOF 1
ENDMDL
MODEL 3
REMARK VINA RESULT:       1.7      1.711      2.683
REMARK  1 active torsions:
REMARK  status: ('A' for Active; 'I' for Inactive)
REMARK    1  A    between atoms: C5_5  and  C8_8 
ROOT
HETATM    1  C1  UNL     1     -34.933   6.777   2.643  1.00 20.00     0.010 C 
HETATM    2  C2  UNL     1     -34.857   6.509   4.147  1.00 20.00     0.035 C 
HETATM    3  C3  UNL     1     -33.076   5.148   2.078  1.00 20.00     0.041 C 
HETATM    4  C5  UNL     1     -33.585   6.589   1.925  1.00 20.00     0.019 C 
HETATM    5  C6  UNL     1     -34.088   5.277   4.491  1.00 20.00     0.151 A 
HETATM    6  C7  UNL     1     -33.179   4.633   3.480  1.00 20.00     0.151 A 
HETATM    7  O10 UNL     1     -34.478   4.092   3.795  1.00 20.00    -0.375 OA
ENDROOT
BRANCH   4   8
HETATM    8  C8  UNL     1     -32.555   7.598   2.373  1.00 20.00     0.149 A 
HETATM    9  C4  UNL     1     -32.096   8.670   1.445  1.00 20.00     0.200 A 
HETATM   10  O9  UNL     1     -31.315   7.489   1.688  1.00 20.00    -0.381 OA
ENDBRANCH   4   8
TORSDOF 1
ENDMDL
MODEL 4
REMARK VINA RESULT:       2.5      2.135      3.370
REMARK  1 active torsions:
REMARK  status: ('A' for Active; 'I' for Inactive)
REMARK    1  A    between atoms: C5_5  and  C8_8 
ROOT
HETATM    1  C1  UNL     1     -34.747   6.211   3.449  1.00 20.00     0.010 C 
HETATM    2  C2  UNL     1     -33.864   4.970   3.300  1.00 20.00     0.035 C 
HETATM    3  C3  UNL     1     -33.113   7.735   2.253  1.00 20.00     0.041 C 
HETATM    4  C5  UNL     1     -33.943   7.520   3.528  1.00 20.00     0.019 C 
HETATM    5  C6  UNL     1     -32.769   5.138   2.299  1.00 20.00     0.151 A 
HETATM    6  C7  UNL     1     -32.374   6.508   1.818  1.00 20.00     0.151 A 
HETATM    7  O10 UNL     1     -33.174   5.616   1.016  1.00 20.00    -0.375 OA
ENDROOT
BRANCH   4   8
HETATM    8  C8  UNL     1     -33.089   7.590   4.771  1.00 20.00     0.149 A 
HETATM    9  C4  UNL     1     -33.290   8.684   5.764  1.00 20.00     0.200 A 
HETATM   10  O9  UNL     1     -32.221   8.715   4.805  1.00 20.00    -0.381 OA
ENDBRANCH   4   8
TORSDOF 1
ENDMDL
MODEL 5
REMARK VINA RESULT:       2.5      1.819      3.246
REMARK  1 active torsions:
REMARK  status: ('A' for Active; 'I' for Inactive)
REMARK    1  A    between atoms: C5_5  and  C8_8 
ROOT
HETATM    1  C1  UNL     1     -32.444   8.273   1.902  1.00 20.00     0.010 C 
HETATM    2  C2  UNL     1     -32.042   8.413   3.371  1.00 20.00     0.035 C 
HETATM    3  C3  UNL     1     -34.198   6.504   2.368  1.00 20.00     0.041 C 
HETATM    4  C5  UNL     1     -32.951   6.865   1.545  1.00 20.00     0.019 C 
HETATM    5  C6  UNL     1     -33.022   7.802   4.316  1.00 20.00     0.151 A 
HETATM    6  C7  UNL     1     -34.058   6.828   3.822  1.00 20.00     0.151 A 
HETATM    7  O10 UNL     1     -34.382   8.198   4.135  1.00 20.00    -0.375 OA
ENDROOT
BRANCH   4   8
HETATM    8  C8  UNL     1     -31.871   5.819   1.677  1.00 20.00     0.149 A 
HETATM    9  C4  UNL     1     -31.651   4.821   0.592  1.00 20.00     0.200 A 
HETATM   10  O9  UNL     1     -32.370   4.494   1.792  1.00 20.00    -0.381 OA
ENDBRANCH   4   8
TORSDOF 1
ENDMDL
MODEL 6
REMARK VINA RESULT:       2.7      2.412      3.137
REMARK  1 active torsions:
REMARK  status: ('A' for Active; 'I' for Inactive)
REMARK    1  A    between atoms: C5_5  and  C8_8 
ROOT
HETATM    1  C1  UNL     1     -33.592   4.791   3.920  1.00 20.00     0.010 C 
HETATM    2  C2  UNL     1     -35.059   5.200   4.063  1.00 20.00     0.035 C 
HETATM    3  C3  UNL     1     -32.867   7.046   3.018  1.00 20.00     0.041 C 
HETATM    4  C5  UNL     1     -32.866   5.527   2.781  1.00 20.00     0.019 C 
HETATM    5  C6  UNL     1     -35.274   6.675   3.983  1.00 20.00     0.151 A 
HETATM    6  C7  UNL     1     -34.205   7.577   3.428  1.00 20.00     0.151 A 
HETATM    7  O10 UNL     1     -34.454   7.465   4.844  1.00 20.00    -0.375 OA
ENDROOT
BRANCH   4   8
HETATM    8  C8  UNL     1     -33.426   5.172   1.425  1.00 20.00     0.149 A 
HETATM    9  C4  UNL     1     -32.525   4.687   0.341  1.00 20.00     0.200 A 
HETATM   10  O9  UNL     1     -32.999   6.042   0.386  1.00 20.00    -0.381 OA
ENDBRANCH   4   8
TORSDOF 1
ENDMDL
