MODEL 1
REMARK VINA RESULT:      -2.3      0.000      0.000
REMARK  5 active torsions:
REMARK  status: ('A' for Active; 'I' for Inactive)
REMARK    1  A    between atoms: C2_2  and  C3_3 
REMARK    2  A    between atoms: C3_3  and  N7_7 
REMARK    3  A    between atoms: C4_4  and  C5_5 
REMARK    4  A    between atoms: C4_4  and  N7_7 
REMARK    5  A    between atoms: N6_6  and  N7_7 
ROOT
HETATM    1  N7  UNL     1     -33.094   7.207   2.086  1.00 20.00    -0.205 NA
ENDROOT
BRANCH   1   2
HETATM    2  C3  UNL     1     -31.928   8.017   1.864  1.00 20.00     0.111 C 
BRANCH   2   3
HETATM    3  C2  UNL     1     -31.954   8.711   0.506  1.00 20.00     0.011 C 
HETATM    4  C1  UNL     1     -32.612  10.083   0.559  1.00 20.00     0.006 C 
ENDBRANCH   2   3
ENDBRANCH   1   2
BRANCH   1   5
HETATM    5  C4  UNL     1     -33.461   7.204   3.517  1.00 20.00     0.127 C 
BRANCH   5   6
HETATM    6  C5  UNL     1     -34.891   6.749   3.752  1.00 20.00     0.130 C 
HETATM    7 CL9  UNL     1     -34.948   5.067   4.337  1.00 20.00    -0.129 Cl
ENDBRANCH   5   6
ENDBRANCH   1   5
BRANCH   1   8
HETATM    8  N6  UNL     1     -33.021   5.964   1.619  1.00 20.00     0.030 NA
HETATM    9  O8  UNL     1     -31.842   5.613   1.488  1.00 20.00    -0.082 OA
ENDBRANCH   1   8
TORSDOF 5
ENDMDL
MODEL 2
REMARK VINA RESULT:      -2.2      2.464      3.890
REMARK  5 active torsions:
REMARK  status: ('A' for Active; 'I' for Inactive)
REMARK    1  A    between atoms: C2_2  and  C3_3 
REMARK    2  A    between atoms: C3_3  and  N7_7 
REMARK    3  A    between atoms: C4_4  and  C5_5 
REMARK    4  A    between atoms: C4_4  and  N7_7 
REMARK    5  A    between atoms: N6_6  and  N7_7 
ROOT
HETATM    1  N7  UNL     1     -32.592   7.071   2.224  1.00 20.00    -0.205 NA
ENDROOT
BRANCH   1   2
HETATM    2  C3  UNL     1     -33.708   7.793   2.769  1.00 20.00     0.111 C 
BRANCH   2   3
HETATM    3  C2  UNL     1     -34.152   7.241   4.119  1.00 20.00     0.011 C 
HETATM    4  C1  UNL     1     -35.318   6.269   4.002  1.00 20.00     0.006 C 
ENDBRANCH   2   3
ENDBRANCH   1   2
BRANCH   1   5
HETATM    5  C4  UNL     1     -31.782   7.946   1.352  1.00 20.00     0.127 C 
BRANCH   5   6
HETATM    6  C5  UNL     1     -32.349   9.352   1.247  1.00 20.00     0.130 C 
HETATM    7 CL9  UNL     1     -32.674   9.794  -0.447  1.00 20.00    -0.129 Cl
ENDBRANCH   5   6
ENDBRANCH   1   5
BRANCH   1   8
HETATM    8  N6  UNL     1     -32.897   5.940   1.596  1.00 20.00     0.030 NA
HETATM    9  O8  UNL     1     -31.873   5.353   1.223  1.00 20.00    -0.082 OA
ENDBRANCH   1   8
TORSDOF 5
ENDMDL
MODEL 3
REMARK VINA RESULT:      -2.0      2.385      2.540
REMARK  5 active torsions:
REMARK  status: ('A' for Active; 'I' for Inactive)
REMARK    1  A    between atoms: C2_2  and  C3_3 
REMARK    2  A    between atoms: C3_3  and  N7_7 
REMARK    3  A    between atoms: C4_4  and  C5_5 
REMARK    4  A    between atoms: C4_4  and  N7_7 
REMARK    5  A    between atoms: N6_6  and  N7_7 
ROOT
HETATM    1  N7  UNL     1     -33.487   6.191   3.071  1.00 20.00    -0.205 NA
ENDROOT
BRANCH   1   2
HETATM    2  C3  UNL     1     -33.078   6.674   1.780  1.00 20.00     0.111 C 
BRANCH   2   3
HETATM    3  C2  UNL     1     -31.957   7.702   1.874  1.00 20.00     0.011 C 
HETATM    4  C1  UNL     1     -32.189   8.909   0.977  1.00 20.00     0.006 C 
ENDBRANCH   2   3
ENDBRANCH   1   2
BRANCH   1   5
HETATM    5  C4  UNL     1     -33.679   4.726   3.041  1.00 20.00     0.127 C 
BRANCH   5   6
HETATM    6  C5  UNL     1     -34.116   4.168   4.384  1.00 20.00     0.130 C 
HETATM    7 CL9  UNL     1     -33.051   2.842   4.912  1.00 20.00    -0.129 Cl
ENDBRANCH   5   6
ENDBRANCH   1   5
BRANCH   1   8
HETATM    8  N6  UNL     1     -34.552   6.791   3.592  1.00 20.00     0.030 NA
HETATM    9  O8  UNL     1     -34.212   7.673   4.391  1.00 20.00    -0.082 OA
ENDBRANCH   1   8
TORSDOF 5
ENDMDL
MODEL 4
REMARK VINA RESULT:      -2.0      3.175      4.611
REMARK  5 active torsions:
REMARK  status: ('A' for Active; 'I' for Inactive)
REMARK    1  A    between atoms: C2_2  and  C3_3 
REMARK    2  A    between atoms: C3_3  and  N7_7 
REMARK    3  A    between atoms: C4_4  and  C5_5 
REMARK    4  A    between atoms: C4_4  and  N7_7 
REMARK    5  A    between atoms: N6_6  and  N7_7 
ROOT
HETATM    1  N7  UNL     1     -33.858   6.737   2.997  1.00 20.00    -0.205 NA
ENDROOT
BRANCH   1   2
HETATM    2  C3  UNL     1     -33.444   5.361   2.974  1.00 20.00     0.111 C 
BRANCH   2   3
HETATM    3  C2  UNL     1     -34.249   4.498   3.938  1.00 20.00     0.011 C 
HETATM    4  C1  UNL     1     -33.463   3.300   4.452  1.00 20.00     0.006 C 
ENDBRANCH   2   3
ENDBRANCH   1   2
BRANCH   1   5
HETATM    5  C4  UNL     1     -32.684   7.634   2.958  1.00 20.00     0.127 C 
BRANCH   5   6
HETATM    6  C5  UNL     1     -32.010   7.654   1.597  1.00 20.00     0.130 C 
HETATM    7 CL9  UNL     1     -32.295   9.198   0.756  1.00 20.00    -0.129 Cl
ENDBRANCH   5   6
ENDBRANCH   1   5
BRANCH   1   8
HETATM    8  N6  UNL     1     -34.669   7.072   3.995  1.00 20.00     0.030 NA
HETATM    9  O8  UNL     1     -34.142   7.924   4.723  1.00 20.00    -0.082 OA
ENDBRANCH   1   8
TORSDOF 5
ENDMDL
MODEL 5
REMARK VINA RESULT:      -1.8      2.082      2.466
REMARK  5 active torsions:
REMARK  status: ('A' for Active; 'I' for Inactive)
REMARK    1  A    between atoms: C2_2  and  C3_3 
REMARK    2  A    between atoms: C3_3  and  N7_7 
REMARK    3  A    between atoms: C4_4  and  C5_5 
REMARK    4  A    between atoms: C4_4  and  N7_7 
REMARK    5  A    between atoms: N6_6  and  N7_7 
ROOT
HETATM    1  N7  UNL     1     -33.782   6.826   3.520  1.00 20.00    -0.205 NA
ENDROOT
BRANCH   1   2
HETATM    2  C3  UNL     1     -33.268   6.727   2.182  1.00 20.00     0.111 C 
BRANCH   2   3
HETATM    3  C2  UNL     1     -32.026   7.587   1.973  1.00 20.00     0.011 C 
HETATM    4  C1  UNL     1     -32.257   8.724   0.988  1.00 20.00     0.006 C 
ENDBRANCH   2   3
ENDBRANCH   1   2
BRANCH   1   5
HETATM    5  C4  UNL     1     -35.117   6.199   3.612  1.00 20.00     0.127 C 
BRANCH   5   6
HETATM    6  C5  UNL     1     -35.143   5.019   4.567  1.00 20.00     0.130 C 
HETATM    7 CL9  UNL     1     -33.874   3.834   4.169  1.00 20.00    -0.129 Cl
ENDBRANCH   5   6
ENDBRANCH   1   5
BRANCH   1   8
HETATM    8  N6  UNL     1     -33.805   8.052   4.032  1.00 20.00     0.030 NA
HETATM    9  O8  UNL     1     -33.360   8.055   5.187  1.00 20.00    -0.082 OA
ENDBRANCH   1   8
TORSDOF 5
ENDMDL
MODEL 6
REMARK VINA RESULT:      -1.7      3.051      3.853
REMARK  5 active torsions:
REMARK  status: ('A' for Active; 'I' for Inactive)
REMARK    1  A    between atoms: C2_2  and  C3_3 
REMARK    2  A    between atoms: C3_3  and  N7_7 
REMARK    3  A    between atoms: C4_4  and  C5_5 
REMARK    4  A    between atoms: C4_4  and  N7_7 
REMARK    5  A    between atoms: N6_6  and  N7_7 
ROOT
HETATM    1  N7  UNL     1     -33.680   5.524   3.384  1.00 20.00    -0.205 NA
ENDROOT
BRANCH   1   2
HETATM    2  C3  UNL     1     -34.816   6.298   3.803  1.00 20.00     0.111 C 
BRANCH   2   3
HETATM    3  C2  UNL     1     -34.478   7.773   3.981  1.00 20.00     0.011 C 
HETATM    4  C1  UNL     1     -33.310   7.998   4.931  1.00 20.00     0.006 C 
ENDBRANCH   2   3
ENDBRANCH   1   2
BRANCH   1   5
HETATM    5  C4  UNL     1     -33.435   5.699   1.938  1.00 20.00     0.127 C 
BRANCH   5   6
HETATM    6  C5  UNL     1     -32.009   6.129   1.635  1.00 20.00     0.130 C 
HETATM    7 CL9  UNL     1     -31.866   7.903   1.573  1.00 20.00    -0.129 Cl
ENDBRANCH   5   6
ENDBRANCH   1   5
BRANCH   1   8
HETATM    8  N6  UNL     1     -33.723   4.233   3.697  1.00 20.00     0.030 NA
HETATM    9  O8  UNL     1     -34.576   4.020   4.569  1.00 20.00    -0.082 OA
ENDBRANCH   1   8
TORSDOF 5
ENDMDL
MODEL 7
REMARK VINA RESULT:      -1.3      2.898      3.814
REMARK  5 active torsions:
REMARK  status: ('A' for Active; 'I' for Inactive)
REMARK    1  A    between atoms: C2_2  and  C3_3 
REMARK    2  A    between atoms: C3_3  and  N7_7 
REMARK    3  A    between atoms: C4_4  and  C5_5 
REMARK    4  A    between atoms: C4_4  and  N7_7 
REMARK    5  A    between atoms: N6_6  and  N7_7 
ROOT
HETATM    1  N7  UNL     1     -32.948   7.403   2.131  1.00 20.00    -0.205 NA
ENDROOT
BRANCH   1   2
HETATM    2  C3  UNL     1     -33.108   7.300   3.556  1.00 20.00     0.111 C 
BRANCH   2   3
HETATM    3  C2  UNL     1     -34.560   7.460   3.989  1.00 20.00     0.011 C 
HETATM    4  C1  UNL     1     -35.294   6.129   4.087  1.00 20.00     0.006 C 
ENDBRANCH   2   3
ENDBRANCH   1   2
BRANCH   1   5
HETATM    5  C4  UNL     1     -33.003   6.066   1.504  1.00 20.00     0.127 C 
BRANCH   5   6
HETATM    6  C5  UNL     1     -31.653   5.370   1.495  1.00 20.00     0.130 C 
HETATM    7 CL9  UNL     1     -31.527   4.219   0.141  1.00 20.00    -0.129 Cl
ENDBRANCH   5   6
ENDBRANCH   1   5
BRANCH   1   8
HETATM    8  N6  UNL     1     -31.870   8.065   1.725  1.00 20.00     0.030 NA
HETATM    9  O8  UNL     1     -32.176   8.946   0.911  1.00 20.00    -0.082 OA
ENDBRANCH   1   8
TORSDOF 5
ENDMDL
MODEL 8
REMARK VINA RESULT:      -1.2      3.161      3.932
REMARK  5 active torsions:
REMARK  status: ('A' for Active; 'I' for Inactive)
REMARK    1  A    between atoms: C2_2  and  C3_3 
REMARK    2  A    between atoms: C3_3  and  N7_7 
REMARK    3  A    between atoms: C4_4  and  C5_5 
REMARK    4  A    between atoms: C4_4  and  N7_7 
REMARK    5  A    between atoms: N6_6  and  N7_7 
ROOT
HETATM    1  N7  UNL     1     -33.456   7.254   2.697  1.00 20.00    -0.205 NA
ENDROOT
BRANCH   1   2
HETATM    2  C3  UNL     1     -33.076   5.877   2.544  1.00 20.00     0.111 C 
BRANCH   2   3
HETATM    3  C2  UNL     1     -33.007   5.454   1.082  1.00 20.00     0.011 C 
HETATM    4  C1  UNL     1     -31.686   4.785   0.725  1.00 20.00     0.006 C 
ENDBRANCH   2   3
ENDBRANCH   1   2
BRANCH   1   5
HETATM    5  C4  UNL     1     -32.275   8.135   2.581  1.00 20.00     0.127 C 
BRANCH   5   6
HETATM    6  C5  UNL     1     -31.932   8.463   1.138  1.00 20.00     0.130 C 
HETATM    7 CL9  UNL     1     -32.616  10.034   0.650  1.00 20.00    -0.129 Cl
ENDBRANCH   5   6
ENDBRANCH   1   5
BRANCH   1   8
HETATM    8  N6  UNL     1     -34.143   7.537   3.800  1.00 20.00     0.030 NA
HETATM    9  O8  UNL     1     -34.988   6.662   4.027  1.00 20.00    -0.082 OA
ENDBRANCH   1   8
TORSDOF 5
ENDMDL
MODEL 9
REMARK VINA RESULT:      -1.1      2.866      4.061
REMARK  5 active torsions:
REMARK  status: ('A' for Active; 'I' for Inactive)
REMARK    1  A    between atoms: C2_2  and  C3_3 
REMARK    2  A    between atoms: C3_3  and  N7_7 
REMARK    3  A    between atoms: C4_4  and  C5_5 
REMARK    4  A    between atoms: C4_4  and  N7_7 
REMARK    5  A    between atoms: N6_6  and  N7_7 
ROOT
HETATM    1  N7  UNL     1     -33.335   5.994   2.942  1.00 20.00    -0.205 NA
ENDROOT
BRANCH   1   2
HETATM    2  C3  UNL     1     -33.222   4.563   3.007  1.00 20.00     0.111 C 
BRANCH   2   3
HETATM    3  C2  UNL     1     -33.923   3.980   4.229  1.00 20.00     0.011 C 
HETATM    4  C1  UNL     1     -33.138   2.844   4.870  1.00 20.00     0.006 C 
ENDBRANCH   2   3
ENDBRANCH   1   2
BRANCH   1   5
HETATM    5  C4  UNL     1     -34.609   6.442   3.541  1.00 20.00     0.127 C 
BRANCH   5   6
HETATM    6  C5  UNL     1     -34.501   7.816   4.182  1.00 20.00     0.130 C 
HETATM    7 CL9  UNL     1     -32.902   8.059   4.927  1.00 20.00    -0.129 Cl
ENDBRANCH   5   6
ENDBRANCH   1   5
BRANCH   1   8
HETATM    8  N6  UNL     1     -33.175   6.524   1.733  1.00 20.00     0.030 NA
HETATM    9  O8  UNL     1     -32.149   7.214   1.689  1.00 20.00    -0.082 OA
ENDBRANCH   1   8
TORSDOF 5
ENDMDL
