MODEL 1
REMARK VINA RESULT:      -1.9      0.000      0.000
REMARK  2 active torsions:
REMARK  status: ('A' for Active; 'I' for Inactive)
REMARK    1  A    between atoms: C6_6  and  C8_8 
REMARK    2  A    between atoms: C8_8  and  O9_9 
ROOT
HETATM    1  C1  UNL     1     -34.724   6.092   4.034  1.00 20.00    -0.030 C 
HETATM    2  C2  UNL     1     -34.404   7.360   4.323  1.00 20.00    -0.030 C 
HETATM    3  C3  UNL     1     -34.075   5.318   2.927  1.00 20.00     0.031 C 
HETATM    4  C4  UNL     1     -33.388   8.143   3.551  1.00 20.00     0.034 C 
HETATM    5  C5  UNL     1     -32.789   5.974   2.385  1.00 20.00    -0.009 C 
HETATM    6  C6  UNL     1     -33.000   7.496   2.204  1.00 20.00     0.016 C 
HETATM    7  C7  UNL     1     -32.359   5.266   1.097  1.00 20.00     0.011 C 
ENDROOT
BRANCH   6   8
HETATM    8  C8  UNL     1     -31.776   8.212   1.628  1.00 20.00     0.169 C 
BRANCH   8   9
HETATM    9  O9  UNL     1     -32.222   9.182   0.701  1.00 20.00    -0.400 OA
HETATM   10  H23 UNL     1     -33.011   8.817   0.262  1.00 20.00     0.209 HD
ENDBRANCH   8   9
ENDBRANCH   6   8
TORSDOF 2
ENDMDL
MODEL 2
REMARK VINA RESULT:      -1.9      2.343      4.060
REMARK  2 active torsions:
REMARK  status: ('A' for Active; 'I' for Inactive)
REMARK    1  A    between atoms: C6_6  and  C8_8 
REMARK    2  A    between atoms: C8_8  and  O9_9 
ROOT
HETATM    1  C1  UNL     1     -32.037   7.258   1.569  1.00 20.00    -0.030 C 
HETATM    2  C2  UNL     1     -32.545   6.036   1.359  1.00 20.00    -0.030 C 
HETATM    3  C3  UNL     1     -32.428   8.116   2.734  1.00 20.00     0.031 C 
HETATM    4  C4  UNL     1     -33.576   5.415   2.250  1.00 20.00     0.034 C 
HETATM    5  C5  UNL     1     -33.185   7.350   3.839  1.00 20.00    -0.009 C 
HETATM    6  C6  UNL     1     -34.248   6.418   3.212  1.00 20.00     0.016 C 
HETATM    7  C7  UNL     1     -33.771   8.349   4.841  1.00 20.00     0.011 C 
ENDROOT
BRANCH   6   8
HETATM    8  C8  UNL     1     -35.071   5.654   4.252  1.00 20.00     0.169 C 
BRANCH   8   9
HETATM    9  O9  UNL     1     -34.628   4.311   4.271  1.00 20.00    -0.400 OA
HETATM   10  H23 UNL     1     -35.271   3.789   3.759  1.00 20.00     0.209 HD
ENDBRANCH   8   9
ENDBRANCH   6   8
TORSDOF 2
ENDMDL
MODEL 3
REMARK VINA RESULT:      -1.4      2.328      3.287
REMARK  2 active torsions:
REMARK  status: ('A' for Active; 'I' for Inactive)
REMARK    1  A    between atoms: C6_6  and  C8_8 
REMARK    2  A    between atoms: C8_8  and  O9_9 
ROOT
HETATM    1  C1  UNL     1     -32.763   8.433   2.671  1.00 20.00    -0.030 C 
HETATM    2  C2  UNL     1     -33.673   8.259   3.638  1.00 20.00    -0.030 C 
HETATM    3  C3  UNL     1     -32.235   7.307   1.835  1.00 20.00     0.031 C 
HETATM    4  C4  UNL     1     -34.235   6.919   4.002  1.00 20.00     0.034 C 
HETATM    5  C5  UNL     1     -33.069   6.013   1.943  1.00 20.00    -0.009 C 
HETATM    6  C6  UNL     1     -33.435   5.734   3.419  1.00 20.00     0.016 C 
HETATM    7  C7  UNL     1     -32.308   4.861   1.280  1.00 20.00     0.011 C 
ENDROOT
BRANCH   6   8
HETATM    8  C8  UNL     1     -34.229   4.440   3.612  1.00 20.00     0.169 C 
BRANCH   8   9
HETATM    9  O9  UNL     1     -35.311   4.707   4.482  1.00 20.00    -0.400 OA
HETATM   10  H23 UNL     1     -36.079   4.930   3.926  1.00 20.00     0.209 HD
ENDBRANCH   8   9
ENDBRANCH   6   8
TORSDOF 2
ENDMDL
MODEL 4
REMARK VINA RESULT:      -1.1      1.511      2.680
REMARK  2 active torsions:
REMARK  status: ('A' for Active; 'I' for Inactive)
REMARK    1  A    between atoms: C6_6  and  C8_8 
REMARK    2  A    between atoms: C8_8  and  O9_9 
ROOT
HETATM    1  C1  UNL     1     -34.232   7.611   4.406  1.00 20.00    -0.030 C 
HETATM    2  C2  UNL     1     -34.749   6.422   4.073  1.00 20.00    -0.030 C 
HETATM    3  C3  UNL     1     -33.143   8.276   3.621  1.00 20.00     0.031 C 
HETATM    4  C4  UNL     1     -34.272   5.621   2.901  1.00 20.00     0.034 C 
HETATM    5  C5  UNL     1     -32.915   7.653   2.228  1.00 20.00    -0.009 C 
HETATM    6  C6  UNL     1     -32.925   6.109   2.326  1.00 20.00     0.016 C 
HETATM    7  C7  UNL     1     -31.623   8.212   1.625  1.00 20.00     0.011 C 
ENDROOT
BRANCH   6   8
HETATM    8  C8  UNL     1     -32.663   5.417   0.986  1.00 20.00     0.169 C 
BRANCH   8   9
HETATM    9  O9  UNL     1     -31.385   4.813   1.039  1.00 20.00    -0.400 OA
HETATM   10  H23 UNL     1     -30.942   5.004   0.194  1.00 20.00     0.209 HD
ENDBRANCH   8   9
ENDBRANCH   6   8
TORSDOF 2
ENDMDL
MODEL 5
REMARK VINA RESULT:      -1.0      1.908      3.165
REMARK  2 active torsions:
REMARK  status: ('A' for Active; 'I' for Inactive)
REMARK    1  A    between atoms: C6_6  and  C8_8 
REMARK    2  A    between atoms: C8_8  and  O9_9 
ROOT
HETATM    1  C1  UNL     1     -32.579   6.002   1.235  1.00 20.00    -0.030 C 
HETATM    2  C2  UNL     1     -32.008   7.196   1.443  1.00 20.00    -0.030 C 
HETATM    3  C3  UNL     1     -33.625   5.429   2.141  1.00 20.00     0.031 C 
HETATM    4  C4  UNL     1     -32.335   8.066   2.617  1.00 20.00     0.034 C 
HETATM    5  C5  UNL     1     -34.230   6.459   3.118  1.00 20.00    -0.009 C 
HETATM    6  C6  UNL     1     -33.112   7.333   3.732  1.00 20.00     0.016 C 
HETATM    7  C7  UNL     1     -35.074   5.732   4.167  1.00 20.00     0.011 C 
ENDROOT
BRANCH   6   8
HETATM    8  C8  UNL     1     -33.632   8.355   4.746  1.00 20.00     0.169 C 
BRANCH   8   9
HETATM    9  O9  UNL     1     -32.610   8.603   5.693  1.00 20.00    -0.400 OA
HETATM   10  H23 UNL     1     -32.305   7.738   6.018  1.00 20.00     0.209 HD
ENDBRANCH   8   9
ENDBRANCH   6   8
TORSDOF 2
ENDMDL
MODEL 6
REMARK VINA RESULT:      -0.5      0.927      2.565
REMARK  2 active torsions:
REMARK  status: ('A' for Active; 'I' for Inactive)
REMARK    1  A    between atoms: C6_6  and  C8_8 
REMARK    2  A    between atoms: C8_8  and  O9_9 
ROOT
HETATM    1  C1  UNL     1     -33.225   4.876   2.270  1.00 20.00    -0.030 C 
HETATM    2  C2  UNL     1     -32.512   5.348   1.239  1.00 20.00    -0.030 C 
HETATM    3  C3  UNL     1     -33.747   5.750   3.369  1.00 20.00     0.031 C 
HETATM    4  C4  UNL     1     -32.138   6.791   1.095  1.00 20.00     0.034 C 
HETATM    5  C5  UNL     1     -33.695   7.256   3.040  1.00 20.00    -0.009 C 
HETATM    6  C6  UNL     1     -32.340   7.614   2.386  1.00 20.00     0.016 C 
HETATM    7  C7  UNL     1     -33.987   8.065   4.307  1.00 20.00     0.011 C 
ENDROOT
BRANCH   6   8
HETATM    8  C8  UNL     1     -32.197   9.104   2.068  1.00 20.00     0.169 C 
BRANCH   8   9
HETATM    9  O9  UNL     1     -32.276   9.270   0.665  1.00 20.00    -0.400 OA
HETATM   10  H23 UNL     1     -31.458   8.902   0.287  1.00 20.00     0.209 HD
ENDBRANCH   8   9
ENDBRANCH   6   8
TORSDOF 2
ENDMDL
MODEL 7
REMARK VINA RESULT:      -0.4      1.995      3.218
REMARK  2 active torsions:
REMARK  status: ('A' for Active; 'I' for Inactive)
REMARK    1  A    between atoms: C6_6  and  C8_8 
REMARK    2  A    between atoms: C8_8  and  O9_9 
ROOT
HETATM    1  C1  UNL     1     -31.711   6.696   1.172  1.00 20.00    -0.030 C 
HETATM    2  C2  UNL     1     -32.100   7.920   1.551  1.00 20.00    -0.030 C 
HETATM    3  C3  UNL     1     -32.260   5.440   1.779  1.00 20.00     0.031 C 
HETATM    4  C4  UNL     1     -33.101   8.160   2.638  1.00 20.00     0.034 C 
HETATM    5  C5  UNL     1     -33.538   5.664   2.613  1.00 20.00    -0.009 C 
HETATM    6  C6  UNL     1     -33.381   6.916   3.508  1.00 20.00     0.016 C 
HETATM    7  C7  UNL     1     -33.860   4.393   3.403  1.00 20.00     0.011 C 
ENDROOT
BRANCH   6   8
HETATM    8  C8  UNL     1     -34.597   7.179   4.399  1.00 20.00     0.169 C 
BRANCH   8   9
HETATM    9  O9  UNL     1     -35.724   6.561   3.808  1.00 20.00    -0.400 OA
HETATM   10  H23 UNL     1     -35.478   6.327   2.897  1.00 20.00     0.209 HD
ENDBRANCH   8   9
ENDBRANCH   6   8
TORSDOF 2
ENDMDL
MODEL 8
REMARK VINA RESULT:      -0.1      1.693      2.506
REMARK  2 active torsions:
REMARK  status: ('A' for Active; 'I' for Inactive)
REMARK    1  A    between atoms: C6_6  and  C8_8 
REMARK    2  A    between atoms: C8_8  and  O9_9 
ROOT
HETATM    1  C1  UNL     1     -34.472   7.616   4.089  1.00 20.00    -0.030 C 
HETATM    2  C2  UNL     1     -33.608   8.180   3.235  1.00 20.00    -0.030 C 
HETATM    3  C3  UNL     1     -34.640   6.133   4.220  1.00 20.00     0.031 C 
HETATM    4  C4  UNL     1     -32.742   7.387   2.305  1.00 20.00     0.034 C 
HETATM    5  C5  UNL     1     -33.508   5.321   3.556  1.00 20.00    -0.009 C 
HETATM    6  C6  UNL     1     -33.172   5.911   2.166  1.00 20.00     0.016 C 
HETATM    7  C7  UNL     1     -33.904   3.843   3.506  1.00 20.00     0.011 C 
ENDROOT
BRANCH   6   8
HETATM    8  C8  UNL     1     -32.083   5.131   1.425  1.00 20.00     0.169 C 
BRANCH   8   9
HETATM    9  O9  UNL     1     -32.655   4.561   0.265  1.00 20.00    -0.400 OA
HETATM   10  H23 UNL     1     -33.622   4.627   0.359  1.00 20.00     0.209 HD
ENDBRANCH   8   9
ENDBRANCH   6   8
TORSDOF 2
ENDMDL
MODEL 9
REMARK VINA RESULT:       0.0      1.695      3.081
REMARK  2 active torsions:
REMARK  status: ('A' for Active; 'I' for Inactive)
REMARK    1  A    between atoms: C6_6  and  C8_8 
REMARK    2  A    between atoms: C8_8  and  O9_9 
ROOT
HETATM    1  C1  UNL     1     -32.385   8.743   3.765  1.00 20.00    -0.030 C 
HETATM    2  C2  UNL     1     -31.618   8.436   2.710  1.00 20.00    -0.030 C 
HETATM    3  C3  UNL     1     -33.586   7.940   4.163  1.00 20.00     0.031 C 
HETATM    4  C4  UNL     1     -31.900   7.277   1.804  1.00 20.00     0.034 C 
HETATM    5  C5  UNL     1     -33.661   6.559   3.479  1.00 20.00    -0.009 C 
HETATM    6  C6  UNL     1     -33.316   6.686   1.977  1.00 20.00     0.016 C 
HETATM    7  C7  UNL     1     -35.038   5.939   3.733  1.00 20.00     0.011 C 
ENDROOT
BRANCH   6   8
HETATM    8  C8  UNL     1     -33.410   5.359   1.220  1.00 20.00     0.169 C 
BRANCH   8   9
HETATM    9  O9  UNL     1     -32.101   4.941   0.890  1.00 20.00    -0.400 OA
HETATM   10  H23 UNL     1     -31.666   4.677   1.719  1.00 20.00     0.209 HD
ENDBRANCH   8   9
ENDBRANCH   6   8
TORSDOF 2
ENDMDL
