MODEL 1
REMARK VINA RESULT:       2.3      0.000      0.000
REMARK  1 active torsions:
REMARK  status: ('A' for Active; 'I' for Inactive)
REMARK    1  A    between atoms: C1_1  and  C5_5 
ROOT
HETATM    1  C2  UNL     1     -32.729   4.888   2.437  1.00 20.00     0.006 C 
HETATM    2  C3  UNL     1     -31.403   5.400   1.858  1.00 20.00     0.006 C 
HETATM    3  C4  UNL     1     -33.137   6.017   0.393  1.00 20.00     0.011 C 
HETATM    4  C5  UNL     1     -33.770   7.231   2.323  1.00 20.00     0.067 C 
HETATM    5  C6  UNL     1     -33.782   5.789   1.764  1.00 20.00    -0.002 C 
HETATM    6  C7  UNL     1     -31.847   6.595   0.997  1.00 20.00    -0.006 C 
HETATM    7  C8  UNL     1     -32.378   7.778   1.879  1.00 20.00    -0.033 C 
HETATM    8  C10 UNL     1     -32.559   9.042   1.013  1.00 20.00     0.016 C 
HETATM    9  C11 UNL     1     -31.424   8.146   3.026  1.00 20.00     0.016 C 
ENDROOT
BRANCH   4  10
HETATM   10  C1  UNL     1     -34.084   7.288   3.788  1.00 20.00     0.128 C 
HETATM   11  C9  UNL     1     -35.160   6.363   4.286  1.00 20.00     0.091 C 
HETATM   12  O12 UNL     1     -33.489   8.054   4.546  1.00 20.00    -0.298 OA
ENDBRANCH   4  10
TORSDOF 1
ENDMDL
MODEL 2
REMARK VINA RESULT:       2.5      1.000      2.845
REMARK  1 active torsions:
REMARK  status: ('A' for Active; 'I' for Inactive)
REMARK    1  A    between atoms: C1_1  and  C5_5 
ROOT
HETATM    1  C2  UNL     1     -32.902   9.371   2.048  1.00 20.00     0.006 C 
HETATM    2  C3  UNL     1     -32.609   8.888   0.622  1.00 20.00     0.006 C 
HETATM    3  C4  UNL     1     -30.901   8.101   2.034  1.00 20.00     0.011 C 
HETATM    4  C5  UNL     1     -32.764   6.979   2.966  1.00 20.00     0.067 C 
HETATM    5  C6  UNL     1     -32.114   8.381   2.927  1.00 20.00    -0.002 C 
HETATM    6  C7  UNL     1     -31.766   7.624   0.857  1.00 20.00    -0.006 C 
HETATM    7  C8  UNL     1     -32.616   6.473   1.498  1.00 20.00    -0.033 C 
HETATM    8  C10 UNL     1     -31.820   5.151   1.471  1.00 20.00     0.016 C 
HETATM    9  C11 UNL     1     -33.939   6.221   0.758  1.00 20.00     0.016 C 
ENDROOT
BRANCH   4  10
HETATM   10  C1  UNL     1     -34.147   6.995   3.542  1.00 20.00     0.128 C 
HETATM   11  C9  UNL     1     -34.757   5.662   3.879  1.00 20.00     0.091 C 
HETATM   12  O12 UNL     1     -34.754   8.049   3.732  1.00 20.00    -0.298 OA
ENDBRANCH   4  10
TORSDOF 1
ENDMDL
MODEL 3
REMARK VINA RESULT:       3.0      1.280      3.239
REMARK  1 active torsions:
REMARK  status: ('A' for Active; 'I' for Inactive)
REMARK    1  A    between atoms: C1_1  and  C5_5 
ROOT
HETATM    1  C2  UNL     1     -33.315   7.366   4.372  1.00 20.00     0.006 C 
HETATM    2  C3  UNL     1     -33.276   5.833   4.317  1.00 20.00     0.006 C 
HETATM    3  C4  UNL     1     -35.141   6.570   3.088  1.00 20.00     0.011 C 
HETATM    4  C5  UNL     1     -33.395   7.531   1.813  1.00 20.00     0.067 C 
HETATM    5  C6  UNL     1     -34.159   7.744   3.140  1.00 20.00    -0.002 C 
HETATM    6  C7  UNL     1     -34.021   5.521   3.008  1.00 20.00    -0.006 C 
HETATM    7  C8  UNL     1     -33.203   5.984   1.753  1.00 20.00    -0.033 C 
HETATM    8  C10 UNL     1     -33.845   5.420   0.468  1.00 20.00     0.016 C 
HETATM    9  C11 UNL     1     -31.743   5.505   1.778  1.00 20.00     0.016 C 
ENDROOT
BRANCH   4  10
HETATM   10  C1  UNL     1     -32.159   8.372   1.712  1.00 20.00     0.128 C 
HETATM   11  C9  UNL     1     -32.034   9.251   0.498  1.00 20.00     0.091 C 
HETATM   12  O12 UNL     1     -31.289   8.347   2.583  1.00 20.00    -0.298 OA
ENDBRANCH   4  10
TORSDOF 1
ENDMDL
MODEL 4
REMARK VINA RESULT:       3.1      0.738      1.008
REMARK  1 active torsions:
REMARK  status: ('A' for Active; 'I' for Inactive)
REMARK    1  A    between atoms: C1_1  and  C5_5 
ROOT
HETATM    1  C2  UNL     1     -32.754   4.947   2.559  1.00 20.00     0.006 C 
HETATM    2  C3  UNL     1     -31.448   5.386   1.884  1.00 20.00     0.006 C 
HETATM    3  C4  UNL     1     -33.244   6.016   0.502  1.00 20.00     0.011 C 
HETATM    4  C5  UNL     1     -33.714   7.322   2.419  1.00 20.00     0.067 C 
HETATM    5  C6  UNL     1     -33.812   5.863   1.916  1.00 20.00    -0.002 C 
HETATM    6  C7  UNL     1     -31.900   6.565   1.006  1.00 20.00    -0.006 C 
HETATM    7  C8  UNL     1     -32.333   7.798   1.871  1.00 20.00    -0.033 C 
HETATM    8  C10 UNL     1     -32.520   9.037   0.970  1.00 20.00     0.016 C 
HETATM    9  C11 UNL     1     -31.298   8.170   2.945  1.00 20.00     0.016 C 
ENDROOT
BRANCH   4  10
HETATM   10  C1  UNL     1     -33.937   7.444   3.896  1.00 20.00     0.128 C 
HETATM   11  C9  UNL     1     -32.950   8.282   4.662  1.00 20.00     0.091 C 
HETATM   12  O12 UNL     1     -34.883   6.889   4.453  1.00 20.00    -0.298 OA
ENDBRANCH   4  10
TORSDOF 1
ENDMDL
MODEL 5
REMARK VINA RESULT:       3.4      1.434      2.946
REMARK  1 active torsions:
REMARK  status: ('A' for Active; 'I' for Inactive)
REMARK    1  A    between atoms: C1_1  and  C5_5 
ROOT
HETATM    1  C2  UNL     1     -33.525   8.724   2.546  1.00 20.00     0.006 C 
HETATM    2  C3  UNL     1     -33.080   8.589   1.084  1.00 20.00     0.006 C 
HETATM    3  C4  UNL     1     -31.271   7.997   2.465  1.00 20.00     0.011 C 
HETATM    4  C5  UNL     1     -32.820   6.311   3.062  1.00 20.00     0.067 C 
HETATM    5  C6  UNL     1     -32.540   7.813   3.302  1.00 20.00    -0.002 C 
HETATM    6  C7  UNL     1     -31.955   7.543   1.166  1.00 20.00    -0.006 C 
HETATM    7  C8  UNL     1     -32.509   6.127   1.544  1.00 20.00    -0.033 C 
HETATM    8  C10 UNL     1     -31.408   5.062   1.356  1.00 20.00     0.016 C 
HETATM    9  C11 UNL     1     -33.705   5.700   0.679  1.00 20.00     0.016 C 
ENDROOT
BRANCH   4  10
HETATM   10  C1  UNL     1     -34.180   5.891   3.531  1.00 20.00     0.128 C 
HETATM   11  C9  UNL     1     -35.201   6.981   3.711  1.00 20.00     0.091 C 
HETATM   12  O12 UNL     1     -34.449   4.711   3.754  1.00 20.00    -0.298 OA
ENDBRANCH   4  10
TORSDOF 1
ENDMDL
MODEL 6
REMARK VINA RESULT:       3.6      1.583      2.073
REMARK  1 active torsions:
REMARK  status: ('A' for Active; 'I' for Inactive)
REMARK    1  A    between atoms: C1_1  and  C5_5 
ROOT
HETATM    1  C2  UNL     1     -31.816   5.764   1.813  1.00 20.00     0.006 C 
HETATM    2  C3  UNL     1     -31.283   7.153   2.188  1.00 20.00     0.006 C 
HETATM    3  C4  UNL     1     -33.202   7.431   0.856  1.00 20.00     0.011 C 
HETATM    4  C5  UNL     1     -34.147   6.328   2.725  1.00 20.00     0.067 C 
HETATM    5  C6  UNL     1     -33.294   6.030   1.470  1.00 20.00    -0.002 C 
HETATM    6  C7  UNL     1     -32.543   8.033   2.107  1.00 20.00    -0.006 C 
HETATM    7  C8  UNL     1     -33.567   7.682   3.241  1.00 20.00    -0.033 C 
HETATM    8  C10 UNL     1     -34.681   8.748   3.295  1.00 20.00     0.016 C 
HETATM    9  C11 UNL     1     -32.923   7.627   4.635  1.00 20.00     0.016 C 
ENDROOT
BRANCH   4  10
HETATM   10  C1  UNL     1     -34.171   5.187   3.696  1.00 20.00     0.128 C 
HETATM   11  C9  UNL     1     -35.331   5.135   4.652  1.00 20.00     0.091 C 
HETATM   12  O12 UNL     1     -33.286   4.332   3.708  1.00 20.00    -0.298 OA
ENDBRANCH   4  10
TORSDOF 1
ENDMDL
MODEL 7
REMARK VINA RESULT:       3.7      1.673      3.642
REMARK  1 active torsions:
REMARK  status: ('A' for Active; 'I' for Inactive)
REMARK    1  A    between atoms: C1_1  and  C5_5 
ROOT
HETATM    1  C2  UNL     1     -31.897   8.105   3.001  1.00 20.00     0.006 C 
HETATM    2  C3  UNL     1     -32.462   7.931   4.417  1.00 20.00     0.006 C 
HETATM    3  C4  UNL     1     -34.177   8.752   3.032  1.00 20.00     0.011 C 
HETATM    4  C5  UNL     1     -33.767   6.664   1.997  1.00 20.00     0.067 C 
HETATM    5  C6  UNL     1     -33.154   8.079   2.111  1.00 20.00    -0.002 C 
HETATM    6  C7  UNL     1     -33.965   7.731   4.161  1.00 20.00    -0.006 C 
HETATM    7  C8  UNL     1     -34.253   6.364   3.449  1.00 20.00    -0.033 C 
HETATM    8  C10 UNL     1     -35.769   6.077   3.451  1.00 20.00     0.016 C 
HETATM    9  C11 UNL     1     -33.565   5.173   4.135  1.00 20.00     0.016 C 
ENDROOT
BRANCH   4  10
HETATM   10  C1  UNL     1     -32.829   5.672   1.378  1.00 20.00     0.128 C 
HETATM   11  C9  UNL     1     -33.413   4.734   0.357  1.00 20.00     0.091 C 
HETATM   12  O12 UNL     1     -31.639   5.630   1.687  1.00 20.00    -0.298 OA
ENDBRANCH   4  10
TORSDOF 1
ENDMDL
MODEL 8
REMARK VINA RESULT:       4.2      1.686      3.402
REMARK  1 active torsions:
REMARK  status: ('A' for Active; 'I' for Inactive)
REMARK    1  A    between atoms: C1_1  and  C5_5 
ROOT
HETATM    1  C2  UNL     1     -35.041   6.559   3.143  1.00 20.00     0.006 C 
HETATM    2  C3  UNL     1     -34.964   8.090   3.226  1.00 20.00     0.006 C 
HETATM    3  C4  UNL     1     -33.313   7.189   4.639  1.00 20.00     0.011 C 
HETATM    4  C5  UNL     1     -32.551   6.393   2.545  1.00 20.00     0.067 C 
HETATM    5  C6  UNL     1     -33.642   6.108   3.604  1.00 20.00    -0.002 C 
HETATM    6  C7  UNL     1     -33.501   8.335   3.633  1.00 20.00    -0.006 C 
HETATM    7  C8  UNL     1     -32.509   7.951   2.482  1.00 20.00    -0.033 C 
HETATM    8  C10 UNL     1     -31.090   8.456   2.818  1.00 20.00     0.016 C 
HETATM    9  C11 UNL     1     -32.899   8.560   1.126  1.00 20.00     0.016 C 
ENDROOT
BRANCH   4  10
HETATM   10  C1  UNL     1     -32.790   5.668   1.255  1.00 20.00     0.128 C 
HETATM   11  C9  UNL     1     -31.668   4.807   0.744  1.00 20.00     0.091 C 
HETATM   12  O12 UNL     1     -33.854   5.770   0.646  1.00 20.00    -0.298 OA
ENDBRANCH   4  10
TORSDOF 1
ENDMDL
MODEL 9
REMARK VINA RESULT:       4.7      1.293      2.986
REMARK  1 active torsions:
REMARK  status: ('A' for Active; 'I' for Inactive)
REMARK    1  A    between atoms: C1_1  and  C5_5 
ROOT
HETATM    1  C2  UNL     1     -32.990   7.783   1.192  1.00 20.00     0.006 C 
HETATM    2  C3  UNL     1     -33.832   6.601   0.693  1.00 20.00     0.006 C 
HETATM    3  C4  UNL     1     -31.902   5.748   1.732  1.00 20.00     0.011 C 
HETATM    4  C5  UNL     1     -32.925   6.827   3.572  1.00 20.00     0.067 C 
HETATM    5  C6  UNL     1     -32.117   7.156   2.295  1.00 20.00    -0.002 C 
HETATM    6  C7  UNL     1     -33.408   5.460   1.634  1.00 20.00    -0.006 C 
HETATM    7  C8  UNL     1     -33.903   5.707   3.100  1.00 20.00    -0.033 C 
HETATM    8  C10 UNL     1     -33.698   4.434   3.949  1.00 20.00     0.016 C 
HETATM    9  C11 UNL     1     -35.395   6.069   3.177  1.00 20.00     0.016 C 
ENDROOT
BRANCH   4  10
HETATM   10  C1  UNL     1     -33.537   8.042   4.201  1.00 20.00     0.128 C 
HETATM   11  C9  UNL     1     -32.953   8.493   5.512  1.00 20.00     0.091 C 
HETATM   12  O12 UNL     1     -34.470   8.643   3.669  1.00 20.00    -0.298 OA
ENDBRANCH   4  10
TORSDOF 1
ENDMDL
