MODEL 1
REMARK VINA RESULT:      -1.6      0.000      0.000
REMARK  2 active torsions:
REMARK  status: ('A' for Active; 'I' for Inactive)
REMARK    1  A    between atoms: C6_6  and  C8_8 
REMARK    2  A    between atoms: C8_8  and  O9_9 
ROOT
HETATM    1  C1  UNL     1     -35.097   5.275   4.167  1.00 20.00    -0.030 C 
HETATM    2  C2  UNL     1     -34.024   4.612   3.714  1.00 20.00    -0.030 C 
HETATM    3  C3  UNL     1     -35.302   6.746   3.955  1.00 20.00     0.031 C 
HETATM    4  C4  UNL     1     -32.928   5.263   2.925  1.00 20.00     0.034 C 
HETATM    5  C5  UNL     1     -34.029   7.497   3.507  1.00 20.00    -0.009 C 
HETATM    6  C6  UNL     1     -33.298   6.671   2.421  1.00 20.00     0.016 C 
HETATM    7  C7  UNL     1     -33.147   7.838   4.715  1.00 20.00     0.011 C 
ENDROOT
BRANCH   6   8
HETATM    8  C8  UNL     1     -32.069   7.380   1.851  1.00 20.00     0.169 C 
BRANCH   8   9
HETATM    9  O9  UNL     1     -32.484   8.610   1.287  1.00 20.00    -0.400 OA
HETATM   10  H23 UNL     1     -32.976   8.400   0.475  1.00 20.00     0.209 HD
ENDBRANCH   8   9
ENDBRANCH   6   8
TORSDOF 2
ENDMDL
MODEL 2
REMARK VINA RESULT:      -1.4      2.326      3.437
REMARK  2 active torsions:
REMARK  status: ('A' for Active; 'I' for Inactive)
REMARK    1  A    between atoms: C6_6  and  C8_8 
REMARK    2  A    between atoms: C8_8  and  O9_9 
ROOT
HETATM    1  C1  UNL     1     -32.765   7.836   2.349  1.00 20.00    -0.030 C 
HETATM    2  C2  UNL     1     -32.636   6.721   1.617  1.00 20.00    -0.030 C 
HETATM    3  C3  UNL     1     -33.414   7.858   3.702  1.00 20.00     0.031 C 
HETATM    4  C4  UNL     1     -33.101   5.373   2.082  1.00 20.00     0.034 C 
HETATM    5  C5  UNL     1     -34.240   6.592   4.021  1.00 20.00    -0.009 C 
HETATM    6  C6  UNL     1     -33.448   5.336   3.583  1.00 20.00     0.016 C 
HETATM    7  C7  UNL     1     -35.638   6.685   3.396  1.00 20.00     0.011 C 
ENDROOT
BRANCH   6   8
HETATM    8  C8  UNL     1     -34.152   4.027   3.941  1.00 20.00     0.169 C 
BRANCH   8   9
HETATM    9  O9  UNL     1     -33.251   3.224   4.681  1.00 20.00    -0.400 OA
HETATM   10  H23 UNL     1     -32.640   2.817   4.044  1.00 20.00     0.209 HD
ENDBRANCH   8   9
ENDBRANCH   6   8
TORSDOF 2
ENDMDL
MODEL 3
REMARK VINA RESULT:      -1.3      1.207      1.207
REMARK  2 active torsions:
REMARK  status: ('A' for Active; 'I' for Inactive)
REMARK    1  A    between atoms: C6_6  and  C8_8 
REMARK    2  A    between atoms: C8_8  and  O9_9 
ROOT
HETATM    1  C1  UNL     1     -35.287   5.039   4.548  1.00 20.00    -0.030 C 
HETATM    2  C2  UNL     1     -34.208   4.313   4.226  1.00 20.00    -0.030 C 
HETATM    3  C3  UNL     1     -35.545   6.413   4.002  1.00 20.00     0.031 C 
HETATM    4  C4  UNL     1     -33.158   4.783   3.265  1.00 20.00     0.034 C 
HETATM    5  C5  UNL     1     -34.310   7.065   3.343  1.00 20.00    -0.009 C 
HETATM    6  C6  UNL     1     -33.587   6.022   2.456  1.00 20.00     0.016 C 
HETATM    7  C7  UNL     1     -33.403   7.704   4.403  1.00 20.00     0.011 C 
ENDROOT
BRANCH   6   8
HETATM    8  C8  UNL     1     -32.399   6.605   1.690  1.00 20.00     0.169 C 
BRANCH   8   9
HETATM    9  O9  UNL     1     -31.636   5.533   1.166  1.00 20.00    -0.400 OA
HETATM   10  H23 UNL     1     -30.707   5.705   1.394  1.00 20.00     0.209 HD
ENDBRANCH   8   9
ENDBRANCH   6   8
TORSDOF 2
ENDMDL
MODEL 4
REMARK VINA RESULT:      -0.9      2.135      3.710
REMARK  2 active torsions:
REMARK  status: ('A' for Active; 'I' for Inactive)
REMARK    1  A    between atoms: C6_6  and  C8_8 
REMARK    2  A    between atoms: C8_8  and  O9_9 
ROOT
HETATM    1  C1  UNL     1     -32.122   6.992   1.598  1.00 20.00    -0.030 C 
HETATM    2  C2  UNL     1     -32.311   7.854   2.606  1.00 20.00    -0.030 C 
HETATM    3  C3  UNL     1     -32.947   5.752   1.412  1.00 20.00     0.031 C 
HETATM    4  C4  UNL     1     -33.384   7.687   3.641  1.00 20.00     0.034 C 
HETATM    5  C5  UNL     1     -33.772   5.358   2.657  1.00 20.00    -0.009 C 
HETATM    6  C6  UNL     1     -34.431   6.622   3.261  1.00 20.00     0.016 C 
HETATM    7  C7  UNL     1     -32.906   4.579   3.657  1.00 20.00     0.011 C 
ENDROOT
BRANCH   6   8
HETATM    8  C8  UNL     1     -35.342   6.314   4.450  1.00 20.00     0.169 C 
BRANCH   8   9
HETATM    9  O9  UNL     1     -35.676   4.939   4.414  1.00 20.00    -0.400 OA
HETATM   10  H23 UNL     1     -34.843   4.441   4.479  1.00 20.00     0.209 HD
ENDBRANCH   8   9
ENDBRANCH   6   8
TORSDOF 2
ENDMDL
MODEL 5
REMARK VINA RESULT:      -0.9      0.979      2.380
REMARK  2 active torsions:
REMARK  status: ('A' for Active; 'I' for Inactive)
REMARK    1  A    between atoms: C6_6  and  C8_8 
REMARK    2  A    between atoms: C8_8  and  O9_9 
ROOT
HETATM    1  C1  UNL     1     -34.535   5.746   3.887  1.00 20.00    -0.030 C 
HETATM    2  C2  UNL     1     -34.623   7.081   3.814  1.00 20.00    -0.030 C 
HETATM    3  C3  UNL     1     -33.501   4.950   3.148  1.00 20.00     0.031 C 
HETATM    4  C4  UNL     1     -33.680   7.924   3.008  1.00 20.00     0.034 C 
HETATM    5  C5  UNL     1     -32.791   5.737   2.024  1.00 20.00    -0.009 C 
HETATM    6  C6  UNL     1     -32.433   7.154   2.534  1.00 20.00     0.016 C 
HETATM    7  C7  UNL     1     -33.639   5.741   0.745  1.00 20.00     0.011 C 
ENDROOT
BRANCH   6   8
HETATM    8  C8  UNL     1     -31.645   7.978   1.515  1.00 20.00     0.169 C 
BRANCH   8   9
HETATM    9  O9  UNL     1     -32.451   9.066   1.101  1.00 20.00    -0.400 OA
HETATM   10  H23 UNL     1     -32.773   8.860   0.206  1.00 20.00     0.209 HD
ENDBRANCH   8   9
ENDBRANCH   6   8
TORSDOF 2
ENDMDL
MODEL 6
REMARK VINA RESULT:       0.1      1.752      3.381
REMARK  2 active torsions:
REMARK  status: ('A' for Active; 'I' for Inactive)
REMARK    1  A    between atoms: C6_6  and  C8_8 
REMARK    2  A    between atoms: C8_8  and  O9_9 
ROOT
HETATM    1  C1  UNL     1     -31.999   6.373   0.986  1.00 20.00    -0.030 C 
HETATM    2  C2  UNL     1     -31.679   7.400   1.784  1.00 20.00    -0.030 C 
HETATM    3  C3  UNL     1     -33.212   5.515   1.198  1.00 20.00     0.031 C 
HETATM    4  C4  UNL     1     -32.514   7.820   2.958  1.00 20.00     0.034 C 
HETATM    5  C5  UNL     1     -33.851   5.670   2.595  1.00 20.00    -0.009 C 
HETATM    6  C6  UNL     1     -33.911   7.171   2.972  1.00 20.00     0.016 C 
HETATM    7  C7  UNL     1     -33.114   4.808   3.628  1.00 20.00     0.011 C 
ENDROOT
BRANCH   6   8
HETATM    8  C8  UNL     1     -34.612   7.429   4.306  1.00 20.00     0.169 C 
BRANCH   8   9
HETATM    9  O9  UNL     1     -33.707   8.098   5.164  1.00 20.00    -0.400 OA
HETATM   10  H23 UNL     1     -34.028   9.010   5.264  1.00 20.00     0.209 HD
ENDBRANCH   8   9
ENDBRANCH   6   8
TORSDOF 2
ENDMDL
MODEL 7
REMARK VINA RESULT:       0.4      1.975      3.279
REMARK  2 active torsions:
REMARK  status: ('A' for Active; 'I' for Inactive)
REMARK    1  A    between atoms: C6_6  and  C8_8 
REMARK    2  A    between atoms: C8_8  and  O9_9 
ROOT
HETATM    1  C1  UNL     1     -31.954   5.805   1.022  1.00 20.00    -0.030 C 
HETATM    2  C2  UNL     1     -33.164   5.444   1.470  1.00 20.00    -0.030 C 
HETATM    3  C3  UNL     1     -31.223   7.017   1.520  1.00 20.00     0.031 C 
HETATM    4  C4  UNL     1     -33.905   6.196   2.535  1.00 20.00     0.034 C 
HETATM    5  C5  UNL     1     -32.114   8.007   2.303  1.00 20.00    -0.009 C 
HETATM    6  C6  UNL     1     -33.026   7.221   3.276  1.00 20.00     0.016 C 
HETATM    7  C7  UNL     1     -32.885   8.920   1.342  1.00 20.00     0.011 C 
ENDROOT
BRANCH   6   8
HETATM    8  C8  UNL     1     -33.883   8.126   4.161  1.00 20.00     0.169 C 
BRANCH   8   9
HETATM    9  O9  UNL     1     -33.197   8.339   5.381  1.00 20.00    -0.400 OA
HETATM   10  H23 UNL     1     -33.840   8.703   6.012  1.00 20.00     0.209 HD
ENDBRANCH   8   9
ENDBRANCH   6   8
TORSDOF 2
ENDMDL
MODEL 8
REMARK VINA RESULT:       0.9      1.603      1.786
REMARK  2 active torsions:
REMARK  status: ('A' for Active; 'I' for Inactive)
REMARK    1  A    between atoms: C6_6  and  C8_8 
REMARK    2  A    between atoms: C8_8  and  O9_9 
ROOT
HETATM    1  C1  UNL     1     -34.912   6.772   4.228  1.00 20.00    -0.030 C 
HETATM    2  C2  UNL     1     -34.405   5.544   4.054  1.00 20.00    -0.030 C 
HETATM    3  C3  UNL     1     -34.540   7.944   3.368  1.00 20.00     0.031 C 
HETATM    4  C4  UNL     1     -33.433   5.204   2.963  1.00 20.00     0.034 C 
HETATM    5  C5  UNL     1     -33.272   7.717   2.517  1.00 20.00    -0.009 C 
HETATM    6  C6  UNL     1     -33.317   6.302   1.890  1.00 20.00     0.016 C 
HETATM    7  C7  UNL     1     -32.008   7.980   3.346  1.00 20.00     0.011 C 
ENDROOT
BRANCH   6   8
HETATM    8  C8  UNL     1     -32.141   6.021   0.955  1.00 20.00     0.169 C 
BRANCH   8   9
HETATM    9  O9  UNL     1     -31.419   4.915   1.465  1.00 20.00    -0.400 OA
HETATM   10  H23 UNL     1     -31.689   4.135   0.951  1.00 20.00     0.209 HD
ENDBRANCH   8   9
ENDBRANCH   6   8
TORSDOF 2
ENDMDL
MODEL 9
REMARK VINA RESULT:       0.9      1.939      3.124
REMARK  2 active torsions:
REMARK  status: ('A' for Active; 'I' for Inactive)
REMARK    1  A    between atoms: C6_6  and  C8_8 
REMARK    2  A    between atoms: C8_8  and  O9_9 
ROOT
HETATM    1  C1  UNL     1     -33.272   5.669   1.525  1.00 20.00    -0.030 C 
HETATM    2  C2  UNL     1     -34.049   6.058   2.545  1.00 20.00    -0.030 C 
HETATM    3  C3  UNL     1     -31.976   6.340   1.179  1.00 20.00     0.031 C 
HETATM    4  C4  UNL     1     -33.694   7.188   3.465  1.00 20.00     0.034 C 
HETATM    5  C5  UNL     1     -31.790   7.722   1.843  1.00 20.00    -0.009 C 
HETATM    6  C6  UNL     1     -32.230   7.645   3.325  1.00 20.00     0.016 C 
HETATM    7  C7  UNL     1     -32.518   8.810   1.042  1.00 20.00     0.011 C 
ENDROOT
BRANCH   6   8
HETATM    8  C8  UNL     1     -31.997   8.949   4.089  1.00 20.00     0.169 C 
BRANCH   8   9
HETATM    9  O9  UNL     1     -32.343   8.740   5.446  1.00 20.00    -0.400 OA
HETATM   10  H23 UNL     1     -32.029   9.513   5.944  1.00 20.00     0.209 HD
ENDBRANCH   8   9
ENDBRANCH   6   8
TORSDOF 2
ENDMDL
