MODEL 1
REMARK VINA RESULT:      -2.1      0.000      0.000
REMARK  1 active torsions:
REMARK  status: ('A' for Active; 'I' for Inactive)
REMARK    1  A    between atoms: C3_3  and  C7_7 
ROOT
HETATM    1  C1  UNL     1     -33.893   5.607   2.504  1.00 20.00    -0.019 C 
HETATM    2  C2  UNL     1     -34.392   6.133   3.636  1.00 20.00    -0.087 C 
HETATM    3  C4  UNL     1     -34.029   7.520   4.099  1.00 20.00     0.034 C 
HETATM    4  C5  UNL     1     -33.375   8.368   3.008  1.00 20.00     0.016 C 
HETATM    5  C6  UNL     1     -32.902   6.309   1.606  1.00 20.00     0.015 C 
HETATM    6  C7  UNL     1     -32.303   7.573   2.261  1.00 20.00     0.054 C 
HETATM    7  C8  UNL     1     -35.345   5.374   4.511  1.00 20.00     0.043 C 
HETATM    8  C9  UNL     1     -31.787   5.337   1.204  1.00 20.00     0.015 C 
ENDROOT
BRANCH   6   9
HETATM    9  C3  UNL     1     -31.691   8.465   1.222  1.00 20.00     0.236 C 
HETATM   10  O10 UNL     1     -32.322   9.320   0.608  1.00 20.00    -0.306 OA
ENDBRANCH   6   9
TORSDOF 1
ENDMDL
MODEL 2
REMARK VINA RESULT:      -1.5      2.276      4.402
REMARK  1 active torsions:
REMARK  status: ('A' for Active; 'I' for Inactive)
REMARK    1  A    between atoms: C3_3  and  C7_7 
ROOT
HETATM    1  C1  UNL     1     -32.861   8.337   2.705  1.00 20.00    -0.019 C 
HETATM    2  C2  UNL     1     -32.204   7.680   1.734  1.00 20.00    -0.087 C 
HETATM    3  C4  UNL     1     -32.435   6.216   1.464  1.00 20.00     0.034 C 
HETATM    4  C5  UNL     1     -33.709   5.677   2.115  1.00 20.00     0.016 C 
HETATM    5  C6  UNL     1     -33.854   7.694   3.644  1.00 20.00     0.015 C 
HETATM    6  C7  UNL     1     -33.831   6.152   3.563  1.00 20.00     0.054 C 
HETATM    7  C8  UNL     1     -31.198   8.363   0.855  1.00 20.00     0.043 C 
HETATM    8  C9  UNL     1     -33.586   8.158   5.080  1.00 20.00     0.015 C 
ENDROOT
BRANCH   6   9
HETATM    9  C3  UNL     1     -35.086   5.574   4.146  1.00 20.00     0.236 C 
HETATM   10  O10 UNL     1     -35.153   4.445   4.623  1.00 20.00    -0.306 OA
ENDBRANCH   6   9
TORSDOF 1
ENDMDL
MODEL 3
REMARK VINA RESULT:      -0.7      2.304      3.752
REMARK  1 active torsions:
REMARK  status: ('A' for Active; 'I' for Inactive)
REMARK    1  A    between atoms: C3_3  and  C7_7 
ROOT
HETATM    1  C1  UNL     1     -32.076   6.979   1.320  1.00 20.00    -0.019 C 
HETATM    2  C2  UNL     1     -32.506   8.190   1.714  1.00 20.00    -0.087 C 
HETATM    3  C4  UNL     1     -33.504   8.358   2.830  1.00 20.00     0.034 C 
HETATM    4  C5  UNL     1     -33.673   7.101   3.682  1.00 20.00     0.016 C 
HETATM    5  C6  UNL     1     -32.561   5.674   1.906  1.00 20.00     0.015 C 
HETATM    6  C7  UNL     1     -33.803   5.855   2.804  1.00 20.00     0.054 C 
HETATM    7  C8  UNL     1     -32.018   9.454   1.069  1.00 20.00     0.043 C 
HETATM    8  C9  UNL     1     -32.857   4.678   0.779  1.00 20.00     0.015 C 
ENDROOT
BRANCH   6   9
HETATM    9  C3  UNL     1     -33.986   4.664   3.698  1.00 20.00     0.236 C 
HETATM   10  O10 UNL     1     -34.953   4.516   4.440  1.00 20.00    -0.306 OA
ENDBRANCH   6   9
TORSDOF 1
ENDMDL
MODEL 4
REMARK VINA RESULT:      -0.7      1.802      3.442
REMARK  1 active torsions:
REMARK  status: ('A' for Active; 'I' for Inactive)
REMARK    1  A    between atoms: C3_3  and  C7_7 
ROOT
HETATM    1  C1  UNL     1     -33.504   5.297   2.583  1.00 20.00    -0.019 C 
HETATM    2  C2  UNL     1     -32.733   5.731   1.572  1.00 20.00    -0.087 C 
HETATM    3  C4  UNL     1     -32.225   7.147   1.506  1.00 20.00     0.034 C 
HETATM    4  C5  UNL     1     -32.346   7.893   2.835  1.00 20.00     0.016 C 
HETATM    5  C6  UNL     1     -33.976   6.166   3.725  1.00 20.00     0.015 C 
HETATM    6  C7  UNL     1     -33.719   7.667   3.469  1.00 20.00     0.054 C 
HETATM    7  C8  UNL     1     -32.327   4.831   0.442  1.00 20.00     0.043 C 
HETATM    8  C9  UNL     1     -35.465   5.916   3.987  1.00 20.00     0.015 C 
ENDROOT
BRANCH   6   9
HETATM    9  C3  UNL     1     -33.779   8.439   4.755  1.00 20.00     0.236 C 
HETATM   10  O10 UNL     1     -32.891   8.413   5.601  1.00 20.00    -0.306 OA
ENDBRANCH   6   9
TORSDOF 1
ENDMDL
MODEL 5
REMARK VINA RESULT:      -0.3      1.642      2.833
REMARK  1 active torsions:
REMARK  status: ('A' for Active; 'I' for Inactive)
REMARK    1  A    between atoms: C3_3  and  C7_7 
ROOT
HETATM    1  C1  UNL     1     -32.593   8.092   3.244  1.00 20.00    -0.019 C 
HETATM    2  C2  UNL     1     -33.601   7.669   4.026  1.00 20.00    -0.087 C 
HETATM    3  C4  UNL     1     -34.347   6.391   3.744  1.00 20.00     0.034 C 
HETATM    4  C5  UNL     1     -33.624   5.477   2.755  1.00 20.00     0.016 C 
HETATM    5  C6  UNL     1     -32.127   7.378   1.998  1.00 20.00     0.015 C 
HETATM    6  C7  UNL     1     -33.103   6.267   1.554  1.00 20.00     0.054 C 
HETATM    7  C8  UNL     1     -34.047   8.441   5.232  1.00 20.00     0.043 C 
HETATM    8  C9  UNL     1     -31.919   8.390   0.866  1.00 20.00     0.015 C 
ENDROOT
BRANCH   6   9
HETATM    9  C3  UNL     1     -32.425   5.311   0.617  1.00 20.00     0.236 C 
HETATM   10  O10 UNL     1     -31.377   4.731   0.886  1.00 20.00    -0.306 OA
ENDBRANCH   6   9
TORSDOF 1
ENDMDL
MODEL 6
REMARK VINA RESULT:       0.4      1.070      2.413
REMARK  1 active torsions:
REMARK  status: ('A' for Active; 'I' for Inactive)
REMARK    1  A    between atoms: C3_3  and  C7_7 
ROOT
HETATM    1  C1  UNL     1     -33.693   6.299   3.898  1.00 20.00    -0.019 C 
HETATM    2  C2  UNL     1     -33.520   5.111   3.294  1.00 20.00    -0.087 C 
HETATM    3  C4  UNL     1     -32.835   4.988   1.958  1.00 20.00     0.034 C 
HETATM    4  C5  UNL     1     -32.053   6.241   1.564  1.00 20.00     0.016 C 
HETATM    5  C6  UNL     1     -33.270   7.623   3.306  1.00 20.00     0.015 C 
HETATM    6  C7  UNL     1     -32.874   7.506   1.819  1.00 20.00     0.054 C 
HETATM    7  C8  UNL     1     -33.996   3.830   3.912  1.00 20.00     0.043 C 
HETATM    8  C9  UNL     1     -34.392   8.652   3.481  1.00 20.00     0.015 C 
ENDROOT
BRANCH   6   9
HETATM    9  C3  UNL     1     -32.060   8.692   1.394  1.00 20.00     0.236 C 
HETATM   10  O10 UNL     1     -32.377   9.433   0.469  1.00 20.00    -0.306 OA
ENDBRANCH   6   9
TORSDOF 1
ENDMDL
MODEL 7
REMARK VINA RESULT:       0.4      1.823      2.872
REMARK  1 active torsions:
REMARK  status: ('A' for Active; 'I' for Inactive)
REMARK    1  A    between atoms: C3_3  and  C7_7 
ROOT
HETATM    1  C1  UNL     1     -34.216   6.470   3.850  1.00 20.00    -0.019 C 
HETATM    2  C2  UNL     1     -33.573   7.647   3.934  1.00 20.00    -0.087 C 
HETATM    3  C4  UNL     1     -32.509   8.046   2.946  1.00 20.00     0.034 C 
HETATM    4  C5  UNL     1     -32.510   7.190   1.680  1.00 20.00     0.016 C 
HETATM    5  C6  UNL     1     -33.927   5.416   2.807  1.00 20.00     0.015 C 
HETATM    6  C7  UNL     1     -32.631   5.704   2.020  1.00 20.00     0.054 C 
HETATM    7  C8  UNL     1     -33.875   8.640   5.017  1.00 20.00     0.043 C 
HETATM    8  C9  UNL     1     -33.855   4.036   3.469  1.00 20.00     0.015 C 
ENDROOT
BRANCH   6   9
HETATM    9  C3  UNL     1     -32.606   4.922   0.740  1.00 20.00     0.236 C 
HETATM   10  O10 UNL     1     -31.579   4.471   0.243  1.00 20.00    -0.306 OA
ENDBRANCH   6   9
TORSDOF 1
ENDMDL
