MODEL 1
REMARK VINA RESULT:      -0.5      0.000      0.000
REMARK  0 active torsions:
REMARK  status: ('A' for Active; 'I' for Inactive)
ROOT
HETATM    1  C1  UNL     1     -33.846   6.682   3.018  1.00 20.00     0.025 C 
HETATM    2  C2  UNL     1     -33.576   8.142   2.821  1.00 20.00     0.081 C 
HETATM    3  C3  UNL     1     -32.313   8.051   1.968  1.00 20.00     0.029 C 
HETATM    4  C4  UNL     1     -34.853   6.211   4.011  1.00 20.00     0.067 C 
HETATM    5  C5  UNL     1     -32.336   9.031   0.797  1.00 20.00     0.034 C 
HETATM    6  C6  UNL     1     -31.046   8.243   2.809  1.00 20.00     0.034 C 
HETATM    7  N7  UNL     1     -33.162   5.880   2.266  1.00 20.00    -0.210 NA
HETATM    8  N8  UNL     1     -32.401   6.672   1.474  1.00 20.00    -0.208 NA
HETATM    9  H20 UNL     1     -32.769   6.639   0.524  1.00 20.00     0.149 HD
ENDROOT
TORSDOF 0
ENDMDL
MODEL 2
REMARK VINA RESULT:      -0.3      2.557      3.287
REMARK  0 active torsions:
REMARK  status: ('A' for Active; 'I' for Inactive)
ROOT
HETATM    1  C1  UNL     1     -33.785   4.316   3.994  1.00 20.00     0.025 C 
HETATM    2  C2  UNL     1     -34.964   5.101   4.477  1.00 20.00     0.081 C 
HETATM    3  C3  UNL     1     -34.741   6.396   3.700  1.00 20.00     0.029 C 
HETATM    4  C4  UNL     1     -33.387   3.038   4.651  1.00 20.00     0.067 C 
HETATM    5  C5  UNL     1     -36.034   6.934   3.091  1.00 20.00     0.034 C 
HETATM    6  C6  UNL     1     -34.064   7.466   4.563  1.00 20.00     0.034 C 
HETATM    7  N7  UNL     1     -33.159   4.816   2.977  1.00 20.00    -0.210 NA
HETATM    8  N8  UNL     1     -33.836   5.938   2.639  1.00 20.00    -0.208 NA
HETATM    9  H20 UNL     1     -34.337   5.771   1.768  1.00 20.00     0.149 HD
ENDROOT
TORSDOF 0
ENDMDL
MODEL 3
REMARK VINA RESULT:      -0.2      1.553      1.905
REMARK  0 active torsions:
REMARK  status: ('A' for Active; 'I' for Inactive)
ROOT
HETATM    1  C1  UNL     1     -33.992   7.022   3.448  1.00 20.00     0.025 C 
HETATM    2  C2  UNL     1     -33.371   6.697   2.125  1.00 20.00     0.081 C 
HETATM    3  C3  UNL     1     -32.360   7.837   2.034  1.00 20.00     0.029 C 
HETATM    4  C4  UNL     1     -35.239   6.342   3.904  1.00 20.00     0.067 C 
HETATM    5  C5  UNL     1     -30.996   7.361   1.541  1.00 20.00     0.034 C 
HETATM    6  C6  UNL     1     -32.879   8.986   1.163  1.00 20.00     0.034 C 
HETATM    7  N7  UNL     1     -33.369   7.909   4.155  1.00 20.00    -0.210 NA
HETATM    8  N8  UNL     1     -32.272   8.253   3.439  1.00 20.00    -0.208 NA
HETATM    9  H20 UNL     1     -31.447   7.863   3.892  1.00 20.00     0.149 HD
ENDROOT
TORSDOF 0
ENDMDL
MODEL 4
REMARK VINA RESULT:      -0.1      1.987      2.655
REMARK  0 active torsions:
REMARK  status: ('A' for Active; 'I' for Inactive)
ROOT
HETATM    1  C1  UNL     1     -33.422   7.194   3.192  1.00 20.00     0.025 C 
HETATM    2  C2  UNL     1     -33.396   5.755   2.779  1.00 20.00     0.081 C 
HETATM    3  C3  UNL     1     -32.690   5.892   1.433  1.00 20.00     0.029 C 
HETATM    4  C4  UNL     1     -34.244   7.651   4.349  1.00 20.00     0.067 C 
HETATM    5  C5  UNL     1     -31.621   4.820   1.231  1.00 20.00     0.034 C 
HETATM    6  C6  UNL     1     -33.685   5.890   0.268  1.00 20.00     0.034 C 
HETATM    7  N7  UNL     1     -32.682   7.991   2.489  1.00 20.00    -0.210 NA
HETATM    8  N8  UNL     1     -32.061   7.211   1.573  1.00 20.00    -0.208 NA
HETATM    9  H20 UNL     1     -31.077   7.130   1.823  1.00 20.00     0.149 HD
ENDROOT
TORSDOF 0
ENDMDL
MODEL 5
REMARK VINA RESULT:      -0.1      1.625      3.526
REMARK  0 active torsions:
REMARK  status: ('A' for Active; 'I' for Inactive)
ROOT
HETATM    1  C1  UNL     1     -32.690   7.543   2.548  1.00 20.00     0.025 C 
HETATM    2  C2  UNL     1     -33.789   6.601   2.163  1.00 20.00     0.081 C 
HETATM    3  C3  UNL     1     -34.361   6.302   3.547  1.00 20.00     0.029 C 
HETATM    4  C4  UNL     1     -31.642   7.949   1.568  1.00 20.00     0.067 C 
HETATM    5  C5  UNL     1     -35.887   6.322   3.557  1.00 20.00     0.034 C 
HETATM    6  C6  UNL     1     -33.834   4.975   4.103  1.00 20.00     0.034 C 
HETATM    7  N7  UNL     1     -32.728   7.978   3.767  1.00 20.00    -0.210 NA
HETATM    8  N8  UNL     1     -33.835   7.432   4.323  1.00 20.00    -0.208 NA
HETATM    9  H20 UNL     1     -34.538   8.160   4.442  1.00 20.00     0.149 HD
ENDROOT
TORSDOF 0
ENDMDL
MODEL 6
REMARK VINA RESULT:       0.3      0.993      3.460
REMARK  0 active torsions:
REMARK  status: ('A' for Active; 'I' for Inactive)
ROOT
HETATM    1  C1  UNL     1     -32.691   7.284   2.353  1.00 20.00     0.025 C 
HETATM    2  C2  UNL     1     -33.333   7.203   3.703  1.00 20.00     0.081 C 
HETATM    3  C3  UNL     1     -34.354   6.101   3.432  1.00 20.00     0.029 C 
HETATM    4  C4  UNL     1     -31.774   8.405   2.000  1.00 20.00     0.067 C 
HETATM    5  C5  UNL     1     -34.416   5.081   4.566  1.00 20.00     0.034 C 
HETATM    6  C6  UNL     1     -35.745   6.676   3.144  1.00 20.00     0.034 C 
HETATM    7  N7  UNL     1     -32.979   6.319   1.539  1.00 20.00    -0.210 NA
HETATM    8  N8  UNL     1     -33.791   5.482   2.226  1.00 20.00    -0.208 NA
HETATM    9  H20 UNL     1     -33.274   4.633   2.450  1.00 20.00     0.149 HD
ENDROOT
TORSDOF 0
ENDMDL
MODEL 7
REMARK VINA RESULT:       0.5      1.862      3.261
REMARK  0 active torsions:
REMARK  status: ('A' for Active; 'I' for Inactive)
ROOT
HETATM    1  C1  UNL     1     -33.018   5.661   2.099  1.00 20.00     0.025 C 
HETATM    2  C2  UNL     1     -33.321   7.083   2.456  1.00 20.00     0.081 C 
HETATM    3  C3  UNL     1     -34.250   6.852   3.646  1.00 20.00     0.029 C 
HETATM    4  C4  UNL     1     -32.335   5.315   0.819  1.00 20.00     0.067 C 
HETATM    5  C5  UNL     1     -33.939   7.788   4.811  1.00 20.00     0.034 C 
HETATM    6  C6  UNL     1     -35.724   6.961   3.243  1.00 20.00     0.034 C 
HETATM    7  N7  UNL     1     -33.377   4.776   2.973  1.00 20.00    -0.210 NA
HETATM    8  N8  UNL     1     -33.913   5.469   4.005  1.00 20.00    -0.208 NA
HETATM    9  H20 UNL     1     -33.269   5.435   4.794  1.00 20.00     0.149 HD
ENDROOT
TORSDOF 0
ENDMDL
MODEL 8
REMARK VINA RESULT:       0.5      1.931      2.562
REMARK  0 active torsions:
REMARK  status: ('A' for Active; 'I' for Inactive)
ROOT
HETATM    1  C1  UNL     1     -33.652   4.932   3.550  1.00 20.00     0.025 C 
HETATM    2  C2  UNL     1     -32.538   5.171   2.578  1.00 20.00     0.081 C 
HETATM    3  C3  UNL     1     -33.029   6.471   1.946  1.00 20.00     0.029 C 
HETATM    4  C4  UNL     1     -33.789   3.630   4.263  1.00 20.00     0.067 C 
HETATM    5  C5  UNL     1     -31.906   7.492   1.782  1.00 20.00     0.034 C 
HETATM    6  C6  UNL     1     -33.733   6.220   0.608  1.00 20.00     0.034 C 
HETATM    7  N7  UNL     1     -34.460   5.927   3.729  1.00 20.00    -0.210 NA
HETATM    8  N8  UNL     1     -33.989   6.934   2.956  1.00 20.00    -0.208 NA
HETATM    9  H20 UNL     1     -33.581   7.648   3.558  1.00 20.00     0.149 HD
ENDROOT
TORSDOF 0
ENDMDL
MODEL 9
REMARK VINA RESULT:       0.7      1.617      3.398
REMARK  0 active torsions:
REMARK  status: ('A' for Active; 'I' for Inactive)
ROOT
HETATM    1  C1  UNL     1     -32.341   8.845   0.882  1.00 20.00     0.025 C 
HETATM    2  C2  UNL     1     -33.402   7.795   0.997  1.00 20.00     0.081 C 
HETATM    3  C3  UNL     1     -32.731   6.868   2.008  1.00 20.00     0.029 C 
HETATM    4  C4  UNL     1     -32.391   9.879  -0.192  1.00 20.00     0.067 C 
HETATM    5  C5  UNL     1     -33.701   6.392   3.086  1.00 20.00     0.034 C 
HETATM    6  C6  UNL     1     -32.056   5.676   1.322  1.00 20.00     0.034 C 
HETATM    7  N7  UNL     1     -31.405   8.794   1.774  1.00 20.00    -0.210 NA
HETATM    8  N8  UNL     1     -31.726   7.765   2.593  1.00 20.00    -0.208 NA
HETATM    9  H20 UNL     1     -32.038   8.140   3.487  1.00 20.00     0.149 HD
ENDROOT
TORSDOF 0
ENDMDL
