MODEL 1
REMARK VINA RESULT:      -1.2      0.000      0.000
REMARK  1 active torsions:
REMARK  status: ('A' for Active; 'I' for Inactive)
REMARK    1  A    between atoms: C3_3  and  C6_6 
ROOT
HETATM    1  C1  UNL     1     -34.428   7.305   3.988  1.00 20.00    -0.024 C 
HETATM    2  C2  UNL     1     -34.480   5.973   3.818  1.00 20.00    -0.087 C 
HETATM    3  C4  UNL     1     -33.530   8.208   3.199  1.00 20.00     0.032 C 
HETATM    4  C5  UNL     1     -33.645   5.268   2.782  1.00 20.00     0.045 C 
HETATM    5  C6  UNL     1     -32.988   6.208   1.757  1.00 20.00     0.055 C 
HETATM    6  C7  UNL     1     -32.417   7.464   2.436  1.00 20.00    -0.004 C 
HETATM    7  C8  UNL     1     -35.373   5.103   4.653  1.00 20.00     0.043 C 
HETATM    8  C9  UNL     1     -31.755   8.418   1.437  1.00 20.00     0.011 C 
ENDROOT
BRANCH   5   9
HETATM    9  C3  UNL     1     -31.917   5.436   1.045  1.00 20.00     0.236 C 
HETATM   10  O10 UNL     1     -32.149   4.508   0.277  1.00 20.00    -0.306 OA
ENDBRANCH   5   9
TORSDOF 1
ENDMDL
MODEL 2
REMARK VINA RESULT:      -1.1      1.932      3.550
REMARK  1 active torsions:
REMARK  status: ('A' for Active; 'I' for Inactive)
REMARK    1  A    between atoms: C3_3  and  C6_6 
ROOT
HETATM    1  C1  UNL     1     -31.961   7.029   1.743  1.00 20.00    -0.024 C 
HETATM    2  C2  UNL     1     -32.553   5.844   1.516  1.00 20.00    -0.087 C 
HETATM    3  C4  UNL     1     -32.381   7.973   2.828  1.00 20.00     0.032 C 
HETATM    4  C5  UNL     1     -33.692   5.345   2.367  1.00 20.00     0.045 C 
HETATM    5  C6  UNL     1     -33.898   6.138   3.668  1.00 20.00     0.055 C 
HETATM    6  C7  UNL     1     -33.763   7.652   3.429  1.00 20.00    -0.004 C 
HETATM    7  C8  UNL     1     -32.120   4.944   0.397  1.00 20.00     0.043 C 
HETATM    8  C9  UNL     1     -33.965   8.467   4.711  1.00 20.00     0.011 C 
ENDROOT
BRANCH   5   9
HETATM    9  C3  UNL     1     -35.253   5.789   4.210  1.00 20.00     0.236 C 
HETATM   10  O10 UNL     1     -35.517   4.709   4.728  1.00 20.00    -0.306 OA
ENDBRANCH   5   9
TORSDOF 1
ENDMDL
MODEL 3
REMARK VINA RESULT:      -0.6      2.222      4.359
REMARK  1 active torsions:
REMARK  status: ('A' for Active; 'I' for Inactive)
REMARK    1  A    between atoms: C3_3  and  C6_6 
ROOT
HETATM    1  C1  UNL     1     -32.068   6.278   1.094  1.00 20.00    -0.024 C 
HETATM    2  C2  UNL     1     -32.149   7.570   1.452  1.00 20.00    -0.087 C 
HETATM    3  C4  UNL     1     -32.754   5.168   1.831  1.00 20.00     0.032 C 
HETATM    4  C5  UNL     1     -32.974   8.022   2.629  1.00 20.00     0.045 C 
HETATM    5  C6  UNL     1     -33.935   6.951   3.171  1.00 20.00     0.055 C 
HETATM    6  C7  UNL     1     -33.260   5.570   3.229  1.00 20.00    -0.004 C 
HETATM    7  C8  UNL     1     -31.419   8.646   0.703  1.00 20.00     0.043 C 
HETATM    8  C9  UNL     1     -34.196   4.484   3.767  1.00 20.00     0.011 C 
ENDROOT
BRANCH   5   9
HETATM    9  C3  UNL     1     -34.396   7.392   4.529  1.00 20.00     0.236 C 
HETATM   10  O10 UNL     1     -33.742   8.129   5.260  1.00 20.00    -0.306 OA
ENDBRANCH   5   9
TORSDOF 1
ENDMDL
MODEL 4
REMARK VINA RESULT:      -0.4      1.833      2.603
REMARK  1 active torsions:
REMARK  status: ('A' for Active; 'I' for Inactive)
REMARK    1  A    between atoms: C3_3  and  C6_6 
ROOT
HETATM    1  C1  UNL     1     -34.849   4.709   4.587  1.00 20.00    -0.024 C 
HETATM    2  C2  UNL     1     -33.777   4.130   4.020  1.00 20.00    -0.087 C 
HETATM    3  C4  UNL     1     -35.264   6.125   4.326  1.00 20.00     0.032 C 
HETATM    4  C5  UNL     1     -32.902   4.863   3.036  1.00 20.00     0.045 C 
HETATM    5  C6  UNL     1     -33.507   6.177   2.514  1.00 20.00     0.055 C 
HETATM    6  C7  UNL     1     -34.173   6.976   3.647  1.00 20.00    -0.004 C 
HETATM    7  C8  UNL     1     -33.381   2.718   4.334  1.00 20.00     0.043 C 
HETATM    8  C9  UNL     1     -34.784   8.291   3.154  1.00 20.00     0.011 C 
ENDROOT
BRANCH   5   9
HETATM    9  C3  UNL     1     -32.407   6.963   1.864  1.00 20.00     0.236 C 
HETATM   10  O10 UNL     1     -31.914   7.972   2.356  1.00 20.00    -0.306 OA
ENDBRANCH   5   9
TORSDOF 1
ENDMDL
MODEL 5
REMARK VINA RESULT:      -0.3      1.666      2.811
REMARK  1 active torsions:
REMARK  status: ('A' for Active; 'I' for Inactive)
REMARK    1  A    between atoms: C3_3  and  C6_6 
ROOT
HETATM    1  C1  UNL     1     -34.027   6.133   3.848  1.00 20.00    -0.024 C 
HETATM    2  C2  UNL     1     -33.744   7.441   3.971  1.00 20.00    -0.087 C 
HETATM    3  C4  UNL     1     -33.547   5.284   2.711  1.00 20.00     0.032 C 
HETATM    4  C5  UNL     1     -32.883   8.169   2.972  1.00 20.00     0.045 C 
HETATM    5  C6  UNL     1     -32.122   7.244   2.007  1.00 20.00     0.055 C 
HETATM    6  C7  UNL     1     -33.015   6.093   1.513  1.00 20.00    -0.004 C 
HETATM    7  C8  UNL     1     -34.271   8.261   5.112  1.00 20.00     0.043 C 
HETATM    8  C9  UNL     1     -32.280   5.157   0.548  1.00 20.00     0.011 C 
ENDROOT
BRANCH   5   9
HETATM    9  C3  UNL     1     -31.625   8.081   0.865  1.00 20.00     0.236 C 
HETATM   10  O10 UNL     1     -32.116   9.161   0.553  1.00 20.00    -0.306 OA
ENDBRANCH   5   9
TORSDOF 1
ENDMDL
MODEL 6
REMARK VINA RESULT:      -0.1      2.077      4.226
REMARK  1 active torsions:
REMARK  status: ('A' for Active; 'I' for Inactive)
REMARK    1  A    between atoms: C3_3  and  C6_6 
ROOT
HETATM    1  C1  UNL     1     -31.849   6.561   1.155  1.00 20.00    -0.024 C 
HETATM    2  C2  UNL     1     -32.299   7.750   1.588  1.00 20.00    -0.087 C 
HETATM    3  C4  UNL     1     -32.308   5.247   1.710  1.00 20.00     0.032 C 
HETATM    4  C5  UNL     1     -33.343   7.863   2.669  1.00 20.00     0.045 C 
HETATM    5  C6  UNL     1     -34.054   6.539   2.996  1.00 20.00     0.055 C 
HETATM    6  C7  UNL     1     -33.059   5.368   3.050  1.00 20.00    -0.004 C 
HETATM    7  C8  UNL     1     -31.787   9.043   1.025  1.00 20.00     0.043 C 
HETATM    8  C9  UNL     1     -33.742   4.036   3.375  1.00 20.00     0.011 C 
ENDROOT
BRANCH   5   9
HETATM    9  C3  UNL     1     -34.768   6.712   4.304  1.00 20.00     0.236 C 
HETATM   10  O10 UNL     1     -35.758   6.064   4.626  1.00 20.00    -0.306 OA
ENDBRANCH   5   9
TORSDOF 1
ENDMDL
MODEL 7
REMARK VINA RESULT:      -0.0      1.593      3.556
REMARK  1 active torsions:
REMARK  status: ('A' for Active; 'I' for Inactive)
REMARK    1  A    between atoms: C3_3  and  C6_6 
ROOT
HETATM    1  C1  UNL     1     -33.333   8.055   2.869  1.00 20.00    -0.024 C 
HETATM    2  C2  UNL     1     -32.546   7.227   2.162  1.00 20.00    -0.087 C 
HETATM    3  C4  UNL     1     -34.377   7.585   3.836  1.00 20.00     0.032 C 
HETATM    4  C5  UNL     1     -32.631   5.730   2.305  1.00 20.00     0.045 C 
HETATM    5  C6  UNL     1     -33.446   5.260   3.521  1.00 20.00     0.055 C 
HETATM    6  C7  UNL     1     -34.729   6.092   3.691  1.00 20.00    -0.004 C 
HETATM    7  C8  UNL     1     -31.533   7.742   1.182  1.00 20.00     0.043 C 
HETATM    8  C9  UNL     1     -35.561   5.643   4.896  1.00 20.00     0.011 C 
ENDROOT
BRANCH   5   9
HETATM    9  C3  UNL     1     -33.759   3.805   3.330  1.00 20.00     0.236 C 
HETATM   10  O10 UNL     1     -33.658   2.968   4.221  1.00 20.00    -0.306 OA
ENDBRANCH   5   9
TORSDOF 1
ENDMDL
MODEL 8
REMARK VINA RESULT:       0.5      1.723      2.818
REMARK  1 active torsions:
REMARK  status: ('A' for Active; 'I' for Inactive)
REMARK    1  A    between atoms: C3_3  and  C6_6 
ROOT
HETATM    1  C1  UNL     1     -32.801   8.095   2.749  1.00 20.00    -0.024 C 
HETATM    2  C2  UNL     1     -33.504   7.672   3.813  1.00 20.00    -0.087 C 
HETATM    3  C4  UNL     1     -32.341   7.192   1.646  1.00 20.00     0.032 C 
HETATM    4  C5  UNL     1     -33.918   6.232   3.974  1.00 20.00     0.045 C 
HETATM    5  C6  UNL     1     -33.748   5.383   2.704  1.00 20.00     0.055 C 
HETATM    6  C7  UNL     1     -32.417   5.694   1.997  1.00 20.00    -0.004 C 
HETATM    7  C8  UNL     1     -33.919   8.607   4.911  1.00 20.00     0.043 C 
HETATM    8  C9  UNL     1     -32.221   4.860   0.727  1.00 20.00     0.011 C 
ENDROOT
BRANCH   5   9
HETATM    9  C3  UNL     1     -33.831   3.939   3.101  1.00 20.00     0.236 C 
HETATM   10  O10 UNL     1     -33.949   3.562   4.263  1.00 20.00    -0.306 OA
ENDBRANCH   5   9
TORSDOF 1
ENDMDL
MODEL 9
REMARK VINA RESULT:       0.6      1.052      3.204
REMARK  1 active torsions:
REMARK  status: ('A' for Active; 'I' for Inactive)
REMARK    1  A    between atoms: C3_3  and  C6_6 
ROOT
HETATM    1  C1  UNL     1     -33.115   8.406   2.865  1.00 20.00    -0.024 C 
HETATM    2  C2  UNL     1     -32.463   8.332   1.693  1.00 20.00    -0.087 C 
HETATM    3  C4  UNL     1     -33.625   7.210   3.608  1.00 20.00     0.032 C 
HETATM    4  C5  UNL     1     -32.161   7.013   1.029  1.00 20.00     0.045 C 
HETATM    5  C6  UNL     1     -32.376   5.790   1.937  1.00 20.00     0.055 C 
HETATM    6  C7  UNL     1     -33.667   5.924   2.761  1.00 20.00    -0.004 C 
HETATM    7  C8  UNL     1     -31.997   9.560   0.967  1.00 20.00     0.043 C 
HETATM    8  C9  UNL     1     -33.906   4.717   3.673  1.00 20.00     0.011 C 
ENDROOT
BRANCH   5   9
HETATM    9  C3  UNL     1     -32.407   4.571   1.063  1.00 20.00     0.236 C 
HETATM   10  O10 UNL     1     -33.139   4.456   0.085  1.00 20.00    -0.306 OA
ENDBRANCH   5   9
TORSDOF 1
ENDMDL
