MODEL 1
REMARK VINA RESULT:      -2.0      0.000      0.000
REMARK  2 active torsions:
REMARK  status: ('A' for Active; 'I' for Inactive)
REMARK    1  A    between atoms: C3_3  and  C7_7 
REMARK    2  A    between atoms: C4_4  and  C8_8 
ROOT
HETATM    1  C5  UNL     1     -33.055   5.152   1.879  1.00 20.00     0.014 C 
HETATM    2  C6  UNL     1     -32.275   6.340   1.322  1.00 20.00     0.037 C 
HETATM    3  C7  UNL     1     -33.225   5.291   3.397  1.00 20.00     0.036 C 
HETATM    4  C8  UNL     1     -32.908   7.661   1.759  1.00 20.00     0.144 C 
HETATM    5  C9  UNL     1     -33.811   6.669   3.767  1.00 20.00     0.126 C 
HETATM    6  C10 UNL     1     -35.294   6.860   3.438  1.00 20.00     0.040 C 
HETATM    7  O11 UNL     1     -33.024   7.718   3.182  1.00 20.00    -0.377 OA
ENDROOT
BRANCH   3   8
HETATM    8  C3  UNL     1     -34.003   4.146   3.968  1.00 20.00    -0.030 C 
HETATM    9  C1  UNL     1     -33.449   3.106   4.599  1.00 20.00     0.007 C 
ENDBRANCH   3   8
BRANCH   4  10
HETATM   10  C4  UNL     1     -32.075   8.824   1.323  1.00 20.00    -0.005 C 
HETATM   11  C2  UNL     1     -32.425   9.674   0.352  1.00 20.00     0.009 C 
ENDBRANCH   4  10
TORSDOF 2
ENDMDL
MODEL 2
REMARK VINA RESULT:      -1.5      1.123      4.686
REMARK  2 active torsions:
REMARK  status: ('A' for Active; 'I' for Inactive)
REMARK    1  A    between atoms: C3_3  and  C7_7 
REMARK    2  A    between atoms: C4_4  and  C8_8 
ROOT
HETATM    1  C5  UNL     1     -33.494   8.006   2.797  1.00 20.00     0.014 C 
HETATM    2  C6  UNL     1     -33.950   7.012   3.860  1.00 20.00     0.037 C 
HETATM    3  C7  UNL     1     -32.259   7.471   2.061  1.00 20.00     0.036 C 
HETATM    4  C8  UNL     1     -34.138   5.618   3.260  1.00 20.00     0.144 C 
HETATM    5  C9  UNL     1     -32.501   6.041   1.536  1.00 20.00     0.126 C 
HETATM    6  C10 UNL     1     -33.441   5.935   0.333  1.00 20.00     0.040 C 
HETATM    7  O11 UNL     1     -32.945   5.188   2.602  1.00 20.00    -0.377 OA
ENDROOT
BRANCH   3   8
HETATM    8  C3  UNL     1     -31.800   8.421   0.998  1.00 20.00    -0.030 C 
HETATM    9  C1  UNL     1     -32.466   9.526   0.644  1.00 20.00     0.007 C 
ENDBRANCH   3   8
BRANCH   4  10
HETATM   10  C4  UNL     1     -34.459   4.616   4.323  1.00 20.00    -0.005 C 
HETATM   11  C2  UNL     1     -33.743   3.510   4.550  1.00 20.00     0.009 C 
ENDBRANCH   4  10
TORSDOF 2
ENDMDL
MODEL 3
REMARK VINA RESULT:      -1.0      0.939      4.543
REMARK  2 active torsions:
REMARK  status: ('A' for Active; 'I' for Inactive)
REMARK    1  A    between atoms: C3_3  and  C7_7 
REMARK    2  A    between atoms: C4_4  and  C8_8 
ROOT
HETATM    1  C5  UNL     1     -31.968   6.554   1.450  1.00 20.00     0.014 C 
HETATM    2  C6  UNL     1     -32.716   5.311   1.922  1.00 20.00     0.037 C 
HETATM    3  C7  UNL     1     -32.850   7.799   1.605  1.00 20.00     0.036 C 
HETATM    4  C8  UNL     1     -33.268   5.509   3.333  1.00 20.00     0.144 C 
HETATM    5  C9  UNL     1     -33.419   7.901   3.035  1.00 20.00     0.126 C 
HETATM    6  C10 UNL     1     -32.411   8.304   4.115  1.00 20.00     0.040 C 
HETATM    7  O11 UNL     1     -34.084   6.681   3.395  1.00 20.00    -0.377 OA
ENDROOT
BRANCH   3   8
HETATM    8  C3  UNL     1     -32.133   9.038   1.165  1.00 20.00    -0.030 C 
HETATM    9  C1  UNL     1     -32.555   9.835   0.178  1.00 20.00     0.007 C 
ENDBRANCH   3   8
BRANCH   4  10
HETATM   10  C4  UNL     1     -34.109   4.345   3.749  1.00 20.00    -0.005 C 
HETATM   11  C2  UNL     1     -33.657   3.313   4.469  1.00 20.00     0.009 C 
ENDBRANCH   4  10
TORSDOF 2
ENDMDL
MODEL 4
REMARK VINA RESULT:      -0.7      1.405      2.303
REMARK  2 active torsions:
REMARK  status: ('A' for Active; 'I' for Inactive)
REMARK    1  A    between atoms: C3_3  and  C7_7 
REMARK    2  A    between atoms: C4_4  and  C8_8 
ROOT
HETATM    1  C5  UNL     1     -33.058   7.428   3.683  1.00 20.00     0.014 C 
HETATM    2  C6  UNL     1     -32.638   8.597   2.797  1.00 20.00     0.037 C 
HETATM    3  C7  UNL     1     -33.886   6.419   2.877  1.00 20.00     0.036 C 
HETATM    4  C8  UNL     1     -31.948   8.100   1.527  1.00 20.00     0.144 C 
HETATM    5  C9  UNL     1     -33.155   6.009   1.582  1.00 20.00     0.126 C 
HETATM    6  C10 UNL     1     -31.950   5.084   1.775  1.00 20.00     0.040 C 
HETATM    7  O11 UNL     1     -32.783   7.174   0.830  1.00 20.00    -0.377 OA
ENDROOT
BRANCH   3   8
HETATM    8  C3  UNL     1     -34.297   5.250   3.719  1.00 20.00    -0.030 C 
HETATM    9  C1  UNL     1     -35.361   5.250   4.529  1.00 20.00     0.007 C 
ENDBRANCH   3   8
BRANCH   4  10
HETATM   10  C4  UNL     1     -31.651   9.234   0.599  1.00 20.00    -0.005 C 
HETATM   11  C2  UNL     1     -32.580  10.053   0.096  1.00 20.00     0.009 C 
ENDBRANCH   4  10
TORSDOF 2
ENDMDL
