MODEL 1
REMARK VINA RESULT:      -2.4      0.000      0.000
REMARK  2 active torsions:
REMARK  status: ('A' for Active; 'I' for Inactive)
REMARK    1  A    between atoms: C1_1  and  O5_5 
REMARK    2  A    between atoms: C3_3  and  O5_5 
ROOT
HETATM    1  O5  UNL     1     -33.447   5.986   3.135  1.00 20.00    -0.288 OA
ENDROOT
BRANCH   1   2
HETATM    2  C1  UNL     1     -34.445   6.665   3.787  1.00 20.00     0.359 C 
HETATM    3  O4  UNL     1     -35.628   6.343   3.732  1.00 20.00    -0.245 OA
HETATM    4 CL6  UNL     1     -33.837   8.026   4.692  1.00 20.00    -0.012 Cl
ENDBRANCH   1   2
BRANCH   1   5
HETATM    5  C3  UNL     1     -33.116   6.402   1.799  1.00 20.00     0.224 C 
HETATM    6  C2  UNL     1     -32.360   5.297   1.080  1.00 20.00     0.057 C 
HETATM    7 CL7  UNL     1     -32.085   7.854   1.920  1.00 20.00    -0.095 Cl
ENDBRANCH   1   5
TORSDOF 2
ENDMDL
MODEL 2
REMARK VINA RESULT:      -2.4      2.050      2.211
REMARK  2 active torsions:
REMARK  status: ('A' for Active; 'I' for Inactive)
REMARK    1  A    between atoms: C1_1  and  O5_5 
REMARK    2  A    between atoms: C3_3  and  O5_5 
ROOT
HETATM    1  O5  UNL     1     -33.709   7.731   2.727  1.00 20.00    -0.288 OA
ENDROOT
BRANCH   1   2
HETATM    2  C1  UNL     1     -34.079   7.419   4.010  1.00 20.00     0.359 C 
HETATM    3  O4  UNL     1     -33.594   7.954   5.002  1.00 20.00    -0.245 OA
HETATM    4 CL6  UNL     1     -35.309   6.184   4.061  1.00 20.00    -0.012 Cl
ENDBRANCH   1   2
BRANCH   1   5
HETATM    5  C3  UNL     1     -32.421   7.282   2.274  1.00 20.00     0.224 C 
HETATM    6  C2  UNL     1     -31.827   8.290   1.304  1.00 20.00     0.057 C 
HETATM    7 CL7  UNL     1     -32.649   5.717   1.447  1.00 20.00    -0.095 Cl
ENDBRANCH   1   5
TORSDOF 2
ENDMDL
MODEL 3
REMARK VINA RESULT:      -2.3      1.559      3.454
REMARK  2 active torsions:
REMARK  status: ('A' for Active; 'I' for Inactive)
REMARK    1  A    between atoms: C1_1  and  O5_5 
REMARK    2  A    between atoms: C3_3  and  O5_5 
ROOT
HETATM    1  O5  UNL     1     -33.272   5.953   3.020  1.00 20.00    -0.288 OA
ENDROOT
BRANCH   1   2
HETATM    2  C1  UNL     1     -32.806   6.194   1.753  1.00 20.00     0.359 C 
HETATM    3  O4  UNL     1     -32.979   5.425   0.812  1.00 20.00    -0.245 OA
HETATM    4 CL6  UNL     1     -31.946   7.707   1.641  1.00 20.00    -0.012 Cl
ENDBRANCH   1   2
BRANCH   1   5
HETATM    5  C3  UNL     1     -34.393   6.727   3.479  1.00 20.00     0.224 C 
HETATM    6  C2  UNL     1     -33.922   7.815   4.430  1.00 20.00     0.057 C 
HETATM    7 CL7  UNL     1     -35.504   5.624   4.336  1.00 20.00    -0.095 Cl
ENDBRANCH   1   5
TORSDOF 2
ENDMDL
MODEL 4
REMARK VINA RESULT:      -2.2      1.125      3.228
REMARK  2 active torsions:
REMARK  status: ('A' for Active; 'I' for Inactive)
REMARK    1  A    between atoms: C1_1  and  O5_5 
REMARK    2  A    between atoms: C3_3  and  O5_5 
ROOT
HETATM    1  O5  UNL     1     -33.886   6.553   2.291  1.00 20.00    -0.288 OA
ENDROOT
BRANCH   1   2
HETATM    2  C1  UNL     1     -32.631   6.411   1.756  1.00 20.00     0.359 C 
HETATM    3  O4  UNL     1     -32.171   5.334   1.390  1.00 20.00    -0.245 OA
HETATM    4 CL6  UNL     1     -31.777   7.928   1.660  1.00 20.00    -0.012 Cl
ENDBRANCH   1   2
BRANCH   1   5
HETATM    5  C3  UNL     1     -34.026   6.415   3.715  1.00 20.00     0.224 C 
HETATM    6  C2  UNL     1     -35.428   5.939   4.059  1.00 20.00     0.057 C 
HETATM    7 CL7  UNL     1     -33.742   8.017   4.449  1.00 20.00    -0.095 Cl
ENDBRANCH   1   5
TORSDOF 2
ENDMDL
MODEL 5
REMARK VINA RESULT:      -2.2      2.444      2.713
REMARK  2 active torsions:
REMARK  status: ('A' for Active; 'I' for Inactive)
REMARK    1  A    between atoms: C1_1  and  O5_5 
REMARK    2  A    between atoms: C3_3  and  O5_5 
ROOT
HETATM    1  O5  UNL     1     -33.244   4.963   3.421  1.00 20.00    -0.288 OA
ENDROOT
BRANCH   1   2
HETATM    2  C1  UNL     1     -34.049   4.220   4.246  1.00 20.00     0.359 C 
HETATM    3  O4  UNL     1     -35.206   4.527   4.515  1.00 20.00    -0.245 OA
HETATM    4 CL6  UNL     1     -33.240   2.802   4.859  1.00 20.00    -0.012 Cl
ENDBRANCH   1   2
BRANCH   1   5
HETATM    5  C3  UNL     1     -33.821   6.113   2.780  1.00 20.00     0.224 C 
HETATM    6  C2  UNL     1     -32.905   6.608   1.673  1.00 20.00     0.057 C 
HETATM    7 CL7  UNL     1     -34.011   7.387   4.015  1.00 20.00    -0.095 Cl
ENDBRANCH   1   5
TORSDOF 2
ENDMDL
MODEL 6
REMARK VINA RESULT:      -2.2      1.816      3.567
REMARK  2 active torsions:
REMARK  status: ('A' for Active; 'I' for Inactive)
REMARK    1  A    between atoms: C1_1  and  O5_5 
REMARK    2  A    between atoms: C3_3  and  O5_5 
ROOT
HETATM    1  O5  UNL     1     -33.480   7.679   2.594  1.00 20.00    -0.288 OA
ENDROOT
BRANCH   1   2
HETATM    2  C1  UNL     1     -32.425   7.245   1.833  1.00 20.00     0.359 C 
HETATM    3  O4  UNL     1     -31.491   7.966   1.498  1.00 20.00    -0.245 OA
HETATM    4 CL6  UNL     1     -32.570   5.561   1.402  1.00 20.00    -0.012 Cl
ENDBRANCH   1   2
BRANCH   1   5
HETATM    5  C3  UNL     1     -33.747   6.987   3.825  1.00 20.00     0.224 C 
HETATM    6  C2  UNL     1     -35.178   6.474   3.836  1.00 20.00     0.057 C 
HETATM    7 CL7  UNL     1     -33.517   8.146   5.162  1.00 20.00    -0.095 Cl
ENDBRANCH   1   5
TORSDOF 2
ENDMDL
MODEL 7
REMARK VINA RESULT:      -2.2      1.363      1.562
REMARK  2 active torsions:
REMARK  status: ('A' for Active; 'I' for Inactive)
REMARK    1  A    between atoms: C1_1  and  O5_5 
REMARK    2  A    between atoms: C3_3  and  O5_5 
ROOT
HETATM    1  O5  UNL     1     -34.007   6.841   2.503  1.00 20.00    -0.288 OA
ENDROOT
BRANCH   1   2
HETATM    2  C1  UNL     1     -34.482   6.802   3.788  1.00 20.00     0.359 C 
HETATM    3  O4  UNL     1     -35.371   6.042   4.158  1.00 20.00    -0.245 OA
HETATM    4 CL6  UNL     1     -33.681   7.954   4.824  1.00 20.00    -0.012 Cl
ENDBRANCH   1   2
BRANCH   1   5
HETATM    5  C3  UNL     1     -32.586   6.736   2.311  1.00 20.00     0.224 C 
HETATM    6  C2  UNL     1     -32.048   8.011   1.681  1.00 20.00     0.057 C 
HETATM    7 CL7  UNL     1     -32.283   5.356   1.220  1.00 20.00    -0.095 Cl
ENDBRANCH   1   5
TORSDOF 2
ENDMDL
MODEL 8
REMARK VINA RESULT:      -2.1      1.858      3.462
REMARK  2 active torsions:
REMARK  status: ('A' for Active; 'I' for Inactive)
REMARK    1  A    between atoms: C1_1  and  O5_5 
REMARK    2  A    between atoms: C3_3  and  O5_5 
ROOT
HETATM    1  O5  UNL     1     -33.266   6.409   3.160  1.00 20.00    -0.288 OA
ENDROOT
BRANCH   1   2
HETATM    2  C1  UNL     1     -32.662   6.427   1.930  1.00 20.00     0.359 C 
HETATM    3  O4  UNL     1     -32.637   5.460   1.175  1.00 20.00    -0.245 OA
HETATM    4 CL6  UNL     1     -31.940   7.973   1.571  1.00 20.00    -0.012 Cl
ENDBRANCH   1   2
BRANCH   1   5
HETATM    5  C3  UNL     1     -34.418   5.565   3.329  1.00 20.00     0.224 C 
HETATM    6  C2  UNL     1     -35.453   6.260   4.197  1.00 20.00     0.057 C 
HETATM    7 CL7  UNL     1     -33.880   4.062   4.126  1.00 20.00    -0.095 Cl
ENDBRANCH   1   5
TORSDOF 2
ENDMDL
MODEL 9
REMARK VINA RESULT:      -2.1      1.867      2.262
REMARK  2 active torsions:
REMARK  status: ('A' for Active; 'I' for Inactive)
REMARK    1  A    between atoms: C1_1  and  O5_5 
REMARK    2  A    between atoms: C3_3  and  O5_5 
ROOT
HETATM    1  O5  UNL     1     -33.523   6.145   2.806  1.00 20.00    -0.288 OA
ENDROOT
BRANCH   1   2
HETATM    2  C1  UNL     1     -34.450   5.615   3.666  1.00 20.00     0.359 C 
HETATM    3  O4  UNL     1     -35.467   6.207   4.013  1.00 20.00    -0.245 OA
HETATM    4 CL6  UNL     1     -34.015   4.013   4.201  1.00 20.00    -0.012 Cl
ENDBRANCH   1   2
BRANCH   1   5
HETATM    5  C3  UNL     1     -33.307   7.566   2.848  1.00 20.00     0.224 C 
HETATM    6  C2  UNL     1     -32.113   7.939   1.985  1.00 20.00     0.057 C 
HETATM    7 CL7  UNL     1     -32.985   8.019   4.544  1.00 20.00    -0.095 Cl
ENDBRANCH   1   5
TORSDOF 2
ENDMDL
