MODEL 1
REMARK VINA RESULT:      -1.3      0.000      0.000
REMARK  2 active torsions:
REMARK  status: ('A' for Active; 'I' for Inactive)
REMARK    1  A    between atoms: C3_3  and  C7_7 
REMARK    2  A    between atoms: C4_4  and  C8_8 
ROOT
HETATM    1  C5  UNL     1     -35.333   6.254   3.884  1.00 20.00     0.014 C 
HETATM    2  C6  UNL     1     -34.835   5.014   4.626  1.00 20.00     0.037 C 
HETATM    3  C7  UNL     1     -34.206   6.945   3.104  1.00 20.00     0.036 C 
HETATM    4  C8  UNL     1     -34.057   4.098   3.680  1.00 20.00     0.144 C 
HETATM    5  C9  UNL     1     -33.458   5.904   2.246  1.00 20.00     0.126 C 
HETATM    6  C10 UNL     1     -32.262   6.479   1.493  1.00 20.00     0.040 C 
HETATM    7  O11 UNL     1     -32.990   4.815   3.054  1.00 20.00    -0.377 OA
ENDROOT
BRANCH   3   8
HETATM    8  C3  UNL     1     -33.308   7.696   4.047  1.00 20.00    -0.030 C 
HETATM    9  C1  UNL     1     -33.734   8.312   5.154  1.00 20.00     0.007 C 
ENDBRANCH   3   8
BRANCH   4  10
HETATM   10  C4  UNL     1     -33.467   2.945   4.422  1.00 20.00    -0.005 C 
HETATM   11  C2  UNL     1     -32.703   3.068   5.513  1.00 20.00     0.009 C 
ENDBRANCH   4  10
TORSDOF 2
ENDMDL
MODEL 2
REMARK VINA RESULT:      -0.3      1.208      1.593
REMARK  2 active torsions:
REMARK  status: ('A' for Active; 'I' for Inactive)
REMARK    1  A    between atoms: C3_3  and  C7_7 
REMARK    2  A    between atoms: C4_4  and  C8_8 
ROOT
HETATM    1  C5  UNL     1     -34.680   7.035   3.016  1.00 20.00     0.014 C 
HETATM    2  C6  UNL     1     -34.509   6.079   4.196  1.00 20.00     0.037 C 
HETATM    3  C7  UNL     1     -33.499   6.954   2.039  1.00 20.00     0.036 C 
HETATM    4  C8  UNL     1     -34.181   4.668   3.703  1.00 20.00     0.144 C 
HETATM    5  C9  UNL     1     -33.228   5.479   1.676  1.00 20.00     0.126 C 
HETATM    6  C10 UNL     1     -32.016   5.286   0.770  1.00 20.00     0.040 C 
HETATM    7  O11 UNL     1     -33.030   4.690   2.856  1.00 20.00    -0.377 OA
ENDROOT
BRANCH   3   8
HETATM    8  C3  UNL     1     -32.301   7.655   2.614  1.00 20.00    -0.030 C 
HETATM    9  C1  UNL     1     -31.535   8.511   1.930  1.00 20.00     0.007 C 
ENDBRANCH   3   8
BRANCH   4  10
HETATM   10  C4  UNL     1     -33.896   3.757   4.850  1.00 20.00    -0.005 C 
HETATM   11  C2  UNL     1     -33.028   2.741   4.801  1.00 20.00     0.009 C 
ENDBRANCH   4  10
TORSDOF 2
ENDMDL
MODEL 3
REMARK VINA RESULT:      -0.1      1.501      4.390
REMARK  2 active torsions:
REMARK  status: ('A' for Active; 'I' for Inactive)
REMARK    1  A    between atoms: C3_3  and  C7_7 
REMARK    2  A    between atoms: C4_4  and  C8_8 
ROOT
HETATM    1  C5  UNL     1     -33.145   4.630   1.635  1.00 20.00     0.014 C 
HETATM    2  C6  UNL     1     -32.155   5.789   1.530  1.00 20.00     0.037 C 
HETATM    3  C7  UNL     1     -33.941   4.676   2.946  1.00 20.00     0.036 C 
HETATM    4  C8  UNL     1     -32.853   7.121   1.810  1.00 20.00     0.144 C 
HETATM    5  C9  UNL     1     -34.533   6.087   3.144  1.00 20.00     0.126 C 
HETATM    6  C10 UNL     1     -35.276   6.258   4.465  1.00 20.00     0.040 C 
HETATM    7  O11 UNL     1     -33.507   7.086   3.080  1.00 20.00    -0.377 OA
ENDROOT
BRANCH   3   8
HETATM    8  C3  UNL     1     -33.079   4.226   4.092  1.00 20.00    -0.030 C 
HETATM    9  C1  UNL     1     -33.209   3.047   4.708  1.00 20.00     0.007 C 
ENDBRANCH   3   8
BRANCH   4  10
HETATM   10  C4  UNL     1     -31.869   8.244   1.826  1.00 20.00    -0.005 C 
HETATM   11  C2  UNL     1     -31.845   9.231   0.923  1.00 20.00     0.009 C 
ENDBRANCH   4  10
TORSDOF 2
ENDMDL
MODEL 4
REMARK VINA RESULT:      -0.1      2.284      4.701
REMARK  2 active torsions:
REMARK  status: ('A' for Active; 'I' for Inactive)
REMARK    1  A    between atoms: C3_3  and  C7_7 
REMARK    2  A    between atoms: C4_4  and  C8_8 
ROOT
HETATM    1  C5  UNL     1     -32.503   8.057   3.680  1.00 20.00     0.014 C 
HETATM    2  C6  UNL     1     -32.564   9.085   2.550  1.00 20.00     0.037 C 
HETATM    3  C7  UNL     1     -33.091   6.705   3.255  1.00 20.00     0.036 C 
HETATM    4  C8  UNL     1     -31.974   8.506   1.263  1.00 20.00     0.144 C 
HETATM    5  C9  UNL     1     -32.467   6.268   1.913  1.00 20.00     0.126 C 
HETATM    6  C10 UNL     1     -33.049   4.970   1.363  1.00 20.00     0.040 C 
HETATM    7  O11 UNL     1     -32.632   7.285   0.916  1.00 20.00    -0.377 OA
ENDROOT
BRANCH   3   8
HETATM    8  C3  UNL     1     -34.591   6.781   3.217  1.00 20.00    -0.030 C 
HETATM    9  C1  UNL     1     -35.394   6.150   4.079  1.00 20.00     0.007 C 
ENDBRANCH   3   8
BRANCH   4  10
HETATM   10  C4  UNL     1     -32.138   9.460   0.127  1.00 20.00    -0.005 C 
HETATM   11  C2  UNL     1     -32.725  10.657   0.233  1.00 20.00     0.009 C 
ENDBRANCH   4  10
TORSDOF 2
ENDMDL
MODEL 5
REMARK VINA RESULT:       0.2      2.011      3.533
REMARK  2 active torsions:
REMARK  status: ('A' for Active; 'I' for Inactive)
REMARK    1  A    between atoms: C3_3  and  C7_7 
REMARK    2  A    between atoms: C4_4  and  C8_8 
ROOT
HETATM    1  C5  UNL     1     -32.398   6.426   1.180  1.00 20.00     0.014 C 
HETATM    2  C6  UNL     1     -33.761   6.109   1.794  1.00 20.00     0.037 C 
HETATM    3  C7  UNL     1     -31.879   7.802   1.620  1.00 20.00     0.036 C 
HETATM    4  C8  UNL     1     -33.735   6.328   3.307  1.00 20.00     0.144 C 
HETATM    5  C9  UNL     1     -31.970   7.921   3.156  1.00 20.00     0.126 C 
HETATM    6  C10 UNL     1     -31.553   9.289   3.688  1.00 20.00     0.040 C 
HETATM    7  O11 UNL     1     -33.303   7.657   3.612  1.00 20.00    -0.377 OA
ENDROOT
BRANCH   3   8
HETATM    8  C3  UNL     1     -32.616   8.891   0.894  1.00 20.00    -0.030 C 
HETATM    9  C1  UNL     1     -32.051   9.712   0.003  1.00 20.00     0.007 C 
ENDBRANCH   3   8
BRANCH   4  10
HETATM   10  C4  UNL     1     -35.092   6.135   3.897  1.00 20.00    -0.005 C 
HETATM   11  C2  UNL     1     -35.446   5.073   4.630  1.00 20.00     0.009 C 
ENDBRANCH   4  10
TORSDOF 2
ENDMDL
