MODEL 1
REMARK VINA RESULT:      -1.7      0.000      0.000
REMARK  1 active torsions:
REMARK  status: ('A' for Active; 'I' for Inactive)
REMARK    1  A    between atoms: C3_3  and  C7_7 
ROOT
HETATM    1  C1  UNL     1     -33.638   5.193   2.961  1.00 20.00    -0.019 C 
HETATM    2  C2  UNL     1     -34.465   5.779   3.845  1.00 20.00    -0.087 C 
HETATM    3  C4  UNL     1     -34.506   7.273   4.030  1.00 20.00     0.034 C 
HETATM    4  C5  UNL     1     -33.298   7.986   3.425  1.00 20.00     0.016 C 
HETATM    5  C6  UNL     1     -32.708   5.946   2.040  1.00 20.00     0.015 C 
HETATM    6  C7  UNL     1     -32.993   7.463   2.021  1.00 20.00     0.054 C 
HETATM    7  C8  UNL     1     -35.398   4.981   4.707  1.00 20.00     0.043 C 
HETATM    8  C9  UNL     1     -32.798   5.364   0.624  1.00 20.00     0.015 C 
ENDROOT
BRANCH   6   9
HETATM    9  C3  UNL     1     -31.808   8.204   1.474  1.00 20.00     0.236 C 
HETATM   10  O10 UNL     1     -31.901   9.137   0.684  1.00 20.00    -0.306 OA
ENDBRANCH   6   9
TORSDOF 1
ENDMDL
MODEL 2
REMARK VINA RESULT:      -1.5      2.440      4.381
REMARK  1 active torsions:
REMARK  status: ('A' for Active; 'I' for Inactive)
REMARK    1  A    between atoms: C3_3  and  C7_7 
ROOT
HETATM    1  C1  UNL     1     -33.327   7.515   2.939  1.00 20.00    -0.019 C 
HETATM    2  C2  UNL     1     -32.514   7.319   1.887  1.00 20.00    -0.087 C 
HETATM    3  C4  UNL     1     -32.119   5.939   1.430  1.00 20.00     0.034 C 
HETATM    4  C5  UNL     1     -32.406   4.857   2.471  1.00 20.00     0.016 C 
HETATM    5  C6  UNL     1     -33.962   6.404   3.742  1.00 20.00     0.015 C 
HETATM    6  C7  UNL     1     -33.802   5.023   3.070  1.00 20.00     0.054 C 
HETATM    7  C8  UNL     1     -31.944   8.463   1.101  1.00 20.00     0.043 C 
HETATM    8  C9  UNL     1     -35.444   6.719   3.980  1.00 20.00     0.015 C 
ENDROOT
BRANCH   6   9
HETATM    9  C3  UNL     1     -34.032   3.932   4.074  1.00 20.00     0.236 C 
HETATM   10  O10 UNL     1     -33.137   3.217   4.511  1.00 20.00    -0.306 OA
ENDBRANCH   6   9
TORSDOF 1
ENDMDL
MODEL 3
REMARK VINA RESULT:      -0.8      0.976      2.444
REMARK  1 active torsions:
REMARK  status: ('A' for Active; 'I' for Inactive)
REMARK    1  A    between atoms: C3_3  and  C7_7 
ROOT
HETATM    1  C1  UNL     1     -34.161   6.080   3.973  1.00 20.00    -0.019 C 
HETATM    2  C2  UNL     1     -33.620   4.954   3.476  1.00 20.00    -0.087 C 
HETATM    3  C4  UNL     1     -32.679   4.972   2.300  1.00 20.00     0.034 C 
HETATM    4  C5  UNL     1     -32.713   6.289   1.525  1.00 20.00     0.016 C 
HETATM    5  C6  UNL     1     -33.865   7.467   3.453  1.00 20.00     0.015 C 
HETATM    6  C7  UNL     1     -32.673   7.489   2.472  1.00 20.00     0.054 C 
HETATM    7  C8  UNL     1     -33.921   3.605   4.060  1.00 20.00     0.043 C 
HETATM    8  C9  UNL     1     -33.611   8.417   4.629  1.00 20.00     0.015 C 
ENDROOT
BRANCH   6   9
HETATM    9  C3  UNL     1     -32.697   8.749   1.659  1.00 20.00     0.236 C 
HETATM   10  O10 UNL     1     -31.977   8.939   0.685  1.00 20.00    -0.306 OA
ENDBRANCH   6   9
TORSDOF 1
ENDMDL
MODEL 4
REMARK VINA RESULT:      -0.6      2.371      3.823
REMARK  1 active torsions:
REMARK  status: ('A' for Active; 'I' for Inactive)
REMARK    1  A    between atoms: C3_3  and  C7_7 
ROOT
HETATM    1  C1  UNL     1     -32.518   6.961   1.195  1.00 20.00    -0.019 C 
HETATM    2  C2  UNL     1     -32.560   8.110   1.891  1.00 20.00    -0.087 C 
HETATM    3  C4  UNL     1     -33.160   8.186   3.271  1.00 20.00     0.034 C 
HETATM    4  C5  UNL     1     -34.023   6.974   3.618  1.00 20.00     0.016 C 
HETATM    5  C6  UNL     1     -33.015   5.633   1.716  1.00 20.00     0.015 C 
HETATM    6  C7  UNL     1     -33.327   5.670   3.228  1.00 20.00     0.054 C 
HETATM    7  C8  UNL     1     -32.014   9.393   1.337  1.00 20.00     0.043 C 
HETATM    8  C9  UNL     1     -31.987   4.538   1.406  1.00 20.00     0.015 C 
ENDROOT
BRANCH   6   9
HETATM    9  C3  UNL     1     -34.213   4.517   3.600  1.00 20.00     0.236 C 
HETATM   10  O10 UNL     1     -33.851   3.593   4.319  1.00 20.00    -0.306 OA
ENDBRANCH   6   9
TORSDOF 1
ENDMDL
MODEL 5
REMARK VINA RESULT:       0.2      1.872      3.472
REMARK  1 active torsions:
REMARK  status: ('A' for Active; 'I' for Inactive)
REMARK    1  A    between atoms: C3_3  and  C7_7 
ROOT
HETATM    1  C1  UNL     1     -31.811   6.683   1.406  1.00 20.00    -0.019 C 
HETATM    2  C2  UNL     1     -32.324   5.444   1.304  1.00 20.00    -0.087 C 
HETATM    3  C4  UNL     1     -33.469   4.981   2.167  1.00 20.00     0.034 C 
HETATM    4  C5  UNL     1     -33.713   5.884   3.375  1.00 20.00     0.016 C 
HETATM    5  C6  UNL     1     -32.337   7.746   2.341  1.00 20.00     0.015 C 
HETATM    6  C7  UNL     1     -33.690   7.360   2.976  1.00 20.00     0.054 C 
HETATM    7  C8  UNL     1     -31.786   4.441   0.327  1.00 20.00     0.043 C 
HETATM    8  C9  UNL     1     -32.453   9.081   1.595  1.00 20.00     0.015 C 
ENDROOT
BRANCH   6   9
HETATM    9  C3  UNL     1     -33.945   8.196   4.195  1.00 20.00     0.236 C 
HETATM   10  O10 UNL     1     -33.212   8.200   5.177  1.00 20.00    -0.306 OA
ENDBRANCH   6   9
TORSDOF 1
ENDMDL
MODEL 6
REMARK VINA RESULT:       0.4      1.895      3.499
REMARK  1 active torsions:
REMARK  status: ('A' for Active; 'I' for Inactive)
REMARK    1  A    between atoms: C3_3  and  C7_7 
ROOT
HETATM    1  C1  UNL     1     -33.506   5.176   2.011  1.00 20.00    -0.019 C 
HETATM    2  C2  UNL     1     -32.388   5.559   1.371  1.00 20.00    -0.087 C 
HETATM    3  C4  UNL     1     -31.718   6.879   1.655  1.00 20.00     0.034 C 
HETATM    4  C5  UNL     1     -32.613   7.854   2.420  1.00 20.00     0.016 C 
HETATM    5  C6  UNL     1     -34.183   5.981   3.096  1.00 20.00     0.015 C 
HETATM    6  C7  UNL     1     -33.316   7.160   3.587  1.00 20.00     0.054 C 
HETATM    7  C8  UNL     1     -31.736   4.699   0.329  1.00 20.00     0.043 C 
HETATM    8  C9  UNL     1     -34.555   5.062   4.266  1.00 20.00     0.015 C 
ENDROOT
BRANCH   6   9
HETATM    9  C3  UNL     1     -34.169   8.163   4.305  1.00 20.00     0.236 C 
HETATM   10  O10 UNL     1     -33.952   8.535   5.454  1.00 20.00    -0.306 OA
ENDBRANCH   6   9
TORSDOF 1
ENDMDL
MODEL 7
REMARK VINA RESULT:       1.0      0.954      2.341
REMARK  1 active torsions:
REMARK  status: ('A' for Active; 'I' for Inactive)
REMARK    1  A    between atoms: C3_3  and  C7_7 
ROOT
HETATM    1  C1  UNL     1     -33.785   6.626   3.454  1.00 20.00    -0.019 C 
HETATM    2  C2  UNL     1     -33.632   5.297   3.317  1.00 20.00    -0.087 C 
HETATM    3  C4  UNL     1     -32.833   4.698   2.190  1.00 20.00     0.034 C 
HETATM    4  C5  UNL     1     -32.558   5.686   1.057  1.00 20.00     0.016 C 
HETATM    5  C6  UNL     1     -33.152   7.652   2.544  1.00 20.00     0.015 C 
HETATM    6  C7  UNL     1     -32.095   7.037   1.603  1.00 20.00     0.054 C 
HETATM    7  C8  UNL     1     -34.252   4.325   4.277  1.00 20.00     0.043 C 
HETATM    8  C9  UNL     1     -32.536   8.778   3.383  1.00 20.00     0.015 C 
ENDROOT
BRANCH   6   9
HETATM    9  C3  UNL     1     -31.830   7.960   0.450  1.00 20.00     0.236 C 
HETATM   10  O10 UNL     1     -32.147   9.145   0.448  1.00 20.00    -0.306 OA
ENDBRANCH   6   9
TORSDOF 1
ENDMDL
MODEL 8
REMARK VINA RESULT:       1.0      1.695      2.862
REMARK  1 active torsions:
REMARK  status: ('A' for Active; 'I' for Inactive)
REMARK    1  A    between atoms: C3_3  and  C7_7 
ROOT
HETATM    1  C1  UNL     1     -33.066   8.050   2.914  1.00 20.00    -0.019 C 
HETATM    2  C2  UNL     1     -33.730   7.474   3.931  1.00 20.00    -0.087 C 
HETATM    3  C4  UNL     1     -34.069   6.006   3.933  1.00 20.00     0.034 C 
HETATM    4  C5  UNL     1     -33.936   5.358   2.555  1.00 20.00     0.016 C 
HETATM    5  C6  UNL     1     -32.556   7.307   1.702  1.00 20.00     0.015 C 
HETATM    6  C7  UNL     1     -32.633   5.774   1.872  1.00 20.00     0.054 C 
HETATM    7  C8  UNL     1     -34.178   8.256   5.130  1.00 20.00     0.043 C 
HETATM    8  C9  UNL     1     -31.118   7.742   1.395  1.00 20.00     0.015 C 
ENDROOT
BRANCH   6   9
HETATM    9  C3  UNL     1     -32.551   5.102   0.534  1.00 20.00     0.236 C 
HETATM   10  O10 UNL     1     -31.597   4.417   0.179  1.00 20.00    -0.306 OA
ENDBRANCH   6   9
TORSDOF 1
ENDMDL
