MODEL 1
REMARK VINA RESULT:      -0.5      0.000      0.000
REMARK  1 active torsions:
REMARK  status: ('A' for Active; 'I' for Inactive)
REMARK    1  A    between atoms: C2_2  and  C5_5 
ROOT
HETATM    1  C3  UNL     1     -32.135   5.804   1.547  1.00 20.00     0.039 C 
HETATM    2  C4  UNL     1     -31.620   7.044   0.856  1.00 20.00     0.040 C 
HETATM    3  C5  UNL     1     -33.493   6.269   2.047  1.00 20.00     0.151 C 
HETATM    4  C6  UNL     1     -32.143   8.166   1.752  1.00 20.00     0.054 C 
HETATM    5  C9  UNL     1     -32.453   9.432   0.959  1.00 20.00     0.045 C 
HETATM    6  C10 UNL     1     -31.179   8.484   2.898  1.00 20.00     0.045 C 
HETATM    7  O11 UNL     1     -33.368   7.674   2.332  1.00 20.00    -0.371 OA
ENDROOT
BRANCH   3   8
HETATM    8  C2  UNL     1     -33.960   5.556   3.266  1.00 20.00    -0.059 C 
HETATM    9  C1  UNL     1     -33.465   4.350   3.601  1.00 20.00    -0.026 C 
HETATM   10  C7  UNL     1     -33.821   3.520   4.768  1.00 20.00     0.036 C 
HETATM   11  C8  UNL     1     -35.005   6.281   4.066  1.00 20.00     0.046 C 
ENDBRANCH   3   8
TORSDOF 1
ENDMDL
MODEL 2
REMARK VINA RESULT:       1.0      1.464      2.120
REMARK  1 active torsions:
REMARK  status: ('A' for Active; 'I' for Inactive)
REMARK    1  A    between atoms: C2_2  and  C5_5 
ROOT
HETATM    1  C3  UNL     1     -31.378   8.063   2.449  1.00 20.00     0.039 C 
HETATM    2  C4  UNL     1     -31.028   8.782   1.167  1.00 20.00     0.040 C 
HETATM    3  C5  UNL     1     -32.692   7.394   2.081  1.00 20.00     0.151 C 
HETATM    4  C6  UNL     1     -32.395   9.236   0.657  1.00 20.00     0.054 C 
HETATM    5  C9  UNL     1     -32.452   9.269  -0.868  1.00 20.00     0.045 C 
HETATM    6  C10 UNL     1     -32.801  10.595   1.230  1.00 20.00     0.045 C 
HETATM    7  O11 UNL     1     -33.342   8.258   1.132  1.00 20.00    -0.371 OA
ENDROOT
BRANCH   3   8
HETATM    8  C2  UNL     1     -33.595   7.165   3.241  1.00 20.00    -0.059 C 
HETATM    9  C1  UNL     1     -34.410   6.094   3.289  1.00 20.00    -0.026 C 
HETATM   10  C7  UNL     1     -35.356   5.728   4.360  1.00 20.00     0.036 C 
HETATM   11  C8  UNL     1     -33.518   8.205   4.322  1.00 20.00     0.046 C 
ENDBRANCH   3   8
TORSDOF 1
ENDMDL
MODEL 3
REMARK VINA RESULT:       1.5      1.272      4.673
REMARK  1 active torsions:
REMARK  status: ('A' for Active; 'I' for Inactive)
REMARK    1  A    between atoms: C2_2  and  C5_5 
ROOT
HETATM    1  C3  UNL     1     -32.686   8.156   3.995  1.00 20.00     0.039 C 
HETATM    2  C4  UNL     1     -33.685   7.337   4.777  1.00 20.00     0.040 C 
HETATM    3  C5  UNL     1     -33.393   8.315   2.659  1.00 20.00     0.151 C 
HETATM    4  C6  UNL     1     -34.258   6.404   3.711  1.00 20.00     0.054 C 
HETATM    5  C9  UNL     1     -35.718   6.055   3.983  1.00 20.00     0.045 C 
HETATM    6  C10 UNL     1     -33.429   5.126   3.559  1.00 20.00     0.045 C 
HETATM    7  O11 UNL     1     -34.181   7.128   2.465  1.00 20.00    -0.371 OA
ENDROOT
BRANCH   3   8
HETATM    8  C2  UNL     1     -32.468   8.489   1.507  1.00 20.00    -0.059 C 
HETATM    9  C1  UNL     1     -32.599   9.526   0.658  1.00 20.00    -0.026 C 
HETATM   10  C7  UNL     1     -31.770   9.837  -0.522  1.00 20.00     0.036 C 
HETATM   11  C8  UNL     1     -31.407   7.433   1.379  1.00 20.00     0.046 C 
ENDBRANCH   3   8
TORSDOF 1
ENDMDL
MODEL 4
REMARK VINA RESULT:       1.5      1.473      4.623
REMARK  1 active torsions:
REMARK  status: ('A' for Active; 'I' for Inactive)
REMARK    1  A    between atoms: C2_2  and  C5_5 
ROOT
HETATM    1  C3  UNL     1     -32.725   6.410   1.746  1.00 20.00     0.039 C 
HETATM    2  C4  UNL     1     -33.295   6.059   3.100  1.00 20.00     0.040 C 
HETATM    3  C5  UNL     1     -32.051   7.743   2.029  1.00 20.00     0.151 C 
HETATM    4  C6  UNL     1     -33.723   7.422   3.645  1.00 20.00     0.054 C 
HETATM    5  C9  UNL     1     -33.595   7.495   5.163  1.00 20.00     0.045 C 
HETATM    6  C10 UNL     1     -35.145   7.792   3.216  1.00 20.00     0.045 C 
HETATM    7  O11 UNL     1     -32.823   8.385   3.059  1.00 20.00    -0.371 OA
ENDROOT
BRANCH   3   8
HETATM    8  C2  UNL     1     -31.967   8.637   0.843  1.00 20.00    -0.059 C 
HETATM    9  C1  UNL     1     -32.760   9.719   0.729  1.00 20.00    -0.026 C 
HETATM   10  C7  UNL     1     -32.798  10.698  -0.376  1.00 20.00     0.036 C 
HETATM   11  C8  UNL     1     -30.949   8.235  -0.186  1.00 20.00     0.046 C 
ENDBRANCH   3   8
TORSDOF 1
ENDMDL
MODEL 5
REMARK VINA RESULT:       1.6      0.984      4.442
REMARK  1 active torsions:
REMARK  status: ('A' for Active; 'I' for Inactive)
REMARK    1  A    between atoms: C2_2  and  C5_5 
ROOT
HETATM    1  C3  UNL     1     -33.243   6.131   1.122  1.00 20.00     0.039 C 
HETATM    2  C4  UNL     1     -33.865   5.007   1.917  1.00 20.00     0.040 C 
HETATM    3  C5  UNL     1     -32.344   6.784   2.160  1.00 20.00     0.151 C 
HETATM    4  C6  UNL     1     -34.047   5.637   3.298  1.00 20.00     0.054 C 
HETATM    5  C9  UNL     1     -33.908   4.609   4.416  1.00 20.00     0.045 C 
HETATM    6  C10 UNL     1     -35.381   6.376   3.422  1.00 20.00     0.045 C 
HETATM    7  O11 UNL     1     -32.991   6.611   3.433  1.00 20.00    -0.371 OA
ENDROOT
BRANCH   3   8
HETATM    8  C2  UNL     1     -32.104   8.233   1.920  1.00 20.00    -0.059 C 
HETATM    9  C1  UNL     1     -32.493   8.822   0.774  1.00 20.00    -0.026 C 
HETATM   10  C7  UNL     1     -32.329  10.237   0.386  1.00 20.00     0.036 C 
HETATM   11  C8  UNL     1     -31.408   8.956   3.038  1.00 20.00     0.046 C 
ENDBRANCH   3   8
TORSDOF 1
ENDMDL
MODEL 6
REMARK VINA RESULT:       1.8      1.529      4.693
REMARK  1 active torsions:
REMARK  status: ('A' for Active; 'I' for Inactive)
REMARK    1  A    between atoms: C2_2  and  C5_5 
ROOT
HETATM    1  C3  UNL     1     -35.009   5.563   4.387  1.00 20.00     0.039 C 
HETATM    2  C4  UNL     1     -34.991   4.116   4.817  1.00 20.00     0.040 C 
HETATM    3  C5  UNL     1     -34.079   5.541   3.184  1.00 20.00     0.151 C 
HETATM    4  C6  UNL     1     -33.545   3.705   4.545  1.00 20.00     0.054 C 
HETATM    5  C9  UNL     1     -33.433   2.236   4.148  1.00 20.00     0.045 C 
HETATM    6  C10 UNL     1     -32.629   4.001   5.736  1.00 20.00     0.045 C 
HETATM    7  O11 UNL     1     -33.102   4.517   3.438  1.00 20.00    -0.371 OA
ENDROOT
BRANCH   3   8
HETATM    8  C2  UNL     1     -33.388   6.835   2.936  1.00 20.00    -0.059 C 
HETATM    9  C1  UNL     1     -32.571   6.997   1.878  1.00 20.00    -0.026 C 
HETATM   10  C7  UNL     1     -31.818   8.207   1.496  1.00 20.00     0.036 C 
HETATM   11  C8  UNL     1     -33.674   7.913   3.943  1.00 20.00     0.046 C 
ENDBRANCH   3   8
TORSDOF 1
ENDMDL
MODEL 7
REMARK VINA RESULT:       1.9      1.411      2.422
REMARK  1 active torsions:
REMARK  status: ('A' for Active; 'I' for Inactive)
REMARK    1  A    between atoms: C2_2  and  C5_5 
ROOT
HETATM    1  C3  UNL     1     -31.178   7.988   1.908  1.00 20.00     0.039 C 
HETATM    2  C4  UNL     1     -30.958   9.061   0.868  1.00 20.00     0.040 C 
HETATM    3  C5  UNL     1     -32.383   7.252   1.344  1.00 20.00     0.151 C 
HETATM    4  C6  UNL     1     -32.385   9.426   0.459  1.00 20.00     0.054 C 
HETATM    5  C9  UNL     1     -32.468   9.849  -1.004  1.00 20.00     0.045 C 
HETATM    6  C10 UNL     1     -32.981  10.511   1.358  1.00 20.00     0.045 C 
HETATM    7  O11 UNL     1     -33.169   8.228   0.638  1.00 20.00    -0.371 OA
ENDROOT
BRANCH   3   8
HETATM    8  C2  UNL     1     -33.225   6.595   2.381  1.00 20.00    -0.059 C 
HETATM    9  C1  UNL     1     -33.934   7.321   3.265  1.00 20.00    -0.026 C 
HETATM   10  C7  UNL     1     -34.810   6.825   4.345  1.00 20.00     0.036 C 
HETATM   11  C8  UNL     1     -33.211   5.093   2.353  1.00 20.00     0.046 C 
ENDBRANCH   3   8
TORSDOF 1
ENDMDL
MODEL 8
REMARK VINA RESULT:       2.3      1.430      2.058
REMARK  1 active torsions:
REMARK  status: ('A' for Active; 'I' for Inactive)
REMARK    1  A    between atoms: C2_2  and  C5_5 
ROOT
HETATM    1  C3  UNL     1     -32.783   5.931   2.109  1.00 20.00     0.039 C 
HETATM    2  C4  UNL     1     -32.012   6.485   0.935  1.00 20.00     0.040 C 
HETATM    3  C5  UNL     1     -33.775   7.050   2.384  1.00 20.00     0.151 C 
HETATM    4  C6  UNL     1     -31.935   7.976   1.260  1.00 20.00     0.054 C 
HETATM    5  C9  UNL     1     -31.934   8.835  -0.001  1.00 20.00     0.045 C 
HETATM    6  C10 UNL     1     -30.722   8.313   2.130  1.00 20.00     0.045 C 
HETATM    7  O11 UNL     1     -33.121   8.279   2.023  1.00 20.00    -0.371 OA
ENDROOT
BRANCH   3   8
HETATM    8  C2  UNL     1     -34.219   7.123   3.802  1.00 20.00    -0.059 C 
HETATM    9  C1  UNL     1     -33.685   8.019   4.654  1.00 20.00    -0.026 C 
HETATM   10  C7  UNL     1     -34.015   8.217   6.079  1.00 20.00     0.036 C 
HETATM   11  C8  UNL     1     -35.285   6.137   4.187  1.00 20.00     0.046 C 
ENDBRANCH   3   8
TORSDOF 1
ENDMDL
MODEL 9
REMARK VINA RESULT:       2.4      1.411      3.992
REMARK  1 active torsions:
REMARK  status: ('A' for Active; 'I' for Inactive)
REMARK    1  A    between atoms: C2_2  and  C5_5 
ROOT
HETATM    1  C3  UNL     1     -32.963   7.589   3.795  1.00 20.00     0.039 C 
HETATM    2  C4  UNL     1     -34.296   7.458   4.492  1.00 20.00     0.040 C 
HETATM    3  C5  UNL     1     -33.333   7.269   2.356  1.00 20.00     0.151 C 
HETATM    4  C6  UNL     1     -34.946   6.291   3.751  1.00 20.00     0.054 C 
HETATM    5  C9  UNL     1     -36.464   6.432   3.683  1.00 20.00     0.045 C 
HETATM    6  C10 UNL     1     -34.569   4.939   4.362  1.00 20.00     0.045 C 
HETATM    7  O11 UNL     1     -34.420   6.328   2.409  1.00 20.00    -0.371 OA
ENDROOT
BRANCH   3   8
HETATM    8  C2  UNL     1     -32.215   6.690   1.563  1.00 20.00    -0.059 C 
HETATM    9  C1  UNL     1     -32.200   5.386   1.229  1.00 20.00    -0.026 C 
HETATM   10  C7  UNL     1     -31.172   4.665   0.454  1.00 20.00     0.036 C 
HETATM   11  C8  UNL     1     -31.137   7.664   1.179  1.00 20.00     0.046 C 
ENDBRANCH   3   8
TORSDOF 1
ENDMDL
