MODEL 1
REMARK VINA RESULT:      -1.2      0.000      0.000
REMARK  2 active torsions:
REMARK  status: ('A' for Active; 'I' for Inactive)
REMARK    1  A    between atoms: C1_1  and  S6_6 
REMARK    2  A    between atoms: N4_4  and  O5_5 
ROOT
HETATM    1  C1  UNL     1     -33.010   6.642   2.279  1.00 20.00     0.093 C 
HETATM    2  C2  UNL     1     -32.660   5.648   1.200  1.00 20.00     0.081 C 
HETATM    3  N4  UNL     1     -33.981   6.503   3.124  1.00 20.00    -0.134 NA
ENDROOT
BRANCH   1   4
HETATM    4  S6  UNL     1     -31.968   8.063   2.334  1.00 20.00    -0.117 SA
HETATM    5  C3  UNL     1     -32.417   8.909   0.803  1.00 20.00     0.097 C 
ENDBRANCH   1   4
BRANCH   3   6
HETATM    6  O5  UNL     1     -34.045   7.591   3.997  1.00 20.00    -0.266 OA
HETATM    7  H13 UNL     1     -34.021   7.150   4.863  1.00 20.00     0.247 HD
ENDBRANCH   3   6
TORSDOF 2
ENDMDL
MODEL 2
REMARK VINA RESULT:      -1.2      2.270      2.600
REMARK  2 active torsions:
REMARK  status: ('A' for Active; 'I' for Inactive)
REMARK    1  A    between atoms: C1_1  and  S6_6 
REMARK    2  A    between atoms: N4_4  and  O5_5 
ROOT
HETATM    1  C1  UNL     1     -33.949   6.195   3.492  1.00 20.00     0.093 C 
HETATM    2  C2  UNL     1     -34.274   7.628   3.833  1.00 20.00     0.081 C 
HETATM    3  N4  UNL     1     -34.349   5.166   4.170  1.00 20.00    -0.134 NA
ENDROOT
BRANCH   1   4
HETATM    4  S6  UNL     1     -32.959   5.989   2.049  1.00 20.00    -0.117 SA
HETATM    5  C3  UNL     1     -32.184   7.614   1.898  1.00 20.00     0.097 C 
ENDBRANCH   1   4
BRANCH   3   6
HETATM    6  O5  UNL     1     -33.883   3.979   3.600  1.00 20.00    -0.266 OA
HETATM    7  H13 UNL     1     -33.273   4.313   2.921  1.00 20.00     0.247 HD
ENDBRANCH   3   6
TORSDOF 2
ENDMDL
MODEL 3
REMARK VINA RESULT:      -1.1      2.481      2.915
REMARK  2 active torsions:
REMARK  status: ('A' for Active; 'I' for Inactive)
REMARK    1  A    between atoms: C1_1  and  S6_6 
REMARK    2  A    between atoms: N4_4  and  O5_5 
ROOT
HETATM    1  C1  UNL     1     -34.367   6.443   3.762  1.00 20.00     0.093 C 
HETATM    2  C2  UNL     1     -33.820   7.821   3.484  1.00 20.00     0.081 C 
HETATM    3  N4  UNL     1     -35.440   6.198   4.446  1.00 20.00    -0.134 NA
ENDROOT
BRANCH   1   4
HETATM    4  S6  UNL     1     -33.428   5.126   3.063  1.00 20.00    -0.117 SA
HETATM    5  C3  UNL     1     -32.739   5.906   1.587  1.00 20.00     0.097 C 
ENDBRANCH   1   4
BRANCH   3   6
HETATM    6  O5  UNL     1     -35.682   4.825   4.524  1.00 20.00    -0.266 OA
HETATM    7  H13 UNL     1     -34.781   4.472   4.621  1.00 20.00     0.247 HD
ENDBRANCH   3   6
TORSDOF 2
ENDMDL
MODEL 4
REMARK VINA RESULT:      -1.0      1.938      2.232
REMARK  2 active torsions:
REMARK  status: ('A' for Active; 'I' for Inactive)
REMARK    1  A    between atoms: C1_1  and  S6_6 
REMARK    2  A    between atoms: N4_4  and  O5_5 
ROOT
HETATM    1  C1  UNL     1     -33.056   6.944   2.551  1.00 20.00     0.093 C 
HETATM    2  C2  UNL     1     -33.984   7.547   3.577  1.00 20.00     0.081 C 
HETATM    3  N4  UNL     1     -33.184   5.757   2.047  1.00 20.00    -0.134 NA
ENDROOT
BRANCH   1   4
HETATM    4  S6  UNL     1     -31.736   7.996   2.047  1.00 20.00    -0.117 SA
HETATM    5  C3  UNL     1     -32.556   9.071   0.851  1.00 20.00     0.097 C 
ENDBRANCH   1   4
BRANCH   3   6
HETATM    6  O5  UNL     1     -32.169   5.493   1.125  1.00 20.00    -0.266 OA
HETATM    7  H13 UNL     1     -32.062   4.532   1.222  1.00 20.00     0.247 HD
ENDBRANCH   3   6
TORSDOF 2
ENDMDL
MODEL 5
REMARK VINA RESULT:      -1.0      1.975      2.529
REMARK  2 active torsions:
REMARK  status: ('A' for Active; 'I' for Inactive)
REMARK    1  A    between atoms: C1_1  and  S6_6 
REMARK    2  A    between atoms: N4_4  and  O5_5 
ROOT
HETATM    1  C1  UNL     1     -33.810   7.357   3.869  1.00 20.00     0.093 C 
HETATM    2  C2  UNL     1     -35.049   6.518   3.678  1.00 20.00     0.081 C 
HETATM    3  N4  UNL     1     -33.468   7.926   4.980  1.00 20.00    -0.134 NA
ENDROOT
BRANCH   1   4
HETATM    4  S6  UNL     1     -32.804   7.518   2.431  1.00 20.00    -0.117 SA
HETATM    5  C3  UNL     1     -32.883   5.853   1.736  1.00 20.00     0.097 C 
ENDBRANCH   1   4
BRANCH   3   6
HETATM    6  O5  UNL     1     -32.271   8.630   4.835  1.00 20.00    -0.266 OA
HETATM    7  H13 UNL     1     -32.353   8.972   3.929  1.00 20.00     0.247 HD
ENDBRANCH   3   6
TORSDOF 2
ENDMDL
MODEL 6
REMARK VINA RESULT:      -0.9      2.696      2.916
REMARK  2 active torsions:
REMARK  status: ('A' for Active; 'I' for Inactive)
REMARK    1  A    between atoms: C1_1  and  S6_6 
REMARK    2  A    between atoms: N4_4  and  O5_5 
ROOT
HETATM    1  C1  UNL     1     -33.758   5.425   3.082  1.00 20.00     0.093 C 
HETATM    2  C2  UNL     1     -32.980   6.006   1.928  1.00 20.00     0.081 C 
HETATM    3  N4  UNL     1     -33.618   4.219   3.534  1.00 20.00    -0.134 NA
ENDROOT
BRANCH   1   4
HETATM    4  S6  UNL     1     -34.911   6.532   3.822  1.00 20.00    -0.117 SA
HETATM    5  C3  UNL     1     -33.846   7.910   4.300  1.00 20.00     0.097 C 
ENDBRANCH   1   4
BRANCH   3   6
HETATM    6  O5  UNL     1     -34.479   3.983   4.608  1.00 20.00    -0.266 OA
HETATM    7  H13 UNL     1     -34.393   4.809   5.113  1.00 20.00     0.247 HD
ENDBRANCH   3   6
TORSDOF 2
ENDMDL
MODEL 7
REMARK VINA RESULT:      -0.9      2.362      3.170
REMARK  2 active torsions:
REMARK  status: ('A' for Active; 'I' for Inactive)
REMARK    1  A    between atoms: C1_1  and  S6_6 
REMARK    2  A    between atoms: N4_4  and  O5_5 
ROOT
HETATM    1  C1  UNL     1     -33.650   6.398   3.056  1.00 20.00     0.093 C 
HETATM    2  C2  UNL     1     -33.079   5.735   1.827  1.00 20.00     0.081 C 
HETATM    3  N4  UNL     1     -33.371   7.602   3.442  1.00 20.00    -0.134 NA
ENDROOT
BRANCH   1   4
HETATM    4  S6  UNL     1     -34.777   5.399   3.972  1.00 20.00    -0.117 SA
HETATM    5  C3  UNL     1     -33.828   3.879   4.193  1.00 20.00     0.097 C 
ENDBRANCH   1   4
BRANCH   3   6
HETATM    6  O5  UNL     1     -34.059   7.924   4.614  1.00 20.00    -0.266 OA
HETATM    7  H13 UNL     1     -34.441   7.064   4.860  1.00 20.00     0.247 HD
ENDBRANCH   3   6
TORSDOF 2
ENDMDL
MODEL 8
REMARK VINA RESULT:      -0.8      2.223      2.762
REMARK  2 active torsions:
REMARK  status: ('A' for Active; 'I' for Inactive)
REMARK    1  A    between atoms: C1_1  and  S6_6 
REMARK    2  A    between atoms: N4_4  and  O5_5 
ROOT
HETATM    1  C1  UNL     1     -32.859   6.909   2.188  1.00 20.00     0.093 C 
HETATM    2  C2  UNL     1     -33.175   5.472   1.854  1.00 20.00     0.081 C 
HETATM    3  N4  UNL     1     -32.074   7.672   1.497  1.00 20.00    -0.134 NA
ENDROOT
BRANCH   1   4
HETATM    4  S6  UNL     1     -33.663   7.521   3.632  1.00 20.00    -0.117 SA
HETATM    5  C3  UNL     1     -34.998   6.323   3.847  1.00 20.00     0.097 C 
ENDBRANCH   1   4
BRANCH   3   6
HETATM    6  O5  UNL     1     -31.987   8.946   2.063  1.00 20.00    -0.266 OA
HETATM    7  H13 UNL     1     -32.188   9.513   1.300  1.00 20.00     0.247 HD
ENDBRANCH   3   6
TORSDOF 2
ENDMDL
MODEL 9
REMARK VINA RESULT:      -0.8      2.592      3.383
REMARK  2 active torsions:
REMARK  status: ('A' for Active; 'I' for Inactive)
REMARK    1  A    between atoms: C1_1  and  S6_6 
REMARK    2  A    between atoms: N4_4  and  O5_5 
ROOT
HETATM    1  C1  UNL     1     -33.238   7.259   2.980  1.00 20.00     0.093 C 
HETATM    2  C2  UNL     1     -34.238   7.480   4.086  1.00 20.00     0.081 C 
HETATM    3  N4  UNL     1     -32.406   8.152   2.546  1.00 20.00    -0.134 NA
ENDROOT
BRANCH   1   4
HETATM    4  S6  UNL     1     -33.258   5.639   2.285  1.00 20.00    -0.117 SA
HETATM    5  C3  UNL     1     -33.960   4.667   3.636  1.00 20.00     0.097 C 
ENDBRANCH   1   4
BRANCH   3   6
HETATM    6  O5  UNL     1     -31.612   7.640   1.517  1.00 20.00    -0.266 OA
HETATM    7  H13 UNL     1     -31.123   6.938   1.978  1.00 20.00     0.247 HD
ENDBRANCH   3   6
TORSDOF 2
ENDMDL
