MODEL 1
REMARK VINA RESULT:      -2.4      0.000      0.000
REMARK  1 active torsions:
REMARK  status: ('A' for Active; 'I' for Inactive)
REMARK    1  A    between atoms: C1_1  and  C3_3 
ROOT
HETATM    1  C1  UNL     1     -35.162   5.238   4.274  1.00 20.00     0.037 C 
HETATM    2  C2  UNL     1     -35.085   6.558   4.063  1.00 20.00    -0.028 C 
HETATM    3  C4  UNL     1     -33.863   7.234   3.533  1.00 20.00     0.036 C 
ENDROOT
BRANCH   1   4
HETATM    4  C3  UNL     1     -33.993   4.391   3.971  1.00 20.00     0.258 C 
HETATM    5  O5  UNL     1     -33.850   3.282   4.471  1.00 20.00    -0.302 OA
ENDBRANCH   1   4
TORSDOF 1
ENDMDL
MODEL 2
REMARK VINA RESULT:      -2.3      3.366      4.024
REMARK  1 active torsions:
REMARK  status: ('A' for Active; 'I' for Inactive)
REMARK    1  A    between atoms: C1_1  and  C3_3 
ROOT
HETATM    1  C1  UNL     1     -32.768   6.593   1.903  1.00 20.00     0.037 C 
HETATM    2  C2  UNL     1     -33.720   6.371   2.818  1.00 20.00    -0.028 C 
HETATM    3  C4  UNL     1     -34.088   7.359   3.876  1.00 20.00     0.036 C 
ENDROOT
BRANCH   1   4
HETATM    4  C3  UNL     1     -32.036   7.874   1.923  1.00 20.00     0.258 C 
HETATM    5  O5  UNL     1     -32.213   8.735   1.069  1.00 20.00    -0.302 OA
ENDBRANCH   1   4
TORSDOF 1
ENDMDL
MODEL 3
REMARK VINA RESULT:      -2.3      2.209      2.848
REMARK  1 active torsions:
REMARK  status: ('A' for Active; 'I' for Inactive)
REMARK    1  A    between atoms: C1_1  and  C3_3 
ROOT
HETATM    1  C1  UNL     1     -33.124   7.264   2.864  1.00 20.00     0.037 C 
HETATM    2  C2  UNL     1     -34.080   7.329   3.798  1.00 20.00    -0.028 C 
HETATM    3  C4  UNL     1     -35.156   6.304   3.944  1.00 20.00     0.036 C 
ENDROOT
BRANCH   1   4
HETATM    4  C3  UNL     1     -33.114   6.129   1.922  1.00 20.00     0.258 C 
HETATM    5  O5  UNL     1     -32.072   5.676   1.463  1.00 20.00    -0.302 OA
ENDBRANCH   1   4
TORSDOF 1
ENDMDL
MODEL 4
REMARK VINA RESULT:      -2.2      2.347      2.953
REMARK  1 active torsions:
REMARK  status: ('A' for Active; 'I' for Inactive)
REMARK    1  A    between atoms: C1_1  and  C3_3 
ROOT
HETATM    1  C1  UNL     1     -33.449   5.963   2.480  1.00 20.00     0.037 C 
HETATM    2  C2  UNL     1     -32.496   6.514   1.719  1.00 20.00    -0.028 C 
HETATM    3  C4  UNL     1     -32.084   7.946   1.829  1.00 20.00     0.036 C 
ENDROOT
BRANCH   1   4
HETATM    4  C3  UNL     1     -34.137   6.794   3.486  1.00 20.00     0.258 C 
HETATM    5  O5  UNL     1     -35.201   6.453   3.989  1.00 20.00    -0.302 OA
ENDBRANCH   1   4
TORSDOF 1
ENDMDL
MODEL 5
REMARK VINA RESULT:      -2.2      1.538      2.125
REMARK  1 active torsions:
REMARK  status: ('A' for Active; 'I' for Inactive)
REMARK    1  A    between atoms: C1_1  and  C3_3 
ROOT
HETATM    1  C1  UNL     1     -34.346   7.196   4.054  1.00 20.00     0.037 C 
HETATM    2  C2  UNL     1     -33.318   7.290   3.203  1.00 20.00    -0.028 C 
HETATM    3  C4  UNL     1     -33.117   6.358   2.052  1.00 20.00     0.036 C 
ENDROOT
BRANCH   1   4
HETATM    4  C3  UNL     1     -35.344   6.127   3.863  1.00 20.00     0.258 C 
HETATM    5  O5  UNL     1     -35.290   5.071   4.483  1.00 20.00    -0.302 OA
ENDBRANCH   1   4
TORSDOF 1
ENDMDL
MODEL 6
REMARK VINA RESULT:      -2.0      2.226      2.885
REMARK  1 active torsions:
REMARK  status: ('A' for Active; 'I' for Inactive)
REMARK    1  A    between atoms: C1_1  and  C3_3 
ROOT
HETATM    1  C1  UNL     1     -33.529   7.311   3.172  1.00 20.00     0.037 C 
HETATM    2  C2  UNL     1     -32.725   7.118   2.119  1.00 20.00    -0.028 C 
HETATM    3  C4  UNL     1     -32.596   5.808   1.414  1.00 20.00     0.036 C 
ENDROOT
BRANCH   1   4
HETATM    4  C3  UNL     1     -34.338   6.185   3.676  1.00 20.00     0.258 C 
HETATM    5  O5  UNL     1     -35.514   6.321   3.990  1.00 20.00    -0.302 OA
ENDBRANCH   1   4
TORSDOF 1
ENDMDL
MODEL 7
REMARK VINA RESULT:      -2.0      2.067      2.870
REMARK  1 active torsions:
REMARK  status: ('A' for Active; 'I' for Inactive)
REMARK    1  A    between atoms: C1_1  and  C3_3 
ROOT
HETATM    1  C1  UNL     1     -35.184   6.181   4.051  1.00 20.00     0.037 C 
HETATM    2  C2  UNL     1     -35.120   4.911   4.468  1.00 20.00    -0.028 C 
HETATM    3  C4  UNL     1     -33.945   4.023   4.218  1.00 20.00     0.036 C 
ENDROOT
BRANCH   1   4
HETATM    4  C3  UNL     1     -34.046   6.752   3.306  1.00 20.00     0.258 C 
HETATM    5  O5  UNL     1     -33.432   7.731   3.713  1.00 20.00    -0.302 OA
ENDBRANCH   1   4
TORSDOF 1
ENDMDL
MODEL 8
REMARK VINA RESULT:      -1.7      4.710      5.771
REMARK  1 active torsions:
REMARK  status: ('A' for Active; 'I' for Inactive)
REMARK    1  A    between atoms: C1_1  and  C3_3 
ROOT
HETATM    1  C1  UNL     1     -31.631   8.494   0.783  1.00 20.00     0.037 C 
HETATM    2  C2  UNL     1     -31.897   7.638   1.777  1.00 20.00    -0.028 C 
HETATM    3  C4  UNL     1     -33.051   7.799   2.711  1.00 20.00     0.036 C 
ENDROOT
BRANCH   1   4
HETATM    4  C3  UNL     1     -32.511   9.660   0.582  1.00 20.00     0.258 C 
HETATM    5  O5  UNL     1     -32.850  10.031  -0.535  1.00 20.00    -0.302 OA
ENDBRANCH   1   4
TORSDOF 1
ENDMDL
MODEL 9
REMARK VINA RESULT:      -1.7      3.879      4.600
REMARK  1 active torsions:
REMARK  status: ('A' for Active; 'I' for Inactive)
REMARK    1  A    between atoms: C1_1  and  C3_3 
ROOT
HETATM    1  C1  UNL     1     -32.898   7.537   2.471  1.00 20.00     0.037 C 
HETATM    2  C2  UNL     1     -33.143   6.237   2.269  1.00 20.00    -0.028 C 
HETATM    3  C4  UNL     1     -32.467   5.430   1.209  1.00 20.00     0.036 C 
ENDROOT
BRANCH   1   4
HETATM    4  C3  UNL     1     -31.914   8.226   1.615  1.00 20.00     0.258 C 
HETATM    5  O5  UNL     1     -32.239   9.124   0.847  1.00 20.00    -0.302 OA
ENDBRANCH   1   4
TORSDOF 1
ENDMDL
