MODEL 1
REMARK VINA RESULT:       2.6      0.000      0.000
REMARK  1 active torsions:
REMARK  status: ('A' for Active; 'I' for Inactive)
REMARK    1  A    between atoms: C2_2  and  C3_3 
ROOT
HETATM    1  C1  UNL     1     -33.408   5.657   2.903  1.00 20.00    -0.061 C 
HETATM    2  C2  UNL     1     -33.408   4.358   3.221  1.00 20.00     0.088 C 
HETATM    3  C4  UNL     1     -32.809   7.597   4.309  1.00 20.00     0.009 C 
HETATM    4  C5  UNL     1     -32.322   8.361   3.063  1.00 20.00     0.006 C 
HETATM    5  C6  UNL     1     -34.550   7.690   2.689  1.00 20.00     0.014 C 
HETATM    6  C7  UNL     1     -33.983   6.766   3.764  1.00 20.00     0.016 C 
HETATM    7  C8  UNL     1     -33.214   7.793   1.936  1.00 20.00    -0.002 C 
HETATM    8  C9  UNL     1     -32.885   6.296   1.621  1.00 20.00    -0.020 C 
HETATM    9  C10 UNL     1     -33.661   5.812   0.381  1.00 20.00     0.020 C 
HETATM   10  C11 UNL     1     -31.391   6.034   1.393  1.00 20.00     0.020 C 
ENDROOT
BRANCH   2  11
HETATM   11  C3  UNL     1     -34.011   3.844   4.535  1.00 20.00     0.198 C 
HETATM   12  O12 UNL     1     -33.273   3.021   5.152  1.00 20.00    -0.644 OA
HETATM   13  O13 UNL     1     -35.150   4.285   4.853  1.00 20.00    -0.644 OA
ENDBRANCH   2  11
TORSDOF 1
ENDMDL
MODEL 2
REMARK VINA RESULT:       2.9      1.257      2.807
REMARK  1 active torsions:
REMARK  status: ('A' for Active; 'I' for Inactive)
REMARK    1  A    between atoms: C2_2  and  C3_3 
ROOT
HETATM    1  C1  UNL     1     -33.657   5.374   3.532  1.00 20.00    -0.061 C 
HETATM    2  C2  UNL     1     -33.988   4.500   4.488  1.00 20.00     0.088 C 
HETATM    3  C4  UNL     1     -33.302   4.975   1.121  1.00 20.00     0.009 C 
HETATM    4  C5  UNL     1     -33.791   6.401   0.803  1.00 20.00     0.006 C 
HETATM    5  C6  UNL     1     -32.019   6.559   2.349  1.00 20.00     0.014 C 
HETATM    6  C7  UNL     1     -32.593   5.149   2.474  1.00 20.00     0.016 C 
HETATM    7  C8  UNL     1     -33.389   7.196   2.066  1.00 20.00    -0.002 C 
HETATM    8  C9  UNL     1     -34.225   6.774   3.320  1.00 20.00    -0.020 C 
HETATM    9  C10 UNL     1     -33.930   7.700   4.515  1.00 20.00     0.020 C 
HETATM   10  C11 UNL     1     -35.739   6.768   3.070  1.00 20.00     0.020 C 
ENDROOT
BRANCH   2  11
HETATM   11  C3  UNL     1     -33.299   3.135   4.613  1.00 20.00     0.198 C 
HETATM   12  O12 UNL     1     -32.336   3.120   5.435  1.00 20.00    -0.644 OA
HETATM   13  O13 UNL     1     -33.752   2.197   3.901  1.00 20.00    -0.644 OA
ENDBRANCH   2  11
TORSDOF 1
ENDMDL
MODEL 3
REMARK VINA RESULT:       3.2      1.251      1.398
REMARK  1 active torsions:
REMARK  status: ('A' for Active; 'I' for Inactive)
REMARK    1  A    between atoms: C2_2  and  C3_3 
ROOT
HETATM    1  C1  UNL     1     -33.436   5.180   3.306  1.00 20.00    -0.061 C 
HETATM    2  C2  UNL     1     -32.783   4.027   3.489  1.00 20.00     0.088 C 
HETATM    3  C4  UNL     1     -33.895   6.978   4.935  1.00 20.00     0.009 C 
HETATM    4  C5  UNL     1     -33.856   8.024   3.805  1.00 20.00     0.006 C 
HETATM    5  C6  UNL     1     -35.445   6.381   3.230  1.00 20.00     0.014 C 
HETATM    6  C7  UNL     1     -34.491   5.743   4.238  1.00 20.00     0.016 C 
HETATM    7  C8  UNL     1     -34.340   7.225   2.573  1.00 20.00    -0.002 C 
HETATM    8  C9  UNL     1     -33.303   6.140   2.129  1.00 20.00    -0.020 C 
HETATM    9  C10 UNL     1     -33.729   5.485   0.802  1.00 20.00     0.020 C 
HETATM   10  C11 UNL     1     -31.879   6.688   1.967  1.00 20.00     0.020 C 
ENDROOT
BRANCH   2  11
HETATM   11  C3  UNL     1     -33.049   3.130   4.705  1.00 20.00     0.198 C 
HETATM   12  O12 UNL     1     -33.771   2.121   4.451  1.00 20.00    -0.644 OA
HETATM   13  O13 UNL     1     -32.534   3.483   5.802  1.00 20.00    -0.644 OA
ENDBRANCH   2  11
TORSDOF 1
ENDMDL
MODEL 4
REMARK VINA RESULT:       3.3      1.398      1.790
REMARK  1 active torsions:
REMARK  status: ('A' for Active; 'I' for Inactive)
REMARK    1  A    between atoms: C2_2  and  C3_3 
ROOT
HETATM    1  C1  UNL     1     -33.345   6.274   2.466  1.00 20.00    -0.061 C 
HETATM    2  C2  UNL     1     -34.085   5.407   3.166  1.00 20.00     0.088 C 
HETATM    3  C4  UNL     1     -31.959   8.145   3.287  1.00 20.00     0.009 C 
HETATM    4  C5  UNL     1     -30.995   7.965   2.098  1.00 20.00     0.006 C 
HETATM    5  C6  UNL     1     -33.171   8.263   1.242  1.00 20.00     0.014 C 
HETATM    6  C7  UNL     1     -33.323   7.776   2.681  1.00 20.00     0.016 C 
HETATM    7  C8  UNL     1     -31.915   7.414   0.985  1.00 20.00    -0.002 C 
HETATM    8  C9  UNL     1     -32.416   5.964   1.297  1.00 20.00    -0.020 C 
HETATM    9  C10 UNL     1     -33.180   5.377   0.096  1.00 20.00     0.020 C 
HETATM   10  C11 UNL     1     -31.287   4.997   1.677  1.00 20.00     0.020 C 
ENDROOT
BRANCH   2  11
HETATM   11  C3  UNL     1     -35.018   5.865   4.295  1.00 20.00     0.198 C 
HETATM   12  O12 UNL     1     -35.703   4.930   4.806  1.00 20.00    -0.644 OA
HETATM   13  O13 UNL     1     -35.005   7.093   4.588  1.00 20.00    -0.644 OA
ENDBRANCH   2  11
TORSDOF 1
ENDMDL
MODEL 5
REMARK VINA RESULT:       3.6      3.322      4.567
REMARK  1 active torsions:
REMARK  status: ('A' for Active; 'I' for Inactive)
REMARK    1  A    between atoms: C2_2  and  C3_3 
ROOT
HETATM    1  C1  UNL     1     -32.848   7.589   1.587  1.00 20.00    -0.061 C 
HETATM    2  C2  UNL     1     -32.530   8.231   0.458  1.00 20.00     0.088 C 
HETATM    3  C4  UNL     1     -34.783   7.944   3.080  1.00 20.00     0.009 C 
HETATM    4  C5  UNL     1     -34.772   6.452   3.465  1.00 20.00     0.006 C 
HETATM    5  C6  UNL     1     -32.634   7.340   3.906  1.00 20.00     0.014 C 
HETATM    6  C7  UNL     1     -33.291   8.256   2.875  1.00 20.00     0.016 C 
HETATM    7  C8  UNL     1     -33.280   6.069   3.331  1.00 20.00    -0.002 C 
HETATM    8  C9  UNL     1     -32.797   6.086   1.842  1.00 20.00    -0.020 C 
HETATM    9  C10 UNL     1     -31.365   5.532   1.723  1.00 20.00     0.020 C 
HETATM   10  C11 UNL     1     -33.708   5.292   0.896  1.00 20.00     0.020 C 
ENDROOT
BRANCH   2  11
HETATM   11  C3  UNL     1     -32.584   9.761   0.353  1.00 20.00     0.198 C 
HETATM   12  O12 UNL     1     -33.071  10.184  -0.737  1.00 20.00    -0.644 OA
HETATM   13  O13 UNL     1     -32.147  10.419   1.337  1.00 20.00    -0.644 OA
ENDBRANCH   2  11
TORSDOF 1
ENDMDL
MODEL 6
REMARK VINA RESULT:       3.8      3.295      4.805
REMARK  1 active torsions:
REMARK  status: ('A' for Active; 'I' for Inactive)
REMARK    1  A    between atoms: C2_2  and  C3_3 
ROOT
HETATM    1  C1  UNL     1     -33.006   7.702   2.002  1.00 20.00    -0.061 C 
HETATM    2  C2  UNL     1     -32.672   8.961   1.696  1.00 20.00     0.088 C 
HETATM    3  C4  UNL     1     -31.706   5.629   1.674  1.00 20.00     0.009 C 
HETATM    4  C5  UNL     1     -32.371   5.004   2.915  1.00 20.00     0.006 C 
HETATM    5  C6  UNL     1     -34.074   5.695   1.439  1.00 20.00     0.014 C 
HETATM    6  C7  UNL     1     -32.826   6.505   1.088  1.00 20.00     0.016 C 
HETATM    7  C8  UNL     1     -33.760   5.682   2.944  1.00 20.00    -0.002 C 
HETATM    8  C9  UNL     1     -33.666   7.207   3.284  1.00 20.00    -0.020 C 
HETATM    9  C10 UNL     1     -35.069   7.813   3.480  1.00 20.00     0.020 C 
HETATM   10  C11 UNL     1     -32.828   7.502   4.535  1.00 20.00     0.020 C 
ENDROOT
BRANCH   2  11
HETATM   11  C3  UNL     1     -32.052   9.328   0.341  1.00 20.00     0.198 C 
HETATM   12  O12 UNL     1     -32.805  10.031  -0.395  1.00 20.00    -0.644 OA
HETATM   13  O13 UNL     1     -30.887   8.901   0.109  1.00 20.00    -0.644 OA
ENDBRANCH   2  11
TORSDOF 1
ENDMDL
MODEL 7
REMARK VINA RESULT:       4.3      1.107      2.914
REMARK  1 active torsions:
REMARK  status: ('A' for Active; 'I' for Inactive)
REMARK    1  A    between atoms: C2_2  and  C3_3 
ROOT
HETATM    1  C1  UNL     1     -33.389   6.704   3.004  1.00 20.00    -0.061 C 
HETATM    2  C2  UNL     1     -34.177   6.369   4.032  1.00 20.00     0.088 C 
HETATM    3  C4  UNL     1     -33.590   6.071   0.626  1.00 20.00     0.009 C 
HETATM    4  C5  UNL     1     -32.942   7.404   0.206  1.00 20.00     0.006 C 
HETATM    5  C6  UNL     1     -31.481   6.316   1.702  1.00 20.00     0.014 C 
HETATM    6  C7  UNL     1     -32.876   5.744   1.948  1.00 20.00     0.016 C 
HETATM    7  C8  UNL     1     -32.009   7.727   1.395  1.00 20.00    -0.002 C 
HETATM    8  C9  UNL     1     -32.809   8.080   2.694  1.00 20.00    -0.020 C 
HETATM    9  C10 UNL     1     -31.861   8.568   3.806  1.00 20.00     0.020 C 
HETATM   10  C11 UNL     1     -33.891   9.145   2.473  1.00 20.00     0.020 C 
ENDROOT
BRANCH   2  11
HETATM   11  C3  UNL     1     -34.654   4.927   4.250  1.00 20.00     0.198 C 
HETATM   12  O12 UNL     1     -35.848   4.839   4.662  1.00 20.00    -0.644 OA
HETATM   13  O13 UNL     1     -33.828   4.006   4.004  1.00 20.00    -0.644 OA
ENDBRANCH   2  11
TORSDOF 1
ENDMDL
MODEL 8
REMARK VINA RESULT:       4.4      1.482      3.240
REMARK  1 active torsions:
REMARK  status: ('A' for Active; 'I' for Inactive)
REMARK    1  A    between atoms: C2_2  and  C3_3 
ROOT
HETATM    1  C1  UNL     1     -33.371   7.215   2.713  1.00 20.00    -0.061 C 
HETATM    2  C2  UNL     1     -34.341   7.325   3.627  1.00 20.00     0.088 C 
HETATM    3  C4  UNL     1     -33.500   6.320   0.416  1.00 20.00     0.009 C 
HETATM    4  C5  UNL     1     -32.381   7.280  -0.031  1.00 20.00     0.006 C 
HETATM    5  C6  UNL     1     -31.581   6.019   1.792  1.00 20.00     0.014 C 
HETATM    6  C7  UNL     1     -33.106   5.986   1.864  1.00 20.00     0.016 C 
HETATM    7  C8  UNL     1     -31.541   7.459   1.254  1.00 20.00    -0.002 C 
HETATM    8  C9  UNL     1     -32.313   8.255   2.358  1.00 20.00    -0.020 C 
HETATM    9  C10 UNL     1     -31.393   8.570   3.553  1.00 20.00     0.020 C 
HETATM   10  C11 UNL     1     -32.920   9.570   1.850  1.00 20.00     0.020 C 
ENDROOT
BRANCH   2  11
HETATM   11  C3  UNL     1     -35.316   6.176   3.917  1.00 20.00     0.198 C 
HETATM   12  O12 UNL     1     -36.476   6.355   3.442  1.00 20.00    -0.644 OA
HETATM   13  O13 UNL     1     -34.870   5.199   4.581  1.00 20.00    -0.644 OA
ENDBRANCH   2  11
TORSDOF 1
ENDMDL
MODEL 9
REMARK VINA RESULT:       5.0      2.460      3.689
REMARK  1 active torsions:
REMARK  status: ('A' for Active; 'I' for Inactive)
REMARK    1  A    between atoms: C2_2  and  C3_3 
ROOT
HETATM    1  C1  UNL     1     -32.749   6.899   2.081  1.00 20.00    -0.061 C 
HETATM    2  C2  UNL     1     -33.098   5.625   1.869  1.00 20.00     0.088 C 
HETATM    3  C4  UNL     1     -32.354   8.694   0.433  1.00 20.00     0.009 C 
HETATM    4  C5  UNL     1     -32.836   9.746   1.449  1.00 20.00     0.006 C 
HETATM    5  C6  UNL     1     -31.091   8.513   2.442  1.00 20.00     0.014 C 
HETATM    6  C7  UNL     1     -31.668   7.646   1.325  1.00 20.00     0.016 C 
HETATM    7  C8  UNL     1     -32.456   9.118   2.809  1.00 20.00    -0.002 C 
HETATM    8  C9  UNL     1     -33.314   7.848   3.132  1.00 20.00    -0.020 C 
HETATM    9  C10 UNL     1     -33.039   7.351   4.564  1.00 20.00     0.020 C 
HETATM   10  C11 UNL     1     -34.823   8.076   2.977  1.00 20.00     0.020 C 
ENDROOT
BRANCH   2  11
HETATM   11  C3  UNL     1     -32.411   4.765   0.800  1.00 20.00     0.198 C 
HETATM   12  O12 UNL     1     -33.194   4.347  -0.104  1.00 20.00    -0.644 OA
HETATM   13  O13 UNL     1     -31.171   4.568   0.931  1.00 20.00    -0.644 OA
ENDBRANCH   2  11
TORSDOF 1
ENDMDL
