MODEL 1
REMARK VINA RESULT:       0.0      0.000      0.000
REMARK  2 active torsions:
REMARK  status: ('A' for Active; 'I' for Inactive)
REMARK    1  A    between atoms: C1_1  and  C10_10 
REMARK    2  A    between atoms: C8_8  and  C10_10 
ROOT
HETATM    1  C2  UNL     1     -31.776   8.463   0.237  1.00 20.00     0.005 C 
HETATM    2  C3  UNL     1     -32.602   9.494   1.021  1.00 20.00     0.005 C 
HETATM    3  C4  UNL     1     -31.189   8.345   2.541  1.00 20.00     0.009 C 
HETATM    4  C5  UNL     1     -32.611   6.621   1.723  1.00 20.00     0.010 C 
HETATM    5  C6  UNL     1     -31.374   7.446   1.320  1.00 20.00    -0.014 C 
HETATM    6  C7  UNL     1     -32.605   8.919   2.450  1.00 20.00    -0.010 C 
HETATM    7  C8  UNL     1     -33.491   7.651   2.461  1.00 20.00    -0.003 C 
ENDROOT
BRANCH   7   8
HETATM    8  C10 UNL     1     -33.855   7.195   3.870  1.00 20.00     0.082 C 
BRANCH   8   9
HETATM    9  C1  UNL     1     -34.961   6.160   3.876  1.00 20.00     0.123 C 
HETATM   10  C9  UNL     1     -34.564   4.776   4.319  1.00 20.00     0.091 C 
HETATM   11  O11 UNL     1     -36.117   6.412   3.543  1.00 20.00    -0.298 OA
ENDBRANCH   8   9
ENDBRANCH   7   8
TORSDOF 2
ENDMDL
MODEL 2
REMARK VINA RESULT:       0.5      2.189      4.236
REMARK  2 active torsions:
REMARK  status: ('A' for Active; 'I' for Inactive)
REMARK    1  A    between atoms: C1_1  and  C10_10 
REMARK    2  A    between atoms: C8_8  and  C10_10 
ROOT
HETATM    1  C2  UNL     1     -33.466   5.824   3.238  1.00 20.00     0.005 C 
HETATM    2  C3  UNL     1     -33.871   7.305   3.288  1.00 20.00     0.005 C 
HETATM    3  C4  UNL     1     -33.832   6.609   1.020  1.00 20.00     0.009 C 
HETATM    4  C5  UNL     1     -31.563   6.365   1.695  1.00 20.00     0.010 C 
HETATM    5  C6  UNL     1     -32.928   5.661   1.806  1.00 20.00    -0.014 C 
HETATM    6  C7  UNL     1     -33.476   7.818   1.889  1.00 20.00    -0.010 C 
HETATM    7  C8  UNL     1     -31.932   7.860   1.806  1.00 20.00    -0.003 C 
ENDROOT
BRANCH   7   8
HETATM    8  C10 UNL     1     -31.426   8.669   0.617  1.00 20.00     0.082 C 
BRANCH   8   9
HETATM    9  C1  UNL     1     -32.421   9.720   0.167  1.00 20.00     0.123 C 
HETATM   10  C9  UNL     1     -32.619  10.882   1.105  1.00 20.00     0.091 C 
HETATM   11  O11 UNL     1     -33.040   9.647  -0.893  1.00 20.00    -0.298 OA
ENDBRANCH   8   9
ENDBRANCH   7   8
TORSDOF 2
ENDMDL
MODEL 3
REMARK VINA RESULT:       0.5      1.238      2.189
REMARK  2 active torsions:
REMARK  status: ('A' for Active; 'I' for Inactive)
REMARK    1  A    between atoms: C1_1  and  C10_10 
REMARK    2  A    between atoms: C8_8  and  C10_10 
ROOT
HETATM    1  C2  UNL     1     -31.101   7.350   1.455  1.00 20.00     0.005 C 
HETATM    2  C3  UNL     1     -31.573   5.888   1.436  1.00 20.00     0.005 C 
HETATM    3  C4  UNL     1     -33.419   7.284   0.915  1.00 20.00     0.009 C 
HETATM    4  C5  UNL     1     -32.869   7.929   3.138  1.00 20.00     0.010 C 
HETATM    5  C6  UNL     1     -32.406   8.131   1.683  1.00 20.00    -0.014 C 
HETATM    6  C7  UNL     1     -33.086   6.011   1.696  1.00 20.00    -0.010 C 
HETATM    7  C8  UNL     1     -33.292   6.445   3.167  1.00 20.00    -0.003 C 
ENDROOT
BRANCH   7   8
HETATM    8  C10 UNL     1     -34.729   6.263   3.642  1.00 20.00     0.082 C 
BRANCH   8   9
HETATM    9  C1  UNL     1     -34.933   4.953   4.376  1.00 20.00     0.123 C 
HETATM   10  C9  UNL     1     -33.837   3.932   4.216  1.00 20.00     0.091 C 
HETATM   11  O11 UNL     1     -35.925   4.716   5.063  1.00 20.00    -0.298 OA
ENDBRANCH   8   9
ENDBRANCH   7   8
TORSDOF 2
ENDMDL
MODEL 4
REMARK VINA RESULT:       0.8      1.175      1.368
REMARK  2 active torsions:
REMARK  status: ('A' for Active; 'I' for Inactive)
REMARK    1  A    between atoms: C1_1  and  C10_10 
REMARK    2  A    between atoms: C8_8  and  C10_10 
ROOT
HETATM    1  C2  UNL     1     -32.348   9.045   0.706  1.00 20.00     0.005 C 
HETATM    2  C3  UNL     1     -33.242   9.218   1.944  1.00 20.00     0.005 C 
HETATM    3  C4  UNL     1     -31.285   8.039   2.584  1.00 20.00     0.009 C 
HETATM    4  C5  UNL     1     -32.320   6.558   1.036  1.00 20.00     0.010 C 
HETATM    5  C6  UNL     1     -31.467   7.840   1.081  1.00 20.00    -0.014 C 
HETATM    6  C7  UNL     1     -32.790   8.063   2.859  1.00 20.00    -0.010 C 
HETATM    7  C8  UNL     1     -33.275   6.732   2.236  1.00 20.00    -0.003 C 
ENDROOT
BRANCH   7   8
HETATM    8  C10 UNL     1     -33.199   5.562   3.209  1.00 20.00     0.082 C 
BRANCH   8   9
HETATM    9  C1  UNL     1     -34.514   5.317   3.923  1.00 20.00     0.123 C 
HETATM   10  C9  UNL     1     -35.485   6.469   3.923  1.00 20.00     0.091 C 
HETATM   11  O11 UNL     1     -34.790   4.255   4.476  1.00 20.00    -0.298 OA
ENDBRANCH   8   9
ENDBRANCH   7   8
TORSDOF 2
ENDMDL
MODEL 5
REMARK VINA RESULT:       0.8      0.927      1.873
REMARK  2 active torsions:
REMARK  status: ('A' for Active; 'I' for Inactive)
REMARK    1  A    between atoms: C1_1  and  C10_10 
REMARK    2  A    between atoms: C8_8  and  C10_10 
ROOT
HETATM    1  C2  UNL     1     -31.031   7.158   1.252  1.00 20.00     0.005 C 
HETATM    2  C3  UNL     1     -31.926   5.927   1.462  1.00 20.00     0.005 C 
HETATM    3  C4  UNL     1     -33.314   7.820   1.115  1.00 20.00     0.009 C 
HETATM    4  C5  UNL     1     -32.178   8.351   3.137  1.00 20.00     0.010 C 
HETATM    5  C6  UNL     1     -31.962   8.328   1.612  1.00 20.00    -0.014 C 
HETATM    6  C7  UNL     1     -33.248   6.543   1.957  1.00 20.00    -0.010 C 
HETATM    7  C8  UNL     1     -33.025   7.087   3.389  1.00 20.00    -0.003 C 
ENDROOT
BRANCH   7   8
HETATM    8  C10 UNL     1     -34.330   7.399   4.113  1.00 20.00     0.082 C 
BRANCH   8   9
HETATM    9  C1  UNL     1     -35.376   6.322   3.910  1.00 20.00     0.123 C 
HETATM   10  C9  UNL     1     -35.058   4.976   4.507  1.00 20.00     0.091 C 
HETATM   11  O11 UNL     1     -36.426   6.513   3.299  1.00 20.00    -0.298 OA
ENDBRANCH   8   9
ENDBRANCH   7   8
TORSDOF 2
ENDMDL
MODEL 6
REMARK VINA RESULT:       0.8      0.827      1.173
REMARK  2 active torsions:
REMARK  status: ('A' for Active; 'I' for Inactive)
REMARK    1  A    between atoms: C1_1  and  C10_10 
REMARK    2  A    between atoms: C8_8  and  C10_10 
ROOT
HETATM    1  C2  UNL     1     -31.639   8.770   0.189  1.00 20.00     0.005 C 
HETATM    2  C3  UNL     1     -32.849   9.256   1.002  1.00 20.00     0.005 C 
HETATM    3  C4  UNL     1     -31.304   8.232   2.484  1.00 20.00     0.009 C 
HETATM    4  C5  UNL     1     -31.952   6.439   1.061  1.00 20.00     0.010 C 
HETATM    5  C6  UNL     1     -31.036   7.676   1.087  1.00 20.00    -0.014 C 
HETATM    6  C7  UNL     1     -32.812   8.351   2.248  1.00 20.00    -0.010 C 
HETATM    7  C8  UNL     1     -33.208   6.918   1.820  1.00 20.00    -0.003 C 
ENDROOT
BRANCH   7   8
HETATM    8  C10 UNL     1     -33.546   6.019   3.003  1.00 20.00     0.082 C 
BRANCH   8   9
HETATM    9  C1  UNL     1     -34.588   6.634   3.916  1.00 20.00     0.123 C 
HETATM   10  C9  UNL     1     -34.114   7.770   4.784  1.00 20.00     0.091 C 
HETATM   11  O11 UNL     1     -35.753   6.244   3.963  1.00 20.00    -0.298 OA
ENDBRANCH   8   9
ENDBRANCH   7   8
TORSDOF 2
ENDMDL
MODEL 7
REMARK VINA RESULT:       0.9      2.144      4.467
REMARK  2 active torsions:
REMARK  status: ('A' for Active; 'I' for Inactive)
REMARK    1  A    between atoms: C1_1  and  C10_10 
REMARK    2  A    between atoms: C8_8  and  C10_10 
ROOT
HETATM    1  C2  UNL     1     -34.996   6.484   3.893  1.00 20.00     0.005 C 
HETATM    2  C3  UNL     1     -33.963   5.658   3.111  1.00 20.00     0.005 C 
HETATM    3  C4  UNL     1     -32.825   7.389   4.268  1.00 20.00     0.009 C 
HETATM    4  C5  UNL     1     -34.222   8.582   2.755  1.00 20.00     0.010 C 
HETATM    5  C6  UNL     1     -34.278   7.829   4.098  1.00 20.00    -0.014 C 
HETATM    6  C7  UNL     1     -32.796   6.647   2.929  1.00 20.00    -0.010 C 
HETATM    7  C8  UNL     1     -33.236   7.737   1.922  1.00 20.00    -0.003 C 
ENDROOT
BRANCH   7   8
HETATM    8  C10 UNL     1     -32.067   8.563   1.397  1.00 20.00     0.082 C 
BRANCH   8   9
HETATM    9  C1  UNL     1     -32.495   9.566   0.344  1.00 20.00     0.123 C 
HETATM   10  C9  UNL     1     -32.553  11.003   0.790  1.00 20.00     0.091 C 
HETATM   11  O11 UNL     1     -32.783   9.247  -0.808  1.00 20.00    -0.298 OA
ENDBRANCH   8   9
ENDBRANCH   7   8
TORSDOF 2
ENDMDL
MODEL 8
REMARK VINA RESULT:       1.0      0.991      1.022
REMARK  2 active torsions:
REMARK  status: ('A' for Active; 'I' for Inactive)
REMARK    1  A    between atoms: C1_1  and  C10_10 
REMARK    2  A    between atoms: C8_8  and  C10_10 
ROOT
HETATM    1  C2  UNL     1     -31.765   9.023   0.207  1.00 20.00     0.005 C 
HETATM    2  C3  UNL     1     -32.876   9.455   1.176  1.00 20.00     0.005 C 
HETATM    3  C4  UNL     1     -31.203   8.307   2.406  1.00 20.00     0.009 C 
HETATM    4  C5  UNL     1     -32.024   6.634   0.927  1.00 20.00     0.010 C 
HETATM    5  C6  UNL     1     -31.090   7.858   0.951  1.00 20.00    -0.014 C 
HETATM    6  C7  UNL     1     -32.725   8.456   2.340  1.00 20.00    -0.010 C 
HETATM    7  C8  UNL     1     -33.186   7.063   1.847  1.00 20.00    -0.003 C 
ENDROOT
BRANCH   7   8
HETATM    8  C10 UNL     1     -33.414   6.078   2.988  1.00 20.00     0.082 C 
BRANCH   8   9
HETATM    9  C1  UNL     1     -34.499   6.539   3.941  1.00 20.00     0.123 C 
HETATM   10  C9  UNL     1     -35.499   5.490   4.354  1.00 20.00     0.091 C 
HETATM   11  O11 UNL     1     -34.578   7.691   4.361  1.00 20.00    -0.298 OA
ENDBRANCH   8   9
ENDBRANCH   7   8
TORSDOF 2
ENDMDL
MODEL 9
REMARK VINA RESULT:       1.1      1.796      4.374
REMARK  2 active torsions:
REMARK  status: ('A' for Active; 'I' for Inactive)
REMARK    1  A    between atoms: C1_1  and  C10_10 
REMARK    2  A    between atoms: C8_8  and  C10_10 
ROOT
HETATM    1  C2  UNL     1     -35.503   5.833   4.220  1.00 20.00     0.005 C 
HETATM    2  C3  UNL     1     -34.475   4.721   3.959  1.00 20.00     0.005 C 
HETATM    3  C4  UNL     1     -33.309   6.720   4.481  1.00 20.00     0.009 C 
HETATM    4  C5  UNL     1     -34.438   7.269   2.460  1.00 20.00     0.010 C 
HETATM    5  C6  UNL     1     -34.693   7.117   3.971  1.00 20.00    -0.014 C 
HETATM    6  C7  UNL     1     -33.213   5.506   3.554  1.00 20.00    -0.010 C 
HETATM    7  C8  UNL     1     -33.453   6.122   2.155  1.00 20.00    -0.003 C 
ENDROOT
BRANCH   7   8
HETATM    8  C10 UNL     1     -32.170   6.621   1.500  1.00 20.00     0.082 C 
BRANCH   8   9
HETATM    9  C1  UNL     1     -31.934   8.098   1.741  1.00 20.00     0.123 C 
HETATM   10  C9  UNL     1     -32.260   9.012   0.589  1.00 20.00     0.091 C 
HETATM   11  O11 UNL     1     -31.504   8.544   2.803  1.00 20.00    -0.298 OA
ENDBRANCH   8   9
ENDBRANCH   7   8
TORSDOF 2
ENDMDL
