MODEL 1
REMARK VINA RESULT:      -1.5      0.000      0.000
REMARK  3 active torsions:
REMARK  status: ('A' for Active; 'I' for Inactive)
REMARK    1  A    between atoms: C3_3  and  C8_8 
REMARK    2  A    between atoms: C4_4  and  C10_10 
REMARK    3  A    between atoms: C10_10  and  O11_11 
ROOT
HETATM    1  C1  UNL     1     -34.899   5.222   4.173  1.00 20.00    -0.031 C 
HETATM    2  C2  UNL     1     -35.064   6.551   4.183  1.00 20.00    -0.030 C 
HETATM    3  C5  UNL     1     -33.818   4.535   3.390  1.00 20.00     0.027 C 
HETATM    4  C6  UNL     1     -34.164   7.497   3.440  1.00 20.00     0.035 C 
HETATM    5  C7  UNL     1     -33.150   5.450   2.361  1.00 20.00     0.012 C 
HETATM    6  C8  UNL     1     -32.877   6.830   2.951  1.00 20.00     0.011 C 
ENDROOT
BRANCH   6   7
HETATM    7  C3  UNL     1     -32.288   7.697   1.855  1.00 20.00    -0.023 C 
HETATM    8  C4  UNL     1     -32.705   8.941   1.582  1.00 20.00     0.000 C 
BRANCH   8   9
HETATM    9  C10 UNL     1     -32.119   9.796   0.498  1.00 20.00     0.136 C 
HETATM   10  C9  UNL     1     -32.679   9.415  -0.868  1.00 20.00     0.043 C 
BRANCH   9  11
HETATM   11  O11 UNL     1     -32.451  11.152   0.778  1.00 20.00    -0.392 OA
HETATM   12  H27 UNL     1     -32.415  11.626  -0.069  1.00 20.00     0.210 HD
ENDBRANCH   9  11
ENDBRANCH   8   9
ENDBRANCH   6   7
TORSDOF 3
ENDMDL
MODEL 2
REMARK VINA RESULT:      -0.7      0.825      1.716
REMARK  3 active torsions:
REMARK  status: ('A' for Active; 'I' for Inactive)
REMARK    1  A    between atoms: C3_3  and  C8_8 
REMARK    2  A    between atoms: C4_4  and  C10_10 
REMARK    3  A    between atoms: C10_10  and  O11_11 
ROOT
HETATM    1  C1  UNL     1     -34.880   4.721   4.449  1.00 20.00    -0.031 C 
HETATM    2  C2  UNL     1     -33.804   4.237   3.813  1.00 20.00    -0.030 C 
HETATM    3  C5  UNL     1     -35.346   6.141   4.310  1.00 20.00     0.027 C 
HETATM    4  C6  UNL     1     -32.972   5.054   2.866  1.00 20.00     0.035 C 
HETATM    5  C7  UNL     1     -34.304   7.051   3.655  1.00 20.00     0.012 C 
HETATM    6  C8  UNL     1     -33.651   6.363   2.459  1.00 20.00     0.011 C 
ENDROOT
BRANCH   6   7
HETATM    7  C3  UNL     1     -32.584   7.293   1.914  1.00 20.00    -0.023 C 
HETATM    8  C4  UNL     1     -32.848   8.458   1.305  1.00 20.00     0.000 C 
BRANCH   8   9
HETATM    9  C10 UNL     1     -31.789   9.374   0.768  1.00 20.00     0.136 C 
HETATM   10  C9  UNL     1     -31.043   8.733  -0.396  1.00 20.00     0.043 C 
BRANCH   9  11
HETATM   11  O11 UNL     1     -32.426  10.566   0.315  1.00 20.00    -0.392 OA
HETATM   12  H27 UNL     1     -32.708  11.047   1.109  1.00 20.00     0.210 HD
ENDBRANCH   9  11
ENDBRANCH   8   9
ENDBRANCH   6   7
TORSDOF 3
ENDMDL
MODEL 3
REMARK VINA RESULT:       0.3      3.255      5.615
REMARK  3 active torsions:
REMARK  status: ('A' for Active; 'I' for Inactive)
REMARK    1  A    between atoms: C3_3  and  C8_8 
REMARK    2  A    between atoms: C4_4  and  C10_10 
REMARK    3  A    between atoms: C10_10  and  O11_11 
ROOT
HETATM    1  C1  UNL     1     -32.168   8.161   1.515  1.00 20.00    -0.031 C 
HETATM    2  C2  UNL     1     -32.641   8.432   2.739  1.00 20.00    -0.030 C 
HETATM    3  C5  UNL     1     -32.258   6.803   0.883  1.00 20.00     0.027 C 
HETATM    4  C6  UNL     1     -33.344   7.416   3.593  1.00 20.00     0.035 C 
HETATM    5  C7  UNL     1     -32.629   5.702   1.880  1.00 20.00     0.012 C 
HETATM    6  C8  UNL     1     -33.745   6.162   2.813  1.00 20.00     0.011 C 
ENDROOT
BRANCH   6   7
HETATM    7  C3  UNL     1     -34.002   5.052   3.813  1.00 20.00    -0.023 C 
HETATM    8  C4  UNL     1     -33.124   4.079   4.092  1.00 20.00     0.000 C 
BRANCH   8   9
HETATM    9  C10 UNL     1     -33.383   2.983   5.084  1.00 20.00     0.136 C 
HETATM   10  C9  UNL     1     -33.278   1.611   4.429  1.00 20.00     0.043 C 
BRANCH   9  11
HETATM   11  O11 UNL     1     -32.406   3.084   6.116  1.00 20.00    -0.392 OA
HETATM   12  H27 UNL     1     -31.575   3.340   5.686  1.00 20.00     0.210 HD
ENDBRANCH   9  11
ENDBRANCH   8   9
ENDBRANCH   6   7
TORSDOF 3
ENDMDL
MODEL 4
REMARK VINA RESULT:       0.6      2.403      5.293
REMARK  3 active torsions:
REMARK  status: ('A' for Active; 'I' for Inactive)
REMARK    1  A    between atoms: C3_3  and  C8_8 
REMARK    2  A    between atoms: C4_4  and  C10_10 
REMARK    3  A    between atoms: C10_10  and  O11_11 
ROOT
HETATM    1  C1  UNL     1     -31.761   9.566   0.252  1.00 20.00    -0.031 C 
HETATM    2  C2  UNL     1     -31.396   8.285   0.398  1.00 20.00    -0.030 C 
HETATM    3  C5  UNL     1     -32.783  10.233   1.125  1.00 20.00     0.027 C 
HETATM    4  C6  UNL     1     -31.944   7.391   1.473  1.00 20.00     0.035 C 
HETATM    5  C7  UNL     1     -33.596   9.240   1.960  1.00 20.00     0.012 C 
HETATM    6  C8  UNL     1     -32.697   8.163   2.559  1.00 20.00     0.011 C 
ENDROOT
BRANCH   6   7
HETATM    7  C3  UNL     1     -33.580   7.180   3.303  1.00 20.00    -0.023 C 
HETATM    8  C4  UNL     1     -33.762   5.906   2.928  1.00 20.00     0.000 C 
BRANCH   8   9
HETATM    9  C10 UNL     1     -34.635   4.937   3.669  1.00 20.00     0.136 C 
HETATM   10  C9  UNL     1     -33.802   3.949   4.475  1.00 20.00     0.043 C 
BRANCH   9  11
HETATM   11  O11 UNL     1     -35.466   5.682   4.555  1.00 20.00    -0.392 OA
HETATM   12  H27 UNL     1     -35.035   6.542   4.680  1.00 20.00     0.210 HD
ENDBRANCH   9  11
ENDBRANCH   8   9
ENDBRANCH   6   7
TORSDOF 3
ENDMDL
MODEL 5
REMARK VINA RESULT:       0.6      2.488      5.311
REMARK  3 active torsions:
REMARK  status: ('A' for Active; 'I' for Inactive)
REMARK    1  A    between atoms: C3_3  and  C8_8 
REMARK    2  A    between atoms: C4_4  and  C10_10 
REMARK    3  A    between atoms: C10_10  and  O11_11 
ROOT
HETATM    1  C1  UNL     1     -31.839   9.718  -0.307  1.00 20.00    -0.031 C 
HETATM    2  C2  UNL     1     -31.435   8.458  -0.092  1.00 20.00    -0.030 C 
HETATM    3  C5  UNL     1     -32.664  10.494   0.676  1.00 20.00     0.027 C 
HETATM    4  C6  UNL     1     -31.736   7.702   1.171  1.00 20.00     0.035 C 
HETATM    5  C7  UNL     1     -33.273   9.615   1.773  1.00 20.00     0.012 C 
HETATM    6  C8  UNL     1     -32.255   8.605   2.292  1.00 20.00     0.011 C 
ENDROOT
BRANCH   6   7
HETATM    7  C3  UNL     1     -32.950   7.727   3.314  1.00 20.00    -0.023 C 
HETATM    8  C4  UNL     1     -33.437   6.508   3.044  1.00 20.00     0.000 C 
BRANCH   8   9
HETATM    9  C10 UNL     1     -34.123   5.642   4.059  1.00 20.00     0.136 C 
HETATM   10  C9  UNL     1     -35.613   5.955   4.134  1.00 20.00     0.043 C 
BRANCH   9  11
HETATM   11  O11 UNL     1     -33.951   4.283   3.668  1.00 20.00    -0.392 OA
HETATM   12  H27 UNL     1     -33.016   4.070   3.816  1.00 20.00     0.210 HD
ENDBRANCH   9  11
ENDBRANCH   8   9
ENDBRANCH   6   7
TORSDOF 3
ENDMDL
MODEL 6
REMARK VINA RESULT:       0.7      1.062      1.339
REMARK  3 active torsions:
REMARK  status: ('A' for Active; 'I' for Inactive)
REMARK    1  A    between atoms: C3_3  and  C8_8 
REMARK    2  A    between atoms: C4_4  and  C10_10 
REMARK    3  A    between atoms: C10_10  and  O11_11 
ROOT
HETATM    1  C1  UNL     1     -33.966   4.566   3.640  1.00 20.00    -0.031 C 
HETATM    2  C2  UNL     1     -34.643   5.594   4.172  1.00 20.00    -0.030 C 
HETATM    3  C5  UNL     1     -32.938   4.732   2.560  1.00 20.00     0.027 C 
HETATM    4  C6  UNL     1     -34.419   7.023   3.769  1.00 20.00     0.035 C 
HETATM    5  C7  UNL     1     -32.979   6.114   1.901  1.00 20.00     0.012 C 
HETATM    6  C8  UNL     1     -33.142   7.213   2.947  1.00 20.00     0.011 C 
ENDROOT
BRANCH   6   7
HETATM    7  C3  UNL     1     -33.250   8.538   2.216  1.00 20.00    -0.023 C 
HETATM    8  C4  UNL     1     -32.760   8.756   0.988  1.00 20.00     0.000 C 
BRANCH   8   9
HETATM    9  C10 UNL     1     -32.871  10.068   0.269  1.00 20.00     0.136 C 
HETATM   10  C9  UNL     1     -31.773  11.030   0.705  1.00 20.00     0.043 C 
BRANCH   9  11
HETATM   11  O11 UNL     1     -32.743   9.816  -1.128  1.00 20.00    -0.392 OA
HETATM   12  H27 UNL     1     -32.153  10.501  -1.479  1.00 20.00     0.210 HD
ENDBRANCH   9  11
ENDBRANCH   8   9
ENDBRANCH   6   7
TORSDOF 3
ENDMDL
