MODEL 1
REMARK VINA RESULT:      -1.8      0.000      0.000
REMARK  1 active torsions:
REMARK  status: ('A' for Active; 'I' for Inactive)
REMARK    1  A    between atoms: C3_3  and  C6_6 
ROOT
HETATM    1  C1  UNL     1     -32.463   6.126   1.362  1.00 20.00    -0.030 C 
HETATM    2  C2  UNL     1     -31.978   7.346   1.622  1.00 20.00    -0.030 C 
HETATM    3  C4  UNL     1     -33.528   5.473   2.190  1.00 20.00     0.038 C 
HETATM    4  C5  UNL     1     -32.429   8.177   2.784  1.00 20.00     0.031 C 
HETATM    5  C6  UNL     1     -34.226   6.434   3.167  1.00 20.00     0.054 C 
HETATM    6  C7  UNL     1     -33.217   7.380   3.844  1.00 20.00    -0.004 C 
HETATM    7  C8  UNL     1     -33.891   8.352   4.817  1.00 20.00     0.011 C 
ENDROOT
BRANCH   5   8
HETATM    8  C3  UNL     1     -34.960   5.605   4.179  1.00 20.00     0.236 C 
HETATM    9  O9  UNL     1     -34.734   4.414   4.370  1.00 20.00    -0.306 OA
ENDBRANCH   5   8
TORSDOF 1
ENDMDL
MODEL 2
REMARK VINA RESULT:      -1.8      2.336      4.033
REMARK  1 active torsions:
REMARK  status: ('A' for Active; 'I' for Inactive)
REMARK    1  A    between atoms: C3_3  and  C6_6 
ROOT
HETATM    1  C1  UNL     1     -34.520   7.151   4.295  1.00 20.00    -0.030 C 
HETATM    2  C2  UNL     1     -34.711   5.853   4.032  1.00 20.00    -0.030 C 
HETATM    3  C4  UNL     1     -33.599   8.024   3.499  1.00 20.00     0.038 C 
HETATM    4  C5  UNL     1     -34.002   5.129   2.928  1.00 20.00     0.031 C 
HETATM    5  C6  UNL     1     -33.132   7.386   2.179  1.00 20.00     0.054 C 
HETATM    6  C7  UNL     1     -32.788   5.896   2.365  1.00 20.00    -0.004 C 
HETATM    7  C8  UNL     1     -32.328   5.238   1.062  1.00 20.00     0.011 C 
ENDROOT
BRANCH   5   8
HETATM    8  C3  UNL     1     -31.945   8.162   1.690  1.00 20.00     0.236 C 
HETATM    9  O9  UNL     1     -32.010   9.018   0.814  1.00 20.00    -0.306 OA
ENDBRANCH   5   8
TORSDOF 1
ENDMDL
MODEL 3
REMARK VINA RESULT:      -1.3      1.805      3.096
REMARK  1 active torsions:
REMARK  status: ('A' for Active; 'I' for Inactive)
REMARK    1  A    between atoms: C3_3  and  C6_6 
ROOT
HETATM    1  C1  UNL     1     -34.822   6.317   4.033  1.00 20.00    -0.030 C 
HETATM    2  C2  UNL     1     -34.399   7.549   4.342  1.00 20.00    -0.030 C 
HETATM    3  C4  UNL     1     -34.225   5.497   2.930  1.00 20.00     0.038 C 
HETATM    4  C5  UNL     1     -33.301   8.247   3.600  1.00 20.00     0.031 C 
HETATM    5  C6  UNL     1     -32.898   6.059   2.392  1.00 20.00     0.054 C 
HETATM    6  C7  UNL     1     -32.953   7.592   2.248  1.00 20.00    -0.004 C 
HETATM    7  C8  UNL     1     -31.639   8.175   1.721  1.00 20.00     0.011 C 
ENDROOT
BRANCH   5   8
HETATM    8  C3  UNL     1     -32.621   5.397   1.074  1.00 20.00     0.236 C 
HETATM    9  O9  UNL     1     -31.574   4.812   0.818  1.00 20.00    -0.306 OA
ENDBRANCH   5   8
TORSDOF 1
ENDMDL
MODEL 4
REMARK VINA RESULT:      -1.2      1.011      2.568
REMARK  1 active torsions:
REMARK  status: ('A' for Active; 'I' for Inactive)
REMARK    1  A    between atoms: C3_3  and  C6_6 
ROOT
HETATM    1  C1  UNL     1     -33.613   8.259   3.522  1.00 20.00    -0.030 C 
HETATM    2  C2  UNL     1     -32.713   8.437   2.547  1.00 20.00    -0.030 C 
HETATM    3  C4  UNL     1     -34.142   6.914   3.915  1.00 20.00     0.038 C 
HETATM    4  C5  UNL     1     -32.161   7.311   1.728  1.00 20.00     0.031 C 
HETATM    5  C6  UNL     1     -33.346   5.740   3.320  1.00 20.00     0.054 C 
HETATM    6  C7  UNL     1     -32.968   6.003   1.850  1.00 20.00    -0.004 C 
HETATM    7  C8  UNL     1     -32.167   4.849   1.240  1.00 20.00     0.011 C 
ENDROOT
BRANCH   5   8
HETATM    8  C3  UNL     1     -34.185   4.503   3.455  1.00 20.00     0.236 C 
HETATM    9  O9  UNL     1     -33.952   3.612   4.265  1.00 20.00    -0.306 OA
ENDBRANCH   5   8
TORSDOF 1
ENDMDL
MODEL 5
REMARK VINA RESULT:      -0.6      2.321      3.252
REMARK  1 active torsions:
REMARK  status: ('A' for Active; 'I' for Inactive)
REMARK    1  A    between atoms: C3_3  and  C6_6 
ROOT
HETATM    1  C1  UNL     1     -32.685   5.229   1.397  1.00 20.00    -0.030 C 
HETATM    2  C2  UNL     1     -33.424   4.874   2.455  1.00 20.00    -0.030 C 
HETATM    3  C4  UNL     1     -32.200   6.627   1.166  1.00 20.00     0.038 C 
HETATM    4  C5  UNL     1     -33.868   5.844   3.506  1.00 20.00     0.031 C 
HETATM    5  C6  UNL     1     -32.362   7.546   2.389  1.00 20.00     0.054 C 
HETATM    6  C7  UNL     1     -33.716   7.321   3.088  1.00 20.00    -0.004 C 
HETATM    7  C8  UNL     1     -33.896   8.221   4.314  1.00 20.00     0.011 C 
ENDROOT
BRANCH   5   8
HETATM    8  C3  UNL     1     -32.219   8.964   1.919  1.00 20.00     0.236 C 
HETATM    9  O9  UNL     1     -32.298   9.297   0.742  1.00 20.00    -0.306 OA
ENDBRANCH   5   8
TORSDOF 1
ENDMDL
MODEL 6
REMARK VINA RESULT:      -0.6      1.541      2.698
REMARK  1 active torsions:
REMARK  status: ('A' for Active; 'I' for Inactive)
REMARK    1  A    between atoms: C3_3  and  C6_6 
ROOT
HETATM    1  C1  UNL     1     -31.967   7.173   1.411  1.00 20.00    -0.030 C 
HETATM    2  C2  UNL     1     -32.505   5.965   1.199  1.00 20.00    -0.030 C 
HETATM    3  C4  UNL     1     -32.319   8.034   2.585  1.00 20.00     0.038 C 
HETATM    4  C5  UNL     1     -33.536   5.359   2.100  1.00 20.00     0.031 C 
HETATM    5  C6  UNL     1     -33.110   7.294   3.677  1.00 20.00     0.054 C 
HETATM    6  C7  UNL     1     -34.183   6.371   3.069  1.00 20.00    -0.004 C 
HETATM    7  C8  UNL     1     -34.978   5.618   4.139  1.00 20.00     0.011 C 
ENDROOT
BRANCH   5   8
HETATM    8  C3  UNL     1     -33.725   8.326   4.576  1.00 20.00     0.236 C 
HETATM    9  O9  UNL     1     -33.323   8.563   5.710  1.00 20.00    -0.306 OA
ENDBRANCH   5   8
TORSDOF 1
ENDMDL
MODEL 7
REMARK VINA RESULT:      -0.6      1.182      2.381
REMARK  1 active torsions:
REMARK  status: ('A' for Active; 'I' for Inactive)
REMARK    1  A    between atoms: C3_3  and  C6_6 
ROOT
HETATM    1  C1  UNL     1     -32.125   7.950   1.644  1.00 20.00    -0.030 C 
HETATM    2  C2  UNL     1     -31.691   6.756   1.223  1.00 20.00    -0.030 C 
HETATM    3  C4  UNL     1     -33.154   8.117   2.719  1.00 20.00     0.038 C 
HETATM    4  C5  UNL     1     -32.210   5.459   1.765  1.00 20.00     0.031 C 
HETATM    5  C6  UNL     1     -33.442   6.826   3.504  1.00 20.00     0.054 C 
HETATM    6  C7  UNL     1     -33.518   5.604   2.569  1.00 20.00    -0.004 C 
HETATM    7  C8  UNL     1     -33.796   4.305   3.331  1.00 20.00     0.011 C 
ENDROOT
BRANCH   5   8
HETATM    8  C3  UNL     1     -34.728   7.021   4.251  1.00 20.00     0.236 C 
HETATM    9  O9  UNL     1     -35.713   6.305   4.102  1.00 20.00    -0.306 OA
ENDBRANCH   5   8
TORSDOF 1
ENDMDL
MODEL 8
REMARK VINA RESULT:      -0.1      1.604      2.475
REMARK  1 active torsions:
REMARK  status: ('A' for Active; 'I' for Inactive)
REMARK    1  A    between atoms: C3_3  and  C6_6 
ROOT
HETATM    1  C1  UNL     1     -33.238   4.873   2.402  1.00 20.00    -0.030 C 
HETATM    2  C2  UNL     1     -32.476   5.259   1.370  1.00 20.00    -0.030 C 
HETATM    3  C4  UNL     1     -33.816   5.831   3.398  1.00 20.00     0.038 C 
HETATM    4  C5  UNL     1     -32.100   6.686   1.120  1.00 20.00     0.031 C 
HETATM    5  C6  UNL     1     -33.718   7.304   2.967  1.00 20.00     0.054 C 
HETATM    6  C7  UNL     1     -32.351   7.614   2.326  1.00 20.00    -0.004 C 
HETATM    7  C8  UNL     1     -32.234   9.074   1.882  1.00 20.00     0.011 C 
ENDROOT
BRANCH   5   8
HETATM    8  C3  UNL     1     -33.955   8.153   4.181  1.00 20.00     0.236 C 
HETATM    9  O9  UNL     1     -33.220   8.152   5.162  1.00 20.00    -0.306 OA
ENDBRANCH   5   8
TORSDOF 1
ENDMDL
MODEL 9
REMARK VINA RESULT:      -0.1      1.654      2.665
REMARK  1 active torsions:
REMARK  status: ('A' for Active; 'I' for Inactive)
REMARK    1  A    between atoms: C3_3  and  C6_6 
ROOT
HETATM    1  C1  UNL     1     -31.599   8.426   2.733  1.00 20.00    -0.030 C 
HETATM    2  C2  UNL     1     -32.329   8.747   3.808  1.00 20.00    -0.030 C 
HETATM    3  C4  UNL     1     -31.945   7.295   1.814  1.00 20.00     0.038 C 
HETATM    4  C5  UNL     1     -33.555   7.991   4.221  1.00 20.00     0.031 C 
HETATM    5  C6  UNL     1     -33.362   6.734   2.031  1.00 20.00     0.054 C 
HETATM    6  C7  UNL     1     -33.698   6.620   3.530  1.00 20.00    -0.004 C 
HETATM    7  C8  UNL     1     -35.107   6.070   3.770  1.00 20.00     0.011 C 
ENDROOT
BRANCH   5   8
HETATM    8  C3  UNL     1     -33.435   5.398   1.352  1.00 20.00     0.236 C 
HETATM    9  O9  UNL     1     -32.511   4.917   0.704  1.00 20.00    -0.306 OA
ENDBRANCH   5   8
TORSDOF 1
ENDMDL
